data_PCOD9461932
_publ_section_title
;
Structure prediction by ZEFSAII (Michael W. Deem and Ramdas Pophale) SiO2 
 PCOD9461932
Probable space group: P N M A
;
_chemical_formula_sum "Si O2"
_cell_formula_units_Z 64
_cell_length_a 27.104235
_cell_length_b 14.135965
_cell_length_c 7.956713
_cell_angle_alpha 90.000000
_cell_angle_beta 90.000000
_cell_angle_gamma 90.000000
_cell_volume 3048.570962
_symmetry_space_group_name_H-M "P N M A"
_symmetry_group_IT_number 62
_symmetry_cell_setting 'orthorhombic'
loop_
_space_group_symop_operation_xyz
x,y,z
1/2-x,-y,1/2+z
1/2+x,1/2-y,1/2-z
-x,1/2+y,-z
-x,-y,-z
1/2+x,y,1/2-z
1/2-x,1/2+y,1/2+z
x,1/2-y,z
loop_
_atom_site_type_symbol
_atom_site_label
_atom_site_fract_x
_atom_site_fract_y
_atom_site_fract_z
Si Si1 0.359982 0.641921 0.100450
Si Si2 0.860582 0.362829 0.355900
Si Si3 0.400470 0.971241 0.391548
Si Si4 0.677660 0.977364 0.365376
Si Si5 0.461268 0.636678 0.945525
Si Si6 0.995051 0.027172 0.772166
Si Si7 0.599306 0.857653 0.229248
Si Si8 0.282492 0.495736 0.005257
O O1 0.347507 0.750000 0.082808
O O2 0.386087 0.616994 0.274690
O O3 0.402328 0.618169 0.962965
O O4 0.311424 0.579807 0.095505
O O5 0.861169 0.250000 0.317064
O O6 0.882883 0.433592 0.213876
O O7 0.891358 0.377793 0.530485
O O8 0.805975 0.401650 0.408335
O O9 0.366796 0.963341 0.555269
O O10 0.459429 0.970384 0.400187
O O11 0.650219 0.878142 0.327862
O O12 0.724489 0.987908 0.485118
O O13 0.699103 0.003359 0.184997
O O14 0.469288 0.750000 0.942904
O O15 0.485087 0.587584 0.109735
O O16 0.484113 0.579140 0.791031
O O17 0.943640 0.078885 0.805470
O O18 0.584803 0.750000 0.244528
#
# Coordination Sequence:
#
# PCOD9461932 Si02
#       8
#     8   8   8   8   8   8   8   8
#     4   9  18  35  59  86 114 145 185 230 277 335
#     4   9  18  35  60  90 120 150 190 237 284 336
#     4  10  21  35  56  86 119 155 192 234 280 337
#     4  11  23  40  59  81 112 146 189 238 289 345
#     4   9  16  28  52  86 117 150 195 236 276 338
#     4  10  18  31  53  80 117 160 194 233 287 337
#     4  10  21  37  59  87 119 155 195 238 285 341
#     4  10  20  38  61  81 108 146 185 236 293 342
#
# _framework density 20.993442999999999
#
# number of rings (size 3 to 8) (size 9 to 14) (size 15 to 20)
#    0.000    2.250    0.000    5.625    0.000    3.500 
#    0.000    5.625    0.000    3.000    0.000    0.000 
#    0.000    0.000    0.000    0.000    0.000    0.000 
#
# Total GULP energy -356927.329335 kJ/mol
# GULP energy per Si atom -5576.989521 kJ/mol
# Density = 2.094566 g / cm^3
# Si number density = 20.993443 Si / 1000 Ang^3
#
#
#
# Elastic Constant Matrix: (Units=GPa)
#
#
# Indices 1 2 3 4 5 6 
#
# 1 147.4024 24.6904 23.4458 0.0000 0.0000 0.0000
# 2 24.6904 79.1733 -4.6822 0.0000 0.0000 0.0000
# 3 23.4458 -4.6822 41.1161 0.0000 0.0000 0.0000
# 4 0.0000 0.0000 0.0000 14.8115 0.0000 0.0000
# 5 0.0000 0.0000 0.0000 0.0000 40.0969 0.0000
# 6 0.0000 0.0000 0.0000 0.0000 0.0000 15.5985
#
#
#
# Elastic Compliance Matrix: (Units=1/GPa)
#
#
# Indices 1 2 3 4 5 6 
#
# 1 0.008031 -0.002794 -0.004898 0.000000 0.000000 0.000000
# 2 -0.002794 0.013688 0.003152 0.000000 0.000000 0.000000
# 3 -0.004898 0.003152 0.027473 0.000000 0.000000 0.000000
# 4 0.000000 0.000000 0.000000 0.067515 0.000000 0.000000
# 5 0.000000 0.000000 0.000000 0.000000 0.024940 0.000000
# 6 0.000000 0.000000 0.000000 0.000000 0.000000 0.064109
#
#
# Mechanical properties :
#
#
# Convention : Reuss Voigt Hill
#
# Bulk Modulus (GPa) = 24.92962 39.39997 32.16479
# Shear Modulus (GPa) = 21.90994 29.05059 25.48026
#
# Velocity S-wave (km/s) = 3.23407 3.72397 3.48763
# Velocity P-wave (km/s) = 5.08393 6.10730 5.61896
#
# Compressibility (1/GPa) = 0.04011292
#
# Stress axis : x y z
#
# Youngs Moduli (GPa) = 124.51373 73.05496 36.39905
#
# Poissons Ratio (x) = 0.20413 0.17828
# Poissons Ratio (y) = 0.34792 -0.11474
# Poissons Ratio (z) = 0.60985 -0.23028
#
# Static dielectric constant tensor:
#      x y z
#    x 1.808330 0.000000 0.000000 
#    y 0.000000 1.718820 0.000000 
#    z 0.000000 0.000000 1.840690 
# 
# From -- ./inp_files/9490.got.cif
#   From: 2010.05.17/outbox.cif.g08.bks.cpg/sg62_5_cif.got.tgz:9490.got - 2010.06.03 15:25:27.
