data_PCOD9461982
_publ_section_title
;
Structure prediction by ZEFSAII (Michael W. Deem and Ramdas Pophale) SiO2 
 PCOD9461982
Probable space group: P N M A
;
_chemical_formula_sum "Si O2"
_cell_formula_units_Z 48
_cell_length_a 10.180140
_cell_length_b 13.313707
_cell_length_c 22.722352
_cell_angle_alpha 90.000000
_cell_angle_beta 90.000000
_cell_angle_gamma 90.000000
_cell_volume 3079.683094
_symmetry_space_group_name_H-M "P N M A"
_symmetry_group_IT_number 62
_symmetry_cell_setting 'orthorhombic'
loop_
_space_group_symop_operation_xyz
x,y,z
1/2-x,-y,1/2+z
1/2+x,1/2-y,1/2-z
-x,1/2+y,-z
-x,-y,-z
1/2+x,y,1/2-z
1/2-x,1/2+y,1/2+z
x,1/2-y,z
loop_
_atom_site_type_symbol
_atom_site_label
_atom_site_fract_x
_atom_site_fract_y
_atom_site_fract_z
Si Si1 0.641485 0.056161 0.561221
Si Si2 0.599264 0.064373 0.920428
Si Si3 0.863219 0.132491 0.981840
Si Si4 0.210820 0.129184 0.810885
Si Si5 0.012820 0.129600 0.706804
Si Si6 0.118572 0.863061 0.511324
O O1 0.496076 0.098985 0.551032
O O2 0.686116 0.073286 0.627771
O O3 0.741286 0.116404 0.518984
O O4 0.647914 0.941432 0.538162
O O5 0.738665 0.109549 0.940332
O O6 0.567652 0.080518 0.852596
O O7 0.488678 0.118380 0.960200
O O8 0.596996 0.947975 0.939752
O O9 0.866988 0.250000 0.996513
O O10 0.202967 0.250000 0.821727
O O11 0.100599 0.102156 0.763003
O O12 0.357795 0.107574 0.787703
O O13 0.025134 0.250000 0.699436
O O14 0.108931 0.750000 0.533324
#
# Coordination Sequence:
#
# PCOD9461982 Si02
#       6
#     8   8   8   8   8   8
#     4  10  20  33  51  74 101 135 164 198 248 295
#     4  10  20  31  49  76 101 126 160 202 247 289
#     4  10  20  32  50  77 104 129 162 202 246 295
#     4  10  20  33  50  70  96 131 166 201 244 291
#     4  10  20  33  49  70  97 130 164 201 245 292
#     4  10  18  32  52  73  98 129 162 200 245 294
#
# _framework density 15.58602
#
# number of rings (size 3 to 8) (size 9 to 14) (size 15 to 20)
#    0.000    2.000    1.667    3.000    2.333    0.000 
#    0.000    0.000    0.000    1.000    0.000    0.000 
#    0.000    0.000    0.000    0.000    0.000    0.000 
#
# Total GULP energy -267809.890563 kJ/mol
# GULP energy per Si atom -5579.372720 kJ/mol
# Density = 1.555055 g / cm^3
# Si number density = 15.586020 Si / 1000 Ang^3
#
#
#
# Elastic Constant Matrix: (Units=GPa)
#
#
# Indices 1 2 3 4 5 6 
#
# 1 93.4058 24.5336 24.9203 0.0000 0.0000 0.0000
# 2 24.5336 98.3855 26.5033 0.0000 0.0000 0.0000
# 3 24.9203 26.5033 80.4814 0.0000 0.0000 0.0000
# 4 0.0000 0.0000 0.0000 13.4370 0.0000 0.0000
# 5 0.0000 0.0000 0.0000 0.0000 18.8292 0.0000
# 6 0.0000 0.0000 0.0000 0.0000 0.0000 2.4269
#
#
#
# Elastic Compliance Matrix: (Units=1/GPa)
#
#
# Indices 1 2 3 4 5 6 
#
# 1 0.012090 -0.002202 -0.003018 0.000000 0.000000 0.000000
# 2 -0.002202 0.011554 -0.003123 0.000000 0.000000 0.000000
# 3 -0.003018 -0.003123 0.014388 0.000000 0.000000 0.000000
# 4 0.000000 0.000000 0.000000 0.074421 0.000000 0.000000
# 5 0.000000 0.000000 0.000000 0.000000 0.053109 0.000000
# 6 0.000000 0.000000 0.000000 0.000000 0.000000 0.412055
#
#
# Mechanical properties :
#
#
# Convention : Reuss Voigt Hill
#
# Bulk Modulus (GPa) = 46.84759 47.13190 46.98974
# Shear Modulus (GPa) = 8.31367 20.02633 14.17000
#
# Velocity S-wave (km/s) = 2.31206 3.58843 3.01848
# Velocity P-wave (km/s) = 6.10329 6.89018 6.50864
#
# Compressibility (1/GPa) = 0.02134582
#
# Stress axis : x y z
#
# Youngs Moduli (GPa) = 82.71621 86.54675 69.50053
#
# Poissons Ratio (x) = 0.19054 0.20978
# Poissons Ratio (y) = 0.18210 0.21707
# Poissons Ratio (z) = 0.24967 0.27031
#
# Static dielectric constant tensor:
#      x y z
#    x 1.538160 0.000000 0.000000 
#    y 0.000000 1.513480 0.000000 
#    z 0.000000 0.000000 1.484990 
# 
# From -- ./inp_files/28812.got.cif
#   From: 2010.05.17/outbox.cif.g08.bks.cpg/sg62_15_cif.got.tgz:28812.got - 2010.06.03 15:25:27.
