data_PCOD9461898
_publ_section_title
;
Structure prediction by ZEFSAII (Michael W. Deem and Ramdas Pophale) SiO2 
 PCOD9461898
Probable space group: P N M A
;
_chemical_formula_sum "Si O2"
_cell_formula_units_Z 64
_cell_length_a 19.694003
_cell_length_b 8.768662
_cell_length_c 23.859316
_cell_angle_alpha 90.000000
_cell_angle_beta 90.000000
_cell_angle_gamma 90.000000
_cell_volume 4120.266610
_symmetry_space_group_name_H-M "P N M A"
_symmetry_group_IT_number 62
_symmetry_cell_setting 'orthorhombic'
loop_
_space_group_symop_operation_xyz
x,y,z
1/2-x,-y,1/2+z
1/2+x,1/2-y,1/2-z
-x,1/2+y,-z
-x,-y,-z
1/2+x,y,1/2-z
1/2-x,1/2+y,1/2+z
x,1/2-y,z
loop_
_atom_site_type_symbol
_atom_site_label
_atom_site_fract_x
_atom_site_fract_y
_atom_site_fract_z
Si Si1 0.362659 0.433325 0.063493
Si Si2 0.646327 0.432927 0.722609
Si Si3 0.358214 0.433379 0.934749
Si Si4 0.729719 0.431331 0.161087
Si Si5 0.723416 0.067722 0.838360
Si Si6 0.000685 0.933735 0.256113
Si Si7 0.348738 0.433754 0.732472
Si Si8 0.505048 0.066672 0.119058
O O1 0.361873 0.250000 0.064414
O O2 0.306221 0.492361 0.106410
O O3 0.436682 0.481561 0.086474
O O4 0.352362 0.482405 0.999451
O O5 0.652777 0.250000 0.715409
O O6 0.695204 0.514130 0.678479
O O7 0.675634 0.469127 0.784745
O O8 0.567343 0.476131 0.722702
O O9 0.358749 0.250000 0.932044
O O10 0.298219 0.496777 0.895949
O O11 0.428704 0.495338 0.909454
O O12 0.726104 0.250000 0.158538
O O13 0.681038 0.491418 0.211227
O O14 0.721813 0.250000 0.845476
O O15 0.798966 0.022270 0.818377
O O16 0.998402 0.750000 0.264210
O O17 0.072154 0.971441 0.226899
O O18 0.000141 0.010409 0.317055
O O19 0.342577 0.250000 0.739204
O O20 0.510157 0.250000 0.117767
#
# Coordination Sequence:
#
# PCOD9461898 Si02
#       8
#     8   8   8   8   8   8   8   8
#     4  10  22  35  48  68  96 131 168 206 245 284
#     4   9  18  32  50  72  96 129 164 194 239 296
#     4  11  22  36  50  65  93 134 172 204 241 291
#     4  11  21  32  48  72  96 125 161 206 251 284
#     4   9  17  30  48  71  96 125 163 199 237 285
#     4  10  18  31  52  73  98 134 166 193 235 290
#     4   9  18  32  50  72  98 128 161 197 238 292
#     4  11  21  32  46  71 101 128 166 207 241 281
#
# _framework density 15.532976
#
# number of rings (size 3 to 8) (size 9 to 14) (size 15 to 20)
#    0.000    2.000    2.500    3.000    0.000    4.000 
#    0.000    0.000    0.000    0.000    0.000    0.875 
#    0.000    0.000    0.000    0.000    0.000    0.000 
#
# Total GULP energy -357084.367967 kJ/mol
# GULP energy per Si atom -5579.443249 kJ/mol
# Density = 1.549762 g / cm^3
# Si number density = 15.532976 Si / 1000 Ang^3
#
#
#
# Elastic Constant Matrix: (Units=GPa)
#
#
# Indices 1 2 3 4 5 6 
#
# 1 136.9682 38.3407 63.6330 0.0000 0.0000 0.0000
# 2 38.3407 30.0253 29.1262 0.0000 0.0000 0.0000
# 3 63.6330 29.1262 89.5763 0.0000 0.0000 0.0000
# 4 0.0000 0.0000 0.0000 22.5316 0.0000 0.0000
# 5 0.0000 0.0000 0.0000 0.0000 18.0078 0.0000
# 6 0.0000 0.0000 0.0000 0.0000 0.0000 19.7102
#
#
#
# Elastic Compliance Matrix: (Units=1/GPa)
#
#
# Indices 1 2 3 4 5 6 
#
# 1 0.013053 -0.011209 -0.005628 0.000000 0.000000 0.000000
# 2 -0.011209 0.058275 -0.010986 0.000000 0.000000 0.000000
# 3 -0.005628 -0.010986 0.018734 0.000000 0.000000 0.000000
# 4 0.000000 0.000000 0.000000 0.044382 0.000000 0.000000
# 5 0.000000 0.000000 0.000000 0.000000 0.055532 0.000000
# 6 0.000000 0.000000 0.000000 0.000000 0.000000 0.050735
#
#
# Mechanical properties :
#
#
# Convention : Reuss Voigt Hill
#
# Bulk Modulus (GPa) = 29.05573 57.64105 43.34839
# Shear Modulus (GPa) = 16.24274 20.41458 18.32866
#
# Velocity S-wave (km/s) = 3.23723 3.62922 3.43882
# Velocity P-wave (km/s) = 5.72008 7.39940 6.61326
#
# Compressibility (1/GPa) = 0.03441662
#
# Stress axis : x y z
#
# Youngs Moduli (GPa) = 76.60883 17.15990 53.37882
#
# Poissons Ratio (x) = 0.19234 0.30043
# Poissons Ratio (y) = 0.85869 0.58643
# Poissons Ratio (z) = 0.43117 0.18852
#
# Static dielectric constant tensor:
#      x y z
#    x 1.532540 0.000000 0.000000 
#    y 0.000000 1.522800 0.000000 
#    z 0.000000 0.000000 1.487570 
# 
# From -- ./inp_files/27943.got.cif
#   From: 2010.05.17/outbox.cif.g08.bks.cpg/sg62_14_cif.got.tgz:27943.got - 2010.06.03 15:25:27.
