data_PCOD9461355
_publ_section_title
;
Structure prediction by ZEFSAII (Michael W. Deem and Ramdas Pophale) SiO2 
 PCOD9461355
Probable space group: P N M A
;
_chemical_formula_sum "Si O2"
_cell_formula_units_Z 48
_cell_length_a 16.960494
_cell_length_b 26.265222
_cell_length_c 5.170176
_cell_angle_alpha 90.000000
_cell_angle_beta 90.000000
_cell_angle_gamma 90.000000
_cell_volume 2303.164197
_symmetry_space_group_name_H-M "P N M A"
_symmetry_group_IT_number 62
_symmetry_cell_setting 'orthorhombic'
loop_
_space_group_symop_operation_xyz
x,y,z
1/2-x,-y,1/2+z
1/2+x,1/2-y,1/2-z
-x,1/2+y,-z
-x,-y,-z
1/2+x,y,1/2-z
1/2-x,1/2+y,1/2+z
x,1/2-y,z
loop_
_atom_site_type_symbol
_atom_site_label
_atom_site_fract_x
_atom_site_fract_y
_atom_site_fract_z
Si Si1 0.576644 0.543817 0.711394
Si Si2 0.810694 0.691510 0.718955
Si Si3 0.790390 0.975927 0.199703
Si Si4 0.036644 0.599697 0.299557
Si Si5 0.586662 0.190120 0.722520
Si Si6 0.300440 0.113013 0.025545
O O1 0.616523 0.488268 0.703626
O O2 0.540730 0.562816 0.446270
O O3 0.523987 0.562987 0.950802
O O4 0.656291 0.576433 0.768162
O O5 0.786007 0.750000 0.723571
O O6 0.845001 0.680784 0.435425
O O7 0.879859 0.685344 0.932534
O O8 0.739489 0.657783 0.819642
O O9 0.765937 0.918765 0.126789
O O10 0.751628 0.991980 0.470170
O O11 0.124910 0.623358 0.340484
O O12 0.978089 0.646766 0.270546
O O13 0.561670 0.250000 0.757998
#
# Coordination Sequence:
#
# PCOD9461355 Si02
#       6
#     8   8   8   8   8   8
#     4   9  18  31  52  83 105 132 172 221 261 300
#     4  10  22  38  55  76 107 141 176 216 266 318
#     4  10  16  30  50  81 108 136 168 210 262 322
#     4  10  19  33  55  79 104 135 177 221 256 303
#     4  10  22  39  55  73 105 149 178 207 268 331
#     4   9  21  31  59  82 105 135 178 222 260 296
#
# _framework density 20.840895
#
# number of rings (size 3 to 8) (size 9 to 14) (size 15 to 20)
#    1.000    1.333    1.667    1.000    2.333    0.667 
#    0.000    0.833    0.000    6.000    0.000    0.000 
#    0.000    0.000    0.000    0.000    0.000    0.000 
#
# Total GULP energy -267560.113216 kJ/mol
# GULP energy per Si atom -5574.169025 kJ/mol
# Density = 2.079346 g / cm^3
# Si number density = 20.840895 Si / 1000 Ang^3
#
#
#
# Elastic Constant Matrix: (Units=GPa)
#
#
# Indices 1 2 3 4 5 6 
#
# 1 53.4454 29.1808 0.0858 0.0000 0.0000 0.0000
# 2 29.1808 11.8865 -24.7080 0.0000 0.0000 0.0000
# 3 0.0858 -24.7080 71.0657 0.0000 0.0000 0.0000
# 4 0.0000 0.0000 0.0000 24.4564 0.0000 0.0000
# 5 0.0000 0.0000 0.0000 0.0000 18.0866 0.0000
# 6 0.0000 0.0000 0.0000 0.0000 0.0000 45.2195
#
#
#
# Elastic Compliance Matrix: (Units=1/GPa)
#
#
# Indices 1 2 3 4 5 6 
#
# 1 -0.004868 0.043141 0.015005 0.000000 0.000000 0.000000
# 2 0.043141 -0.078932 -0.027495 0.000000 0.000000 0.000000
# 3 0.015005 -0.027495 0.004494 0.000000 0.000000 0.000000
# 4 0.000000 0.000000 0.000000 0.040889 0.000000 0.000000
# 5 0.000000 0.000000 0.000000 0.000000 0.055290 0.000000
# 6 0.000000 0.000000 0.000000 0.000000 0.000000 0.022114
#
#
# Mechanical properties :
#
#
# Convention : Reuss Voigt Hill
#
# Bulk Modulus (GPa) = -55.53803 16.16831 -19.68486
# Shear Modulus (GPa) = -176.57772 26.34177 -75.11798
#
# Velocity S-wave (km/s) = -9.21469 3.55906 -6.01014
# Velocity P-wave (km/s) = 11.82880 4.96629 7.59132
#
# Compressibility (1/GPa) = -0.01800568
#
# Stress axis : x y z
#
# Youngs Moduli (GPa) = -205.42738 -12.66907 222.52651
#
# Poissons Ratio (x) = 0.54655 -3.33901
# Poissons Ratio (y) = 8.86227 6.11842
# Poissons Ratio (z) = 3.08244 -0.34834
#
# Static dielectric constant tensor:
#      x y z
#    x 1.758350 0.000000 0.000000 
#    y 0.000000 1.767230 0.000000 
#    z 0.000000 0.000000 1.741930 
# 
# From -- ./inp_files/1766.got.cif
#   From: 2010.05.17/outbox.cif.g08.bks.cpg/sg62_1_cif.got.tgz:1766.got - 2010.06.03 15:25:27.
