data_PCOD9461686
_publ_section_title
;
Structure prediction by ZEFSAII (Michael W. Deem and Ramdas Pophale) SiO2 
 PCOD9461686
Probable space group: P N M A
;
_chemical_formula_sum "Si O2"
_cell_formula_units_Z 48
_cell_length_a 14.376182
_cell_length_b 17.090599
_cell_length_c 6.928884
_cell_angle_alpha 90.000000
_cell_angle_beta 90.000000
_cell_angle_gamma 90.000000
_cell_volume 1702.409904
_symmetry_space_group_name_H-M "P N M A"
_symmetry_group_IT_number 62
_symmetry_cell_setting 'orthorhombic'
loop_
_space_group_symop_operation_xyz
x,y,z
1/2-x,-y,1/2+z
1/2+x,1/2-y,1/2-z
-x,1/2+y,-z
-x,-y,-z
1/2+x,y,1/2-z
1/2-x,1/2+y,1/2+z
x,1/2-y,z
loop_
_atom_site_type_symbol
_atom_site_label
_atom_site_fract_x
_atom_site_fract_y
_atom_site_fract_z
Si Si1 0.778360 0.917033 0.605421
Si Si2 0.743448 0.582470 0.147796
Si Si3 0.016173 0.250000 0.817287
Si Si4 0.728813 0.250000 0.109002
Si Si5 0.447995 0.917929 0.351304
Si Si6 0.431750 0.418864 0.265508
Si Si7 0.695110 0.750000 0.186627
Si Si8 0.552450 0.750000 0.742975
O O1 0.756410 0.911453 0.378219
O O2 0.818669 0.832307 0.663418
O O3 0.679941 0.920634 0.718836
O O4 0.818291 0.004659 0.624410
O O5 0.845643 0.568928 0.056774
O O6 0.712147 0.668048 0.082915
O O7 0.910769 0.250000 0.749657
O O8 0.058196 0.167299 0.756522
O O9 0.011252 0.250000 0.050714
O O10 0.837489 0.250000 0.179937
O O11 0.742079 0.250000 0.877975
O O12 0.526958 0.913496 0.514625
O O13 0.462938 0.992971 0.215673
O O14 0.461020 0.336829 0.167688
#
# Coordination Sequence:
#
# PCOD9461686 Si02
#       8
#     8   8   4   4   8   8   4   4
#     4   9  17  29  46  66  94 124 155 192 237 284
#     4  10  18  29  46  71  96 121 155 197 235 282
#     4   9  15  25  41  61  85 117 152 189 228 268
#     4   7  12  25  42  59  80 117 153 173 210 282
#     4   9  15  23  40  65  88 110 152 196 224 261
#     4   8  14  24  39  61  88 118 146 187 237 275
#     4   9  17  29  46  64  91 123 152 186 240 290
#     4   7  10  19  35  54  78 107 141 172 220 276
#
# _framework density 28.195323999999999
#
# number of rings (size 3 to 8) (size 9 to 14) (size 15 to 20)
#    0.000    3.333    0.000    3.500    0.000    0.000 
#    0.000    0.833    0.000    4.000    0.000    3.500 
#    0.000    0.000    0.000    0.000    0.000    0.000 
#
# Total GULP energy -268063.561828 kJ/mol
# GULP energy per Si atom -5584.657538 kJ/mol
# Density = 2.813115 g / cm^3
# Si number density = 28.195324 Si / 1000 Ang^3
#
#
#
# Elastic Constant Matrix: (Units=GPa)
#
#
# Indices 1 2 3 4 5 6 
#
# 1 109.5127 20.8485 5.7384 0.0000 0.0000 0.0000
# 2 20.8485 395.2306 17.8118 0.0000 0.0000 0.0000
# 3 5.7384 17.8118 79.7493 0.0000 0.0000 0.0000
# 4 0.0000 0.0000 0.0000 10.4012 0.0000 0.0000
# 5 0.0000 0.0000 0.0000 0.0000 29.6779 0.0000
# 6 0.0000 0.0000 0.0000 0.0000 0.0000 11.1410
#
#
#
# Elastic Compliance Matrix: (Units=1/GPa)
#
#
# Indices 1 2 3 4 5 6 
#
# 1 0.009249 -0.000463 -0.000562 0.000000 0.000000 0.000000
# 2 -0.000463 0.002579 -0.000543 0.000000 0.000000 0.000000
# 3 -0.000562 -0.000543 0.012701 0.000000 0.000000 0.000000
# 4 0.000000 0.000000 0.000000 0.096143 0.000000 0.000000
# 5 0.000000 0.000000 0.000000 0.000000 0.033695 0.000000
# 6 0.000000 0.000000 0.000000 0.000000 0.000000 0.089759
#
#
# Mechanical properties :
#
#
# Convention : Reuss Voigt Hill
#
# Bulk Modulus (GPa) = 46.74228 74.81000 60.77614
# Shear Modulus (GPa) = 19.65473 46.25027 32.95250
#
# Velocity S-wave (km/s) = 2.64311 4.05452 3.42237
# Velocity P-wave (km/s) = 5.09203 6.96486 6.10074
#
# Compressibility (1/GPa) = 0.02139391
#
# Stress axis : x y z
#
# Youngs Moduli (GPa) = 108.12125 387.74312 78.73413
#
# Poissons Ratio (x) = 0.17935 0.04426
# Poissons Ratio (y) = 0.05001 0.04273
# Poissons Ratio (z) = 0.06079 0.21044
#
# Static dielectric constant tensor:
#      x y z
#    x 2.137020 0.000000 0.000000 
#    y 0.000000 2.274850 0.000000 
#    z 0.000000 0.000000 2.190290 
# 
# From -- ./inp_files/6543.got.cif
#   From: 2010.05.17/outbox.cif.g08.bks.cpg/sg62_4_cif.got.tgz:6543.got - 2010.06.03 15:25:27.
