data_PCOD9461136
_publ_section_title
;
Structure prediction by ZEFSAII (Michael W. Deem and Ramdas Pophale) SiO2 
 PCOD9461136
Probable space group: P B C A
;
_chemical_formula_sum "Si O2"
_cell_formula_units_Z 40
_cell_length_a 8.769476
_cell_length_b 8.552429
_cell_length_c 18.977936
_cell_angle_alpha 90.000000
_cell_angle_beta 90.000000
_cell_angle_gamma 90.000000
_cell_volume 1423.351289
_symmetry_space_group_name_H-M "P B C A"
_symmetry_group_IT_number 61
_symmetry_cell_setting 'orthorhombic'
loop_
_space_group_symop_operation_xyz
x,y,z
1/2-x,-y,1/2+z
1/2+x,1/2-y,-z
-x,1/2+y,1/2-z
-x,-y,-z
1/2+x,y,1/2-z
1/2-x,1/2+y,z
x,1/2-y,1/2+z
loop_
_atom_site_type_symbol
_atom_site_label
_atom_site_fract_x
_atom_site_fract_y
_atom_site_fract_z
Si Si1 0.475504 0.233202 0.937321
Si Si2 0.295563 0.951008 0.977395
Si Si3 0.518467 0.296244 0.191526
Si Si4 0.761891 0.138976 0.376880
Si Si5 0.709103 0.509976 0.728086
O O1 0.358958 0.371590 0.952975
O O2 0.597381 0.279641 0.878865
O O3 0.375902 0.076489 0.926374
O O4 0.584912 0.185420 0.002891
O O5 0.274348 0.041665 0.051479
O O6 0.399005 0.262858 0.129335
O O7 0.643228 0.432460 0.185946
O O8 0.407566 0.348386 0.255600
O O9 0.617030 0.139877 0.201468
O O10 0.769758 0.038934 0.305968
#
# Coordination Sequence:
#
# PCOD9461136 Si02
#       5
#     8   8   8   8   8
#     4  11  25  49  82 119 171 212 277 340 408 493
#     4  11  25  49  82 123 168 216 272 346 406 507
#     4  12  25  50  81 119 167 209 276 343 410 497
#     4  12  25  48  86 115 164 217 267 340 423 478
#     4  12  25  48  81 118 166 209 274 345 406 506
#
# _framework density 28.102689000000002
#
# number of rings (size 3 to 8) (size 9 to 14) (size 15 to 20)
#    0.000    0.400    6.000    1.800    0.000    0.000 
#    0.000   16.000    0.000    0.000    0.000    0.000 
#    0.000    0.000    0.000    0.000    0.000    0.000 
#
# Total GULP energy -224669.355520 kJ/mol
# GULP energy per Si atom -5616.733888 kJ/mol
# Density = 2.803873 g / cm^3
# Si number density = 28.102689 Si / 1000 Ang^3
#
#
#
# Elastic Constant Matrix: (Units=GPa)
#
#
# Indices 1 2 3 4 5 6 
#
# 1 253.4002 111.3821 76.0838 0.0000 0.0000 0.0000
# 2 111.3821 151.9804 64.2479 0.0000 0.0000 0.0000
# 3 76.0838 64.2479 85.1000 0.0000 0.0000 0.0000
# 4 0.0000 0.0000 0.0000 30.1951 0.0000 0.0000
# 5 0.0000 0.0000 0.0000 0.0000 64.5220 0.0000
# 6 0.0000 0.0000 0.0000 0.0000 0.0000 92.4583
#
#
#
# Elastic Compliance Matrix: (Units=1/GPa)
#
#
# Indices 1 2 3 4 5 6 
#
# 1 0.006359 -0.003315 -0.003183 0.000000 0.000000 0.000000
# 2 -0.003315 0.011392 -0.005637 0.000000 0.000000 0.000000
# 3 -0.003183 -0.005637 0.018852 0.000000 0.000000 0.000000
# 4 0.000000 0.000000 0.000000 0.033118 0.000000 0.000000
# 5 0.000000 0.000000 0.000000 0.000000 0.015499 0.000000
# 6 0.000000 0.000000 0.000000 0.000000 0.000000 0.010816
#
#
# Mechanical properties :
#
#
# Convention : Reuss Voigt Hill
#
# Bulk Modulus (GPa) = 81.07581 110.43423 95.75502
# Shear Modulus (GPa) = 40.18775 53.35286 46.77031
#
# Velocity S-wave (km/s) = 3.78568 4.36190 4.08397
# Velocity P-wave (km/s) = 6.92972 8.04675 7.50903
#
# Compressibility (1/GPa) = 0.01233414
#
# Stress axis : x y z
#
# Youngs Moduli (GPa) = 157.25802 87.77940 53.04451
#
# Poissons Ratio (x) = 0.29098 0.16882
# Poissons Ratio (y) = 0.52130 0.29901
# Poissons Ratio (z) = 0.50049 0.49482
#
# Static dielectric constant tensor:
#      x y z
#    x 2.148150 0.000000 0.000000 
#    y 0.000000 2.207820 0.000000 
#    z 0.000000 0.000000 2.225090 
# 
# From -- ./inp_files/11329.got.cif
#   From: 2010.05.17/outbox.cif.g08.bks.cpg/sg61_6_cif.got.tgz:11329.got - 2010.06.03 15:17:17.
