data_PCOD9461153
_publ_section_title
;
Structure prediction by ZEFSAII (Michael W. Deem and Ramdas Pophale) SiO2 
 PCOD9461153
Probable space group: P B C A
;
_chemical_formula_sum "Si O2"
_cell_formula_units_Z 40
_cell_length_a 7.549327
_cell_length_b 23.344944
_cell_length_c 8.947698
_cell_angle_alpha 90.000000
_cell_angle_beta 90.000000
_cell_angle_gamma 90.000000
_cell_volume 1576.929912
_symmetry_space_group_name_H-M "P B C A"
_symmetry_group_IT_number 61
_symmetry_cell_setting 'orthorhombic'
loop_
_space_group_symop_operation_xyz
x,y,z
1/2-x,-y,1/2+z
1/2+x,1/2-y,-z
-x,1/2+y,1/2-z
-x,-y,-z
1/2+x,y,1/2-z
1/2-x,1/2+y,z
x,1/2-y,1/2+z
loop_
_atom_site_type_symbol
_atom_site_label
_atom_site_fract_x
_atom_site_fract_y
_atom_site_fract_z
Si Si1 0.748537 0.454263 0.076032
Si Si2 0.481258 0.626981 0.477209
Si Si3 0.755826 0.216368 0.576728
Si Si4 0.454789 0.783579 0.718275
Si Si5 0.356843 0.430781 0.086275
O O1 0.565210 0.417534 0.067485
O O2 0.822944 0.451762 0.244242
O O3 0.903242 0.430839 0.968049
O O4 0.691210 0.517308 0.025847
O O5 0.608096 0.664117 0.586886
O O6 0.464517 0.660807 0.322126
O O7 0.289404 0.616667 0.547686
O O8 0.585535 0.228163 0.677967
O O9 0.695587 0.214887 0.406761
O O10 0.869955 0.271535 0.623693
#
# Coordination Sequence:
#
# PCOD9461153 Si02
#       5
#     8   8   8   8   8
#     4  11  26  50  82 118 162 209 265 341 409 481
#     4  12  27  47  81 114 160 213 267 323 409 480
#     4  12  26  49  74 108 155 204 262 330 392 467
#     4  12  26  51  74 110 157 206 265 329 394 474
#     4  11  26  51  80 120 163 205 270 338 405 490
#
# _framework density 25.365743999999999
#
# number of rings (size 3 to 8) (size 9 to 14) (size 15 to 20)
#    0.000    0.400    6.000    0.600    2.800    3.200 
#   10.800    0.000    0.000    0.000    0.000    0.000 
#    0.000    0.000    0.000    0.000    0.000    0.000 
#
# Total GULP energy -223930.484953 kJ/mol
# GULP energy per Si atom -5598.262124 kJ/mol
# Density = 2.530801 g / cm^3
# Si number density = 25.365744 Si / 1000 Ang^3
#
#
#
# Elastic Constant Matrix: (Units=GPa)
#
#
# Indices 1 2 3 4 5 6 
#
# 1 149.3891 14.2721 47.6905 0.0000 0.0000 0.0000
# 2 14.2721 39.1644 36.0651 0.0000 0.0000 0.0000
# 3 47.6905 36.0651 128.7285 0.0000 0.0000 0.0000
# 4 0.0000 0.0000 0.0000 50.4591 0.0000 0.0000
# 5 0.0000 0.0000 0.0000 0.0000 50.2166 0.0000
# 6 0.0000 0.0000 0.0000 0.0000 0.0000 42.8137
#
#
#
# Elastic Compliance Matrix: (Units=1/GPa)
#
#
# Indices 1 2 3 4 5 6 
#
# 1 0.007593 -0.000238 -0.002746 0.000000 0.000000 0.000000
# 2 -0.000238 0.034419 -0.009555 0.000000 0.000000 0.000000
# 3 -0.002746 -0.009555 0.011463 0.000000 0.000000 0.000000
# 4 0.000000 0.000000 0.000000 0.019818 0.000000 0.000000
# 5 0.000000 0.000000 0.000000 0.000000 0.019914 0.000000
# 6 0.000000 0.000000 0.000000 0.000000 0.000000 0.023357
#
#
# Mechanical properties :
#
#
# Convention : Reuss Voigt Hill
#
# Bulk Modulus (GPa) = 35.21571 57.03749 46.12660
# Shear Modulus (GPa) = 33.08901 43.31483 38.20192
#
# Velocity S-wave (km/s) = 3.61567 4.13681 3.88499
# Velocity P-wave (km/s) = 5.59858 6.73442 6.19260
#
# Compressibility (1/GPa) = 0.02839642
#
# Stress axis : x y z
#
# Youngs Moduli (GPa) = 131.69249 29.05393 87.23977
#
# Poissons Ratio (x) = 0.00692 0.23960
# Poissons Ratio (y) = 0.03135 0.83355
# Poissons Ratio (z) = 0.36169 0.27760
#
# Static dielectric constant tensor:
#      x y z
#    x 2.146960 0.000000 0.000000 
#    y 0.000000 2.080780 0.000000 
#    z 0.000000 0.000000 1.968450 
# 
# From -- ./inp_files/1801.got.cif
#   From: 2010.05.17/outbox.cif.g08.bks.cpg/sg61_1_cif.got.tgz:1801.got - 2010.06.03 15:17:17.
