data_PCOD9461466
_publ_section_title
;
Structure prediction by ZEFSAII (Michael W. Deem and Ramdas Pophale) SiO2 
 PCOD9461466
Probable space group: P N M A
;
_chemical_formula_sum "Si O2"
_cell_formula_units_Z 48
_cell_length_a 18.675767
_cell_length_b 26.005741
_cell_length_c 5.185144
_cell_angle_alpha 90.000000
_cell_angle_beta 90.000000
_cell_angle_gamma 90.000000
_cell_volume 2518.306010
_symmetry_space_group_name_H-M "P N M A"
_symmetry_group_IT_number 62
_symmetry_cell_setting 'orthorhombic'
loop_
_space_group_symop_operation_xyz
x,y,z
1/2-x,-y,1/2+z
1/2+x,1/2-y,1/2-z
-x,1/2+y,-z
-x,-y,-z
1/2+x,y,1/2-z
1/2-x,1/2+y,1/2+z
x,1/2-y,z
loop_
_atom_site_type_symbol
_atom_site_label
_atom_site_fract_x
_atom_site_fract_y
_atom_site_fract_z
Si Si1 0.961733 0.057578 0.689613
Si Si2 0.322867 0.750000 0.605837
Si Si3 0.917310 0.750000 0.395860
Si Si4 0.422664 0.860634 0.008594
Si Si5 0.719049 0.473540 0.501471
Si Si6 0.823634 0.862181 0.991363
Si Si7 0.078800 0.974412 0.810765
O O1 0.903080 0.047751 0.469970
O O2 0.018192 0.097420 0.574931
O O3 0.931080 0.069029 0.972174
O O4 0.005655 0.005183 0.751443
O O5 0.350778 0.750000 0.900130
O O6 0.288570 0.694149 0.552324
O O7 0.388966 0.750000 0.398231
O O8 0.955100 0.696540 0.460264
O O9 0.361340 0.863465 0.228855
O O10 0.384996 0.866974 0.731156
O O11 0.736865 0.501794 0.235615
O O12 0.725334 0.412366 0.471331
O O13 0.637078 0.486233 0.581592
#
# Coordination Sequence:
#
# PCOD9461466 Si02
#       7
#     8   4   4   8   8   8   8
#     4  10  19  31  53  72  99 132 162 204 244 297
#     4   8  16  30  48  70  97 128 159 212 256 303
#     4   8  16  26  44  74 103 124 157 194 260 321
#     4  10  17  30  50  75 103 132 157 207 260 304
#     4  12  24  36  51  73 106 143 171 214 259 309
#     4  10  19  32  50  74 103 130 168 206 260 312
#     4  10  21  33  47  74  98 131 173 198 240 303
#
# _framework density 19.06043
#
# number of rings (size 3 to 8) (size 9 to 14) (size 15 to 20)
#    0.000    2.000    1.667    3.000    4.667    0.000 
#    0.000    0.000    0.000    0.000    0.000    7.000 
#    0.000    0.000    0.000    0.000    0.000    0.000 
#
# Total GULP energy -267353.233649 kJ/mol
# GULP energy per Si atom -5569.859034 kJ/mol
# Density = 1.901705 g / cm^3
# Si number density = 19.060430 Si / 1000 Ang^3
#
#
#
# Elastic Constant Matrix: (Units=GPa)
#
#
# Indices 1 2 3 4 5 6 
#
# 1 16.1402 11.7653 12.8003 0.0000 0.0000 0.0000
# 2 11.7653 145.3149 24.5363 0.0000 0.0000 0.0000
# 3 12.8003 24.5363 100.7745 0.0000 0.0000 0.0000
# 4 0.0000 0.0000 0.0000 22.9310 0.0000 0.0000
# 5 0.0000 0.0000 0.0000 0.0000 25.4564 0.0000
# 6 0.0000 0.0000 0.0000 0.0000 0.0000 18.3939
#
#
#
# Elastic Compliance Matrix: (Units=1/GPa)
#
#
# Indices 1 2 3 4 5 6 
#
# 1 0.071543 -0.004441 -0.008006 0.000000 0.000000 0.000000
# 2 -0.004441 0.007452 -0.001250 0.000000 0.000000 0.000000
# 3 -0.008006 -0.001250 0.011245 0.000000 0.000000 0.000000
# 4 0.000000 0.000000 0.000000 0.043609 0.000000 0.000000
# 5 0.000000 0.000000 0.000000 0.000000 0.039283 0.000000
# 6 0.000000 0.000000 0.000000 0.000000 0.000000 0.054366
#
#
# Mechanical properties :
#
#
# Convention : Reuss Voigt Hill
#
# Bulk Modulus (GPa) = 15.91199 40.04816 27.98007
# Shear Modulus (GPa) = 18.12640 27.56479 22.84560
#
# Velocity S-wave (km/s) = 3.08717 3.80699 3.46582
# Velocity P-wave (km/s) = 4.59062 6.35461 5.54323
#
# Compressibility (1/GPa) = 0.06284571
#
# Stress axis : x y z
#
# Youngs Moduli (GPa) = 13.97756 134.18734 88.93218
#
# Poissons Ratio (x) = 0.59587 0.71200
# Poissons Ratio (y) = 0.06207 0.11120
# Poissons Ratio (z) = 0.11191 0.16779
#
# Static dielectric constant tensor:
#      x y z
#    x 1.656560 0.000000 0.000000 
#    y 0.000000 1.714850 0.000000 
#    z 0.000000 0.000000 1.750480 
# 
# From -- ./inp_files/1734.got.cif
#   From: 2010.05.17/outbox.cif.g08.bks.cpg/sg62_1_cif.got.tgz:1734.got - 2010.06.03 15:25:27.
