data_PCOD9461019
_publ_section_title
;
Structure prediction by ZEFSAII (Michael W. Deem and Ramdas Pophale) SiO2 
 PCOD9461019
Probable space group: P B C A
;
_chemical_formula_sum "Si O2"
_cell_formula_units_Z 48
_cell_length_a 16.214135
_cell_length_b 14.310931
_cell_length_c 9.292040
_cell_angle_alpha 90.000000
_cell_angle_beta 90.000000
_cell_angle_gamma 90.000000
_cell_volume 2156.119082
_symmetry_space_group_name_H-M "P B C A"
_symmetry_group_IT_number 61
_symmetry_cell_setting 'orthorhombic'
loop_
_space_group_symop_operation_xyz
x,y,z
1/2-x,-y,1/2+z
1/2+x,1/2-y,-z
-x,1/2+y,1/2-z
-x,-y,-z
1/2+x,y,1/2-z
1/2-x,1/2+y,z
x,1/2-y,1/2+z
loop_
_atom_site_type_symbol
_atom_site_label
_atom_site_fract_x
_atom_site_fract_y
_atom_site_fract_z
Si Si1 0.225128 0.296747 0.223121
Si Si2 0.503077 0.429537 0.633877
Si Si3 0.746282 0.027679 0.590147
Si Si4 0.573270 0.058063 0.427729
Si Si5 0.395465 0.735294 0.478705
Si Si6 0.320053 0.391531 0.690149
O O1 0.260364 0.390442 0.292355
O O2 0.166063 0.315648 0.088753
O O3 0.162004 0.260715 0.344469
O O4 0.290410 0.216173 0.179969
O O5 0.500000 0.500000 0.500000
O O6 0.567257 0.461092 0.757359
O O7 0.532619 0.331892 0.569548
O O8 0.416440 0.410422 0.714626
O O9 0.658050 0.034499 0.508161
O O10 0.805825 0.052268 0.458778
O O11 0.736715 0.934743 0.683950
O O12 0.568835 0.170045 0.451457
O O13 0.500000 0.000000 0.500000
#
# Coordination Sequence:
#
# PCOD9461019 Si02
#       6
#     8   8   8   8   8   8
#     4  11  23  47  70  96 135 184 228 276 351 408
#     4  12  27  43  72 105 139 181 239 284 345 414
#     4  11  26  44  70  98 139 180 226 292 346 406
#     4  11  23  47  68  97 135 179 228 281 348 408
#     4  11  23  46  72  93 137 186 226 281 347 412
#     4  12  26  44  69 106 135 184 234 283 348 418
#
# _framework density 22.262222999999999
#
# number of rings (size 3 to 8) (size 9 to 14) (size 15 to 20)
#    0.000    0.667    6.667    1.000    9.333    1.333 
#    3.000    0.000    0.000    0.000    0.000    0.000 
#    0.000    0.000    0.000    0.000    0.000    0.000 
#
# Total GULP energy -268305.074315 kJ/mol
# GULP energy per Si atom -5589.689048 kJ/mol
# Density = 2.221155 g / cm^3
# Si number density = 22.262223 Si / 1000 Ang^3
#
#
#
# Elastic Constant Matrix: (Units=GPa)
#
#
# Indices 1 2 3 4 5 6 
#
# 1 68.9948 15.4761 1.3095 0.0000 0.0000 0.0000
# 2 15.4761 68.0560 9.6863 0.0000 0.0000 0.0000
# 3 1.3095 9.6863 105.2414 0.0000 0.0000 0.0000
# 4 0.0000 0.0000 0.0000 36.4939 0.0000 0.0000
# 5 0.0000 0.0000 0.0000 0.0000 33.3388 0.0000
# 6 0.0000 0.0000 0.0000 0.0000 0.0000 17.5900
#
#
#
# Elastic Compliance Matrix: (Units=1/GPa)
#
#
# Indices 1 2 3 4 5 6 
#
# 1 0.015275 -0.003492 0.000131 0.000000 0.000000 0.000000
# 2 -0.003492 0.015687 -0.001400 0.000000 0.000000 0.000000
# 3 0.000131 -0.001400 0.009629 0.000000 0.000000 0.000000
# 4 0.000000 0.000000 0.000000 0.027402 0.000000 0.000000
# 5 0.000000 0.000000 0.000000 0.000000 0.029995 0.000000
# 6 0.000000 0.000000 0.000000 0.000000 0.000000 0.056851
#
#
# Mechanical properties :
#
#
# Convention : Reuss Voigt Hill
#
# Bulk Modulus (GPa) = 32.18674 32.80399 32.49537
# Shear Modulus (GPa) = 28.61768 31.87257 30.24512
#
# Velocity S-wave (km/s) = 3.58925 3.78787 3.68990
# Velocity P-wave (km/s) = 5.62729 5.82219 5.72557
#
# Compressibility (1/GPa) = 0.03106869
#
# Stress axis : x y z
#
# Youngs Moduli (GPa) = 65.46785 63.74610 103.85059
#
# Poissons Ratio (x) = 0.22261 -0.01364
# Poissons Ratio (y) = 0.22863 0.14543
# Poissons Ratio (z) = -0.00860 0.08927
#
# Static dielectric constant tensor:
#      x y z
#    x 1.810170 0.000000 0.000000 
#    y 0.000000 1.828650 0.000000 
#    z 0.000000 0.000000 1.875810 
# 
# From -- ./inp_files/3467.got.cif
#   From: 2010.05.17/outbox.cif.g08.bks.cpg/sg61_2_cif.got.tgz:3467.got - 2010.06.03 15:17:17.
