data_PCOD9461226
_publ_section_title
;
Structure prediction by ZEFSAII (Michael W. Deem and Ramdas Pophale) SiO2 
 PCOD9461226
Probable space group: P B C A
;
_chemical_formula_sum "Si O2"
_cell_formula_units_Z 32
_cell_length_a 13.284892
_cell_length_b 10.389886
_cell_length_c 8.791528
_cell_angle_alpha 90.000000
_cell_angle_beta 90.000000
_cell_angle_gamma 90.000000
_cell_volume 1213.481540
_symmetry_space_group_name_H-M "P B C A"
_symmetry_group_IT_number 61
_symmetry_cell_setting 'orthorhombic'
loop_
_space_group_symop_operation_xyz
x,y,z
1/2-x,-y,1/2+z
1/2+x,1/2-y,-z
-x,1/2+y,1/2-z
-x,-y,-z
1/2+x,y,1/2-z
1/2-x,1/2+y,z
x,1/2-y,1/2+z
loop_
_atom_site_type_symbol
_atom_site_label
_atom_site_fract_x
_atom_site_fract_y
_atom_site_fract_z
Si Si1 0.745840 0.785156 0.009550
Si Si2 0.415688 0.641807 0.604873
Si Si3 0.958394 0.197706 0.316886
Si Si4 0.317998 0.462018 0.820738
O O1 0.743459 0.662446 0.123172
O O2 0.767673 0.917063 0.096616
O O3 0.844900 0.765794 0.909445
O O4 0.645908 0.773615 0.906457
O O5 0.492770 0.676782 0.740526
O O6 0.471605 0.631690 0.443652
O O7 0.340543 0.528613 0.656120
O O8 0.929847 0.104400 0.174934
#
# Coordination Sequence:
#
# PCOD9461226 Si02
#       4
#     8   8   8   8
#     4  12  28  52  82 126 174 222 282 358 428 510
#     4  12  27  52  85 126 171 225 285 355 432 514
#     4  12  27  52  85 126 171 225 285 355 432 514
#     4  12  27  53  83 122 168 222 283 351 430 499
#
# _framework density 26.370405000000002
#
# number of rings (size 3 to 8) (size 9 to 14) (size 15 to 20)
#    0.000    0.000    5.000    3.750    0.000    4.000 
#    0.000    0.000    0.000    0.000    0.000    0.000 
#    0.000    0.000    0.000    0.000    0.000    0.000 
#
# Total GULP energy -178250.578282 kJ/mol
# GULP energy per Si atom -5570.330571 kJ/mol
# Density = 2.631038 g / cm^3
# Si number density = 26.370405 Si / 1000 Ang^3
#
#
#
# Elastic Constant Matrix: (Units=GPa)
#
#
# Indices 1 2 3 4 5 6 
#
# 1 142.9390 39.7704 70.9882 0.0000 0.0000 0.0000
# 2 39.7704 182.6815 63.8500 0.0000 0.0000 0.0000
# 3 70.9882 63.8500 96.8012 0.0000 0.0000 0.0000
# 4 0.0000 0.0000 0.0000 41.4716 0.0000 0.0000
# 5 0.0000 0.0000 0.0000 0.0000 79.1617 0.0000
# 6 0.0000 0.0000 0.0000 0.0000 0.0000 37.7852
#
#
#
# Elastic Compliance Matrix: (Units=1/GPa)
#
#
# Indices 1 2 3 4 5 6 
#
# 1 0.011046 0.000554 -0.008466 0.000000 0.000000 0.000000
# 2 0.000554 0.007142 -0.005117 0.000000 0.000000 0.000000
# 3 -0.008466 -0.005117 0.019915 0.000000 0.000000 0.000000
# 4 0.000000 0.000000 0.000000 0.024113 0.000000 0.000000
# 5 0.000000 0.000000 0.000000 0.000000 0.012632 0.000000
# 6 0.000000 0.000000 0.000000 0.000000 0.000000 0.026465
#
#
# Mechanical properties :
#
#
# Convention : Reuss Voigt Hill
#
# Bulk Modulus (GPa) = 83.02810 85.73766 84.38288
# Shear Modulus (GPa) = 38.05547 48.20456 43.13001
#
# Velocity S-wave (km/s) = 3.80295 4.28013 4.04858
# Velocity P-wave (km/s) = 7.13000 7.55046 7.34324
#
# Compressibility (1/GPa) = 0.01204412
#
# Stress axis : x y z
#
# Youngs Moduli (GPa) = 90.52667 140.01866 50.21451
#
# Poissons Ratio (x) = -0.07761 0.42514
# Poissons Ratio (y) = -0.05018 0.25696
# Poissons Ratio (z) = 0.76644 0.71651
#
# Static dielectric constant tensor:
#      x y z
#    x 2.058820 0.000000 0.000000 
#    y 0.000000 2.321390 0.000000 
#    z 0.000000 0.000000 2.208490 
# 
# From -- ./inp_files/2497.got.cif
#   From: 2010.05.17/outbox.cif.g08.bks.cpg/sg61_2_cif.got.tgz:2497.got - 2010.06.03 15:17:17.
