data_PCOD9461562
_publ_section_title
;
Structure prediction by ZEFSAII (Michael W. Deem and Ramdas Pophale) SiO2 
 PCOD9461562
Probable space group: P N M A
;
_chemical_formula_sum "Si O2"
_cell_formula_units_Z 64
_cell_length_a 18.831228
_cell_length_b 9.012753
_cell_length_c 27.003420
_cell_angle_alpha 90.000000
_cell_angle_beta 90.000000
_cell_angle_gamma 90.000000
_cell_volume 4583.053026
_symmetry_space_group_name_H-M "P N M A"
_symmetry_group_IT_number 62
_symmetry_cell_setting 'orthorhombic'
loop_
_space_group_symop_operation_xyz
x,y,z
1/2-x,-y,1/2+z
1/2+x,1/2-y,1/2-z
-x,1/2+y,-z
-x,-y,-z
1/2+x,y,1/2-z
1/2-x,1/2+y,1/2+z
x,1/2-y,z
loop_
_atom_site_type_symbol
_atom_site_label
_atom_site_fract_x
_atom_site_fract_y
_atom_site_fract_z
Si Si1 0.089609 0.071237 0.744289
Si Si2 0.083944 0.572921 0.548962
Si Si3 0.582755 0.426627 0.055537
Si Si4 0.074046 0.927624 0.252489
Si Si5 0.304020 0.579826 0.697879
Si Si6 0.159365 0.928105 0.351836
Si Si7 0.664380 0.929692 0.850673
Si Si8 0.786806 0.421692 0.199780
O O1 0.094494 0.250000 0.743717
O O2 0.007705 0.025918 0.751092
O O3 0.118391 0.007112 0.692197
O O4 0.140628 0.004979 0.786640
O O5 0.089137 0.750000 0.539823
O O6 0.102008 0.486209 0.498934
O O7 0.132827 0.535190 0.595739
O O8 0.001493 0.541078 0.561944
O O9 0.592491 0.250000 0.058638
O O10 0.626846 0.507056 0.098157
O O11 0.076152 0.750000 0.250500
O O12 0.107793 0.971125 0.305695
O O13 0.125389 0.989911 0.209959
O O14 0.322823 0.750000 0.687339
O O15 0.246788 0.526575 0.657441
O O16 0.258017 0.576467 0.748745
O O17 0.163062 0.750000 0.353601
O O18 0.236321 0.995874 0.339169
O O19 0.660587 0.750000 0.843550
O O20 0.798670 0.250000 0.186571
#
# Coordination Sequence:
#
# PCOD9461562 Si02
#       8
#     8   8   8   8   8   8   8   8
#     4  10  18  27  40  60  84 109 137 168 202 241
#     4   9  18  31  44  58  81 111 141 175 211 244
#     4  10  19  29  42  61  83 108 140 176 210 244
#     4   9  18  28  39  58  83 109 137 167 199 240
#     4   8  15  26  40  57  77 102 133 167 200 237
#     4  10  18  29  44  60  81 111 142 171 207 246
#     4   9  17  29  43  59  79 107 141 172 205 243
#     4   9  17  29  42  58  80 106 137 171 204 240
#
# _framework density 13.96449
#
# number of rings (size 3 to 8) (size 9 to 14) (size 15 to 20)
#    0.000    2.750    0.000    3.000    0.000    5.500 
#    0.000    0.000    0.000    0.000    0.000    0.000 
#    0.000    1.000    0.000    3.000    0.000    4.625 
#
# Total GULP energy -356534.994747 kJ/mol
# GULP energy per Si atom -5570.859293 kJ/mol
# Density = 1.393271 g / cm^3
# Si number density = 13.964490 Si / 1000 Ang^3
#
#
#
# Elastic Constant Matrix: (Units=GPa)
#
#
# Indices 1 2 3 4 5 6 
#
# 1 117.9541 47.7476 60.3108 0.0000 0.0000 0.0000
# 2 47.7476 47.6541 40.2355 0.0000 0.0000 0.0000
# 3 60.3108 40.2355 86.7984 0.0000 0.0000 0.0000
# 4 0.0000 0.0000 0.0000 21.4309 0.0000 0.0000
# 5 0.0000 0.0000 0.0000 0.0000 27.1704 0.0000
# 6 0.0000 0.0000 0.0000 0.0000 0.0000 23.1085
#
#
#
# Elastic Compliance Matrix: (Units=1/GPa)
#
#
# Indices 1 2 3 4 5 6 
#
# 1 0.015989 -0.010910 -0.006052 0.000000 0.000000 0.000000
# 2 -0.010910 0.041924 -0.011853 0.000000 0.000000 0.000000
# 3 -0.006052 -0.011853 0.021221 0.000000 0.000000 0.000000
# 4 0.000000 0.000000 0.000000 0.046662 0.000000 0.000000
# 5 0.000000 0.000000 0.000000 0.000000 0.036805 0.000000
# 6 0.000000 0.000000 0.000000 0.000000 0.000000 0.043274
#
#
# Mechanical properties :
#
#
# Convention : Reuss Voigt Hill
#
# Bulk Modulus (GPa) = 46.50605 60.99940 53.75272
# Shear Modulus (GPa) = 18.47250 21.28281 19.87765
#
# Velocity S-wave (km/s) = 3.64100 3.90816 3.77695
# Velocity P-wave (km/s) = 7.14502 8.00885 7.58923
#
# Compressibility (1/GPa) = 0.02150258
#
# Stress axis : x y z
#
# Youngs Moduli (GPa) = 62.54359 23.85272 47.12357
#
# Poissons Ratio (x) = 0.26024 0.28520
# Poissons Ratio (y) = 0.68236 0.55856
# Poissons Ratio (z) = 0.37853 0.28273
#
# Static dielectric constant tensor:
#      x y z
#    x 1.459730 0.000000 0.000000 
#    y 0.000000 1.470150 0.000000 
#    z 0.000000 0.000000 1.437310 
# 
# From -- ./inp_files/30027.got.cif
#   From: 2010.05.17/outbox.cif.g08.bks.cpg/sg62_16_cif.got.tgz:30027.got - 2010.06.03 15:25:27.
