data_PCOD9461590
_publ_section_title
;
Structure prediction by ZEFSAII (Michael W. Deem and Ramdas Pophale) SiO2 
 PCOD9461590
Probable space group: P N M A
;
_chemical_formula_sum "Si O2"
_cell_formula_units_Z 36
_cell_length_a 14.348939
_cell_length_b 5.705808
_cell_length_c 15.934679
_cell_angle_alpha 90.000000
_cell_angle_beta 90.000000
_cell_angle_gamma 90.000000
_cell_volume 1304.608675
_symmetry_space_group_name_H-M "P N M A"
_symmetry_group_IT_number 62
_symmetry_cell_setting 'orthorhombic'
loop_
_space_group_symop_operation_xyz
x,y,z
1/2-x,-y,1/2+z
1/2+x,1/2-y,1/2-z
-x,1/2+y,-z
-x,-y,-z
1/2+x,y,1/2-z
1/2-x,1/2+y,1/2+z
x,1/2-y,z
loop_
_atom_site_type_symbol
_atom_site_label
_atom_site_fract_x
_atom_site_fract_y
_atom_site_fract_z
Si Si1 0.124084 0.250000 0.306228
Si Si2 0.610132 0.000974 0.984154
Si Si3 0.196505 0.250000 0.857151
Si Si4 0.395832 0.250000 0.618077
Si Si5 0.048114 0.250000 0.121883
Si Si6 0.668409 0.750000 0.627037
Si Si7 0.323256 0.750000 0.166282
Si Si8 0.589435 0.750000 0.192716
O O1 0.110649 0.250000 0.205959
O O2 0.237279 0.250000 0.315450
O O3 0.073066 0.485813 0.338659
O O4 0.647547 0.750000 0.012470
O O5 0.648941 0.250000 0.019855
O O6 0.632501 0.033879 0.885615
O O7 0.500000 0.000000 0.000000
O O8 0.177327 0.486256 0.908033
O O9 0.148564 0.250000 0.763618
O O10 0.299701 0.250000 0.819129
O O11 0.427507 0.498641 0.579221
O O12 0.285406 0.250000 0.638727
O O13 0.440599 0.250000 0.711024
O O14 0.940552 0.250000 0.151519
#
# Coordination Sequence:
#
# PCOD9461590 Si02
#       8
#     4   8   4   4   4   4   4   4
#     4   8  14  24  36  47  58  81 108 132 176 218
#     4   8  15  24  35  52  74  96 116 146 182 208
#     4   9  17  24  36  51  64  88 115 146 186 207
#     4   9  17  24  36  51  64  88 115 146 186 207
#     4  10  18  28  37  49  69  88 113 155 194 224
#     4  10  18  28  37  49  69  88 113 155 194 224
#     4   9  18  24  42  53  76  90 128 160 178 211
#     4   7  12  22  32  46  62  73 102 138 166 205
#
# _framework density 27.594479
#
# number of rings (size 3 to 8) (size 9 to 14) (size 15 to 20)
#    0.667    2.667    0.000    2.000    3.111    0.000 
#    0.000    0.000    0.000    0.000    0.000    0.000 
#    0.000    0.000    0.000    0.000    0.000    0.000 
#
# Total GULP energy -200525.336532 kJ/mol
# GULP energy per Si atom -5570.148237 kJ/mol
# Density = 2.753167 g / cm^3
# Si number density = 27.594479 Si / 1000 Ang^3
#
#
#
# Elastic Constant Matrix: (Units=GPa)
#
#
# Indices 1 2 3 4 5 6 
#
# 1 156.0066 21.8192 29.3337 0.0000 0.0000 0.0000
# 2 21.8192 357.7034 24.5791 0.0000 0.0000 0.0000
# 3 29.3337 24.5791 87.7238 0.0000 0.0000 0.0000
# 4 0.0000 0.0000 0.0000 -6.8912 0.0000 0.0000
# 5 0.0000 0.0000 0.0000 0.0000 25.5033 0.0000
# 6 0.0000 0.0000 0.0000 0.0000 0.0000 72.1278
#
#
#
# Elastic Compliance Matrix: (Units=1/GPa)
#
#
# Indices 1 2 3 4 5 6 
#
# 1 0.006865 -0.000266 -0.002221 0.000000 0.000000 0.000000
# 2 -0.000266 0.002861 -0.000713 0.000000 0.000000 0.000000
# 3 -0.002221 -0.000713 0.012342 0.000000 0.000000 0.000000
# 4 0.000000 0.000000 0.000000 -0.145113 0.000000 0.000000
# 5 0.000000 0.000000 0.000000 0.000000 0.039211 0.000000
# 6 0.000000 0.000000 0.000000 0.000000 0.000000 0.013864
#
#
# Mechanical properties :
#
#
# Convention : Reuss Voigt Hill
#
# Bulk Modulus (GPa) = 63.82413 83.65530 73.73971
# Shear Modulus (GPa) = -85.69100 53.19476 -16.24812
#
# Velocity S-wave (km/s) = -5.57863 4.39536 -2.42919
# Velocity P-wave (km/s) = 4.27963 7.49271 4.34887
#
# Compressibility (1/GPa) = 0.01566806
#
# Stress axis : x y z
#
# Youngs Moduli (GPa) = 145.67058 349.55143 81.02603
#
# Poissons Ratio (x) = 0.09303 0.17995
# Poissons Ratio (y) = 0.03877 0.05774
# Poissons Ratio (z) = 0.32352 0.24908
#
# Static dielectric constant tensor:
#      x y z
#    x 2.098600 0.000000 0.000000 
#    y 0.000000 2.310610 0.000000 
#    z 0.000000 0.000000 2.210530 
# 
# From -- ./inp_files/26817.got.cif
#   From: 2010.05.17/outbox.cif.g08.bks.cpg/sg62_14_cif.got.tgz:26817.got - 2010.06.03 15:25:27.
