data_PCOD9461801
_publ_section_title
;
Structure prediction by ZEFSAII (Michael W. Deem and Ramdas Pophale) SiO2 
 PCOD9461801
Probable space group: P N M A
;
_chemical_formula_sum "Si O2"
_cell_formula_units_Z 40
_cell_length_a 19.262998
_cell_length_b 7.583262
_cell_length_c 13.872097
_cell_angle_alpha 90.000000
_cell_angle_beta 90.000000
_cell_angle_gamma 90.000000
_cell_volume 2026.385446
_symmetry_space_group_name_H-M "P N M A"
_symmetry_group_IT_number 62
_symmetry_cell_setting 'orthorhombic'
loop_
_space_group_symop_operation_xyz
x,y,z
1/2-x,-y,1/2+z
1/2+x,1/2-y,1/2-z
-x,1/2+y,-z
-x,-y,-z
1/2+x,y,1/2-z
1/2-x,1/2+y,1/2+z
x,1/2-y,z
loop_
_atom_site_type_symbol
_atom_site_label
_atom_site_fract_x
_atom_site_fract_y
_atom_site_fract_z
Si Si1 0.002853 0.038159 0.386823
Si Si2 0.287173 0.966206 0.600902
Si Si3 0.143001 0.545346 0.686100
Si Si4 0.204848 0.456289 0.887053
Si Si5 0.352453 0.536269 0.799628
O O1 0.004551 0.250000 0.373422
O O2 0.074493 0.971357 0.340603
O O3 0.931928 0.968486 0.338889
O O4 0.000000 0.000000 0.500000
O O5 0.285732 0.750000 0.599409
O O6 0.209597 0.029103 0.629201
O O7 0.307796 0.026101 0.494498
O O8 0.336609 0.017680 0.689427
O O9 0.139768 0.750000 0.656963
O O10 0.162612 0.538128 0.798635
O O11 0.187922 0.250000 0.886048
O O12 0.286423 0.477205 0.862429
O O13 0.351713 0.750000 0.801896
#
# Coordination Sequence:
#
# PCOD9461801 Si02
#       5
#     8   8   8   8   8
#     4  10  20  33  52  74  99 130 162 198 244 293
#     4   8  15  29  48  66  91 125 158 191 233 281
#     4   9  18  33  49  69  98 130 160 194 240 296
#     4  10  18  30  50  73  94 123 162 205 242 276
#     4   9  18  33  50  70  96 128 161 194 238 296
#
# _framework density 19.73958
#
# number of rings (size 3 to 8) (size 9 to 14) (size 15 to 20)
#    0.000    2.800    0.000    3.000    0.000    3.200 
#    0.000   11.000    0.000    0.000    0.000    0.000 
#    0.000    0.000    0.000    0.000    0.000    0.000 
#
# Total GULP energy -223118.960455 kJ/mol
# GULP energy per Si atom -5577.974011 kJ/mol
# Density = 1.969465 g / cm^3
# Si number density = 19.739580 Si / 1000 Ang^3
#
#
#
# Elastic Constant Matrix: (Units=GPa)
#
#
# Indices 1 2 3 4 5 6 
#
# 1 140.7551 -6.0276 59.6926 0.0000 0.0000 0.0000
# 2 -6.0276 41.2421 -17.9370 0.0000 0.0000 0.0000
# 3 59.6926 -17.9370 120.9754 0.0000 0.0000 0.0000
# 4 0.0000 0.0000 0.0000 21.3659 0.0000 0.0000
# 5 0.0000 0.0000 0.0000 0.0000 16.0182 0.0000
# 6 0.0000 0.0000 0.0000 0.0000 0.0000 10.1586
#
#
#
# Elastic Compliance Matrix: (Units=1/GPa)
#
#
# Indices 1 2 3 4 5 6 
#
# 1 0.009001 -0.000659 -0.004539 0.000000 0.000000 0.000000
# 2 -0.000659 0.025967 0.004175 0.000000 0.000000 0.000000
# 3 -0.004539 0.004175 0.011125 0.000000 0.000000 0.000000
# 4 0.000000 0.000000 0.000000 0.046803 0.000000 0.000000
# 5 0.000000 0.000000 0.000000 0.000000 0.062429 0.000000
# 6 0.000000 0.000000 0.000000 0.000000 0.000000 0.098439
#
#
# Mechanical properties :
#
#
# Convention : Reuss Voigt Hill
#
# Bulk Modulus (GPa) = 22.70280 41.60317 32.15298
# Shear Modulus (GPa) = 18.48480 27.32484 22.90482
#
# Velocity S-wave (km/s) = 3.06344 3.72461 3.41009
# Velocity P-wave (km/s) = 4.90296 6.29434 5.64171
#
# Compressibility (1/GPa) = 0.04404743
#
# Stress axis : x y z
#
# Youngs Moduli (GPa) = 111.09462 38.51098 89.88831
#
# Poissons Ratio (x) = 0.02536 0.40802
# Poissons Ratio (y) = 0.07317 -0.37529
# Poissons Ratio (z) = 0.50428 -0.16078
#
# Static dielectric constant tensor:
#      x y z
#    x 1.685990 0.000000 0.000000 
#    y 0.000000 1.653480 0.000000 
#    z 0.000000 0.000000 1.678000 
# 
# From -- ./inp_files/14606.got.cif
#   From: 2010.05.17/outbox.cif.g08.bks.cpg/sg62_8_cif.got.tgz:14606.got - 2010.06.03 15:25:27.
