data_PCOD9461331
_publ_section_title
;
Structure prediction by ZEFSAII (Michael W. Deem and Ramdas Pophale) SiO2 
 PCOD9461331
Probable space group: P N M A
;
_chemical_formula_sum "Si O2"
_cell_formula_units_Z 56
_cell_length_a 21.992082
_cell_length_b 26.516707
_cell_length_c 5.421008
_cell_angle_alpha 90.000000
_cell_angle_beta 90.000000
_cell_angle_gamma 90.000000
_cell_volume 3161.301986
_symmetry_space_group_name_H-M "P N M A"
_symmetry_group_IT_number 62
_symmetry_cell_setting 'orthorhombic'
loop_
_space_group_symop_operation_xyz
x,y,z
1/2-x,-y,1/2+z
1/2+x,1/2-y,1/2-z
-x,1/2+y,-z
-x,-y,-z
1/2+x,y,1/2-z
1/2-x,1/2+y,1/2+z
x,1/2-y,z
loop_
_atom_site_type_symbol
_atom_site_label
_atom_site_fract_x
_atom_site_fract_y
_atom_site_fract_z
Si Si1 0.706401 0.691411 0.736069
Si Si2 0.927398 0.305699 0.737143
Si Si3 0.715514 0.984561 0.227815
Si Si4 0.563176 0.831018 0.737069
Si Si5 0.958108 0.053096 0.274741
Si Si6 0.302143 0.136327 0.763837
Si Si7 0.920674 0.996777 0.774961
O O1 0.725231 0.750000 0.735319
O O2 0.632167 0.690283 0.736323
O O3 0.723733 0.661504 0.486600
O O4 0.723699 0.661825 0.986456
O O5 0.898657 0.250000 0.738112
O O6 0.965079 0.312227 0.489746
O O7 0.873753 0.347305 0.736957
O O8 0.965161 0.312765 0.983951
O O9 0.704661 0.923899 0.234199
O O10 0.650394 0.012089 0.246138
O O11 0.753608 0.000467 0.469129
O O12 0.565086 0.890802 0.742367
O O13 0.939097 0.032769 0.543879
O O14 0.931828 0.020970 0.045182
O O15 0.031145 0.048538 0.250824
#
# Coordination Sequence:
#
# PCOD9461331 Si02
#       7
#     8   8   8   8   8   8   8
#     4  10  17  27  46  72 102 126 153 202 267 336
#     4  10  18  28  45  70 102 128 154 200 260 329
#     4  12  24  37  52  73 105 149 190 224 262 308
#     4  10  16  25  41  66  97 125 153 183 243 309
#     4  10  19  32  54  76  99 136 169 210 257 300
#     4  10  18  30  45  64  96 132 164 201 253 307
#     4  10  20  35  51  73 102 132 179 218 249 299
#
# _framework density 17.714219
#
# number of rings (size 3 to 8) (size 9 to 14) (size 15 to 20)
#    0.000    1.714    0.000   10.286    0.000    0.000 
#    0.000    0.000    0.000    0.000    0.000    0.000 
#    0.000   38.857    0.000    0.000    0.000    0.000 
#
# Total GULP energy -312046.506763 kJ/mol
# GULP energy per Si atom -5572.259049 kJ/mol
# Density = 1.767390 g / cm^3
# Si number density = 17.714219 Si / 1000 Ang^3
#
#
#
# Elastic Constant Matrix: (Units=GPa)
#
#
# Indices 1 2 3 4 5 6 
#
# 1 46.3966 -1.8062 -5.5851 0.0000 0.0000 0.0000
# 2 -1.8062 82.4396 18.5762 0.0000 0.0000 0.0000
# 3 -5.5851 18.5762 148.3925 0.0000 0.0000 0.0000
# 4 0.0000 0.0000 0.0000 30.6133 0.0000 0.0000
# 5 0.0000 0.0000 0.0000 0.0000 16.6865 0.0000
# 6 0.0000 0.0000 0.0000 0.0000 0.0000 10.4592
#
#
#
# Elastic Compliance Matrix: (Units=1/GPa)
#
#
# Indices 1 2 3 4 5 6 
#
# 1 0.021659 0.000299 0.000778 0.000000 0.000000 0.000000
# 2 0.000299 0.012486 -0.001552 0.000000 0.000000 0.000000
# 3 0.000778 -0.001552 0.006962 0.000000 0.000000 0.000000
# 4 0.000000 0.000000 0.000000 0.032666 0.000000 0.000000
# 5 0.000000 0.000000 0.000000 0.000000 0.059929 0.000000
# 6 0.000000 0.000000 0.000000 0.000000 0.000000 0.095610
#
#
# Mechanical properties :
#
#
# Convention : Reuss Voigt Hill
#
# Bulk Modulus (GPa) = 24.90185 33.28872 29.09529
# Shear Modulus (GPa) = 20.52152 29.28806 24.90479
#
# Velocity S-wave (km/s) = 3.40733 4.07057 3.75363
# Velocity P-wave (km/s) = 5.43764 6.39731 5.93690
#
# Compressibility (1/GPa) = 0.04015766
#
# Stress axis : x y z
#
# Youngs Moduli (GPa) = 46.17110 80.08770 143.62832
#
# Poissons Ratio (x) = -0.02397 -0.11170
# Poissons Ratio (y) = -0.01382 0.22288
# Poissons Ratio (z) = -0.03591 0.12428
#
# Static dielectric constant tensor:
#      x y z
#    x 1.575480 0.000000 0.000000 
#    y 0.000000 1.614400 0.000000 
#    z 0.000000 0.000000 1.729910 
# 
# From -- ./inp_files/2304.got.cif
#   From: 2010.05.17/outbox.cif.g08.bks.cpg/sg62_2_cif.got.tgz:2304.got - 2010.06.03 15:25:27.
