data_PCOD9461383
_publ_section_title
;
Structure prediction by ZEFSAII (Michael W. Deem and Ramdas Pophale) SiO2 
 PCOD9461383
Probable space group: P N M A
;
_chemical_formula_sum "Si O2"
_cell_formula_units_Z 64
_cell_length_a 31.891244
_cell_length_b 7.428878
_cell_length_c 14.863470
_cell_angle_alpha 90.000000
_cell_angle_beta 90.000000
_cell_angle_gamma 90.000000
_cell_volume 3521.396251
_symmetry_space_group_name_H-M "P N M A"
_symmetry_group_IT_number 62
_symmetry_cell_setting 'orthorhombic'
loop_
_space_group_symop_operation_xyz
x,y,z
1/2-x,-y,1/2+z
1/2+x,1/2-y,1/2-z
-x,1/2+y,-z
-x,-y,-z
1/2+x,y,1/2-z
1/2-x,1/2+y,1/2+z
x,1/2-y,z
loop_
_atom_site_type_symbol
_atom_site_label
_atom_site_fract_x
_atom_site_fract_y
_atom_site_fract_z
Si Si1 0.632578 0.969120 0.820934
Si Si2 0.790592 0.971085 0.795731
Si Si3 0.325323 0.032177 0.989260
Si Si4 0.871210 0.545781 0.691793
Si Si5 0.953171 0.463505 0.392426
Si Si6 0.952515 0.968000 0.602572
Si Si7 0.770121 0.534403 0.996701
Si Si8 0.205758 0.536600 0.805934
O O1 0.630577 0.750000 0.815177
O O2 0.584766 0.034185 0.831250
O O3 0.664024 0.033364 0.743358
O O4 0.654822 0.012985 0.915204
O O5 0.790983 0.750000 0.791527
O O6 0.834602 0.034625 0.753729
O O7 0.749544 0.030772 0.738560
O O8 0.786048 0.027386 0.899507
O O9 0.326719 0.250000 0.979834
O O10 0.277364 0.970926 0.988097
O O11 0.350238 0.951216 0.906672
O O12 0.878100 0.750000 0.724458
O O13 0.916859 0.464560 0.670911
O O14 0.955511 0.250000 0.376766
O O15 0.942558 0.486910 0.498409
O O16 0.000275 0.534549 0.378991
O O17 0.952326 0.750000 0.607211
O O18 0.768166 0.750000 0.990075
O O19 0.794882 0.490806 0.087332
O O20 0.206512 0.750000 0.788607
#
# Coordination Sequence:
#
# PCOD9461383 Si02
#       8
#     8   8   8   8   8   8   8   8
#     4   9  16  27  44  62  82 115 148 168 201 255
#     4   9  17  29  44  59  82 114 141 166 207 255
#     4  10  17  26  42  62  84 111 143 173 201 245
#     4  10  18  28  42  62  86 115 143 170 207 248
#     4   9  16  27  42  60  85 115 141 168 208 255
#     4   9  17  26  39  63  89 109 138 177 209 245
#     4  10  19  31  44  61  85 112 143 178 209 245
#     4  10  18  30  46  63  82 110 146 177 208 249
#
# _framework density 18.174609
#
# number of rings (size 3 to 8) (size 9 to 14) (size 15 to 20)
#    0.000    2.500    3.750    0.000    0.000    0.000 
#    0.000    2.500    0.000    0.000    0.000    0.875 
#    0.000    0.000    0.000    0.000    0.000    0.000 
#
# Total GULP energy -356852.129697 kJ/mol
# GULP energy per Si atom -5575.814527 kJ/mol
# Density = 1.813324 g / cm^3
# Si number density = 18.174609 Si / 1000 Ang^3
#
#
#
# Elastic Constant Matrix: (Units=GPa)
#
#
# Indices 1 2 3 4 5 6 
#
# 1 145.0958 4.3411 57.6733 0.0000 0.0000 0.0000
# 2 4.3411 55.7519 -2.2379 0.0000 0.0000 0.0000
# 3 57.6733 -2.2379 91.8992 0.0000 0.0000 0.0000
# 4 0.0000 0.0000 0.0000 7.5977 0.0000 0.0000
# 5 0.0000 0.0000 0.0000 0.0000 25.9805 0.0000
# 6 0.0000 0.0000 0.0000 0.0000 0.0000 2.3625
#
#
#
# Elastic Compliance Matrix: (Units=1/GPa)
#
#
# Indices 1 2 3 4 5 6 
#
# 1 0.009233 -0.000952 -0.005817 0.000000 0.000000 0.000000
# 2 -0.000952 0.018052 0.001037 0.000000 0.000000 0.000000
# 3 -0.005817 0.001037 0.014558 0.000000 0.000000 0.000000
# 4 0.000000 0.000000 0.000000 0.131618 0.000000 0.000000
# 5 0.000000 0.000000 0.000000 0.000000 0.038490 0.000000
# 6 0.000000 0.000000 0.000000 0.000000 0.000000 0.423287
#
#
# Mechanical properties :
#
#
# Convention : Reuss Voigt Hill
#
# Bulk Modulus (GPa) = 32.91883 45.81111 39.36497
# Shear Modulus (GPa) = 7.61233 22.71951 15.16592
#
# Velocity S-wave (km/s) = 2.04879 3.53947 2.89183
# Velocity P-wave (km/s) = 4.87325 6.47801 5.73207
#
# Compressibility (1/GPa) = 0.03037775
#
# Stress axis : x y z
#
# Youngs Moduli (GPa) = 108.30896 55.39428 68.69253
#
# Poissons Ratio (x) = 0.05276 0.39962
# Poissons Ratio (y) = 0.10316 -0.07126
# Poissons Ratio (z) = 0.63008 -0.05746
#
# Static dielectric constant tensor:
#      x y z
#    x 1.671080 0.000000 0.000000 
#    y 0.000000 1.725530 0.000000 
#    z 0.000000 0.000000 1.591840 
# 
# From -- ./inp_files/21217.got.cif
#   From: 2010.05.17/outbox.cif.g08.bks.cpg/sg62_11_cif.got.tgz:21217.got - 2010.06.03 15:25:27.
