data_PCOD9461075
_publ_section_title
;
Structure prediction by ZEFSAII (Michael W. Deem and Ramdas Pophale) SiO2 
 PCOD9461075
Probable space group: P B C A
;
_chemical_formula_sum "Si O2"
_cell_formula_units_Z 40
_cell_length_a 9.813804
_cell_length_b 15.623690
_cell_length_c 10.195563
_cell_angle_alpha 90.000000
_cell_angle_beta 90.000000
_cell_angle_gamma 90.000000
_cell_volume 1563.263565
_symmetry_space_group_name_H-M "P B C A"
_symmetry_group_IT_number 61
_symmetry_cell_setting 'orthorhombic'
loop_
_space_group_symop_operation_xyz
x,y,z
1/2-x,-y,1/2+z
1/2+x,1/2-y,-z
-x,1/2+y,1/2-z
-x,-y,-z
1/2+x,y,1/2-z
1/2-x,1/2+y,z
x,1/2-y,1/2+z
loop_
_atom_site_type_symbol
_atom_site_label
_atom_site_fract_x
_atom_site_fract_y
_atom_site_fract_z
Si Si1 0.424962 0.791102 0.772755
Si Si2 0.989540 0.124668 0.688463
Si Si3 0.196284 0.739077 0.085635
Si Si4 0.314680 0.909435 0.960437
Si Si5 0.294120 0.914166 0.402456
O O1 0.501306 0.727992 0.668187
O O2 0.536836 0.773173 0.886929
O O3 0.275120 0.760001 0.725924
O O4 0.384749 0.887105 0.819664
O O5 0.068851 0.079212 0.570047
O O6 0.071238 0.105170 0.821114
O O7 0.836528 0.093378 0.693034
O O8 0.235020 0.824198 0.006841
O O9 0.262392 0.657412 0.011759
O O10 0.215878 0.990008 0.955387
#
# Coordination Sequence:
#
# PCOD9461075 Si02
#       5
#     8   8   8   8   8
#     4  11  24  46  78 102 151 194 246 308 381 440
#     4  11  24  48  70 108 151 194 246 314 366 453
#     4  11  26  49  72 112 146 198 248 311 376 451
#     4  11  25  45  77 106 148 200 246 310 379 438
#     4  12  26  48  74 109 155 193 257 310 371 454
#
# _framework density 25.587496999999999
#
# number of rings (size 3 to 8) (size 9 to 14) (size 15 to 20)
#    0.000    0.800    4.000    3.000    2.800    0.000 
#    3.600    4.000    0.000    0.000    0.000    0.000 
#    0.000    0.000    0.000    0.000    0.000    0.000 
#
# Total GULP energy -222855.431755 kJ/mol
# GULP energy per Si atom -5571.385794 kJ/mol
# Density = 2.552926 g / cm^3
# Si number density = 25.587497 Si / 1000 Ang^3
#
#
#
# Elastic Constant Matrix: (Units=GPa)
#
#
# Indices 1 2 3 4 5 6 
#
# 1 106.2726 25.6675 30.7881 0.0000 0.0000 0.0000
# 2 25.6675 150.3515 33.4867 0.0000 0.0000 0.0000
# 3 30.7881 33.4867 94.9695 0.0000 0.0000 0.0000
# 4 0.0000 0.0000 0.0000 20.5327 0.0000 0.0000
# 5 0.0000 0.0000 0.0000 0.0000 49.3889 0.0000
# 6 0.0000 0.0000 0.0000 0.0000 0.0000 29.1941
#
#
#
# Elastic Compliance Matrix: (Units=1/GPa)
#
#
# Indices 1 2 3 4 5 6 
#
# 1 0.010559 -0.001129 -0.003025 0.000000 0.000000 0.000000
# 2 -0.001129 0.007339 -0.002222 0.000000 0.000000 0.000000
# 3 -0.003025 -0.002222 0.012294 0.000000 0.000000 0.000000
# 4 0.000000 0.000000 0.000000 0.048703 0.000000 0.000000
# 5 0.000000 0.000000 0.000000 0.000000 0.020247 0.000000
# 6 0.000000 0.000000 0.000000 0.000000 0.000000 0.034253
#
#
# Mechanical properties :
#
#
# Convention : Reuss Voigt Hill
#
# Bulk Modulus (GPa) = 57.33912 59.05316 58.19614
# Shear Modulus (GPa) = 32.90355 37.26656 35.08506
#
# Velocity S-wave (km/s) = 3.58987 3.82047 3.70696
# Velocity P-wave (km/s) = 6.29607 6.52613 6.41213
#
# Compressibility (1/GPa) = 0.01744010
#
# Stress axis : x y z
#
# Youngs Moduli (GPa) = 94.70797 136.26562 81.34216
#
# Poissons Ratio (x) = 0.15382 0.24606
# Poissons Ratio (y) = 0.10691 0.18072
# Poissons Ratio (z) = 0.28649 0.30274
#
# Static dielectric constant tensor:
#      x y z
#    x 1.987900 0.000000 0.000000 
#    y 0.000000 2.062340 0.000000 
#    z 0.000000 0.000000 2.124220 
# 
# From -- ./inp_files/4787.got.cif
#   From: 2010.05.17/outbox.cif.g08.bks.cpg/sg61_3_cif.got.tgz:4787.got - 2010.06.03 15:17:17.
