data_PCOD9461408
_publ_section_title
;
Structure prediction by ZEFSAII (Michael W. Deem and Ramdas Pophale) SiO2 
 PCOD9461408
Probable space group: P N M A
;
_chemical_formula_sum "Si O2"
_cell_formula_units_Z 64
_cell_length_a 14.762882
_cell_length_b 7.558524
_cell_length_c 31.722102
_cell_angle_alpha 90.000000
_cell_angle_beta 90.000000
_cell_angle_gamma 90.000000
_cell_volume 3539.729719
_symmetry_space_group_name_H-M "P N M A"
_symmetry_group_IT_number 62
_symmetry_cell_setting 'orthorhombic'
loop_
_space_group_symop_operation_xyz
x,y,z
1/2-x,-y,1/2+z
1/2+x,1/2-y,1/2-z
-x,1/2+y,-z
-x,-y,-z
1/2+x,y,1/2-z
1/2-x,1/2+y,1/2+z
x,1/2-y,z
loop_
_atom_site_type_symbol
_atom_site_label
_atom_site_fract_x
_atom_site_fract_y
_atom_site_fract_z
Si Si1 0.161518 0.958690 0.696195
Si Si2 0.599834 0.464299 0.549724
Si Si3 0.009016 0.036512 0.173419
Si Si4 0.323435 0.549214 0.366405
Si Si5 0.973974 0.964119 0.729376
Si Si6 0.234631 0.544152 0.282549
Si Si7 0.696703 0.033799 0.370806
Si Si8 0.888733 0.961125 0.955041
O O1 0.151103 0.750000 0.688449
O O2 0.060174 0.029854 0.702889
O O3 0.219098 0.031211 0.656959
O O4 0.218962 0.972385 0.739861
O O5 0.604969 0.250000 0.550036
O O6 0.665358 0.530865 0.586936
O O7 0.494025 0.509150 0.557324
O O8 0.622751 0.529551 0.502641
O O9 0.998911 0.250000 0.169568
O O10 0.005772 0.988747 0.222291
O O11 0.105960 0.987997 0.154803
O O12 0.926955 0.948424 0.149283
O O13 0.288205 0.750000 0.371463
O O14 0.270797 0.465319 0.326796
O O15 0.971294 0.750000 0.727266
O O16 0.873529 0.027211 0.718700
O O17 0.260466 0.750000 0.282843
O O18 0.701045 0.250000 0.371673
O O19 0.677955 0.972118 0.418479
O O20 0.876464 0.750000 0.956973
#
# Coordination Sequence:
#
# PCOD9461408 Si02
#       8
#     8   8   8   8   8   8   8   8
#     4  10  19  33  50  67  89 117 152 190 227 268
#     4   9  17  28  42  62  90 119 147 179 216 262
#     4  10  17  27  46  67  89 118 150 185 220 260
#     4  10  20  31  42  63  93 124 153 182 218 261
#     4  10  20  33  48  64  87 120 154 189 225 262
#     4  11  22  32  45  65  92 122 153 188 222 265
#     4   9  16  27  44  67  90 113 145 181 219 262
#     4   9  16  27  44  65  89 116 145 179 220 266
#
# _framework density 18.080476999999998
#
# number of rings (size 3 to 8) (size 9 to 14) (size 15 to 20)
#    0.000    2.250    3.750    0.375    0.000    1.500 
#    0.000    0.625    0.000    0.000    0.000    0.875 
#    0.000    0.000    0.000    0.000    0.000    0.000 
#
# Total GULP energy -356812.348497 kJ/mol
# GULP energy per Si atom -5575.192945 kJ/mol
# Density = 1.803932 g / cm^3
# Si number density = 18.080477 Si / 1000 Ang^3
#
#
#
# Elastic Constant Matrix: (Units=GPa)
#
#
# Indices 1 2 3 4 5 6 
#
# 1 50.7599 -7.5327 14.5635 0.0000 0.0000 0.0000
# 2 -7.5327 39.5040 -2.0080 0.0000 0.0000 0.0000
# 3 14.5635 -2.0080 110.6819 0.0000 0.0000 0.0000
# 4 0.0000 0.0000 0.0000 4.7004 0.0000 0.0000
# 5 0.0000 0.0000 0.0000 0.0000 29.2321 0.0000
# 6 0.0000 0.0000 0.0000 0.0000 0.0000 19.3212
#
#
#
# Elastic Compliance Matrix: (Units=1/GPa)
#
#
# Indices 1 2 3 4 5 6 
#
# 1 0.021050 0.003877 -0.002699 0.000000 0.000000 0.000000
# 2 0.003877 0.026051 -0.000037 0.000000 0.000000 0.000000
# 3 -0.002699 -0.000037 0.009389 0.000000 0.000000 0.000000
# 4 0.000000 0.000000 0.000000 0.212746 0.000000 0.000000
# 5 0.000000 0.000000 0.000000 0.000000 0.034209 0.000000
# 6 0.000000 0.000000 0.000000 0.000000 0.000000 0.051757
#
#
# Mechanical properties :
#
#
# Convention : Reuss Voigt Hill
#
# Bulk Modulus (GPa) = 17.01534 23.44350 20.22942
# Shear Modulus (GPa) = 13.42236 23.71229 18.56732
#
# Velocity S-wave (km/s) = 2.72760 3.62537 3.20805
# Velocity P-wave (km/s) = 4.39898 5.52438 4.99349
#
# Compressibility (1/GPa) = 0.05877049
#
# Stress axis : x y z
#
# Youngs Moduli (GPa) = 47.50503 38.38599 106.50291
#
# Poissons Ratio (x) = -0.14881 0.28750
# Poissons Ratio (y) = -0.18416 0.00399
# Poissons Ratio (z) = 0.12824 0.00144
#
# Static dielectric constant tensor:
#      x y z
#    x 1.598890 0.000000 0.000000 
#    y 0.000000 1.834180 0.000000 
#    z 0.000000 0.000000 1.674740 
# 
# From -- ./inp_files/32703.got.cif
#   From: 2010.05.17/outbox.cif.g08.bks.cpg/sg62_17_cif.got.tgz:32703.got - 2010.06.03 15:25:27.
