data_PCOD9461407
_publ_section_title
;
Structure prediction by ZEFSAII (Michael W. Deem and Ramdas Pophale) SiO2 
 PCOD9461407
Probable space group: P N M A
;
_chemical_formula_sum "Si O2"
_cell_formula_units_Z 64
_cell_length_a 20.479587
_cell_length_b 7.477707
_cell_length_c 20.350747
_cell_angle_alpha 90.000000
_cell_angle_beta 90.000000
_cell_angle_gamma 90.000000
_cell_volume 3116.520540
_symmetry_space_group_name_H-M "P N M A"
_symmetry_group_IT_number 62
_symmetry_cell_setting 'orthorhombic'
loop_
_space_group_symop_operation_xyz
x,y,z
1/2-x,-y,1/2+z
1/2+x,1/2-y,1/2-z
-x,1/2+y,-z
-x,-y,-z
1/2+x,y,1/2-z
1/2-x,1/2+y,1/2+z
x,1/2-y,z
loop_
_atom_site_type_symbol
_atom_site_label
_atom_site_fract_x
_atom_site_fract_y
_atom_site_fract_z
Si Si1 0.243231 0.964382 0.482347
Si Si2 0.597281 0.533480 0.987207
Si Si3 0.266189 0.538274 0.829697
Si Si4 0.990486 0.454182 0.608045
Si Si5 0.729935 0.032011 0.377057
Si Si6 0.624893 0.468890 0.267177
Si Si7 0.339682 0.031017 0.222509
Si Si8 0.985321 0.448423 0.251646
O O1 0.246671 0.750000 0.483207
O O2 0.170252 0.021741 0.500794
O O3 0.281665 0.026990 0.547632
O O4 0.251232 0.010515 0.405844
O O5 0.594465 0.750000 0.983148
O O6 0.562299 0.460563 0.923252
O O7 0.555723 0.476353 0.050528
O O8 0.269149 0.750000 0.819937
O O9 0.335825 0.472721 0.799445
O O10 0.208177 0.475941 0.781954
O O11 0.972665 0.250000 0.622842
O O12 0.989959 0.564189 0.673459
O O13 0.731460 0.250000 0.377299
O O14 0.672927 0.980315 0.326726
O O15 0.799301 0.978289 0.343255
O O16 0.620479 0.250000 0.266057
O O17 0.550701 0.533940 0.278813
O O18 0.344232 0.250000 0.219317
O O19 0.413265 0.968027 0.239044
O O20 0.975821 0.250000 0.222472
#
# Coordination Sequence:
#
# PCOD9461407 Si02
#       8
#     8   8   8   8   8   8   8   8
#     4  10  18  28  46  67  86 113 147 182 219 258
#     4   9  18  30  41  57  85 120 151 173 201 253
#     4   9  17  30  46  65  90 115 141 178 221 261
#     4  10  19  28  39  60  90 117 141 173 214 257
#     4   8  14  26  43  64  88 111 141 180 216 251
#     4   8  15  27  45  67  86 109 145 185 217 249
#     4   8  15  28  46  65  85 113 146 178 212 255
#     4  10  17  27  46  66  82 107 146 183 216 257
#
# _framework density 20.535722
#
# number of rings (size 3 to 8) (size 9 to 14) (size 15 to 20)
#    0.000    3.000    0.000    3.375    0.000    3.000 
#    0.000    0.625    0.000    4.500    0.000    0.000 
#    0.000    0.000    0.000    0.000    0.000    0.000 
#
# Total GULP energy -356456.437049 kJ/mol
# GULP energy per Si atom -5569.631829 kJ/mol
# Density = 2.048898 g / cm^3
# Si number density = 20.535722 Si / 1000 Ang^3
#
#
#
# Elastic Constant Matrix: (Units=GPa)
#
#
# Indices 1 2 3 4 5 6 
#
# 1 91.4061 3.3906 12.7800 0.0000 0.0000 0.0000
# 2 3.3906 54.5799 -1.9968 0.0000 0.0000 0.0000
# 3 12.7800 -1.9968 91.8234 0.0000 0.0000 0.0000
# 4 0.0000 0.0000 0.0000 5.6315 0.0000 0.0000
# 5 0.0000 0.0000 0.0000 0.0000 18.2822 0.0000
# 6 0.0000 0.0000 0.0000 0.0000 0.0000 14.3266
#
#
#
# Elastic Compliance Matrix: (Units=1/GPa)
#
#
# Indices 1 2 3 4 5 6 
#
# 1 0.011188 -0.000753 -0.001574 0.000000 0.000000 0.000000
# 2 -0.000753 0.018387 0.000505 0.000000 0.000000 0.000000
# 3 -0.001574 0.000505 0.011120 0.000000 0.000000 0.000000
# 4 0.000000 0.000000 0.000000 0.177572 0.000000 0.000000
# 5 0.000000 0.000000 0.000000 0.000000 0.054698 0.000000
# 6 0.000000 0.000000 0.000000 0.000000 0.000000 0.069800
#
#
# Mechanical properties :
#
#
# Convention : Reuss Voigt Hill
#
# Bulk Modulus (GPa) = 26.98877 29.57300 28.28088
# Shear Modulus (GPa) = 13.93690 22.55711 18.24700
#
# Velocity S-wave (km/s) = 2.60795 3.31786 2.98409
# Velocity P-wave (km/s) = 4.71587 5.39533 5.06700
#
# Compressibility (1/GPa) = 0.03705245
#
# Stress axis : x y z
#
# Youngs Moduli (GPa) = 89.38058 54.38634 89.92448
#
# Poissons Ratio (x) = 0.04093 0.14150
# Poissons Ratio (y) = 0.06727 -0.04537
# Poissons Ratio (z) = 0.14064 -0.02744
#
# Static dielectric constant tensor:
#      x y z
#    x 1.785760 0.000000 0.000000 
#    y 0.000000 1.778660 0.000000 
#    z 0.000000 0.000000 1.744900 
# 
# From -- ./inp_files/27900.got.cif
#   From: 2010.05.17/outbox.cif.g08.bks.cpg/sg62_14_cif.got.tgz:27900.got - 2010.06.03 15:25:27.
