data_PCOD9461366
_publ_section_title
;
Structure prediction by ZEFSAII (Michael W. Deem and Ramdas Pophale) SiO2 
 PCOD9461366
Probable space group: P N M A
;
_chemical_formula_sum "Si O2"
_cell_formula_units_Z 56
_cell_length_a 26.551601
_cell_length_b 11.774173
_cell_length_c 6.793153
_cell_angle_alpha 90.000000
_cell_angle_beta 90.000000
_cell_angle_gamma 90.000000
_cell_volume 2123.696846
_symmetry_space_group_name_H-M "P N M A"
_symmetry_group_IT_number 62
_symmetry_cell_setting 'orthorhombic'
loop_
_space_group_symop_operation_xyz
x,y,z
1/2-x,-y,1/2+z
1/2+x,1/2-y,1/2-z
-x,1/2+y,-z
-x,-y,-z
1/2+x,y,1/2-z
1/2-x,1/2+y,1/2+z
x,1/2-y,z
loop_
_atom_site_type_symbol
_atom_site_label
_atom_site_fract_x
_atom_site_fract_y
_atom_site_fract_z
Si Si1 0.554362 0.407624 0.641099
Si Si2 0.899293 0.369830 0.030131
Si Si3 0.548313 0.624440 0.132561
Si Si4 0.801807 0.385175 0.271172
Si Si5 0.189855 0.117921 0.183315
Si Si6 0.576701 0.380950 0.187765
Si Si7 0.833406 0.623727 0.274347
O O1 0.564547 0.541067 0.631259
O O2 0.504077 0.373107 0.748047
O O3 0.553588 0.377130 0.408892
O O4 0.606667 0.367269 0.737740
O O5 0.915934 0.250000 0.106840
O O6 0.841029 0.382025 0.089160
O O7 0.908199 0.371455 0.798789
O O8 0.551293 0.750000 0.029353
O O9 0.554239 0.490246 0.070219
O O10 0.803170 0.250000 0.346246
O O11 0.743887 0.418987 0.235814
O O12 0.821992 0.501670 0.377397
O O13 0.190745 0.250000 0.220880
O O14 0.135244 0.089062 0.269279
O O15 0.189037 0.108323 0.945888
O O16 0.571998 0.250000 0.113567
O O17 0.816501 0.750000 0.346321
#
# Coordination Sequence:
#
# PCOD9461366 Si02
#       7
#     8   8   8   8   8   8   8
#     4   9  15  22  34  50  73 102 126 145 175 221
#     4   8  14  21  31  48  68  90 121 153 178 206
#     4  10  17  23  32  51  77 101 120 146 183 220
#     4   9  16  27  40  54  73  99 129 165 201 226
#     4   8  15  27  41  53  71 101 133 161 195 231
#     4   9  15  23  34  47  63  91 127 152 170 208
#     4   9  16  27  41  57  75 102 137 162 182 224
#
# _framework density 26.369112999999999
#
# number of rings (size 3 to 8) (size 9 to 14) (size 15 to 20)
#    0.000    3.143    0.000    4.714    0.000    1.714 
#    0.000    1.429    0.000    0.000    0.000    0.000 
#    0.000    0.000    0.000   20.571    0.000  154.857 
#
# Total GULP energy -311862.960362 kJ/mol
# GULP energy per Si atom -5568.981435 kJ/mol
# Density = 2.630910 g / cm^3
# Si number density = 26.369113 Si / 1000 Ang^3
#
#
#
# Elastic Constant Matrix: (Units=GPa)
#
#
# Indices 1 2 3 4 5 6 
#
# 1 129.1352 39.9754 32.6929 0.0000 0.0000 0.0000
# 2 39.9754 261.0091 30.2604 0.0000 0.0000 0.0000
# 3 32.6929 30.2604 84.4227 0.0000 0.0000 0.0000
# 4 0.0000 0.0000 0.0000 29.0783 0.0000 0.0000
# 5 0.0000 0.0000 0.0000 0.0000 22.1479 0.0000
# 6 0.0000 0.0000 0.0000 0.0000 0.0000 -13.9023
#
#
#
# Elastic Compliance Matrix: (Units=1/GPa)
#
#
# Indices 1 2 3 4 5 6 
#
# 1 0.008827 -0.000997 -0.003061 0.000000 0.000000 0.000000
# 2 -0.000997 0.004110 -0.001087 0.000000 0.000000 0.000000
# 3 -0.003061 -0.001087 0.013420 0.000000 0.000000 0.000000
# 4 0.000000 0.000000 0.000000 0.034390 0.000000 0.000000
# 5 0.000000 0.000000 0.000000 0.000000 0.045151 0.000000
# 6 0.000000 0.000000 0.000000 0.000000 0.000000 -0.071931
#
#
# Mechanical properties :
#
#
# Convention : Reuss Voigt Hill
#
# Bulk Modulus (GPa) = 62.23840 75.60269 68.92055
# Shear Modulus (GPa) = 100.77763 32.24066 66.50914
#
# Velocity S-wave (km/s) = 6.18878 3.50046 5.02764
# Velocity P-wave (km/s) = 8.64419 6.71348 7.73928
#
# Compressibility (1/GPa) = 0.01606725
#
# Stress axis : x y z
#
# Youngs Moduli (GPa) = 113.28304 243.30736 74.51453
#
# Poissons Ratio (x) = 0.24260 0.22809
# Poissons Ratio (y) = 0.11295 0.08100
# Poissons Ratio (z) = 0.34676 0.26449
#
# Static dielectric constant tensor:
#      x y z
#    x 2.085180 0.000000 0.000000 
#    y 0.000000 2.193260 0.000000 
#    z 0.000000 0.000000 2.115030 
# 
# From -- ./inp_files/15270.got.cif
#   From: 2010.05.17/outbox.cif.g08.bks.cpg/sg62_8_cif.got.tgz:15270.got - 2010.06.03 15:25:27.
