data_PCOD9461183
_publ_section_title
;
Structure prediction by ZEFSAII (Michael W. Deem and Ramdas Pophale) SiO2 
 PCOD9461183
Probable space group: P B C A
;
_chemical_formula_sum "Si O2"
_cell_formula_units_Z 48
_cell_length_a 26.557951
_cell_length_b 9.289054
_cell_length_c 8.288960
_cell_angle_alpha 90.000000
_cell_angle_beta 90.000000
_cell_angle_gamma 90.000000
_cell_volume 2044.871851
_symmetry_space_group_name_H-M "P B C A"
_symmetry_group_IT_number 61
_symmetry_cell_setting 'orthorhombic'
loop_
_space_group_symop_operation_xyz
x,y,z
1/2-x,-y,1/2+z
1/2+x,1/2-y,-z
-x,1/2+y,1/2-z
-x,-y,-z
1/2+x,y,1/2-z
1/2-x,1/2+y,z
x,1/2-y,1/2+z
loop_
_atom_site_type_symbol
_atom_site_label
_atom_site_fract_x
_atom_site_fract_y
_atom_site_fract_z
Si Si1 0.785646 0.345283 0.474287
Si Si2 0.031328 0.691856 0.193670
Si Si3 0.700771 0.540992 0.337754
Si Si4 0.594424 0.047473 0.965315
Si Si5 0.957275 0.849009 0.969488
Si Si6 0.889647 0.434652 0.314830
O O1 0.736739 0.410298 0.388004
O O2 0.789244 0.400874 0.657670
O O3 0.787280 0.173074 0.459177
O O4 0.834508 0.399304 0.376424
O O5 0.050572 0.567284 0.075273
O O6 0.079883 0.789523 0.229359
O O7 0.001579 0.623413 0.340920
O O8 0.989215 0.798259 0.121917
O O9 0.643169 0.494074 0.361795
O O10 0.575501 0.207043 0.930581
O O11 0.608692 0.030256 0.153519
O O12 0.919338 0.981359 0.955976
#
# Coordination Sequence:
#
# PCOD9461183 Si02
#       6
#     8   8   8   8   8   8
#     4  12  28  51  80 109 142 186 235 300 362 432
#     4  12  24  45  70 102 144 193 240 293 354 417
#     4  12  28  51  80 108 144 183 238 297 365 428
#     4  12  26  47  70 106 147 188 240 299 354 426
#     4  12  26  43  70 102 148 193 240 291 350 421
#     4  12  26  46  72 105 145 190 242 292 360 423
#
# _framework density 23.473351999999998
#
# number of rings (size 3 to 8) (size 9 to 14) (size 15 to 20)
#    0.000    0.000    5.000    5.000    7.000    0.000 
#    0.000    0.000    0.000    0.000    0.000    0.000 
#    0.000    0.000    0.000    0.000    0.000    0.000 
#
# Total GULP energy -269029.091041 kJ/mol
# GULP energy per Si atom -5604.772730 kJ/mol
# Density = 2.341993 g / cm^3
# Si number density = 23.473352 Si / 1000 Ang^3
#
#
#
# Elastic Constant Matrix: (Units=GPa)
#
#
# Indices 1 2 3 4 5 6 
#
# 1 94.2005 30.8294 15.9937 0.0000 0.0000 0.0000
# 2 30.8294 98.6547 -20.0748 0.0000 0.0000 0.0000
# 3 15.9937 -20.0748 51.2158 0.0000 0.0000 0.0000
# 4 0.0000 0.0000 0.0000 28.9852 0.0000 0.0000
# 5 0.0000 0.0000 0.0000 0.0000 26.2410 0.0000
# 6 0.0000 0.0000 0.0000 0.0000 0.0000 44.5763
#
#
#
# Elastic Compliance Matrix: (Units=1/GPa)
#
#
# Indices 1 2 3 4 5 6 
#
# 1 0.013505 -0.005519 -0.006380 0.000000 0.000000 0.000000
# 2 -0.005519 0.013270 0.006925 0.000000 0.000000 0.000000
# 3 -0.006380 0.006925 0.024232 0.000000 0.000000 0.000000
# 4 0.000000 0.000000 0.000000 0.034500 0.000000 0.000000
# 5 0.000000 0.000000 0.000000 0.000000 0.038108 0.000000
# 6 0.000000 0.000000 0.000000 0.000000 0.000000 0.022433
#
#
# Mechanical properties :
#
#
# Convention : Reuss Voigt Hill
#
# Bulk Modulus (GPa) = 24.35558 33.06306 28.70932
# Shear Modulus (GPa) = 29.46651 34.44868 31.95759
#
# Velocity S-wave (km/s) = 3.54689 3.83504 3.69377
# Velocity P-wave (km/s) = 5.21270 5.80741 5.51807
#
# Compressibility (1/GPa) = 0.04105835
#
# Stress axis : x y z
#
# Youngs Moduli (GPa) = 74.04623 75.35779 41.26772
#
# Poissons Ratio (x) = 0.41587 0.26331
# Poissons Ratio (y) = 0.40864 -0.28577
# Poissons Ratio (z) = 0.47245 -0.52184
#
# Static dielectric constant tensor:
#      x y z
#    x 1.815780 0.000000 0.000000 
#    y 0.000000 1.871510 0.000000 
#    z 0.000000 0.000000 1.933130 
# 
# From -- ./inp_files/1891.got.cif
#   From: 2010.05.17/outbox.cif.g08.bks.cpg/sg61_1_cif.got.tgz:1891.got - 2010.06.03 15:17:17.
