data_PCOD9461003
_publ_section_title
;
Structure prediction by ZEFSAII (Michael W. Deem and Ramdas Pophale) SiO2 
 PCOD9461003
Probable space group: P B C A
;
_chemical_formula_sum "Si O2"
_cell_formula_units_Z 32
_cell_length_a 15.774770
_cell_length_b 9.131776
_cell_length_c 9.674624
_cell_angle_alpha 90.000000
_cell_angle_beta 90.000000
_cell_angle_gamma 90.000000
_cell_volume 1393.645706
_symmetry_space_group_name_H-M "P B C A"
_symmetry_group_IT_number 61
_symmetry_cell_setting 'orthorhombic'
loop_
_space_group_symop_operation_xyz
x,y,z
1/2-x,-y,1/2+z
1/2+x,1/2-y,-z
-x,1/2+y,1/2-z
-x,-y,-z
1/2+x,y,1/2-z
1/2-x,1/2+y,z
x,1/2-y,1/2+z
loop_
_atom_site_type_symbol
_atom_site_label
_atom_site_fract_x
_atom_site_fract_y
_atom_site_fract_z
Si Si1 0.759467 0.078057 0.637388
Si Si2 0.802067 0.347382 0.444303
Si Si3 0.490481 0.116984 0.619879
Si Si4 0.055124 0.066646 0.377946
O O1 0.766968 0.217011 0.537259
O O2 0.750945 0.114016 0.801729
O O3 0.692420 0.977882 0.556718
O O4 0.848289 0.989314 0.623662
O O5 0.896435 0.312390 0.392413
O O6 0.551488 0.257103 0.624462
O O7 0.500000 0.000000 0.500000
O O8 0.489929 0.011760 0.750240
O O9 0.000000 0.000000 0.500000
#
# Coordination Sequence:
#
# PCOD9461003 Si02
#       4
#     8   8   8   8
#     4  11  25  45  70 102 141 185 235 288 351 418
#     4  11  25  45  68 102 139 186 233 289 349 418
#     4  11  25  43  70 101 139 186 228 291 351 415
#     4  11  23  44  70 101 139 181 230 287 345 418
#
# _framework density 22.961359000000002
#
# number of rings (size 3 to 8) (size 9 to 14) (size 15 to 20)
#    0.000    1.000    2.500    3.000    7.000    2.000 
#    0.000    0.000    0.000    0.000    0.000    0.000 
#    0.000    0.000    0.000    0.000    0.000    0.000 
#
# Total GULP energy -178800.463466 kJ/mol
# GULP energy per Si atom -5587.514483 kJ/mol
# Density = 2.290910 g / cm^3
# Si number density = 22.961359 Si / 1000 Ang^3
#
#
#
# Elastic Constant Matrix: (Units=GPa)
#
#
# Indices 1 2 3 4 5 6 
#
# 1 34.4218 19.6225 29.4310 0.0000 0.0000 0.0000
# 2 19.6225 175.3748 52.6923 0.0000 0.0000 0.0000
# 3 29.4310 52.6923 189.6221 0.0000 0.0000 0.0000
# 4 0.0000 0.0000 0.0000 41.5427 0.0000 0.0000
# 5 0.0000 0.0000 0.0000 0.0000 23.5275 0.0000
# 6 0.0000 0.0000 0.0000 0.0000 0.0000 38.4362
#
#
#
# Elastic Compliance Matrix: (Units=1/GPa)
#
#
# Indices 1 2 3 4 5 6 
#
# 1 0.034436 -0.002452 -0.004664 0.000000 0.000000 0.000000
# 2 -0.002452 0.006396 -0.001397 0.000000 0.000000 0.000000
# 3 -0.004664 -0.001397 0.006386 0.000000 0.000000 0.000000
# 4 0.000000 0.000000 0.000000 0.024072 0.000000 0.000000
# 5 0.000000 0.000000 0.000000 0.000000 0.042503 0.000000
# 6 0.000000 0.000000 0.000000 0.000000 0.000000 0.026017
#
#
# Mechanical properties :
#
#
# Convention : Reuss Voigt Hill
#
# Bulk Modulus (GPa) = 33.11945 66.99006 50.05475
# Shear Modulus (GPa) = 29.95818 40.54613 35.25215
#
# Velocity S-wave (km/s) = 3.61601 4.20675 3.92252
# Velocity P-wave (km/s) = 5.64707 7.26871 6.50859
#
# Compressibility (1/GPa) = 0.03019374
#
# Stress axis : x y z
#
# Youngs Moduli (GPa) = 29.03902 156.34552 156.60221
#
# Poissons Ratio (x) = 0.38334 0.73032
# Poissons Ratio (y) = 0.07120 0.21874
# Poissons Ratio (z) = 0.13542 0.21838
#
# Static dielectric constant tensor:
#      x y z
#    x 1.935240 0.000000 0.000000 
#    y 0.000000 1.902590 0.000000 
#    z 0.000000 0.000000 1.774390 
# 
# From -- ./inp_files/1654.got.cif
#   From: 2010.05.17/outbox.cif.g08.bks.cpg/sg61_1_cif.got.tgz:1654.got - 2010.06.03 15:17:17.
