data_PCOD9461316
_publ_section_title
;
Structure prediction by ZEFSAII (Michael W. Deem and Ramdas Pophale) SiO2 
 PCOD9461316
Probable space group: P N M A
;
_chemical_formula_sum "Si O2"
_cell_formula_units_Z 32
_cell_length_a 14.588447
_cell_length_b 7.339753
_cell_length_c 10.521494
_cell_angle_alpha 90.000000
_cell_angle_beta 90.000000
_cell_angle_gamma 90.000000
_cell_volume 1126.595258
_symmetry_space_group_name_H-M "P N M A"
_symmetry_group_IT_number 62
_symmetry_cell_setting 'orthorhombic'
loop_
_space_group_symop_operation_xyz
x,y,z
1/2-x,-y,1/2+z
1/2+x,1/2-y,1/2-z
-x,1/2+y,-z
-x,-y,-z
1/2+x,y,1/2-z
1/2-x,1/2+y,1/2+z
x,1/2-y,z
loop_
_atom_site_type_symbol
_atom_site_label
_atom_site_fract_x
_atom_site_fract_y
_atom_site_fract_z
Si Si1 0.147629 0.970262 0.316728
Si Si2 0.013938 0.459835 0.838649
Si Si3 0.861823 0.468660 0.401615
Si Si4 0.813647 0.971193 0.029572
O O1 0.147423 0.750000 0.307056
O O2 0.103315 0.014921 0.455560
O O3 0.251457 0.028184 0.348068
O O4 0.082346 0.044924 0.206270
O O5 0.999192 0.250000 0.867605
O O6 0.076325 0.458938 0.710326
O O7 0.084180 0.537506 0.943499
O O8 0.861645 0.250000 0.391128
O O9 0.754129 0.529980 0.415812
O O10 0.815975 0.750000 0.028790
#
# Coordination Sequence:
#
# PCOD9461316 Si02
#       4
#     8   8   8   8
#     4   7  13  24  38  58  79  95 121 156 188 221
#     4  10  15  23  44  61  71  98 131 155 183 219
#     4   8  15  27  38  55  83 100 116 154 197 224
#     4   7  14  25  36  56  81  99 120 153 187 224
#
# _framework density 28.404167999999999
#
# number of rings (size 3 to 8) (size 9 to 14) (size 15 to 20)
#    1.500    2.500    0.000    0.750    0.000    0.000 
#    0.000    1.250    0.000    1.500    0.000    0.000 
#    0.000    0.000    0.000    0.000    0.000    0.000 
#
# Total GULP energy -178640.290209 kJ/mol
# GULP energy per Si atom -5582.509069 kJ/mol
# Density = 2.833952 g / cm^3
# Si number density = 28.404168 Si / 1000 Ang^3
#
#
#
# Elastic Constant Matrix: (Units=GPa)
#
#
# Indices 1 2 3 4 5 6 
#
# 1 190.7058 23.0977 30.5111 0.0000 0.0000 0.0000
# 2 23.0977 135.5675 37.7111 0.0000 0.0000 0.0000
# 3 30.5111 37.7111 122.7600 0.0000 0.0000 0.0000
# 4 0.0000 0.0000 0.0000 18.4433 0.0000 0.0000
# 5 0.0000 0.0000 0.0000 0.0000 61.3781 0.0000
# 6 0.0000 0.0000 0.0000 0.0000 0.0000 14.0645
#
#
#
# Elastic Compliance Matrix: (Units=1/GPa)
#
#
# Indices 1 2 3 4 5 6 
#
# 1 0.005507 -0.000610 -0.001181 0.000000 0.000000 0.000000
# 2 -0.000610 0.008133 -0.002347 0.000000 0.000000 0.000000
# 3 -0.001181 -0.002347 0.009161 0.000000 0.000000 0.000000
# 4 0.000000 0.000000 0.000000 0.054220 0.000000 0.000000
# 5 0.000000 0.000000 0.000000 0.000000 0.016292 0.000000
# 6 0.000000 0.000000 0.000000 0.000000 0.000000 0.071101
#
#
# Mechanical properties :
#
#
# Convention : Reuss Voigt Hill
#
# Bulk Modulus (GPa) = 68.84932 70.18590 69.51761
# Shear Modulus (GPa) = 28.16410 42.62475 35.39442
#
# Velocity S-wave (km/s) = 3.15230 3.87803 3.53384
# Velocity P-wave (km/s) = 6.12708 6.69444 6.41703
#
# Compressibility (1/GPa) = 0.01452447
#
# Stress axis : x y z
#
# Youngs Moduli (GPa) = 181.60319 122.95420 109.16371
#
# Poissons Ratio (x) = 0.07495 0.12896
# Poissons Ratio (y) = 0.11070 0.25620
# Poissons Ratio (z) = 0.21454 0.28857
#
# Static dielectric constant tensor:
#      x y z
#    x 2.287780 0.000000 0.000000 
#    y 0.000000 1.995430 0.000000 
#    z 0.000000 0.000000 2.390410 
# 
# From -- ./inp_files/5763.got.cif
#   From: 2010.05.17/outbox.cif.g08.bks.cpg/sg62_3_cif.got.tgz:5763.got - 2010.06.03 15:25:27.
