data_PCOD9461806
_publ_section_title
;
Structure prediction by ZEFSAII (Michael W. Deem and Ramdas Pophale) SiO2 
 PCOD9461806
Probable space group: P N M A
;
_chemical_formula_sum "Si O2"
_cell_formula_units_Z 40
_cell_length_a 12.875688
_cell_length_b 8.913848
_cell_length_c 21.371343
_cell_angle_alpha 90.000000
_cell_angle_beta 90.000000
_cell_angle_gamma 90.000000
_cell_volume 2452.830191
_symmetry_space_group_name_H-M "P N M A"
_symmetry_group_IT_number 62
_symmetry_cell_setting 'orthorhombic'
loop_
_space_group_symop_operation_xyz
x,y,z
1/2-x,-y,1/2+z
1/2+x,1/2-y,1/2-z
-x,1/2+y,-z
-x,-y,-z
1/2+x,y,1/2-z
1/2-x,1/2+y,1/2+z
x,1/2-y,z
loop_
_atom_site_type_symbol
_atom_site_label
_atom_site_fract_x
_atom_site_fract_y
_atom_site_fract_z
Si Si1 0.662777 0.928634 0.330108
Si Si2 0.669452 0.570142 0.662523
Si Si3 0.101346 0.071735 0.301543
Si Si4 0.109295 0.071648 0.704055
Si Si5 0.508343 0.070240 0.568302
O O1 0.650674 0.750000 0.317898
O O2 0.785743 0.958947 0.334945
O O3 0.593826 0.965837 0.390104
O O4 0.621785 0.015727 0.269344
O O5 0.656657 0.750000 0.662613
O O6 0.792624 0.535808 0.661486
O O7 0.627342 0.504212 0.728161
O O8 0.605072 0.497007 0.606682
O O9 0.087405 0.250000 0.301577
O O10 0.996526 0.992742 0.324052
O O11 0.099987 0.250000 0.712842
O O12 0.517167 0.250000 0.564569
O O13 0.500000 0.000000 0.500000
#
# Coordination Sequence:
#
# PCOD9461806 Si02
#       5
#     8   8   8   8   8
#     4   9  19  33  49  72 101 134 171 207 251 303
#     4  10  20  33  49  74 104 134 171 211 253 302
#     4  10  19  30  49  76 106 134 163 208 259 304
#     4  10  18  30  50  75 104 134 165 207 255 307
#     4  11  22  36  54  75 102 138 174 213 255 303
#
# _framework density 16.307691999999999
#
# number of rings (size 3 to 8) (size 9 to 14) (size 15 to 20)
#    0.000    2.000    2.000    2.400    0.000    4.000 
#    0.000    0.000    0.000    1.200    0.000    0.000 
#    0.000    0.000    0.000    0.000    0.000    0.000 
#
# Total GULP energy -223166.411227 kJ/mol
# GULP energy per Si atom -5579.160281 kJ/mol
# Density = 1.627057 g / cm^3
# Si number density = 16.307692 Si / 1000 Ang^3
#
#
#
# Elastic Constant Matrix: (Units=GPa)
#
#
# Indices 1 2 3 4 5 6 
#
# 1 167.0832 69.9919 62.9843 0.0000 0.0000 0.0000
# 2 69.9919 65.5052 44.6047 0.0000 0.0000 0.0000
# 3 62.9843 44.6047 91.2972 0.0000 0.0000 0.0000
# 4 0.0000 0.0000 0.0000 21.6527 0.0000 0.0000
# 5 0.0000 0.0000 0.0000 0.0000 18.7534 0.0000
# 6 0.0000 0.0000 0.0000 0.0000 0.0000 30.9846
#
#
#
# Elastic Compliance Matrix: (Units=1/GPa)
#
#
# Indices 1 2 3 4 5 6 
#
# 1 0.011307 -0.010145 -0.002844 0.000000 0.000000 0.000000
# 2 -0.010145 0.031978 -0.008625 0.000000 0.000000 0.000000
# 3 -0.002844 -0.008625 0.017129 0.000000 0.000000 0.000000
# 4 0.000000 0.000000 0.000000 0.046184 0.000000 0.000000
# 5 0.000000 0.000000 0.000000 0.000000 0.053324 0.000000
# 6 0.000000 0.000000 0.000000 0.000000 0.000000 0.032274
#
#
# Mechanical properties :
#
#
# Convention : Reuss Voigt Hill
#
# Bulk Modulus (GPa) = 58.18313 75.44971 66.81642
# Shear Modulus (GPa) = 20.73381 24.03179 22.38280
#
# Velocity S-wave (km/s) = 3.56956 3.84298 3.70879
# Velocity P-wave (km/s) = 7.26256 8.12761 7.70723
#
# Compressibility (1/GPa) = 0.01718711
#
# Stress axis : x y z
#
# Youngs Moduli (GPa) = 88.44278 31.27104 58.37992
#
# Poissons Ratio (x) = 0.31723 0.16603
# Poissons Ratio (y) = 0.89722 0.50353
# Poissons Ratio (z) = 0.25153 0.26971
#
# Static dielectric constant tensor:
#      x y z
#    x 1.587610 0.000000 0.000000 
#    y 0.000000 1.543310 0.000000 
#    z 0.000000 0.000000 1.497170 
# 
# From -- ./inp_files/22757.got.cif
#   From: 2010.05.17/outbox.cif.g08.bks.cpg/sg62_12_cif.got.tgz:22757.got - 2010.06.03 15:25:27.
