data_PCOD9461842
_publ_section_title
;
Structure prediction by ZEFSAII (Michael W. Deem and Ramdas Pophale) SiO2 
 PCOD9461842
Probable space group: P N M A
;
_chemical_formula_sum "Si O2"
_cell_formula_units_Z 64
_cell_length_a 22.511557
_cell_length_b 8.789395
_cell_length_c 17.626871
_cell_angle_alpha 90.000000
_cell_angle_beta 90.000000
_cell_angle_gamma 90.000000
_cell_volume 3487.704987
_symmetry_space_group_name_H-M "P N M A"
_symmetry_group_IT_number 62
_symmetry_cell_setting 'orthorhombic'
loop_
_space_group_symop_operation_xyz
x,y,z
1/2-x,-y,1/2+z
1/2+x,1/2-y,1/2-z
-x,1/2+y,-z
-x,-y,-z
1/2+x,y,1/2-z
1/2-x,1/2+y,1/2+z
x,1/2-y,z
loop_
_atom_site_type_symbol
_atom_site_label
_atom_site_fract_x
_atom_site_fract_y
_atom_site_fract_z
Si Si1 0.883191 0.068867 0.276372
Si Si2 0.372084 0.065680 0.462125
Si Si3 0.346940 0.432228 0.791525
Si Si4 0.895348 0.434841 0.867938
Si Si5 0.277437 0.432041 0.338468
Si Si6 0.572460 0.431147 0.921887
Si Si7 0.558437 0.431819 0.094083
Si Si8 0.032455 0.067171 0.847831
O O1 0.891025 0.250000 0.276447
O O2 0.823433 0.033719 0.229738
O O3 0.883952 0.005421 0.361071
O O4 0.936989 0.995006 0.228518
O O5 0.622815 0.750000 0.541342
O O6 0.427872 0.996858 0.416744
O O7 0.372910 0.015958 0.549410
O O8 0.312976 0.024392 0.414984
O O9 0.350529 0.250000 0.793882
O O10 0.356765 0.483198 0.704342
O O11 0.284381 0.486683 0.824434
O O12 0.399722 0.500693 0.841805
O O13 0.894824 0.250000 0.868834
O O14 0.963993 0.480778 0.855854
O O15 0.267889 0.250000 0.340382
O O16 0.572263 0.250000 0.912514
O O17 0.506879 0.495717 0.904419
O O18 0.584624 0.465518 0.010123
O O19 0.553324 0.250000 0.101663
O O20 0.034937 0.250000 0.847624
#
# Coordination Sequence:
#
# PCOD9461842 Si02
#       8
#     8   8   8   8   8   8   8   8
#     4  10  20  35  56  80 110 149 186 223 274 330
#     4   9  18  36  57  76 106 144 181 217 269 332
#     4  11  22  37  57  79 108 145 188 233 277 324
#     4   9  19  34  53  80 108 139 175 219 270 326
#     4   9  20  38  56  74 104 144 184 227 272 326
#     4  10  20  35  57  86 114 141 182 231 276 328
#     4  10  21  37  57  81 113 149 181 221 280 338
#     4  10  18  30  53  84 116 140 172 220 271 325
#
# _framework density 18.350173999999999
#
# number of rings (size 3 to 8) (size 9 to 14) (size 15 to 20)
#    0.000    2.250    0.000    3.750    0.000    5.000 
#    2.250    3.750    0.000    0.000    0.000    0.000 
#    0.000    0.000    0.000    0.000    0.000    0.000 
#
# Total GULP energy -357287.837422 kJ/mol
# GULP energy per Si atom -5582.622460 kJ/mol
# Density = 1.830841 g / cm^3
# Si number density = 18.350174 Si / 1000 Ang^3
#
#
#
# Elastic Constant Matrix: (Units=GPa)
#
#
# Indices 1 2 3 4 5 6 
#
# 1 46.3644 11.8438 18.6199 0.0000 0.0000 0.0000
# 2 11.8438 29.1395 21.4706 0.0000 0.0000 0.0000
# 3 18.6199 21.4706 87.0238 0.0000 0.0000 0.0000
# 4 0.0000 0.0000 0.0000 29.9431 0.0000 0.0000
# 5 0.0000 0.0000 0.0000 0.0000 7.6947 0.0000
# 6 0.0000 0.0000 0.0000 0.0000 0.0000 28.8557
#
#
#
# Elastic Compliance Matrix: (Units=1/GPa)
#
#
# Indices 1 2 3 4 5 6 
#
# 1 0.024891 -0.007569 -0.003458 0.000000 0.000000 0.000000
# 2 -0.007569 0.044244 -0.009296 0.000000 0.000000 0.000000
# 3 -0.003458 -0.009296 0.014525 0.000000 0.000000 0.000000
# 4 0.000000 0.000000 0.000000 0.033397 0.000000 0.000000
# 5 0.000000 0.000000 0.000000 0.000000 0.129959 0.000000
# 6 0.000000 0.000000 0.000000 0.000000 0.000000 0.034655
#
#
# Mechanical properties :
#
#
# Convention : Reuss Voigt Hill
#
# Bulk Modulus (GPa) = 23.24926 29.59960 26.42443
# Shear Modulus (GPa) = 14.85206 20.67161 17.76183
#
# Velocity S-wave (km/s) = 2.84803 3.35999 3.11455
# Velocity P-wave (km/s) = 4.84895 5.58732 5.23118
#
# Compressibility (1/GPa) = 0.04301212
#
# Stress axis : x y z
#
# Youngs Moduli (GPa) = 40.17594 22.60208 68.84832
#
# Poissons Ratio (x) = 0.17107 0.23810
# Poissons Ratio (y) = 0.30408 0.64004
# Poissons Ratio (z) = 0.13894 0.21012
#
# Static dielectric constant tensor:
#      x y z
#    x 1.599250 0.000000 0.000000 
#    y 0.000000 1.615230 0.000000 
#    z 0.000000 0.000000 1.646900 
# 
# From -- ./inp_files/24840.got.cif
#   From: 2010.05.17/outbox.cif.g08.bks.cpg/sg62_13_cif.got.tgz:24840.got - 2010.06.03 15:25:27.
