data_PCOD9461022
_publ_section_title
;
Structure prediction by ZEFSAII (Michael W. Deem and Ramdas Pophale) SiO2 
 PCOD9461022
Probable space group: P B C A
;
_chemical_formula_sum "Si O2"
_cell_formula_units_Z 48
_cell_length_a 16.816229
_cell_length_b 13.986817
_cell_length_c 7.464350
_cell_angle_alpha 90.000000
_cell_angle_beta 90.000000
_cell_angle_gamma 90.000000
_cell_volume 1755.656306
_symmetry_space_group_name_H-M "P B C A"
_symmetry_group_IT_number 61
_symmetry_cell_setting 'orthorhombic'
loop_
_space_group_symop_operation_xyz
x,y,z
1/2-x,-y,1/2+z
1/2+x,1/2-y,-z
-x,1/2+y,1/2-z
-x,-y,-z
1/2+x,y,1/2-z
1/2-x,1/2+y,z
x,1/2-y,1/2+z
loop_
_atom_site_type_symbol
_atom_site_label
_atom_site_fract_x
_atom_site_fract_y
_atom_site_fract_z
Si Si1 0.030535 0.104571 0.860095
Si Si2 0.018511 0.724475 0.971245
Si Si3 0.567961 0.054342 0.175330
Si Si4 0.653399 0.601401 0.455709
Si Si5 0.730493 0.133608 0.160741
Si Si6 0.211859 0.140506 0.763791
O O1 0.989439 0.181556 0.726501
O O2 0.089696 0.978872 0.486742
O O3 0.123599 0.106830 0.817846
O O4 0.011957 0.167500 0.035248
O O5 0.963931 0.650580 0.083477
O O6 0.108733 0.796887 0.528030
O O7 0.654648 0.081378 0.248483
O O8 0.515475 0.992241 0.312832
O O9 0.723002 0.597838 0.602133
O O10 0.691143 0.596029 0.260049
O O11 0.728296 0.120408 0.946199
O O12 0.718580 0.245279 0.206289
#
# Coordination Sequence:
#
# PCOD9461022 Si02
#       6
#     8   8   8   8   8   8
#     4  11  23  46  77 103 150 204 255 309 391 461
#     4  11  25  48  75 106 152 205 248 322 389 462
#     4  11  26  48  76 107 155 203 254 319 390 458
#     4  11  28  46  76 111 151 201 254 322 384 460
#     4  12  26  46  76 113 153 199 260 319 389 459
#     4  12  24  46  80 106 155 206 252 319 394 456
#
# _framework density 27.340205000000001
#
# number of rings (size 3 to 8) (size 9 to 14) (size 15 to 20)
#    0.000    0.667    5.000    2.000    7.000    0.000 
#    0.000    3.333    3.667    1.000    0.000    0.000 
#    0.000    0.000    0.000    0.000    0.000    0.000 
#
# Total GULP energy -269296.341831 kJ/mol
# GULP energy per Si atom -5610.340455 kJ/mol
# Density = 2.727798 g / cm^3
# Si number density = 27.340205 Si / 1000 Ang^3
#
#
#
# Elastic Constant Matrix: (Units=GPa)
#
#
# Indices 1 2 3 4 5 6 
#
# 1 116.4652 39.1260 0.1582 0.0000 0.0000 0.0000
# 2 39.1260 200.8163 15.8398 0.0000 0.0000 0.0000
# 3 0.1582 15.8398 95.4516 0.0000 0.0000 0.0000
# 4 0.0000 0.0000 0.0000 35.9146 0.0000 0.0000
# 5 0.0000 0.0000 0.0000 0.0000 39.2924 0.0000
# 6 0.0000 0.0000 0.0000 0.0000 0.0000 58.1644
#
#
#
# Elastic Compliance Matrix: (Units=1/GPa)
#
#
# Indices 1 2 3 4 5 6 
#
# 1 0.009195 -0.001814 0.000286 0.000000 0.000000 0.000000
# 2 -0.001814 0.005404 -0.000894 0.000000 0.000000 0.000000
# 3 0.000286 -0.000894 0.010624 0.000000 0.000000 0.000000
# 4 0.000000 0.000000 0.000000 0.027844 0.000000 0.000000
# 5 0.000000 0.000000 0.000000 0.000000 0.025450 0.000000
# 6 0.000000 0.000000 0.000000 0.000000 0.000000 0.017193
#
#
# Mechanical properties :
#
#
# Convention : Reuss Voigt Hill
#
# Bulk Modulus (GPa) = 49.06950 58.10902 53.58926
# Shear Modulus (GPa) = 46.57788 50.51487 48.54638
#
# Velocity S-wave (km/s) = 4.13200 4.30308 4.21841
# Velocity P-wave (km/s) = 6.38367 6.78151 6.58559
#
# Compressibility (1/GPa) = 0.02037926
#
# Stress axis : x y z
#
# Youngs Moduli (GPa) = 108.75103 185.06107 94.12343
#
# Poissons Ratio (x) = 0.33572 -0.02690
# Poissons Ratio (y) = 0.19729 0.08412
# Poissons Ratio (z) = -0.03108 0.16539
#
# Static dielectric constant tensor:
#      x y z
#    x 2.107660 0.000000 0.000000 
#    y 0.000000 2.230320 0.000000 
#    z 0.000000 0.000000 2.286290 
# 
# From -- ./inp_files/3457.got.cif
#   From: 2010.05.17/outbox.cif.g08.bks.cpg/sg61_2_cif.got.tgz:3457.got - 2010.06.03 15:17:17.
