data_PCOD9461143
_publ_section_title
;
Structure prediction by ZEFSAII (Michael W. Deem and Ramdas Pophale) SiO2 
 PCOD9461143
Probable space group: P B C A
;
_chemical_formula_sum "Si O2"
_cell_formula_units_Z 48
_cell_length_a 9.979864
_cell_length_b 21.990133
_cell_length_c 9.228594
_cell_angle_alpha 90.000000
_cell_angle_beta 90.000000
_cell_angle_gamma 90.000000
_cell_volume 2025.293735
_symmetry_space_group_name_H-M "P B C A"
_symmetry_group_IT_number 61
_symmetry_cell_setting 'orthorhombic'
loop_
_space_group_symop_operation_xyz
x,y,z
1/2-x,-y,1/2+z
1/2+x,1/2-y,-z
-x,1/2+y,1/2-z
-x,-y,-z
1/2+x,y,1/2-z
1/2-x,1/2+y,z
x,1/2-y,1/2+z
loop_
_atom_site_type_symbol
_atom_site_label
_atom_site_fract_x
_atom_site_fract_y
_atom_site_fract_z
Si Si1 0.877503 0.805455 0.082929
Si Si2 0.270799 0.061448 0.599911
Si Si3 0.374071 0.468583 0.794559
Si Si4 0.099491 0.328824 0.975475
Si Si5 0.631988 0.108919 0.313408
Si Si6 0.391558 0.155782 0.782050
O O1 0.861902 0.741090 0.004553
O O2 0.754235 0.816670 0.190588
O O3 0.015368 0.806891 0.172075
O O4 0.877537 0.860591 0.969276
O O5 0.327690 0.024515 0.462396
O O6 0.206571 0.122067 0.530892
O O7 0.377471 0.088731 0.712839
O O8 0.161867 0.025258 0.693328
O O9 0.278340 0.416150 0.725959
O O10 0.525989 0.445812 0.794413
O O11 0.089074 0.341168 0.804915
O O12 0.965877 0.343356 0.064250
#
# Coordination Sequence:
#
# PCOD9461143 Si02
#       6
#     8   8   8   8   8   8
#     4  12  27  48  78 109 153 195 245 313 373 451
#     4  11  27  47  72 111 148 199 249 311 368 445
#     4  11  27  46  75 101 155 194 256 306 368 443
#     4  11  27  46  73 109 153 191 247 301 379 445
#     4  11  26  47  71 112 146 198 248 307 374 440
#     4  12  26  47  76 111 145 197 248 302 379 436
#
# _framework density 23.700265999999999
#
# number of rings (size 3 to 8) (size 9 to 14) (size 15 to 20)
#    0.000    0.667    3.333    2.000    9.333    4.667 
#    0.000    0.000    0.000    0.000    0.000    0.000 
#    0.000    0.000    0.000    0.000    0.000    0.000 
#
# Total GULP energy -268864.096287 kJ/mol
# GULP energy per Si atom -5601.335339 kJ/mol
# Density = 2.364632 g / cm^3
# Si number density = 23.700266 Si / 1000 Ang^3
#
#
#
# Elastic Constant Matrix: (Units=GPa)
#
#
# Indices 1 2 3 4 5 6 
#
# 1 37.9794 10.7333 27.2596 0.0000 0.0000 0.0000
# 2 10.7333 73.1907 27.4715 0.0000 0.0000 0.0000
# 3 27.2596 27.4715 104.1370 0.0000 0.0000 0.0000
# 4 0.0000 0.0000 0.0000 41.6418 0.0000 0.0000
# 5 0.0000 0.0000 0.0000 0.0000 41.5275 0.0000
# 6 0.0000 0.0000 0.0000 0.0000 0.0000 13.5400
#
#
#
# Elastic Compliance Matrix: (Units=1/GPa)
#
#
# Indices 1 2 3 4 5 6 
#
# 1 0.032623 -0.001752 -0.008077 0.000000 0.000000 0.000000
# 2 -0.001752 0.015259 -0.003567 0.000000 0.000000 0.000000
# 3 -0.008077 -0.003567 0.012658 0.000000 0.000000 0.000000
# 4 0.000000 0.000000 0.000000 0.024014 0.000000 0.000000
# 5 0.000000 0.000000 0.000000 0.000000 0.024080 0.000000
# 6 0.000000 0.000000 0.000000 0.000000 0.000000 0.073855
#
#
# Mechanical properties :
#
#
# Convention : Reuss Voigt Hill
#
# Bulk Modulus (GPa) = 29.63228 38.47064 34.05146
# Shear Modulus (GPa) = 22.67262 29.33139 26.00200
#
# Velocity S-wave (km/s) = 3.09631 3.52177 3.31587
# Velocity P-wave (km/s) = 5.03120 5.72752 5.39062
#
# Compressibility (1/GPa) = 0.03374698
#
# Stress axis : x y z
#
# Youngs Moduli (GPa) = 30.65350 65.53692 79.00177
#
# Poissons Ratio (x) = 0.11484 0.63812
# Poissons Ratio (y) = 0.05372 0.28176
# Poissons Ratio (z) = 0.24760 0.23374
#
# Static dielectric constant tensor:
#      x y z
#    x 1.877170 0.000000 0.000000 
#    y 0.000000 1.892610 0.000000 
#    z 0.000000 0.000000 1.920290 
# 
# From -- ./inp_files/2266.got.cif
#   From: 2010.05.17/outbox.cif.g08.bks.cpg/sg61_2_cif.got.tgz:2266.got - 2010.06.03 15:17:17.
