data_PCOD9461307
_publ_section_title
;
Structure prediction by ZEFSAII (Michael W. Deem and Ramdas Pophale) SiO2 
 PCOD9461307
Probable space group: P N M A
;
_chemical_formula_sum "Si O2"
_cell_formula_units_Z 48
_cell_length_a 7.725022
_cell_length_b 15.606920
_cell_length_c 17.047766
_cell_angle_alpha 90.000000
_cell_angle_beta 90.000000
_cell_angle_gamma 90.000000
_cell_volume 2055.343456
_symmetry_space_group_name_H-M "P N M A"
_symmetry_group_IT_number 62
_symmetry_cell_setting 'orthorhombic'
loop_
_space_group_symop_operation_xyz
x,y,z
1/2-x,-y,1/2+z
1/2+x,1/2-y,1/2-z
-x,1/2+y,-z
-x,-y,-z
1/2+x,y,1/2-z
1/2-x,1/2+y,1/2+z
x,1/2-y,z
loop_
_atom_site_type_symbol
_atom_site_label
_atom_site_fract_x
_atom_site_fract_y
_atom_site_fract_z
Si Si1 0.496472 0.019575 0.208769
Si Si2 0.120045 0.976815 0.868094
Si Si3 0.705585 0.154305 0.581300
Si Si4 0.423704 0.083903 0.049343
Si Si5 0.590617 0.156394 0.841650
Si Si6 0.227689 0.845289 0.993457
O O1 0.493536 0.056100 0.295769
O O2 0.686169 0.022315 0.170047
O O3 0.416518 0.923805 0.215226
O O4 0.386271 0.060446 0.138372
O O5 0.089235 0.076129 0.889230
O O6 0.126208 0.918325 0.945730
O O7 0.634476 0.250000 0.587736
O O8 0.762900 0.124592 0.494815
O O9 0.894512 0.156667 0.623755
O O10 0.581437 0.149876 0.045290
O O11 0.500000 0.000000 0.000000
O O12 0.626903 0.250000 0.806552
O O13 0.721091 0.142651 0.914795
O O14 0.156661 0.750000 0.982016
#
# Coordination Sequence:
#
# PCOD9461307 Si02
#       6
#     8   8   8   8   8   8
#     4  10  18  29  47  69  96 124 148 193 238 275
#     4  10  19  31  44  69  99 123 151 187 237 287
#     4   9  15  26  46  69  91 117 152 196 236 267
#     4  10  13  27  48  71  89 115 160 204 222 259
#     4   8  13  24  45  69  86 111 159 198 221 260
#     4   9  15  27  47  68  89 119 155 197 232 265
#
# _framework density 23.353760999999999
#
# number of rings (size 3 to 8) (size 9 to 14) (size 15 to 20)
#    0.000    2.667    6.667    1.500    0.000    0.667 
#    0.000    4.167    0.000    4.000    0.000    2.333 
#    0.000    0.000    0.000    0.000    0.000    0.000 
#
# Total GULP energy -267727.903524 kJ/mol
# GULP energy per Si atom -5577.664657 kJ/mol
# Density = 2.330061 g / cm^3
# Si number density = 23.353761 Si / 1000 Ang^3
#
#
#
# Elastic Constant Matrix: (Units=GPa)
#
#
# Indices 1 2 3 4 5 6 
#
# 1 -16.9039 20.4770 67.5641 0.0000 0.0000 0.0000
# 2 20.4770 102.0148 16.8931 0.0000 0.0000 0.0000
# 3 67.5641 16.8931 51.5286 0.0000 0.0000 0.0000
# 4 0.0000 0.0000 0.0000 12.6591 0.0000 0.0000
# 5 0.0000 0.0000 0.0000 0.0000 31.6133 0.0000
# 6 0.0000 0.0000 0.0000 0.0000 0.0000 -11.5388
#
#
#
# Elastic Compliance Matrix: (Units=1/GPa)
#
#
# Indices 1 2 3 4 5 6 
#
# 1 -0.009477 -0.000164 0.012480 0.000000 0.000000 0.000000
# 2 -0.000164 0.010362 -0.003182 0.000000 0.000000 0.000000
# 3 0.012480 -0.003182 0.004087 0.000000 0.000000 0.000000
# 4 0.000000 0.000000 0.000000 0.078995 0.000000 0.000000
# 5 0.000000 0.000000 0.000000 0.000000 0.031632 0.000000
# 6 0.000000 0.000000 0.000000 0.000000 0.000000 -0.086664
#
#
# Mechanical properties :
#
#
# Convention : Reuss Voigt Hill
#
# Bulk Modulus (GPa) = 43.03033 38.50087 40.76560
# Shear Modulus (GPa) = 271.52355 8.66041 140.09198
#
# Velocity S-wave (km/s) = 10.79434 1.92780 7.75352
# Velocity P-wave (km/s) = 13.18418 4.63432 9.88179
#
# Compressibility (1/GPa) = 0.02323942
#
# Stress axis : x y z
#
# Youngs Moduli (GPa) = -105.52269 96.50314 244.70377
#
# Poissons Ratio (x) = 0.01586 -3.05381
# Poissons Ratio (y) = -0.01734 0.77857
# Poissons Ratio (z) = 1.31688 0.30704
#
# Static dielectric constant tensor:
#      x y z
#    x 1.940510 0.000000 0.000000 
#    y 0.000000 1.915160 0.000000 
#    z 0.000000 0.000000 1.898720 
# 
# From -- ./inp_files/18152.got.cif
#   From: 2010.05.17/outbox.cif.g08.bks.cpg/sg62_10_cif.got.tgz:18152.got - 2010.06.03 15:25:27.
