data_PCOD9461560
_publ_section_title
;
Structure prediction by ZEFSAII (Michael W. Deem and Ramdas Pophale) SiO2 
 PCOD9461560
Probable space group: P N M A
;
_chemical_formula_sum "Si O2"
_cell_formula_units_Z 64
_cell_length_a 18.959952
_cell_length_b 8.783818
_cell_length_c 27.122992
_cell_angle_alpha 90.000000
_cell_angle_beta 90.000000
_cell_angle_gamma 90.000000
_cell_volume 4517.083909
_symmetry_space_group_name_H-M "P N M A"
_symmetry_group_IT_number 62
_symmetry_cell_setting 'orthorhombic'
loop_
_space_group_symop_operation_xyz
x,y,z
1/2-x,-y,1/2+z
1/2+x,1/2-y,1/2-z
-x,1/2+y,-z
-x,-y,-z
1/2+x,y,1/2-z
1/2-x,1/2+y,1/2+z
x,1/2-y,z
loop_
_atom_site_type_symbol
_atom_site_label
_atom_site_fract_x
_atom_site_fract_y
_atom_site_fract_z
Si Si1 0.572856 0.566833 0.557327
Si Si2 0.580011 0.568076 0.443929
Si Si3 0.211390 0.567940 0.297258
Si Si4 0.081262 0.933125 0.237119
Si Si5 0.917978 0.932892 0.242347
Si Si6 0.203910 0.567459 0.703945
Si Si7 0.834947 0.568177 0.856045
Si Si8 0.832965 0.067512 0.149299
O O1 0.435935 0.250000 0.441413
O O2 0.591445 0.523454 0.501143
O O3 0.497782 0.492307 0.570027
O O4 0.631617 0.525710 0.597389
O O5 0.580530 0.750000 0.440677
O O6 0.636669 0.500867 0.406512
O O7 0.218843 0.750000 0.299114
O O8 0.130363 0.530273 0.284494
O O9 0.252627 0.502138 0.249814
O O10 0.254057 0.495462 0.342407
O O11 0.084380 0.750000 0.230434
O O12 0.000014 0.976732 0.243433
O O13 0.116286 0.007375 0.188802
O O14 0.912358 0.750000 0.241381
O O15 0.873189 0.997253 0.288437
O O16 0.881899 0.999291 0.192854
O O17 0.200303 0.750000 0.708631
O O18 0.253619 0.529864 0.657466
O O19 0.840983 0.750000 0.857325
O O20 0.832246 0.250000 0.154141
#
# Coordination Sequence:
#
# PCOD9461560 Si02
#       8
#     8   8   8   8   8   8   8   8
#     4   9  19  32  43  58  81 107 135 169 203 234
#     4  10  19  30  44  60  79 105 137 170 202 235
#     4   9  16  27  41  57  78 103 132 164 196 231
#     4   9  18  29  41  59  82 107 135 166 197 234
#     4  10  18  27  40  59  81 105 134 164 195 231
#     4   9  17  28  40  56  78 104 133 163 196 233
#     4  10  19  29  42  59  80 107 137 167 199 236
#     4  10  18  28  41  57  79 106 135 164 196 233
#
# _framework density 14.168433
#
# number of rings (size 3 to 8) (size 9 to 14) (size 15 to 20)
#    0.000    2.500    0.000    4.500    0.000    6.500 
#    0.000    0.000    0.000    0.000    0.000    0.000 
#    0.000    1.000    0.000    2.250    0.000    4.000 
#
# Total GULP energy -356475.695514 kJ/mol
# GULP energy per Si atom -5569.932742 kJ/mol
# Density = 1.413619 g / cm^3
# Si number density = 14.168433 Si / 1000 Ang^3
#
#
#
# Elastic Constant Matrix: (Units=GPa)
#
#
# Indices 1 2 3 4 5 6 
#
# 1 91.8510 28.5829 40.9759 0.0000 0.0000 0.0000
# 2 28.5829 35.8426 22.1245 0.0000 0.0000 0.0000
# 3 40.9759 22.1245 62.3398 0.0000 0.0000 0.0000
# 4 0.0000 0.0000 0.0000 19.0627 0.0000 0.0000
# 5 0.0000 0.0000 0.0000 0.0000 28.6960 0.0000
# 6 0.0000 0.0000 0.0000 0.0000 0.0000 -43.1283
#
#
#
# Elastic Compliance Matrix: (Units=1/GPa)
#
#
# Indices 1 2 3 4 5 6 
#
# 1 0.017279 -0.008667 -0.008281 0.000000 0.000000 0.000000
# 2 -0.008667 0.040074 -0.008525 0.000000 0.000000 0.000000
# 3 -0.008281 -0.008525 0.024510 0.000000 0.000000 0.000000
# 4 0.000000 0.000000 0.000000 0.052458 0.000000 0.000000
# 5 0.000000 0.000000 0.000000 0.000000 0.034848 0.000000
# 6 0.000000 0.000000 0.000000 0.000000 0.000000 -0.023187
#
#
# Mechanical properties :
#
#
# Convention : Reuss Voigt Hill
#
# Bulk Modulus (GPa) = 32.34676 41.48888 36.91782
# Shear Modulus (GPa) = 24.12718 7.48275 15.80497
#
# Velocity S-wave (km/s) = 4.13108 2.30060 3.34354
# Velocity P-wave (km/s) = 6.75530 6.03351 6.40458
#
# Compressibility (1/GPa) = 0.03091499
#
# Stress axis : x y z
#
# Youngs Moduli (GPa) = 57.87468 24.95393 40.79964
#
# Poissons Ratio (x) = 0.21628 0.33787
# Poissons Ratio (y) = 0.50161 0.34783
# Poissons Ratio (z) = 0.47928 0.21274
#
# Static dielectric constant tensor:
#      x y z
#    x 1.487860 0.000000 0.000000 
#    y 0.000000 1.477270 0.000000 
#    z 0.000000 0.000000 1.464270 
# 
# From -- ./inp_files/30048.got.cif
#   From: 2010.05.17/outbox.cif.g08.bks.cpg/sg62_16_cif.got.tgz:30048.got - 2010.06.03 15:25:27.
