data_PCOD9461708
_publ_section_title
;
Structure prediction by ZEFSAII (Michael W. Deem and Ramdas Pophale) SiO2 
 PCOD9461708
Probable space group: P N M A
;
_chemical_formula_sum "Si O2"
_cell_formula_units_Z 64
_cell_length_a 23.700717
_cell_length_b 8.331596
_cell_length_c 19.789096
_cell_angle_alpha 90.000000
_cell_angle_beta 90.000000
_cell_angle_gamma 90.000000
_cell_volume 3907.649863
_symmetry_space_group_name_H-M "P N M A"
_symmetry_group_IT_number 62
_symmetry_cell_setting 'orthorhombic'
loop_
_space_group_symop_operation_xyz
x,y,z
1/2-x,-y,1/2+z
1/2+x,1/2-y,1/2-z
-x,1/2+y,-z
-x,-y,-z
1/2+x,y,1/2-z
1/2-x,1/2+y,1/2+z
x,1/2-y,z
loop_
_atom_site_type_symbol
_atom_site_label
_atom_site_fract_x
_atom_site_fract_y
_atom_site_fract_z
Si Si1 0.380727 0.061213 0.003123
Si Si2 0.158384 0.559052 0.271702
Si Si3 0.278853 0.558014 0.644302
Si Si4 0.933404 0.564490 0.632545
Si Si5 0.441518 0.939658 0.134812
Si Si6 0.833972 0.555253 0.281673
Si Si7 0.750421 0.554099 0.002253
Si Si8 0.227230 0.054874 0.849659
O O1 0.381209 0.250000 0.019975
O O2 0.315541 0.006923 0.000823
O O3 0.408594 0.036017 0.930160
O O4 0.415541 0.970954 0.060742
O O5 0.152526 0.750000 0.278170
O O6 0.175935 0.516014 0.195595
O O7 0.103134 0.477244 0.301533
O O8 0.212156 0.508529 0.317892
O O9 0.284052 0.750000 0.646538
O O10 0.217114 0.510731 0.672764
O O11 0.280888 0.502906 0.566550
O O12 0.925954 0.750000 0.615130
O O13 0.998949 0.526063 0.641889
O O14 0.450553 0.750000 0.143847
O O15 0.393728 0.994975 0.187881
O O16 0.831259 0.750000 0.284980
O O17 0.819744 0.505303 0.204857
O O18 0.750870 0.750000 0.002849
O O19 0.776300 0.498426 0.073337
O O20 0.226693 0.250000 0.850906
#
# Coordination Sequence:
#
# PCOD9461708 Si02
#       8
#     8   8   8   8   8   8   8   8
#     4  11  20  34  50  70 100 137 171 204 242 290
#     4  10  19  34  52  70  96 131 165 203 247 294
#     4  10  18  29  48  74 101 128 161 201 244 293
#     4  12  24  36  50  71  96 130 171 212 250 296
#     4  11  22  35  49  70  98 134 173 212 250 293
#     4   9  18  31  49  70  94 127 169 210 247 290
#     4   9  16  27  48  74 100 131 161 193 242 294
#     4   8  14  28  49  71  93 122 159 197 242 292
#
# _framework density 16.378131
#
# number of rings (size 3 to 8) (size 9 to 14) (size 15 to 20)
#    0.000    2.000    2.500    3.750    0.000    0.500 
#    0.000    0.000    0.000    0.000    0.000    0.875 
#    0.000    0.000    0.000    0.000    0.000    0.000 
#
# Total GULP energy -357080.295740 kJ/mol
# GULP energy per Si atom -5579.379621 kJ/mol
# Density = 1.634085 g / cm^3
# Si number density = 16.378131 Si / 1000 Ang^3
#
#
#
# Elastic Constant Matrix: (Units=GPa)
#
#
# Indices 1 2 3 4 5 6 
#
# 1 55.1956 -1.3552 35.6162 0.0000 0.0000 0.0000
# 2 -1.3552 15.8200 -2.4095 0.0000 0.0000 0.0000
# 3 35.6162 -2.4095 121.3620 0.0000 0.0000 0.0000
# 4 0.0000 0.0000 0.0000 15.5996 0.0000 0.0000
# 5 0.0000 0.0000 0.0000 0.0000 16.6363 0.0000
# 6 0.0000 0.0000 0.0000 0.0000 0.0000 17.9555
#
#
#
# Elastic Compliance Matrix: (Units=1/GPa)
#
#
# Indices 1 2 3 4 5 6 
#
# 1 0.022363 0.000919 -0.006545 0.000000 0.000000 0.000000
# 2 0.000919 0.063441 0.000990 0.000000 0.000000 0.000000
# 3 -0.006545 0.000990 0.010180 0.000000 0.000000 0.000000
# 4 0.000000 0.000000 0.000000 0.064104 0.000000 0.000000
# 5 0.000000 0.000000 0.000000 0.000000 0.060110 0.000000
# 6 0.000000 0.000000 0.000000 0.000000 0.000000 0.055693
#
#
# Mechanical properties :
#
#
# Convention : Reuss Voigt Hill
#
# Bulk Modulus (GPa) = 11.53244 28.45342 19.99293
# Shear Modulus (GPa) = 15.92018 20.74000 18.33009
#
# Velocity S-wave (km/s) = 3.12114 3.56240 3.34905
# Velocity P-wave (km/s) = 4.47720 5.85931 5.21425
#
# Compressibility (1/GPa) = 0.08671190
#
# Stress axis : x y z
#
# Youngs Moduli (GPa) = 44.71666 15.76278 98.23053
#
# Poissons Ratio (x) = -0.01448 0.64289
# Poissons Ratio (y) = -0.04109 -0.09724
# Poissons Ratio (z) = 0.29266 -0.01560
#
# Static dielectric constant tensor:
#      x y z
#    x 1.524080 0.000000 0.000000 
#    y 0.000000 1.557790 0.000000 
#    z 0.000000 0.000000 1.567560 
# 
# From -- ./inp_files/24941.got.cif
#   From: 2010.05.17/outbox.cif.g08.bks.cpg/sg62_13_cif.got.tgz:24941.got - 2010.06.03 15:25:27.
