data_PCOD9461641
_publ_section_title
;
Structure prediction by ZEFSAII (Michael W. Deem and Ramdas Pophale) SiO2 
 PCOD9461641
Probable space group: P N M A
;
_chemical_formula_sum "Si O2"
_cell_formula_units_Z 64
_cell_length_a 22.688204
_cell_length_b 7.581582
_cell_length_c 16.007813
_cell_angle_alpha 90.000000
_cell_angle_beta 90.000000
_cell_angle_gamma 90.000000
_cell_volume 2753.543598
_symmetry_space_group_name_H-M "P N M A"
_symmetry_group_IT_number 62
_symmetry_cell_setting 'orthorhombic'
loop_
_space_group_symop_operation_xyz
x,y,z
1/2-x,-y,1/2+z
1/2+x,1/2-y,1/2-z
-x,1/2+y,-z
-x,-y,-z
1/2+x,y,1/2-z
1/2-x,1/2+y,1/2+z
x,1/2-y,z
loop_
_atom_site_type_symbol
_atom_site_label
_atom_site_fract_x
_atom_site_fract_y
_atom_site_fract_z
Si Si1 0.064190 0.454878 0.571465
Si Si2 0.555484 0.041817 0.289971
Si Si3 0.934324 0.549267 0.610259
Si Si4 0.184390 0.543525 0.628239
Si Si5 0.265940 0.964964 0.482663
Si Si6 0.569964 0.036825 0.646764
Si Si7 0.702186 0.462365 0.693431
Si Si8 0.899293 0.535338 0.967203
O O1 0.047397 0.250000 0.560583
O O2 0.005688 0.549440 0.602368
O O3 0.119512 0.462556 0.632234
O O4 0.083887 0.526834 0.479941
O O5 0.569439 0.250000 0.287940
O O6 0.577522 0.966740 0.201111
O O7 0.580713 0.968216 0.376965
O O8 0.485011 0.024546 0.299321
O O9 0.911976 0.750000 0.611723
O O10 0.175461 0.750000 0.615678
O O11 0.219105 0.468549 0.549124
O O12 0.219356 0.519217 0.714264
O O13 0.263285 0.750000 0.483318
O O14 0.260374 0.022688 0.386528
O O15 0.331542 0.010535 0.513724
O O16 0.569931 0.250000 0.648238
O O17 0.634518 0.978460 0.677299
O O18 0.564574 0.978413 0.549596
O O19 0.701970 0.250000 0.692221
O O20 0.902940 0.750000 0.965353
#
# Coordination Sequence:
#
# PCOD9461641 Si02
#       8
#     8   8   8   8   8   8   8   8
#     4  10  20  35  53  73 101 138 171 207 258 312
#     4  10  18  28  47  74 100 127 160 204 251 295
#     4   9  19  34  50  74 104 132 167 211 256 302
#     4  11  21  34  55  82 104 131 174 221 262 305
#     4   8  17  35  54  73 101 137 173 210 257 312
#     4   9  17  29  48  72  98 130 167 200 239 301
#     4   9  18  35  56  75  99 135 174 212 255 307
#     4   8  15  30  49  68  95 131 166 200 245 301
#
# _framework density 23.242778000000001
#
# number of rings (size 3 to 8) (size 9 to 14) (size 15 to 20)
#    0.000    2.750    0.000    3.375    0.000    3.500 
#    2.250    1.250    0.000    3.750    0.000    0.000 
#    0.000    0.000    0.000    0.000    0.000    0.000 
#
# Total GULP energy -357219.270043 kJ/mol
# GULP energy per Si atom -5581.551094 kJ/mol
# Density = 2.318988 g / cm^3
# Si number density = 23.242778 Si / 1000 Ang^3
#
#
#
# Elastic Constant Matrix: (Units=GPa)
#
#
# Indices 1 2 3 4 5 6 
#
# 1 17.0318 -4.6674 10.8533 0.0000 0.0000 0.0000
# 2 -4.6674 59.0651 2.7780 0.0000 0.0000 0.0000
# 3 10.8533 2.7780 156.0633 0.0000 0.0000 0.0000
# 4 0.0000 0.0000 0.0000 14.0768 0.0000 0.0000
# 5 0.0000 0.0000 0.0000 0.0000 27.6425 0.0000
# 6 0.0000 0.0000 0.0000 0.0000 0.0000 3.2780
#
#
#
# Elastic Compliance Matrix: (Units=1/GPa)
#
#
# Indices 1 2 3 4 5 6 
#
# 1 0.062986 0.005188 -0.004473 0.000000 0.000000 0.000000
# 2 0.005188 0.017372 -0.000670 0.000000 0.000000 0.000000
# 3 -0.004473 -0.000670 0.006731 0.000000 0.000000 0.000000
# 4 0.000000 0.000000 0.000000 0.071039 0.000000 0.000000
# 5 0.000000 0.000000 0.000000 0.000000 0.036176 0.000000
# 6 0.000000 0.000000 0.000000 0.000000 0.000000 0.305064
#
#
# Mechanical properties :
#
#
# Convention : Reuss Voigt Hill
#
# Bulk Modulus (GPa) = 11.47077 27.78756 19.62917
# Shear Modulus (GPa) = 9.46367 23.87921 16.67144
#
# Velocity S-wave (km/s) = 2.02002 3.20876 2.68110
# Velocity P-wave (km/s) = 3.22282 5.07045 4.24830
#
# Compressibility (1/GPa) = 0.08717807
#
# Stress axis : x y z
#
# Youngs Moduli (GPa) = 15.87664 57.56421 148.57453
#
# Poissons Ratio (x) = -0.29862 0.66452
# Poissons Ratio (y) = -0.08236 0.09954
# Poissons Ratio (z) = 0.07101 0.03857
#
# Static dielectric constant tensor:
#      x y z
#    x 1.837200 0.000000 0.000000 
#    y 0.000000 1.883260 0.000000 
#    z 0.000000 0.000000 1.942870 
# 
# From -- ./inp_files/20766.got.cif
#   From: 2010.05.17/outbox.cif.g08.bks.cpg/sg62_11_cif.got.tgz:20766.got - 2010.06.03 15:25:27.
