data_PCOD9461160
_publ_section_title
;
Structure prediction by ZEFSAII (Michael W. Deem and Ramdas Pophale) SiO2 
 PCOD9461160
Probable space group: P B C A
;
_chemical_formula_sum "Si O2"
_cell_formula_units_Z 32
_cell_length_a 21.837664
_cell_length_b 5.512489
_cell_length_c 9.162776
_cell_angle_alpha 90.000000
_cell_angle_beta 90.000000
_cell_angle_gamma 90.000000
_cell_volume 1103.013899
_symmetry_space_group_name_H-M "P B C A"
_symmetry_group_IT_number 61
_symmetry_cell_setting 'orthorhombic'
loop_
_space_group_symop_operation_xyz
x,y,z
1/2-x,-y,1/2+z
1/2+x,1/2-y,-z
-x,1/2+y,1/2-z
-x,-y,-z
1/2+x,y,1/2-z
1/2-x,1/2+y,z
x,1/2-y,1/2+z
loop_
_atom_site_type_symbol
_atom_site_label
_atom_site_fract_x
_atom_site_fract_y
_atom_site_fract_z
Si Si1 0.011646 0.738086 0.337503
Si Si2 0.400646 0.928020 0.500684
Si Si3 0.182445 0.819665 0.203886
Si Si4 0.801109 0.940376 0.495012
O O1 0.077059 0.661226 0.408255
O O2 0.996586 0.496448 0.240165
O O3 0.960931 0.726184 0.466073
O O4 0.372829 0.013565 0.654267
O O5 0.344006 0.773055 0.442704
O O6 0.205680 0.885528 0.363388
O O7 0.162494 0.559646 0.141498
O O8 0.239903 0.864373 0.092686
#
# Coordination Sequence:
#
# PCOD9461160 Si02
#       4
#     8   8   8   8
#     4  11  28  51  81 115 160 215 282 344 412 484
#     4  11  28  48  79 113 161 215 273 337 418 489
#     4  12  27  46  78 114 166 210 277 332 419 493
#     4  12  27  48  76 120 160 220 266 343 409 502
#
# _framework density 29.011419
#
# number of rings (size 3 to 8) (size 9 to 14) (size 15 to 20)
#    0.000    0.500    2.500    3.000   10.500    6.000 
#    0.000    0.000    0.000    0.000    0.000    0.000 
#    0.000    0.000    0.000    0.000    0.000    0.000 
#
# Total GULP energy -179047.565458 kJ/mol
# GULP energy per Si atom -5595.236421 kJ/mol
# Density = 2.894539 g / cm^3
# Si number density = 29.011419 Si / 1000 Ang^3
#
#
#
# Elastic Constant Matrix: (Units=GPa)
#
#
# Indices 1 2 3 4 5 6 
#
# 1 135.1570 11.9457 33.8849 0.0000 0.0000 0.0000
# 2 11.9457 101.9887 42.8270 0.0000 0.0000 0.0000
# 3 33.8849 42.8270 172.9137 0.0000 0.0000 0.0000
# 4 0.0000 0.0000 0.0000 64.6308 0.0000 0.0000
# 5 0.0000 0.0000 0.0000 0.0000 49.1487 0.0000
# 6 0.0000 0.0000 0.0000 0.0000 0.0000 36.1937
#
#
#
# Elastic Compliance Matrix: (Units=1/GPa)
#
#
# Indices 1 2 3 4 5 6 
#
# 1 0.007789 -0.000303 -0.001451 0.000000 0.000000 0.000000
# 2 -0.000303 0.010955 -0.002654 0.000000 0.000000 0.000000
# 3 -0.001451 -0.002654 0.006725 0.000000 0.000000 0.000000
# 4 0.000000 0.000000 0.000000 0.015473 0.000000 0.000000
# 5 0.000000 0.000000 0.000000 0.000000 0.020346 0.000000
# 6 0.000000 0.000000 0.000000 0.000000 0.000000 0.027629
#
#
# Mechanical properties :
#
#
# Convention : Reuss Voigt Hill
#
# Bulk Modulus (GPa) = 60.04978 65.26385 62.65681
# Shear Modulus (GPa) = 48.40979 51.42142 49.91560
#
# Velocity S-wave (km/s) = 4.08934 4.21462 4.15245
# Velocity P-wave (km/s) = 6.56053 6.79918 6.68092
#
# Compressibility (1/GPa) = 0.01665285
#
# Stress axis : x y z
#
# Youngs Moduli (GPa) = 128.37862 91.28310 148.69907
#
# Poissons Ratio (x) = 0.02765 0.21583
# Poissons Ratio (y) = 0.03888 0.39464
# Poissons Ratio (z) = 0.18633 0.24226
#
# Static dielectric constant tensor:
#      x y z
#    x 2.259550 0.000000 0.000000 
#    y 0.000000 2.729700 0.000000 
#    z 0.000000 0.000000 2.234590 
# 
# From -- ./inp_files/6547.got.cif
#   From: 2010.05.17/outbox.cif.g08.bks.cpg/sg61_4_cif.got.tgz:6547.got - 2010.06.03 15:17:17.
