data_PCOD9461809
_publ_section_title
;
Structure prediction by ZEFSAII (Michael W. Deem and Ramdas Pophale) SiO2 
 PCOD9461809
Probable space group: P N M A
;
_chemical_formula_sum "Si O2"
_cell_formula_units_Z 48
_cell_length_a 11.336104
_cell_length_b 16.423016
_cell_length_c 10.705804
_cell_angle_alpha 90.000000
_cell_angle_beta 90.000000
_cell_angle_gamma 90.000000
_cell_volume 1993.131834
_symmetry_space_group_name_H-M "P N M A"
_symmetry_group_IT_number 62
_symmetry_cell_setting 'orthorhombic'
loop_
_space_group_symop_operation_xyz
x,y,z
1/2-x,-y,1/2+z
1/2+x,1/2-y,1/2-z
-x,1/2+y,-z
-x,-y,-z
1/2+x,y,1/2-z
1/2-x,1/2+y,1/2+z
x,1/2-y,z
loop_
_atom_site_type_symbol
_atom_site_label
_atom_site_fract_x
_atom_site_fract_y
_atom_site_fract_z
Si Si1 0.739404 0.426987 0.759813
Si Si2 0.543965 0.416288 0.944427
Si Si3 0.756936 0.601682 0.646123
Si Si4 0.488514 0.750000 0.014541
Si Si5 0.559905 0.916107 0.466750
Si Si6 0.989388 0.250000 0.974515
Si Si7 0.880007 0.750000 0.760447
Si Si8 0.252184 0.750000 0.187317
O O1 0.760409 0.505776 0.676515
O O2 0.753244 0.331605 0.731895
O O3 0.606682 0.434986 0.814105
O O4 0.839334 0.436060 0.866927
O O5 0.650269 0.388033 0.034531
O O6 0.457804 0.338580 0.951208
O O7 0.500000 0.500000 0.000000
O O8 0.627664 0.617239 0.590628
O O9 0.798642 0.668287 0.747232
O O10 0.460759 0.750000 0.865829
O O11 0.374344 0.750000 0.109140
O O12 0.477228 0.840825 0.426650
O O13 0.500000 0.000000 0.500000
O O14 0.043562 0.250000 0.114395
O O15 0.853291 0.250000 0.916673
#
# Coordination Sequence:
#
# PCOD9461809 Si02
#       8
#     8   8   8   4   8   4   4   4
#     4   9  18  33  53  73  99 136 172 211 258 313
#     4   9  18  33  51  72 100 132 169 211 256 309
#     4  10  20  34  52  76 104 137 175 214 264 320
#     4   8  16  32  49  67  98 136 168 203 255 315
#     4  10  20  35  53  76 106 139 174 218 269 319
#     4  10  18  30  53  79 103 132 169 217 269 319
#     4  10  18  30  50  77 104 128 162 210 264 318
#     4   8  16  34  52  69 101 142 173 204 258 314
#
# _framework density 24.082702000000001
#
# number of rings (size 3 to 8) (size 9 to 14) (size 15 to 20)
#    0.000    2.667    0.000    4.500    0.000    4.000 
#    0.000    2.500    0.000   10.000    0.000    0.000 
#    0.000    0.000    0.000    0.000    0.000    0.000 
#
# Total GULP energy -267390.918212 kJ/mol
# GULP energy per Si atom -5570.644129 kJ/mol
# Density = 2.402789 g / cm^3
# Si number density = 24.082702 Si / 1000 Ang^3
#
#
#
# Elastic Constant Matrix: (Units=GPa)
#
#
# Indices 1 2 3 4 5 6 
#
# 1 54.2915 33.6221 30.2946 0.0000 0.0000 0.0000
# 2 33.6221 207.0452 12.8158 0.0000 0.0000 0.0000
# 3 30.2946 12.8158 55.7648 0.0000 0.0000 0.0000
# 4 0.0000 0.0000 0.0000 41.8954 0.0000 0.0000
# 5 0.0000 0.0000 0.0000 0.0000 38.5657 0.0000
# 6 0.0000 0.0000 0.0000 0.0000 0.0000 31.5476
#
#
#
# Elastic Compliance Matrix: (Units=1/GPa)
#
#
# Indices 1 2 3 4 5 6 
#
# 1 0.029111 -0.003803 -0.014941 0.000000 0.000000 0.000000
# 2 -0.003803 0.005396 0.000826 0.000000 0.000000 0.000000
# 3 -0.014941 0.000826 0.025859 0.000000 0.000000 0.000000
# 4 0.000000 0.000000 0.000000 0.023869 0.000000 0.000000
# 5 0.000000 0.000000 0.000000 0.000000 0.025930 0.000000
# 6 0.000000 0.000000 0.000000 0.000000 0.000000 0.031698
#
#
# Mechanical properties :
#
#
# Convention : Reuss Voigt Hill
#
# Bulk Modulus (GPa) = 40.76459 52.28518 46.52489
# Shear Modulus (GPa) = 26.89964 38.42633 32.66299
#
# Velocity S-wave (km/s) = 3.34573 3.99883 3.68677
# Velocity P-wave (km/s) = 5.64703 6.56343 6.12240
#
# Compressibility (1/GPa) = 0.02453109
#
# Stress axis : x y z
#
# Youngs Moduli (GPa) = 34.35134 185.31380 38.67061
#
# Poissons Ratio (x) = 0.70466 0.57777
# Poissons Ratio (y) = 0.13062 -0.03193
# Poissons Ratio (z) = 0.51324 -0.15299
#
# Static dielectric constant tensor:
#      x y z
#    x 2.017100 0.000000 0.000000 
#    y 0.000000 2.028620 0.000000 
#    z 0.000000 0.000000 1.946650 
# 
# From -- ./inp_files/12318.got.cif
#   From: 2010.05.17/outbox.cif.g08.bks.cpg/sg62_7_cif.got.tgz:12318.got - 2010.06.03 15:25:27.
