data_PCOD9461548
_publ_section_title
;
Structure prediction by ZEFSAII (Michael W. Deem and Ramdas Pophale) SiO2 
 PCOD9461548
Probable space group: P N M A
;
_chemical_formula_sum "Si O2"
_cell_formula_units_Z 64
_cell_length_a 18.842884
_cell_length_b 13.721110
_cell_length_c 16.948731
_cell_angle_alpha 90.000000
_cell_angle_beta 90.000000
_cell_angle_gamma 90.000000
_cell_volume 4382.014471
_symmetry_space_group_name_H-M "P N M A"
_symmetry_group_IT_number 62
_symmetry_cell_setting 'orthorhombic'
loop_
_space_group_symop_operation_xyz
x,y,z
1/2-x,-y,1/2+z
1/2+x,1/2-y,1/2-z
-x,1/2+y,-z
-x,-y,-z
1/2+x,y,1/2-z
1/2-x,1/2+y,1/2+z
x,1/2-y,z
loop_
_atom_site_type_symbol
_atom_site_label
_atom_site_fract_x
_atom_site_fract_y
_atom_site_fract_z
Si Si1 0.825776 0.998554 0.979712
Si Si2 0.159754 0.861604 0.261909
Si Si3 0.267633 0.638401 0.113481
Si Si4 0.523904 0.531674 0.294822
Si Si5 0.394887 0.862035 0.228408
Si Si6 0.570542 0.363862 0.395371
Si Si7 0.041363 0.864040 0.037769
Si Si8 0.287449 0.861845 0.376153
O O1 0.758835 0.058939 0.948164
O O2 0.889870 0.075996 0.990225
O O3 0.857593 0.922356 0.915727
O O4 0.807831 0.937829 0.057143
O O5 0.133444 0.750000 0.267594
O O6 0.209906 0.865804 0.184520
O O7 0.095005 0.933618 0.248903
O O8 0.211163 0.880655 0.335865
O O9 0.266667 0.750000 0.083314
O O10 0.343674 0.620134 0.153892
O O11 0.457210 0.561700 0.242413
O O12 0.532046 0.421170 0.324559
O O13 0.519548 0.593135 0.377182
O O14 0.421917 0.750000 0.223568
O O15 0.344119 0.866232 0.305135
O O16 0.581323 0.250000 0.380655
O O17 0.521112 0.374064 0.473646
O O18 0.058183 0.750000 0.046491
O O19 0.288649 0.750000 0.406377
#
# Coordination Sequence:
#
# PCOD9461548 Si02
#       8
#     8   8   8   8   8   8   8   8
#     4  11  17  27  45  62  87 124 152 176 219 270
#     4   9  16  28  45  66  88 111 146 188 226 261
#     4   9  17  29  44  67  92 115 146 185 226 263
#     4  11  17  27  47  66  86 118 148 180 223 270
#     4   9  17  28  45  69  94 113 139 186 231 265
#     4  10  20  28  39  64  95 121 146 175 212 268
#     4  10  18  26  41  68  95 115 143 178 221 271
#     4   9  18  29  42  64  93 118 144 184 223 260
#
# _framework density 14.605154000000001
#
# number of rings (size 3 to 8) (size 9 to 14) (size 15 to 20)
#    0.000    2.250    2.500    6.375    0.000    2.000 
#    0.000    0.000    0.000    3.750    0.000    0.000 
#    0.000    0.000    0.000    0.000    0.000    0.000 
#
# Total GULP energy -356738.516345 kJ/mol
# GULP energy per Si atom -5574.039318 kJ/mol
# Density = 1.457191 g / cm^3
# Si number density = 14.605154 Si / 1000 Ang^3
#
#
#
# Elastic Constant Matrix: (Units=GPa)
#
#
# Indices 1 2 3 4 5 6 
#
# 1 42.7679 20.3160 -0.4501 0.0000 0.0000 0.0000
# 2 20.3160 84.9810 10.7980 0.0000 0.0000 0.0000
# 3 -0.4501 10.7980 11.5144 0.0000 0.0000 0.0000
# 4 0.0000 0.0000 0.0000 22.1484 0.0000 0.0000
# 5 0.0000 0.0000 0.0000 0.0000 17.7978 0.0000
# 6 0.0000 0.0000 0.0000 0.0000 0.0000 19.2168
#
#
#
# Elastic Compliance Matrix: (Units=1/GPa)
#
#
# Indices 1 2 3 4 5 6 
#
# 1 0.027023 -0.007487 0.008077 0.000000 0.000000 0.000000
# 2 -0.007487 0.015433 -0.014766 0.000000 0.000000 0.000000
# 3 0.008077 -0.014766 0.101010 0.000000 0.000000 0.000000
# 4 0.000000 0.000000 0.000000 0.045150 0.000000 0.000000
# 5 0.000000 0.000000 0.000000 0.000000 0.056187 0.000000
# 6 0.000000 0.000000 0.000000 0.000000 0.000000 0.052038
#
#
# Mechanical properties :
#
#
# Convention : Reuss Voigt Hill
#
# Bulk Modulus (GPa) = 8.68685 22.28790 15.48737
# Shear Modulus (GPa) = 13.75273 19.07256 16.41265
#
# Velocity S-wave (km/s) = 3.07194 3.61762 3.35589
# Velocity P-wave (km/s) = 4.30617 5.72215 5.06389
#
# Compressibility (1/GPa) = 0.11511659
#
# Stress axis : x y z
#
# Youngs Moduli (GPa) = 37.00500 64.79490 9.89998
#
# Poissons Ratio (x) = 0.48510 -0.07996
# Poissons Ratio (y) = 0.27704 0.14618
# Poissons Ratio (z) = -0.29890 0.95674
#
# Static dielectric constant tensor:
#      x y z
#    x 1.495590 0.000000 0.000000 
#    y 0.000000 1.491310 0.000000 
#    z 0.000000 0.000000 1.470220 
# 
# From -- ./inp_files/19959.got.cif
#   From: 2010.05.17/outbox.cif.g08.bks.cpg/sg62_10_cif.got.tgz:19959.got - 2010.06.03 15:25:27.
