data_PCOD9461852
_publ_section_title
;
Structure prediction by ZEFSAII (Michael W. Deem and Ramdas Pophale) SiO2 
 PCOD9461852
Probable space group: P N M A
;
_chemical_formula_sum "Si O2"
_cell_formula_units_Z 64
_cell_length_a 10.135391
_cell_length_b 21.011499
_cell_length_c 17.862818
_cell_angle_alpha 90.000000
_cell_angle_beta 90.000000
_cell_angle_gamma 90.000000
_cell_volume 3804.061396
_symmetry_space_group_name_H-M "P N M A"
_symmetry_group_IT_number 62
_symmetry_cell_setting 'orthorhombic'
loop_
_space_group_symop_operation_xyz
x,y,z
1/2-x,-y,1/2+z
1/2+x,1/2-y,1/2-z
-x,1/2+y,-z
-x,-y,-z
1/2+x,y,1/2-z
1/2-x,1/2+y,1/2+z
x,1/2-y,z
loop_
_atom_site_type_symbol
_atom_site_label
_atom_site_fract_x
_atom_site_fract_y
_atom_site_fract_z
Si Si1 0.903246 0.946133 0.465995
Si Si2 0.490949 0.472894 0.814124
Si Si3 0.202047 0.998064 0.806826
Si Si4 0.241574 0.148918 0.292138
Si Si5 0.742503 0.320429 0.378345
Si Si6 0.557216 0.676615 0.576995
Si Si7 0.871762 0.039122 0.023426
Si Si8 0.489265 0.612808 0.889968
O O1 0.951000 0.931441 0.382493
O O2 0.753241 0.970379 0.469114
O O3 0.917356 0.892611 0.529938
O O4 0.000000 0.000000 0.500000
O O5 0.582543 0.473480 0.741186
O O6 0.336651 0.461941 0.798751
O O7 0.493675 0.544510 0.848802
O O8 0.231995 0.926356 0.778209
O O9 0.169620 0.986426 0.894152
O O10 0.239176 0.179777 0.211599
O O11 0.356989 0.172714 0.346712
O O12 0.102662 0.155092 0.335861
O O13 0.773711 0.250000 0.406441
O O14 0.596284 0.336694 0.405474
O O15 0.862224 0.365143 0.401280
O O16 0.569360 0.750000 0.548614
O O17 0.602808 0.615236 0.529323
O O18 0.000000 0.000000 0.000000
#
# Coordination Sequence:
#
# PCOD9461852 Si02
#       8
#     8   8   8   8   8   8   8   8
#     4  10  19  37  49  72  97 139 177 227 271 313
#     4  10  20  31  52  68 104 132 174 218 272 314
#     4  10  20  32  47  80 100 142 174 217 274 315
#     4  10  18  31  47  67  99 139 186 219 250 309
#     4  11  22  30  46  72  99 144 186 219 261 297
#     4  10  22  36  47  70 107 138 179 227 258 311
#     4  11  23  35  56  80 104 143 189 216 279 332
#     4  10  19  33  49  66  97 138 186 219 259 309
#
# _framework density 16.824124000000001
#
# number of rings (size 3 to 8) (size 9 to 14) (size 15 to 20)
#    0.000    1.750    6.250    1.125   10.500    2.000 
#    0.000    0.000    0.000    0.000    0.000    0.000 
#    0.000    2.000    0.000    0.000    0.000    0.125 
#
# Total GULP energy -356616.740179 kJ/mol
# GULP energy per Si atom -5572.136565 kJ/mol
# Density = 1.678583 g / cm^3
# Si number density = 16.824124 Si / 1000 Ang^3
#
#
#
# Elastic Constant Matrix: (Units=GPa)
#
#
# Indices 1 2 3 4 5 6 
#
# 1 117.6647 24.2154 19.3889 0.0000 0.0000 0.0000
# 2 24.2154 30.8205 2.8575 0.0000 0.0000 0.0000
# 3 19.3889 2.8575 41.0711 0.0000 0.0000 0.0000
# 4 0.0000 0.0000 0.0000 -31.4273 0.0000 0.0000
# 5 0.0000 0.0000 0.0000 0.0000 27.3101 0.0000
# 6 0.0000 0.0000 0.0000 0.0000 0.0000 14.1258
#
#
#
# Elastic Compliance Matrix: (Units=1/GPa)
#
#
# Indices 1 2 3 4 5 6 
#
# 1 0.010937 -0.008167 -0.004595 0.000000 0.000000 0.000000
# 2 -0.008167 0.038755 0.001159 0.000000 0.000000 0.000000
# 3 -0.004595 0.001159 0.026436 0.000000 0.000000 0.000000
# 4 0.000000 0.000000 0.000000 -0.031819 0.000000 0.000000
# 5 0.000000 0.000000 0.000000 0.000000 0.036616 0.000000
# 6 0.000000 0.000000 0.000000 0.000000 0.000000 0.070792
#
#
# Mechanical properties :
#
#
# Convention : Reuss Voigt Hill
#
# Bulk Modulus (GPa) = 18.89536 31.38666 25.14101
# Shear Modulus (GPa) = 25.96547 11.54135 18.75341
#
# Velocity S-wave (km/s) = 3.93281 2.62200 3.34230
# Velocity P-wave (km/s) = 5.64607 5.27852 5.46539
#
# Compressibility (1/GPa) = 0.05292304
#
# Stress axis : x y z
#
# Youngs Moduli (GPa) = 91.43626 25.80312 37.82650
#
# Poissons Ratio (x) = 0.21073 0.17380
# Poissons Ratio (y) = 0.74674 -0.04384
# Poissons Ratio (z) = 0.42013 -0.02991
#
# Static dielectric constant tensor:
#      x y z
#    x 1.617970 0.000000 0.000000 
#    y 0.000000 1.591060 0.000000 
#    z 0.000000 0.000000 1.598310 
# 
# From -- ./inp_files/22636.got.cif
#   From: 2010.05.17/outbox.cif.g08.bks.cpg/sg62_12_cif.got.tgz:22636.got - 2010.06.03 15:25:27.
