data_PCOD9461861
_publ_section_title
;
Structure prediction by ZEFSAII (Michael W. Deem and Ramdas Pophale) SiO2 
 PCOD9461861
Probable space group: P N M A
;
_chemical_formula_sum "Si O2"
_cell_formula_units_Z 48
_cell_length_a 13.051013
_cell_length_b 17.706612
_cell_length_c 8.186488
_cell_angle_alpha 90.000000
_cell_angle_beta 90.000000
_cell_angle_gamma 90.000000
_cell_volume 1891.809154
_symmetry_space_group_name_H-M "P N M A"
_symmetry_group_IT_number 62
_symmetry_cell_setting 'orthorhombic'
loop_
_space_group_symop_operation_xyz
x,y,z
1/2-x,-y,1/2+z
1/2+x,1/2-y,1/2-z
-x,1/2+y,-z
-x,-y,-z
1/2+x,y,1/2-z
1/2-x,1/2+y,1/2+z
x,1/2-y,z
loop_
_atom_site_type_symbol
_atom_site_label
_atom_site_fract_x
_atom_site_fract_y
_atom_site_fract_z
Si Si1 0.974388 0.663943 0.015782
Si Si2 0.481314 0.567243 0.174946
Si Si3 0.756596 0.905747 0.989710
Si Si4 0.232125 0.566254 0.146858
Si Si5 0.766930 0.338718 0.162360
Si Si6 0.970774 0.890909 0.665087
O O1 0.998690 0.750000 0.055279
O O2 0.850294 0.652169 0.014503
O O3 0.012093 0.643966 0.833648
O O4 0.007336 0.606302 0.155328
O O5 0.356909 0.560131 0.159822
O O6 0.523029 0.482034 0.174774
O O7 0.509205 0.619912 0.020131
O O8 0.695398 0.878471 0.829752
O O9 0.800994 0.986911 0.932759
O O10 0.703540 0.918667 0.164742
O O11 0.203194 0.629187 0.014528
O O12 0.781840 0.250000 0.172793
O O13 0.645487 0.359736 0.164790
#
# Coordination Sequence:
#
# PCOD9461861 Si02
#       6
#     8   8   8   8   8   8
#     4  10  20  32  52  78 102 130 170 217 256 294
#     4   9  19  31  50  77 102 131 170 208 255 304
#     4  10  18  31  49  75 104 136 170 213 256 307
#     4  10  19  31  51  76 105 135 174 211 253 308
#     4  10  20  33  54  81 104 128 171 222 259 295
#     4   9  17  32  50  75 104 130 164 211 254 306
#
# _framework density 25.372536
#
# number of rings (size 3 to 8) (size 9 to 14) (size 15 to 20)
#    0.000    2.333    1.667    2.500    0.000    7.333 
#    0.000    0.000    0.000    4.000    0.000    7.000 
#    0.000    0.000    0.000    0.000    0.000    0.000 
#
# Total GULP energy -268605.322017 kJ/mol
# GULP energy per Si atom -5595.944209 kJ/mol
# Density = 2.531479 g / cm^3
# Si number density = 25.372536 Si / 1000 Ang^3
#
#
#
# Elastic Constant Matrix: (Units=GPa)
#
#
# Indices 1 2 3 4 5 6 
#
# 1 63.1721 -17.3141 19.1223 0.0000 0.0000 0.0000
# 2 -17.3141 117.3766 34.0893 0.0000 0.0000 0.0000
# 3 19.1223 34.0893 187.4886 0.0000 0.0000 0.0000
# 4 0.0000 0.0000 0.0000 36.0933 0.0000 0.0000
# 5 0.0000 0.0000 0.0000 0.0000 55.7974 0.0000
# 6 0.0000 0.0000 0.0000 0.0000 0.0000 30.6787
#
#
#
# Elastic Compliance Matrix: (Units=1/GPa)
#
#
# Indices 1 2 3 4 5 6 
#
# 1 0.017442 0.003262 -0.002372 0.000000 0.000000 0.000000
# 2 0.003262 0.009605 -0.002079 0.000000 0.000000 0.000000
# 3 -0.002372 -0.002079 0.005954 0.000000 0.000000 0.000000
# 4 0.000000 0.000000 0.000000 0.027706 0.000000 0.000000
# 5 0.000000 0.000000 0.000000 0.000000 0.017922 0.000000
# 6 0.000000 0.000000 0.000000 0.000000 0.000000 0.032596
#
#
# Mechanical properties :
#
#
# Convention : Reuss Voigt Hill
#
# Bulk Modulus (GPa) = 32.65695 48.87025 40.76360
# Shear Modulus (GPa) = 40.38471 46.65653 43.52062
#
# Velocity S-wave (km/s) = 3.99390 4.29284 4.14607
# Velocity P-wave (km/s) = 5.84528 6.62376 6.24666
#
# Compressibility (1/GPa) = 0.03062135
#
# Stress axis : x y z
#
# Youngs Moduli (GPa) = 57.33378 104.11780 167.96625
#
# Poissons Ratio (x) = -0.33960 0.39841
# Poissons Ratio (y) = -0.18701 0.34920
# Poissons Ratio (z) = 0.13599 0.21646
#
# Static dielectric constant tensor:
#      x y z
#    x 2.187420 0.000000 0.000000 
#    y 0.000000 1.835150 0.000000 
#    z 0.000000 0.000000 2.011070 
# 
# From -- ./inp_files/9383.got.cif
#   From: 2010.05.17/outbox.cif.g08.bks.cpg/sg62_5_cif.got.tgz:9383.got - 2010.06.03 15:25:27.
