data_PCOD9461106
_publ_section_title
;
Structure prediction by ZEFSAII (Michael W. Deem and Ramdas Pophale) SiO2 
 PCOD9461106
Probable space group: P B C A
;
_chemical_formula_sum "Si O2"
_cell_formula_units_Z 44
_cell_length_a 25.231018
_cell_length_b 8.099627
_cell_length_c 8.484843
_cell_angle_alpha 90.000000
_cell_angle_beta 90.000000
_cell_angle_gamma 90.000000
_cell_volume 1733.978082
_symmetry_space_group_name_H-M "P B C A"
_symmetry_group_IT_number 61
_symmetry_cell_setting 'orthorhombic'
loop_
_space_group_symop_operation_xyz
x,y,z
1/2-x,-y,1/2+z
1/2+x,1/2-y,-z
-x,1/2+y,1/2-z
-x,-y,-z
1/2+x,y,1/2-z
1/2-x,1/2+y,z
x,1/2-y,1/2+z
loop_
_atom_site_type_symbol
_atom_site_label
_atom_site_fract_x
_atom_site_fract_y
_atom_site_fract_z
Si Si1 0.110379 0.476216 0.251141
Si Si2 0.808347 0.493640 0.179608
Si Si3 0.000000 0.000000 0.000000
Si Si4 0.516704 0.699634 0.298955
Si Si5 0.711078 0.656911 0.333494
Si Si6 0.408768 0.694044 0.447048
O O1 0.073375 0.614441 0.175263
O O2 0.169190 0.541278 0.258367
O O3 0.090133 0.393734 0.412465
O O4 0.103630 0.327293 0.129664
O O5 0.767280 0.625941 0.250966
O O6 0.808405 0.343860 0.305684
O O7 0.862016 0.589682 0.135903
O O8 0.789978 0.406799 0.014162
O O9 0.982103 0.109861 0.845093
O O10 0.990909 0.163520 0.114201
O O11 0.465167 0.632443 0.390011
#
# Coordination Sequence:
#
# PCOD9461106 Si02
#       6
#     8   8   4   8   8   8
#     4  11  26  44  74 103 153 190 258 304 390 446
#     4  11  25  45  72 103 146 187 254 311 387 449
#     4  12  30  46  82 104 166 194 266 306 386 448
#     4  12  27  50  72 117 149 209 246 320 373 469
#     4  11  25  45  70 106 136 196 243 318 378 457
#     4  11  25  46  70 106 148 196 246 315 374 456
#
# _framework density 25.375177000000001
#
# number of rings (size 3 to 8) (size 9 to 14) (size 15 to 20)
#    0.000    0.727    1.818    3.818    5.091    7.273 
#    0.000    0.000    0.000    0.000    0.000    0.000 
#    0.000    0.000    0.000    0.000    0.000    0.000 
#
# Total GULP energy -245385.460764 kJ/mol
# GULP energy per Si atom -5576.942290 kJ/mol
# Density = 2.531742 g / cm^3
# Si number density = 25.375177 Si / 1000 Ang^3
#
#
#
# Elastic Constant Matrix: (Units=GPa)
#
#
# Indices 1 2 3 4 5 6 
#
# 1 72.2107 11.7620 11.4363 0.0000 0.0000 0.0000
# 2 11.7620 122.7041 39.7720 0.0000 0.0000 0.0000
# 3 11.4363 39.7720 83.5522 0.0000 0.0000 0.0000
# 4 0.0000 0.0000 0.0000 64.3030 0.0000 0.0000
# 5 0.0000 0.0000 0.0000 0.0000 17.2752 0.0000
# 6 0.0000 0.0000 0.0000 0.0000 0.0000 29.7579
#
#
#
# Elastic Compliance Matrix: (Units=1/GPa)
#
#
# Indices 1 2 3 4 5 6 
#
# 1 0.014233 -0.000867 -0.001536 0.000000 0.000000 0.000000
# 2 -0.000867 0.009689 -0.004494 0.000000 0.000000 0.000000
# 3 -0.001536 -0.004494 0.014318 0.000000 0.000000 0.000000
# 4 0.000000 0.000000 0.000000 0.015551 0.000000 0.000000
# 5 0.000000 0.000000 0.000000 0.000000 0.057886 0.000000
# 6 0.000000 0.000000 0.000000 0.000000 0.000000 0.033605
#
#
# Mechanical properties :
#
#
# Convention : Reuss Voigt Hill
#
# Bulk Modulus (GPa) = 40.90288 44.93418 42.91853
# Shear Modulus (GPa) = 29.90018 36.63368 33.26693
#
# Velocity S-wave (km/s) = 3.43640 3.80370 3.62471
# Velocity P-wave (km/s) = 5.64795 6.08582 5.87097
#
# Compressibility (1/GPa) = 0.02444816
#
# Stress axis : x y z
#
# Youngs Moduli (GPa) = 70.26070 103.20707 69.84326
#
# Poissons Ratio (x) = 0.08943 0.10725
# Poissons Ratio (y) = 0.06089 0.31385
# Poissons Ratio (z) = 0.10789 0.46377
#
# Static dielectric constant tensor:
#      x y z
#    x 1.908950 0.000000 0.000000 
#    y 0.000000 2.315750 0.000000 
#    z 0.000000 0.000000 1.984760 
# 
# From -- ./inp_files/4558.got.cif
#   From: 2010.05.17/outbox.cif.g08.bks.cpg/sg61_3_cif.got.tgz:4558.got - 2010.06.03 15:17:17.
