data_PCOD9461926
_publ_section_title
;
Structure prediction by ZEFSAII (Michael W. Deem and Ramdas Pophale) SiO2 
 PCOD9461926
Probable space group: P N M A
;
_chemical_formula_sum "Si O2"
_cell_formula_units_Z 64
_cell_length_a 21.292352
_cell_length_b 8.214148
_cell_length_c 19.988767
_cell_angle_alpha 90.000000
_cell_angle_beta 90.000000
_cell_angle_gamma 90.000000
_cell_volume 3496.005977
_symmetry_space_group_name_H-M "P N M A"
_symmetry_group_IT_number 62
_symmetry_cell_setting 'orthorhombic'
loop_
_space_group_symop_operation_xyz
x,y,z
1/2-x,-y,1/2+z
1/2+x,1/2-y,1/2-z
-x,1/2+y,-z
-x,-y,-z
1/2+x,y,1/2-z
1/2-x,1/2+y,1/2+z
x,1/2-y,z
loop_
_atom_site_type_symbol
_atom_site_label
_atom_site_fract_x
_atom_site_fract_y
_atom_site_fract_z
Si Si1 0.136123 0.555161 0.326973
Si Si2 0.186727 0.446436 0.464531
Si Si3 0.493242 0.053172 0.323196
Si Si4 0.636606 0.553787 0.323278
Si Si5 0.062006 0.443711 0.538914
Si Si6 0.938430 0.053408 0.040308
Si Si7 0.507452 0.555127 0.826683
Si Si8 0.186491 0.949492 0.036766
O O1 0.137648 0.750000 0.326889
O O2 0.179104 0.493022 0.387058
O O3 0.152874 0.495772 0.251820
O O4 0.064121 0.501264 0.340114
O O5 0.186707 0.250000 0.467984
O O6 0.124960 0.508190 0.503798
O O7 0.250108 0.504120 0.500454
O O8 0.493955 0.250000 0.323021
O O9 0.448471 0.998185 0.383205
O O10 0.475890 0.998612 0.248344
O O11 0.564344 0.995174 0.336384
O O12 0.639259 0.750000 0.322082
O O13 0.678071 0.497764 0.386060
O O14 0.064049 0.250000 0.534685
O O15 0.000000 0.500000 0.500000
O O16 0.052941 0.493040 0.615692
O O17 0.936707 0.250000 0.040084
O O18 0.875054 0.996695 0.004386
O O19 0.000000 0.000000 0.000000
O O20 0.507447 0.750000 0.828225
O O21 0.186688 0.750000 0.036813
#
# Coordination Sequence:
#
# PCOD9461926 Si02
#       8
#     8   8   8   8   8   8   8   8
#     4  10  19  31  51  77 103 130 168 215 259 303
#     4  10  21  36  53  73 101 139 176 209 253 311
#     4   9  18  30  48  77 107 133 165 211 261 305
#     4   9  17  31  52  76 100 132 171 210 253 304
#     4  11  21  33  52  76 101 131 173 219 261 305
#     4  10  18  31  53  78 104 133 170 212 255 303
#     4  10  19  32  50  74 105 136 168 209 261 315
#     4   9  18  34  54  75 102 138 175 208 249 310
#
# _framework density 18.306605000000001
#
# number of rings (size 3 to 8) (size 9 to 14) (size 15 to 20)
#    0.000    2.250    2.500    1.125    0.000    1.500 
#    0.000    2.500    0.000    0.000    0.000    0.000 
#    0.000    0.000    0.000    0.000    0.000    0.000 
#
# Total GULP energy -356968.118482 kJ/mol
# GULP energy per Si atom -5577.626851 kJ/mol
# Density = 1.826494 g / cm^3
# Si number density = 18.306605 Si / 1000 Ang^3
#
#
#
# Elastic Constant Matrix: (Units=GPa)
#
#
# Indices 1 2 3 4 5 6 
#
# 1 120.6547 11.2485 89.8897 0.0000 0.0000 0.0000
# 2 11.2485 11.2642 12.4929 0.0000 0.0000 0.0000
# 3 89.8897 12.4929 177.4570 0.0000 0.0000 0.0000
# 4 0.0000 0.0000 0.0000 17.9028 0.0000 0.0000
# 5 0.0000 0.0000 0.0000 0.0000 30.9865 0.0000
# 6 0.0000 0.0000 0.0000 0.0000 0.0000 16.0213
#
#
#
# Elastic Compliance Matrix: (Units=1/GPa)
#
#
# Indices 1 2 3 4 5 6 
#
# 1 0.013738 -0.006509 -0.006501 0.000000 0.000000 0.000000
# 2 -0.006509 0.099379 -0.003699 0.000000 0.000000 0.000000
# 3 -0.006501 -0.003699 0.009188 0.000000 0.000000 0.000000
# 4 0.000000 0.000000 0.000000 0.055857 0.000000 0.000000
# 5 0.000000 0.000000 0.000000 0.000000 0.032272 0.000000
# 6 0.000000 0.000000 0.000000 0.000000 0.000000 0.062417
#
#
# Mechanical properties :
#
#
# Convention : Reuss Voigt Hill
#
# Bulk Modulus (GPa) = 11.25012 59.62643 35.43827
# Shear Modulus (GPa) = 14.88544 26.03180 20.45862
#
# Velocity S-wave (km/s) = 2.85462 3.77502 3.34661
# Velocity P-wave (km/s) = 4.12600 7.18629 5.85946
#
# Compressibility (1/GPa) = 0.08888797
#
# Stress axis : x y z
#
# Youngs Moduli (GPa) = 72.79045 10.06247 108.83207
#
# Poissons Ratio (x) = 0.06550 0.70748
# Poissons Ratio (y) = 0.47380 0.40258
# Poissons Ratio (z) = 0.47319 0.03722
#
# Static dielectric constant tensor:
#      x y z
#    x 1.595630 0.000000 0.000000 
#    y 0.000000 1.639310 0.000000 
#    z 0.000000 0.000000 1.671010 
# 
# From -- ./inp_files/27939.got.cif
#   From: 2010.05.17/outbox.cif.g08.bks.cpg/sg62_14_cif.got.tgz:27939.got - 2010.06.03 15:25:27.
