data_PCOD9461257
_publ_section_title
;
Structure prediction by ZEFSAII (Michael W. Deem and Ramdas Pophale) SiO2 
 PCOD9461257
Probable space group: P B C A
;
_chemical_formula_sum "Si O2"
_cell_formula_units_Z 64
_cell_length_a 18.000000
_cell_length_b 21.000000
_cell_length_c 9.000000
_cell_angle_alpha 90.000000
_cell_angle_beta 90.000000
_cell_angle_gamma 90.000000
_cell_volume 3402.000000
_symmetry_space_group_name_H-M "P B C A"
_symmetry_group_IT_number 61
_symmetry_cell_setting 'orthorhombic'
loop_
_space_group_symop_operation_xyz
x,y,z
1/2-x,-y,1/2+z
1/2+x,1/2-y,-z
-x,1/2+y,1/2-z
-x,-y,-z
1/2+x,y,1/2-z
1/2-x,1/2+y,z
x,1/2-y,1/2+z
loop_
_atom_site_type_symbol
_atom_site_label
_atom_site_fract_x
_atom_site_fract_y
_atom_site_fract_z
Si Si1 0.525774 0.414254 0.091511
Si Si2 0.530265 0.082338 0.090396
Si Si3 0.235323 0.567265 0.311029
Si Si4 0.230332 0.570810 0.953624
Si Si5 0.849742 0.681349 0.552718
Si Si6 0.572157 0.553503 0.164202
Si Si7 0.148273 0.179314 0.305753
Si Si8 0.427920 0.058512 0.842912
O O1 0.574123 0.351531 0.110626
O O2 0.572255 0.477899 0.131618
O O3 0.447356 0.423704 0.175086
O O4 0.499324 0.419735 0.922158
O O5 0.451115 0.068963 0.168536
O O6 0.572696 0.145460 0.137202
O O7 0.575409 0.017967 0.131388
O O8 0.504640 0.081402 0.920680
O O9 0.253572 0.497783 0.378277
O O10 0.152007 0.582047 0.365673
O O11 0.289964 0.625747 0.347262
O O12 0.234632 0.561664 0.131555
O O13 0.286443 0.628233 0.913254
O O14 0.147532 0.588283 0.900334
O O15 0.853099 0.685989 0.373063
O O16 0.839128 0.751323 0.622101
#
# Coordination Sequence:
#
# PCOD9461257 Si02
#       8
#     8   8   8   8   8   8   8   8
#     4  10  21  35  63  93 120 153 198 254 306 368
#     4  10  19  37  61  90 123 153 196 254 306 364
#     4  11  23  38  63  93 125 165 204 264 315 370
#     4  11  23  39  62  94 127 161 208 259 314 372
#     4  11  25  44  61  88 125 170 208 251 312 383
#     4  10  19  37  62  91 120 149 198 258 311 352
#     4  11  25  43  62  87 127 169 210 251 314 376
#     4  10  21  35  62  98 121 148 200 256 310 361
#
# _framework density 18.812463000000001
#
# number of rings (size 3 to 8) (size 9 to 14) (size 15 to 20)
#    0.000    1.500    5.000    0.000    3.500    1.000 
#    0.000    2.500    0.000    0.000    0.000    0.000 
#    0.000    0.000    0.000    0.000    0.000    0.000 
#
# Total GULP energy -356653.994919 kJ/mol
# GULP energy per Si atom -5572.718671 kJ/mol
# Density = 1.876965 g / cm^3
# Si number density = 18.812463 Si / 1000 Ang^3
#
#
#
# Elastic Constant Matrix: (Units=GPa)
#
#
# Indices 1 2 3 4 5 6 
#
# 1 85.7259 54.7132 12.6833 0.0000 0.0000 0.0000
# 2 54.7132 144.9982 30.9074 0.0000 0.0000 0.0000
# 3 12.6833 30.9074 32.4669 0.0000 0.0000 0.0000
# 4 0.0000 0.0000 0.0000 33.3799 0.0000 0.0000
# 5 0.0000 0.0000 0.0000 0.0000 22.4206 0.0000
# 6 0.0000 0.0000 0.0000 0.0000 0.0000 26.6476
#
#
#
# Elastic Compliance Matrix: (Units=1/GPa)
#
#
# Indices 1 2 3 4 5 6 
#
# 1 0.015375 -0.005672 -0.000606 0.000000 0.000000 0.000000
# 2 -0.005672 0.010745 -0.008013 0.000000 0.000000 0.000000
# 3 -0.000606 -0.008013 0.038666 0.000000 0.000000 0.000000
# 4 0.000000 0.000000 0.000000 0.029958 0.000000 0.000000
# 5 0.000000 0.000000 0.000000 0.000000 0.044602 0.000000
# 6 0.000000 0.000000 0.000000 0.000000 0.000000 0.037527
#
#
# Mechanical properties :
#
#
# Convention : Reuss Voigt Hill
#
# Bulk Modulus (GPa) = 27.62268 51.08876 39.35572
# Shear Modulus (GPa) = 22.98602 27.48211 25.23407
#
# Velocity S-wave (km/s) = 3.49929 3.82625 3.66642
# Velocity P-wave (km/s) = 5.57151 6.83638 6.23610
#
# Compressibility (1/GPa) = 0.03620214
#
# Stress axis : x y z
#
# Youngs Moduli (GPa) = 65.04034 93.06628 25.86278
#
# Poissons Ratio (x) = 0.52790 0.01569
# Poissons Ratio (y) = 0.36893 0.20724
# Poissons Ratio (z) = 0.03945 0.74574
#
# Static dielectric constant tensor:
#      x y z
#    x 1.669170 0.000000 0.000000 
#    y 0.000000 1.592790 0.000000 
#    z 0.000000 0.000000 1.663290 
# 
# From -- ./inp_files/3725.got.cif
#   From: 2010.05.17/outbox.ucp.g08.bks.cvg/sg61_2_cif.got.tgz:3725.got - 2010.06.11 16:28:26.
