data_PCOD9461468
_publ_section_title
;
Structure prediction by ZEFSAII (Michael W. Deem and Ramdas Pophale) SiO2 
 PCOD9461468
Probable space group: P N M A
;
_chemical_formula_sum "Si O2"
_cell_formula_units_Z 64
_cell_length_a 19.907441
_cell_length_b 7.226858
_cell_length_c 16.551348
_cell_angle_alpha 90.000000
_cell_angle_beta 90.000000
_cell_angle_gamma 90.000000
_cell_volume 2381.213459
_symmetry_space_group_name_H-M "P N M A"
_symmetry_group_IT_number 62
_symmetry_cell_setting 'orthorhombic'
loop_
_space_group_symop_operation_xyz
x,y,z
1/2-x,-y,1/2+z
1/2+x,1/2-y,1/2-z
-x,1/2+y,-z
-x,-y,-z
1/2+x,y,1/2-z
1/2-x,1/2+y,1/2+z
x,1/2-y,z
loop_
_atom_site_type_symbol
_atom_site_label
_atom_site_fract_x
_atom_site_fract_y
_atom_site_fract_z
Si Si1 0.952026 0.473124 0.337995
Si Si2 0.168627 0.024588 0.254545
Si Si3 0.295537 0.525742 0.011268
Si Si4 0.916568 0.525164 0.587346
Si Si5 0.170379 0.540299 0.922018
Si Si6 0.540062 0.973419 0.656866
Si Si7 0.696472 0.960583 0.811596
Si Si8 0.595625 0.026105 0.412069
O O1 0.948094 0.250000 0.347489
O O2 0.980942 0.511404 0.248494
O O3 0.876265 0.545658 0.330260
O O4 0.007061 0.540250 0.401962
O O5 0.170602 0.250000 0.255478
O O6 0.126432 0.971289 0.333111
O O7 0.246354 0.962513 0.246959
O O8 0.131880 0.971057 0.171367
O O9 0.293307 0.750000 0.012651
O O10 0.242669 0.460612 0.943999
O O11 0.272664 0.457789 0.098351
O O12 0.370883 0.466836 0.988039
O O13 0.918203 0.750000 0.586270
O O14 0.183735 0.750000 0.895248
O O15 0.131601 0.544374 0.008065
O O16 0.114921 0.457661 0.862350
O O17 0.543684 0.750000 0.649998
O O18 0.481764 0.035072 0.596898
O O19 0.683259 0.750000 0.785648
O O20 0.597078 0.250000 0.415994
#
# Coordination Sequence:
#
# PCOD9461468 Si02
#       8
#     8   8   8   8   8   8   8   8
#     4   9  17  30  50  76  99 122 162 214 250 277
#     4   9  16  28  49  75  98 122 158 203 243 282
#     4  10  21  34  50  72 101 134 163 199 246 295
#     4   9  17  31  50  74 100 127 163 204 248 290
#     4  10  20  31  45  72 105 132 160 198 243 294
#     4   9  17  29  47  75 104 126 159 206 249 286
#     4  10  20  33  53  77  99 126 164 207 246 285
#     4  10  17  30  52  73  98 132 162 197 244 294
#
# _framework density 26.877053
#
# number of rings (size 3 to 8) (size 9 to 14) (size 15 to 20)
#    0.000    2.500    2.500    0.375    1.750    0.500 
#    0.000    0.000    0.000    3.000    0.000    0.000 
#    0.000    0.000    0.000    0.000    0.000    0.000 
#
# Total GULP energy -358077.143694 kJ/mol
# GULP energy per Si atom -5594.955370 kJ/mol
# Density = 2.681588 g / cm^3
# Si number density = 26.877053 Si / 1000 Ang^3
#
#
#
# Elastic Constant Matrix: (Units=GPa)
#
#
# Indices 1 2 3 4 5 6 
#
# 1 162.0436 1.2133 2.1207 0.0000 0.0000 0.0000
# 2 1.2133 136.2022 -2.8638 0.0000 0.0000 0.0000
# 3 2.1207 -2.8638 85.8265 0.0000 0.0000 0.0000
# 4 0.0000 0.0000 0.0000 -1.7964 0.0000 0.0000
# 5 0.0000 0.0000 0.0000 0.0000 52.7547 0.0000
# 6 0.0000 0.0000 0.0000 0.0000 0.0000 -10.6484
#
#
#
# Elastic Compliance Matrix: (Units=1/GPa)
#
#
# Indices 1 2 3 4 5 6 
#
# 1 0.006174 -0.000058 -0.000154 0.000000 0.000000 0.000000
# 2 -0.000058 0.007348 0.000247 0.000000 0.000000 0.000000
# 3 -0.000154 0.000247 0.011663 0.000000 0.000000 0.000000
# 4 0.000000 0.000000 0.000000 -0.556669 0.000000 0.000000
# 5 0.000000 0.000000 0.000000 0.000000 0.018956 0.000000
# 6 0.000000 0.000000 0.000000 0.000000 0.000000 -0.093911
#
#
# Mechanical properties :
#
#
# Convention : Reuss Voigt Hill
#
# Bulk Modulus (GPa) = 39.59992 42.77921 41.18956
# Shear Modulus (GPa) = -8.35995 33.63546 12.63775
#
# Velocity S-wave (km/s) = -1.76556 3.54143 2.17078
# Velocity P-wave (km/s) = 3.25722 5.71607 4.65204
#
# Compressibility (1/GPa) = 0.02525258
#
# Stress axis : x y z
#
# Youngs Moduli (GPa) = 161.97913 136.09645 85.73790
#
# Poissons Ratio (x) = 0.00793 0.01325
# Poissons Ratio (y) = 0.00943 -0.02114
# Poissons Ratio (z) = 0.02502 -0.03356
#
# Static dielectric constant tensor:
#      x y z
#    x 2.115140 0.000000 0.000000 
#    y 0.000000 1.971000 0.000000 
#    z 0.000000 0.000000 2.037500 
# 
# From -- ./inp_files/19873.got.cif
#   From: 2010.05.17/outbox.cif.g08.bks.cpg/sg62_10_cif.got.tgz:19873.got - 2010.06.03 15:25:27.
