data_PCOD9461107
_publ_section_title
;
Structure prediction by ZEFSAII (Michael W. Deem and Ramdas Pophale) SiO2 
 PCOD9461107
Probable space group: P B C A
;
_chemical_formula_sum "Si O2"
_cell_formula_units_Z 64
_cell_length_a 14.763732
_cell_length_b 8.064596
_cell_length_c 22.351509
_cell_angle_alpha 90.000000
_cell_angle_beta 90.000000
_cell_angle_gamma 90.000000
_cell_volume 2661.249652
_symmetry_space_group_name_H-M "P B C A"
_symmetry_group_IT_number 61
_symmetry_cell_setting 'orthorhombic'
loop_
_space_group_symop_operation_xyz
x,y,z
1/2-x,-y,1/2+z
1/2+x,1/2-y,-z
-x,1/2+y,1/2-z
-x,-y,-z
1/2+x,y,1/2-z
1/2-x,1/2+y,z
x,1/2-y,1/2+z
loop_
_atom_site_type_symbol
_atom_site_label
_atom_site_fract_x
_atom_site_fract_y
_atom_site_fract_z
Si Si1 0.867562 0.626218 0.396602
Si Si2 0.835531 0.870972 0.759390
Si Si3 0.630756 0.523265 0.252837
Si Si4 0.786370 0.197072 0.949805
Si Si5 0.117714 0.510825 0.860413
Si Si6 0.451172 0.495108 0.873110
Si Si7 0.784186 0.325992 0.588148
Si Si8 0.054764 0.847172 0.622347
O O1 0.849906 0.574805 0.327716
O O2 0.806868 0.783163 0.412989
O O3 0.826652 0.484129 0.438436
O O4 0.975182 0.627509 0.402600
O O5 0.859273 0.676330 0.757376
O O6 0.730856 0.902754 0.743032
O O7 0.891098 0.975490 0.710436
O O8 0.567954 0.553567 0.195542
O O9 0.594757 0.605341 0.313169
O O10 0.862219 0.319514 0.922442
O O11 0.773235 0.223945 0.019592
O O12 0.165369 0.681854 0.875729
O O13 0.188806 0.374559 0.884023
O O14 0.021188 0.484051 0.891253
O O15 0.354953 0.479222 0.905842
O O16 0.498170 0.674814 0.875017
#
# Coordination Sequence:
#
# PCOD9461107 Si02
#       8
#     8   8   8   8   8   8   8   8
#     4  11  25  45  72 100 145 185 239 299 377 429
#     4  12  24  44  75 103 145 186 233 303 374 440
#     4  12  25  44  71 107 148 182 241 300 375 442
#     4  11  26  47  70 105 142 195 247 301 357 437
#     4  12  25  46  72 105 143 189 242 304 369 433
#     4  11  26  44  69 107 142 191 239 301 369 435
#     4  12  27  46  75 102 145 194 250 300 359 430
#     4  11  26  45  70 104 148 186 243 301 367 443
#
# _framework density 24.048852
#
# number of rings (size 3 to 8) (size 9 to 14) (size 15 to 20)
#    0.000    0.500    3.750    3.750    3.500    3.500 
#    0.000    0.000    0.000    0.000    0.000    0.000 
#    0.000    0.000    0.000    0.000    0.000    0.000 
#
# Total GULP energy -358719.323266 kJ/mol
# GULP energy per Si atom -5604.989426 kJ/mol
# Density = 2.399412 g / cm^3
# Si number density = 24.048852 Si / 1000 Ang^3
#
#
#
# Elastic Constant Matrix: (Units=GPa)
#
#
# Indices 1 2 3 4 5 6 
#
# 1 81.0420 -5.8952 -7.5080 0.0000 0.0000 0.0000
# 2 -5.8952 84.8264 8.9923 0.0000 0.0000 0.0000
# 3 -7.5080 8.9923 114.3030 0.0000 0.0000 0.0000
# 4 0.0000 0.0000 0.0000 20.9378 0.0000 0.0000
# 5 0.0000 0.0000 0.0000 0.0000 7.7815 0.0000
# 6 0.0000 0.0000 0.0000 0.0000 0.0000 38.7976
#
#
#
# Elastic Compliance Matrix: (Units=1/GPa)
#
#
# Indices 1 2 3 4 5 6 
#
# 1 0.012467 0.000786 0.000757 0.000000 0.000000 0.000000
# 2 0.000786 0.011937 -0.000887 0.000000 0.000000 0.000000
# 3 0.000757 -0.000887 0.008868 0.000000 0.000000 0.000000
# 4 0.000000 0.000000 0.000000 0.047761 0.000000 0.000000
# 5 0.000000 0.000000 0.000000 0.000000 0.128511 0.000000
# 6 0.000000 0.000000 0.000000 0.000000 0.000000 0.025775
#
#
# Mechanical properties :
#
#
# Convention : Reuss Voigt Hill
#
# Bulk Modulus (GPa) = 28.91540 30.14997 29.53269
# Shear Modulus (GPa) = 20.36372 32.47553 26.41962
#
# Velocity S-wave (km/s) = 2.91308 3.67876 3.31808
# Velocity P-wave (km/s) = 4.83368 5.53250 5.19485
#
# Compressibility (1/GPa) = 0.03458365
#
# Stress axis : x y z
#
# Youngs Moduli (GPa) = 80.21437 83.76968 112.76222
#
# Poissons Ratio (x) = -0.06586 -0.08536
# Poissons Ratio (y) = -0.06306 0.10008
# Poissons Ratio (z) = -0.06072 0.07435
#
# Static dielectric constant tensor:
#      x y z
#    x 1.918900 0.000000 0.000000 
#    y 0.000000 1.992890 0.000000 
#    z 0.000000 0.000000 1.854860 
# 
# From -- ./inp_files/11098.got.cif
#   From: 2010.05.17/outbox.cif.g08.bks.cpg/sg61_6_cif.got.tgz:11098.got - 2010.06.03 15:17:17.
