data_PCOD9461402
_publ_section_title
;
Structure prediction by ZEFSAII (Michael W. Deem and Ramdas Pophale) SiO2 
 PCOD9461402
Probable space group: P N M A
;
_chemical_formula_sum "Si O2"
_cell_formula_units_Z 56
_cell_length_a 8.858105
_cell_length_b 25.217963
_cell_length_c 15.806520
_cell_angle_alpha 90.000000
_cell_angle_beta 90.000000
_cell_angle_gamma 90.000000
_cell_volume 3530.913613
_symmetry_space_group_name_H-M "P N M A"
_symmetry_group_IT_number 62
_symmetry_cell_setting 'orthorhombic'
loop_
_space_group_symop_operation_xyz
x,y,z
1/2-x,-y,1/2+z
1/2+x,1/2-y,1/2-z
-x,1/2+y,-z
-x,-y,-z
1/2+x,y,1/2-z
1/2-x,1/2+y,1/2+z
x,1/2-y,z
loop_
_atom_site_type_symbol
_atom_site_label
_atom_site_fract_x
_atom_site_fract_y
_atom_site_fract_z
Si Si1 0.598824 0.105653 0.599090
Si Si2 0.096950 0.581728 0.497286
Si Si3 0.516950 0.190576 0.949278
Si Si4 0.636717 0.808325 0.403740
Si Si5 0.662761 0.654609 0.214784
Si Si6 0.423445 0.506504 0.136086
Si Si7 0.400501 0.460898 0.711324
O O1 0.733062 0.087740 0.538210
O O2 0.466997 0.143481 0.564567
O O3 0.676508 0.143824 0.670208
O O4 0.523427 0.053802 0.640257
O O5 0.090212 0.546327 0.580667
O O6 0.038608 0.641701 0.505572
O O7 0.994767 0.551124 0.426717
O O8 0.471731 0.250000 0.975480
O O9 0.696882 0.188289 0.942299
O O10 0.444918 0.179284 0.856362
O O11 0.571285 0.750000 0.421125
O O12 0.661882 0.814273 0.302410
O O13 0.615278 0.595280 0.240516
O O14 0.259480 0.523943 0.171118
O O15 0.532681 0.500805 0.217248
#
# Coordination Sequence:
#
# PCOD9461402 Si02
#       7
#     8   8   8   8   8   8   8
#     4  10  19  29  46  67 103 130 172 203 249 285
#     4  10  21  35  48  76  98 140 165 210 252 308
#     4  10  19  32  47  67 100 137 173 204 248 302
#     4  10  19  27  42  68  96 136 174 204 233 283
#     4  10  17  27  44  67  98 134 170 204 233 285
#     4  11  20  34  55  70 105 128 174 207 260 299
#     4  11  18  32  50  72  95 136 164 213 245 297
#
# _framework density 15.859918
#
# number of rings (size 3 to 8) (size 9 to 14) (size 15 to 20)
#    0.000    1.714    4.286    3.857    0.000    4.571 
#    0.000    1.429    0.000    0.000    0.000    1.000 
#    0.000    0.000    0.000    0.000    0.000    0.000 
#
# Total GULP energy -312107.095648 kJ/mol
# GULP energy per Si atom -5573.340994 kJ/mol
# Density = 1.582382 g / cm^3
# Si number density = 15.859918 Si / 1000 Ang^3
#
#
#
# Elastic Constant Matrix: (Units=GPa)
#
#
# Indices 1 2 3 4 5 6 
#
# 1 87.8438 32.6798 33.6004 0.0000 0.0000 0.0000
# 2 32.6798 101.2967 42.9677 0.0000 0.0000 0.0000
# 3 33.6004 42.9677 47.4764 0.0000 0.0000 0.0000
# 4 0.0000 0.0000 0.0000 14.9125 0.0000 0.0000
# 5 0.0000 0.0000 0.0000 0.0000 6.9728 0.0000
# 6 0.0000 0.0000 0.0000 0.0000 0.0000 17.7549
#
#
#
# Elastic Compliance Matrix: (Units=1/GPa)
#
#
# Indices 1 2 3 4 5 6 
#
# 1 0.015630 -0.000569 -0.010547 0.000000 0.000000 0.000000
# 2 -0.000569 0.016044 -0.014118 0.000000 0.000000 0.000000
# 3 -0.010547 -0.014118 0.041305 0.000000 0.000000 0.000000
# 4 0.000000 0.000000 0.000000 0.067058 0.000000 0.000000
# 5 0.000000 0.000000 0.000000 0.000000 0.143414 0.000000
# 6 0.000000 0.000000 0.000000 0.000000 0.000000 0.056323
#
#
# Mechanical properties :
#
#
# Convention : Reuss Voigt Hill
#
# Bulk Modulus (GPa) = 44.42205 50.56808 47.49506
# Shear Modulus (GPa) = 12.57093 16.41931 14.49512
#
# Velocity S-wave (km/s) = 2.81841 3.22105 3.02643
# Velocity P-wave (km/s) = 6.21780 6.76661 6.49800
#
# Compressibility (1/GPa) = 0.02251134
#
# Stress axis : x y z
#
# Youngs Moduli (GPa) = 63.98129 62.32909 24.21043
#
# Poissons Ratio (x) = 0.03544 0.25534
# Poissons Ratio (y) = 0.03638 0.34180
# Poissons Ratio (z) = 0.67480 0.87995
#
# Static dielectric constant tensor:
#      x y z
#    x 1.575890 0.000000 0.000000 
#    y 0.000000 1.547500 0.000000 
#    z 0.000000 0.000000 1.526420 
# 
# From -- ./inp_files/22592.got.cif
#   From: 2010.05.17/outbox.cif.g08.bks.cpg/sg62_12_cif.got.tgz:22592.got - 2010.06.03 15:25:27.
