data_PCOD9461363
_publ_section_title
;
Structure prediction by ZEFSAII (Michael W. Deem and Ramdas Pophale) SiO2 
 PCOD9461363
Probable space group: P N M A
;
_chemical_formula_sum "Si O2"
_cell_formula_units_Z 28
_cell_length_a 11.730375
_cell_length_b 14.404211
_cell_length_c 6.940938
_cell_angle_alpha 90.000000
_cell_angle_beta 90.000000
_cell_angle_gamma 90.000000
_cell_volume 1172.788059
_symmetry_space_group_name_H-M "P N M A"
_symmetry_group_IT_number 62
_symmetry_cell_setting 'orthorhombic'
loop_
_space_group_symop_operation_xyz
x,y,z
1/2-x,-y,1/2+z
1/2+x,1/2-y,1/2-z
-x,1/2+y,-z
-x,-y,-z
1/2+x,y,1/2-z
1/2-x,1/2+y,1/2+z
x,1/2-y,z
loop_
_atom_site_type_symbol
_atom_site_label
_atom_site_fract_x
_atom_site_fract_y
_atom_site_fract_z
Si Si1 0.179611 0.593886 0.110176
Si Si2 0.982860 0.250000 0.447367
Si Si3 0.491080 0.250000 0.579794
Si Si4 0.248407 0.250000 0.916137
Si Si5 0.092158 0.442646 0.375464
O O1 0.083311 0.660859 0.023201
O O2 0.229498 0.658378 0.284662
O O3 0.118411 0.502048 0.186980
O O4 0.285712 0.567615 0.979276
O O5 0.999351 0.250000 0.682685
O O6 0.846533 0.250000 0.424025
O O7 0.040393 0.340928 0.364956
O O8 0.620259 0.250000 0.513793
O O9 0.000000 0.500000 0.500000
#
# Coordination Sequence:
#
# PCOD9461363 Si02
#       5
#     8   4   4   4   8
#     4  10  21  33  64  87 119 151 197 245 296 345
#     4  10  19  32  63  80 114 157 197 240 289 350
#     4  10  17  36  60  89 108 152 215 243 265 354
#     4  10  16  34  59  87 104 157 206 231 276 350
#     4  12  20  40  60  90 120 155 197 245 298 349
#
# _framework density 23.874728999999999
#
# number of rings (size 3 to 8) (size 9 to 14) (size 15 to 20)
#    0.000    1.714    8.571    0.857    0.000    0.000 
#    0.000   10.000    0.000    0.000    0.000    0.000 
#    0.000    0.000    0.000    0.000    0.000    0.000 
#
# Total GULP energy -156854.304258 kJ/mol
# GULP energy per Si atom -5601.939438 kJ/mol
# Density = 2.382039 g / cm^3
# Si number density = 23.874729 Si / 1000 Ang^3
#
#
#
# Elastic Constant Matrix: (Units=GPa)
#
#
# Indices 1 2 3 4 5 6 
#
# 1 210.6520 72.7650 34.9255 0.0000 0.0000 0.0000
# 2 72.7650 187.2005 30.0228 0.0000 0.0000 0.0000
# 3 34.9255 30.0228 66.2130 0.0000 0.0000 0.0000
# 4 0.0000 0.0000 0.0000 -5.2502 0.0000 0.0000
# 5 0.0000 0.0000 0.0000 0.0000 26.8083 0.0000
# 6 0.0000 0.0000 0.0000 0.0000 0.0000 47.5539
#
#
#
# Elastic Compliance Matrix: (Units=1/GPa)
#
#
# Indices 1 2 3 4 5 6 
#
# 1 0.005762 -0.001890 -0.002182 0.000000 0.000000 0.000000
# 2 -0.001890 0.006380 -0.001896 0.000000 0.000000 0.000000
# 3 -0.002182 -0.001896 0.017114 0.000000 0.000000 0.000000
# 4 0.000000 0.000000 0.000000 -0.190467 0.000000 0.000000
# 5 0.000000 0.000000 0.000000 0.000000 0.037302 0.000000
# 6 0.000000 0.000000 0.000000 0.000000 0.000000 0.021029
#
#
# Mechanical properties :
#
#
# Convention : Reuss Voigt Hill
#
# Bulk Modulus (GPa) = 57.73894 82.16578 69.95236
# Shear Modulus (GPa) = -58.70559 35.57919 -11.56320
#
# Velocity S-wave (km/s) = -4.96411 3.86456 -2.20313
# Velocity P-wave (km/s) = 2.93597 7.37585 4.78452
#
# Compressibility (1/GPa) = 0.01731934
#
# Stress axis : x y z
#
# Youngs Moduli (GPa) = 173.55968 156.72787 58.43245
#
# Poissons Ratio (x) = 0.29615 0.12752
# Poissons Ratio (y) = 0.32795 0.11081
# Poissons Ratio (z) = 0.37877 0.29722
#
# Static dielectric constant tensor:
#      x y z
#    x 1.882080 0.000000 0.000000 
#    y 0.000000 1.878520 0.000000 
#    z 0.000000 0.000000 1.952520 
# 
# From -- ./inp_files/4790.got.cif
#   From: 2010.05.17/outbox.cif.g08.bks.cpg/sg62_3_cif.got.tgz:4790.got - 2010.06.03 15:25:27.
