data_PCOD9461979
_publ_section_title
;
Structure prediction by ZEFSAII (Michael W. Deem and Ramdas Pophale) SiO2 
 PCOD9461979
Probable space group: P N M A
;
_chemical_formula_sum "Si O2"
_cell_formula_units_Z 64
_cell_length_a 11.945572
_cell_length_b 12.084876
_cell_length_c 18.325551
_cell_angle_alpha 90.000000
_cell_angle_beta 90.000000
_cell_angle_gamma 90.000000
_cell_volume 2645.490403
_symmetry_space_group_name_H-M "P N M A"
_symmetry_group_IT_number 62
_symmetry_cell_setting 'orthorhombic'
loop_
_space_group_symop_operation_xyz
x,y,z
1/2-x,-y,1/2+z
1/2+x,1/2-y,1/2-z
-x,1/2+y,-z
-x,-y,-z
1/2+x,y,1/2-z
1/2-x,1/2+y,1/2+z
x,1/2-y,z
loop_
_atom_site_type_symbol
_atom_site_label
_atom_site_fract_x
_atom_site_fract_y
_atom_site_fract_z
Si Si1 0.533666 0.134598 0.788686
Si Si2 0.930564 0.125018 0.093565
Si Si3 0.660280 0.549262 0.881232
Si Si4 0.240784 0.631121 0.041581
Si Si5 0.276429 0.134086 0.264386
Si Si6 0.442944 0.626548 0.945875
Si Si7 0.317764 0.054588 0.848860
Si Si8 0.430901 0.877544 0.382058
O O1 0.594734 0.250000 0.802387
O O2 0.594890 0.037004 0.829601
O O3 0.410845 0.137297 0.822317
O O4 0.530408 0.120662 0.702010
O O5 0.986770 0.250000 0.086823
O O6 0.832743 0.128291 0.031989
O O7 0.875828 0.126755 0.175071
O O8 0.975114 0.996603 0.085823
O O9 0.692621 0.636224 0.819963
O O10 0.573729 0.596816 0.941186
O O11 0.764209 0.482382 0.914491
O O12 0.213905 0.750000 0.077102
O O13 0.373690 0.632409 0.020797
O O14 0.216727 0.250000 0.281279
O O15 0.209826 0.022813 0.279574
O O16 0.431821 0.750000 0.914439
O O17 0.376259 0.532376 0.902944
O O18 0.204396 0.106262 0.880268
O O19 0.454270 0.750000 0.410025
#
# Coordination Sequence:
#
# PCOD9461979 Si02
#       8
#     8   8   8   8   8   8   8   8
#     4  10  20  32  47  75 110 140 176 220 273 330
#     4   9  17  33  53  73  99 141 186 221 263 315
#     4  11  20  31  49  78 109 142 185 223 278 325
#     4  10  19  33  51  72 107 152 187 220 267 334
#     4  10  18  33  53  73 103 139 182 235 275 315
#     4  10  19  32  50  73 109 148 185 225 268 327
#     4  10  18  32  52  75 103 145 181 222 273 323
#     4  10  18  32  51  75 105 139 176 224 273 320
#
# _framework density 24.192111000000001
#
# number of rings (size 3 to 8) (size 9 to 14) (size 15 to 20)
#    0.000    2.000    5.000    1.875    0.000    0.000 
#    0.000    1.875    0.000    0.000    0.000    0.875 
#    0.000    0.000    0.000    0.000    0.000    0.000 
#
# Total GULP energy -356408.387797 kJ/mol
# GULP energy per Si atom -5568.881059 kJ/mol
# Density = 2.413705 g / cm^3
# Si number density = 24.192111 Si / 1000 Ang^3
#
#
#
# Elastic Constant Matrix: (Units=GPa)
#
#
# Indices 1 2 3 4 5 6 
#
# 1 56.4951 24.4547 19.3229 0.0000 0.0000 0.0000
# 2 24.4547 208.9020 26.6068 0.0000 0.0000 0.0000
# 3 19.3229 26.6068 62.0377 0.0000 0.0000 0.0000
# 4 0.0000 0.0000 0.0000 108.6827 0.0000 0.0000
# 5 0.0000 0.0000 0.0000 0.0000 12.8857 0.0000
# 6 0.0000 0.0000 0.0000 0.0000 0.0000 -7.7459
#
#
#
# Elastic Compliance Matrix: (Units=1/GPa)
#
#
# Indices 1 2 3 4 5 6 
#
# 1 0.020345 -0.001665 -0.005622 0.000000 0.000000 0.000000
# 2 -0.001665 0.005200 -0.001711 0.000000 0.000000 0.000000
# 3 -0.005622 -0.001711 0.018604 0.000000 0.000000 0.000000
# 4 0.000000 0.000000 0.000000 0.009201 0.000000 0.000000
# 5 0.000000 0.000000 0.000000 0.000000 0.077605 0.000000
# 6 0.000000 0.000000 0.000000 0.000000 0.000000 -0.129101
#
#
# Mechanical properties :
#
#
# Convention : Reuss Voigt Hill
#
# Bulk Modulus (GPa) = 38.24049 52.02261 45.13155
# Shear Modulus (GPa) = 175.01155 39.90120 107.45638
#
# Velocity S-wave (km/s) = 8.51466 4.06562 6.67191
# Velocity P-wave (km/s) = 10.60694 6.60225 8.83450
#
# Compressibility (1/GPa) = 0.02615029
#
# Stress axis : x y z
#
# Youngs Moduli (GPa) = 49.15309 192.31242 53.75064
#
# Poissons Ratio (x) = 0.32030 0.30221
# Poissons Ratio (y) = 0.08186 0.09199
# Poissons Ratio (z) = 0.27636 0.32912
#
# Static dielectric constant tensor:
#      x y z
#    x 1.941810 0.000000 0.000000 
#    y 0.000000 2.086220 0.000000 
#    z 0.000000 0.000000 1.946790 
# 
# From -- ./inp_files/24012.got.cif
#   From: 2010.05.17/outbox.cif.g08.bks.cpg/sg62_13_cif.got.tgz:24012.got - 2010.06.03 15:25:27.
