data_PCOD9461308
_publ_section_title
;
Structure prediction by ZEFSAII (Michael W. Deem and Ramdas Pophale) SiO2 
 PCOD9461308
Probable space group: P N M A
;
_chemical_formula_sum "Si O2"
_cell_formula_units_Z 48
_cell_length_a 16.559571
_cell_length_b 15.954785
_cell_length_c 8.129646
_cell_angle_alpha 90.000000
_cell_angle_beta 90.000000
_cell_angle_gamma 90.000000
_cell_volume 2147.888203
_symmetry_space_group_name_H-M "P N M A"
_symmetry_group_IT_number 62
_symmetry_cell_setting 'orthorhombic'
loop_
_space_group_symop_operation_xyz
x,y,z
1/2-x,-y,1/2+z
1/2+x,1/2-y,1/2-z
-x,1/2+y,-z
-x,-y,-z
1/2+x,y,1/2-z
1/2-x,1/2+y,1/2+z
x,1/2-y,z
loop_
_atom_site_type_symbol
_atom_site_label
_atom_site_fract_x
_atom_site_fract_y
_atom_site_fract_z
Si Si1 0.569323 0.573058 0.040657
Si Si2 0.276853 0.516219 0.072521
Si Si3 0.376982 0.503262 0.410561
Si Si4 0.965053 0.845046 0.229554
Si Si5 0.634810 0.343866 0.077011
Si Si6 0.980154 0.348403 0.219122
O O1 0.658649 0.538052 0.030959
O O2 0.548788 0.615101 0.212551
O O3 0.500000 0.500000 0.000000
O O4 0.563129 0.641277 0.896596
O O5 0.183459 0.495308 0.062794
O O6 0.287933 0.603859 0.976539
O O7 0.316456 0.510252 0.252264
O O8 0.426034 0.589589 0.394442
O O9 0.434402 0.421763 0.384132
O O10 0.968139 0.750000 0.172961
O O11 0.915968 0.845374 0.403910
O O12 0.974983 0.250000 0.169044
O O13 0.572621 0.369077 0.222600
O O14 0.158628 0.250000 0.384393
#
# Coordination Sequence:
#
# PCOD9461308 Si02
#       6
#     8   8   8   8   8   8
#     4  10  13  27  48  71  89 115 160 204 222 259
#     4  10  18  29  47  69  96 124 148 193 238 275
#     4  10  19  31  44  69  99 123 151 187 237 287
#     4   9  15  27  47  67  88 120 156 195 231 267
#     4   8  13  24  45  69  86 111 159 198 221 260
#     4   9  15  26  46  70  92 116 151 198 237 265
#
# _framework density 22.347532000000001
#
# number of rings (size 3 to 8) (size 9 to 14) (size 15 to 20)
#    0.000    2.667    6.667    1.500    0.000    0.667 
#    0.000    4.167    0.000    4.000    0.000    2.333 
#    0.000    0.000    0.000    0.000    0.000    0.000 
#
# Total GULP energy -267333.765488 kJ/mol
# GULP energy per Si atom -5569.453448 kJ/mol
# Density = 2.229667 g / cm^3
# Si number density = 22.347532 Si / 1000 Ang^3
#
#
#
# Elastic Constant Matrix: (Units=GPa)
#
#
# Indices 1 2 3 4 5 6 
#
# 1 66.2118 40.6258 37.6106 0.0000 0.0000 0.0000
# 2 40.6258 140.3390 26.2526 0.0000 0.0000 0.0000
# 3 37.6106 26.2526 80.1280 0.0000 0.0000 0.0000
# 4 0.0000 0.0000 0.0000 -16.6442 0.0000 0.0000
# 5 0.0000 0.0000 0.0000 0.0000 43.4594 0.0000
# 6 0.0000 0.0000 0.0000 0.0000 0.0000 20.8900
#
#
#
# Elastic Compliance Matrix: (Units=1/GPa)
#
#
# Indices 1 2 3 4 5 6 
#
# 1 0.023542 -0.005058 -0.009393 0.000000 0.000000 0.000000
# 2 -0.005058 0.008678 -0.000469 0.000000 0.000000 0.000000
# 3 -0.009393 -0.000469 0.017043 0.000000 0.000000 0.000000
# 4 0.000000 0.000000 0.000000 -0.060081 0.000000 0.000000
# 5 0.000000 0.000000 0.000000 0.000000 0.023010 0.000000
# 6 0.000000 0.000000 0.000000 0.000000 0.000000 0.047870
#
#
# Mechanical properties :
#
#
# Convention : Reuss Voigt Hill
#
# Bulk Modulus (GPa) = 51.48715 55.07295 53.28005
# Shear Modulus (GPa) = 51.88072 21.68703 36.78388
#
# Velocity S-wave (km/s) = 4.82346 3.11857 4.06148
# Velocity P-wave (km/s) = 7.35598 6.13716 6.77404
#
# Compressibility (1/GPa) = 0.01942232
#
# Stress axis : x y z
#
# Youngs Moduli (GPa) = 42.47722 115.24047 58.67651
#
# Poissons Ratio (x) = 0.58288 0.55115
# Poissons Ratio (y) = 0.21485 0.02752
# Poissons Ratio (z) = 0.39899 0.05404
#
# Static dielectric constant tensor:
#      x y z
#    x 1.841890 0.000000 0.000000 
#    y 0.000000 1.902790 0.000000 
#    z 0.000000 0.000000 2.020320 
# 
# From -- ./inp_files/14194.got.cif
#   From: 2010.05.17/outbox.cif.g08.bks.cpg/sg62_8_cif.got.tgz:14194.got - 2010.06.03 15:25:27.
