data_PCOD9461152
_publ_section_title
;
Structure prediction by ZEFSAII (Michael W. Deem and Ramdas Pophale) SiO2 
 PCOD9461152
Probable space group: P B C A
;
_chemical_formula_sum "Si O2"
_cell_formula_units_Z 32
_cell_length_a 9.464285
_cell_length_b 10.109276
_cell_length_c 13.334264
_cell_angle_alpha 90.000000
_cell_angle_beta 90.000000
_cell_angle_gamma 90.000000
_cell_volume 1275.783300
_symmetry_space_group_name_H-M "P B C A"
_symmetry_group_IT_number 61
_symmetry_cell_setting 'orthorhombic'
loop_
_space_group_symop_operation_xyz
x,y,z
1/2-x,-y,1/2+z
1/2+x,1/2-y,-z
-x,1/2+y,1/2-z
-x,-y,-z
1/2+x,y,1/2-z
1/2-x,1/2+y,z
x,1/2-y,1/2+z
loop_
_atom_site_type_symbol
_atom_site_label
_atom_site_fract_x
_atom_site_fract_y
_atom_site_fract_z
Si Si1 0.729900 0.912879 0.641843
Si Si2 0.472705 0.754048 0.737534
Si Si3 0.966166 0.887456 0.079747
Si Si4 0.910422 0.627326 0.964994
O O1 0.591972 0.844804 0.687672
O O2 0.860380 0.853748 0.707524
O O3 0.765195 0.879787 0.525996
O O4 0.686696 0.067852 0.628826
O O5 0.544457 0.656491 0.819137
O O6 0.406454 0.659768 0.651837
O O7 0.973810 0.756819 0.014752
O O8 0.000000 0.000000 0.000000
O O9 0.000000 0.500000 0.000000
#
# Coordination Sequence:
#
# PCOD9461152 Si02
#       4
#     8   8   8   8
#     4  11  28  50  81 125 162 226 283 358 429 514
#     4  11  28  50  83 121 168 224 287 359 438 517
#     4  11  26  49  83 119 168 218 289 348 433 523
#     4  11  28  48  79 119 172 218 285 353 431 518
#
# _framework density 25.082630999999999
#
# number of rings (size 3 to 8) (size 9 to 14) (size 15 to 20)
#    0.000    1.000    2.500    0.000   17.500    2.000 
#    0.000    0.000    0.000    0.000    0.000    0.000 
#    0.000    0.000    0.000    0.000    0.000    0.000 
#
# Total GULP energy -178423.988357 kJ/mol
# GULP energy per Si atom -5575.749636 kJ/mol
# Density = 2.502554 g / cm^3
# Si number density = 25.082631 Si / 1000 Ang^3
#
#
#
# Elastic Constant Matrix: (Units=GPa)
#
#
# Indices 1 2 3 4 5 6 
#
# 1 116.3720 42.3481 40.6308 0.0000 0.0000 0.0000
# 2 42.3481 187.0280 64.6000 0.0000 0.0000 0.0000
# 3 40.6308 64.6000 207.3538 0.0000 0.0000 0.0000
# 4 0.0000 0.0000 0.0000 49.9141 0.0000 0.0000
# 5 0.0000 0.0000 0.0000 0.0000 37.5179 0.0000
# 6 0.0000 0.0000 0.0000 0.0000 0.0000 45.0202
#
#
#
# Elastic Compliance Matrix: (Units=1/GPa)
#
#
# Indices 1 2 3 4 5 6 
#
# 1 0.009697 -0.001725 -0.001363 0.000000 0.000000 0.000000
# 2 -0.001725 0.006298 -0.001624 0.000000 0.000000 0.000000
# 3 -0.001363 -0.001624 0.005596 0.000000 0.000000 0.000000
# 4 0.000000 0.000000 0.000000 0.020034 0.000000 0.000000
# 5 0.000000 0.000000 0.000000 0.000000 0.026654 0.000000
# 6 0.000000 0.000000 0.000000 0.000000 0.000000 0.022212
#
#
# Mechanical properties :
#
#
# Convention : Reuss Voigt Hill
#
# Bulk Modulus (GPa) = 82.18887 89.54572 85.86730
# Shear Modulus (GPa) = 48.09053 50.70209 49.39631
#
# Velocity S-wave (km/s) = 4.38343 4.50088 4.44254
# Velocity P-wave (km/s) = 7.64576 7.92391 7.78608
#
# Compressibility (1/GPa) = 0.01216710
#
# Stress axis : x y z
#
# Youngs Moduli (GPa) = 103.12896 158.77120 178.70838
#
# Poissons Ratio (x) = 0.27386 0.24352
# Poissons Ratio (y) = 0.17789 0.29026
# Poissons Ratio (z) = 0.14053 0.25788
#
# Static dielectric constant tensor:
#      x y z
#    x 2.071190 0.000000 0.000000 
#    y 0.000000 2.470620 0.000000 
#    z 0.000000 0.000000 2.390490 
# 
# From -- ./inp_files/6917.got.cif
#   From: 2010.05.17/outbox.cif.g08.bks.cpg/sg61_4_cif.got.tgz:6917.got - 2010.06.03 15:17:17.
