data_PCOD9461559
_publ_section_title
;
Structure prediction by ZEFSAII (Michael W. Deem and Ramdas Pophale) SiO2 
 PCOD9461559
Probable space group: P N M A
;
_chemical_formula_sum "Si O2"
_cell_formula_units_Z 64
_cell_length_a 18.972764
_cell_length_b 9.061011
_cell_length_c 26.669534
_cell_angle_alpha 90.000000
_cell_angle_beta 90.000000
_cell_angle_gamma 90.000000
_cell_volume 4584.824218
_symmetry_space_group_name_H-M "P N M A"
_symmetry_group_IT_number 62
_symmetry_cell_setting 'orthorhombic'
loop_
_space_group_symop_operation_xyz
x,y,z
1/2-x,-y,1/2+z
1/2+x,1/2-y,1/2-z
-x,1/2+y,-z
-x,-y,-z
1/2+x,y,1/2-z
1/2-x,1/2+y,1/2+z
x,1/2-y,z
loop_
_atom_site_type_symbol
_atom_site_label
_atom_site_fract_x
_atom_site_fract_y
_atom_site_fract_z
Si Si1 0.214457 0.419970 0.196410
Si Si2 0.927704 0.074200 0.557143
Si Si3 0.332208 0.074340 0.850153
Si Si4 0.422591 0.074541 0.059698
Si Si5 0.414131 0.572300 0.758139
Si Si6 0.840827 0.574225 0.351989
Si Si7 0.921850 0.428333 0.258915
Si Si8 0.705424 0.580576 0.695796
O O1 0.214678 0.250000 0.178755
O O2 0.135455 0.467935 0.210830
O O3 0.261820 0.519739 0.160698
O O4 0.253863 0.421502 0.250539
O O5 0.942862 0.250000 0.561416
O O6 0.866179 0.037749 0.596178
O O7 0.908845 0.045159 0.499202
O O8 0.998549 0.985211 0.569869
O O9 0.332264 0.250000 0.844062
O O10 0.381918 0.003666 0.807352
O O11 0.253659 0.013765 0.841014
O O12 0.419631 0.250000 0.068383
O O13 0.369197 0.991990 0.096227
O O14 0.407199 0.750000 0.764056
O O15 0.496163 0.537009 0.752178
O O16 0.845100 0.750000 0.351505
O O17 0.890257 0.506976 0.307920
O O18 0.914421 0.250000 0.265403
O O19 0.872794 0.469437 0.211412
O O20 0.703282 0.750000 0.678556
#
# Coordination Sequence:
#
# PCOD9461559 Si02
#       8
#     8   8   8   8   8   8   8   8
#     4   8  15  28  42  56  76 103 134 164 194 231
#     4   9  19  32  43  59  81 104 134 171 204 234
#     4  10  18  27  40  58  81 106 132 163 198 234
#     4  10  19  31  45  58  77 106 137 169 203 236
#     4   9  17  28  42  59  79 105 136 165 193 230
#     4  11  20  28  40  59  82 107 136 167 199 236
#     4   9  17  29  43  59  80 107 137 166 196 232
#     4   8  15  27  41  57  78 104 134 163 191 231
#
# _framework density 13.959096000000001
#
# number of rings (size 3 to 8) (size 9 to 14) (size 15 to 20)
#    0.000    2.750    0.000    4.125    0.000    8.500 
#    0.000    0.000    0.000    0.000    0.000    0.000 
#    0.000    1.000    0.000    2.000    0.000    2.750 
#
# Total GULP energy -356491.699087 kJ/mol
# GULP energy per Si atom -5570.182798 kJ/mol
# Density = 1.392732 g / cm^3
# Si number density = 13.959096 Si / 1000 Ang^3
#
#
#
# Elastic Constant Matrix: (Units=GPa)
#
#
# Indices 1 2 3 4 5 6 
#
# 1 104.6580 40.7799 45.8488 0.0000 0.0000 0.0000
# 2 40.7799 50.2396 40.0754 0.0000 0.0000 0.0000
# 3 45.8488 40.0754 61.8477 0.0000 0.0000 0.0000
# 4 0.0000 0.0000 0.0000 17.8039 0.0000 0.0000
# 5 0.0000 0.0000 0.0000 0.0000 25.2744 0.0000
# 6 0.0000 0.0000 0.0000 0.0000 0.0000 17.9096
#
#
#
# Elastic Compliance Matrix: (Units=1/GPa)
#
#
# Indices 1 2 3 4 5 6 
#
# 1 0.015239 -0.006951 -0.006793 0.000000 0.000000 0.000000
# 2 -0.006951 0.044371 -0.023598 0.000000 0.000000 0.000000
# 3 -0.006793 -0.023598 0.036495 0.000000 0.000000 0.000000
# 4 0.000000 0.000000 0.000000 0.056167 0.000000 0.000000
# 5 0.000000 0.000000 0.000000 0.000000 0.039566 0.000000
# 6 0.000000 0.000000 0.000000 0.000000 0.000000 0.055836
#
#
# Mechanical properties :
#
#
# Convention : Reuss Voigt Hill
#
# Bulk Modulus (GPa) = 46.68286 52.23928 49.46107
# Shear Modulus (GPa) = 15.17458 18.20034 16.68746
#
# Velocity S-wave (km/s) = 3.30066 3.61478 3.46129
# Velocity P-wave (km/s) = 6.93116 7.41124 7.17522
#
# Compressibility (1/GPa) = 0.02142114
#
# Stress axis : x y z
#
# Youngs Moduli (GPa) = 65.61946 22.53749 27.40088
#
# Poissons Ratio (x) = 0.15666 0.18614
# Poissons Ratio (y) = 0.45613 0.64660
# Poissons Ratio (z) = 0.44576 0.53183
#
# Static dielectric constant tensor:
#      x y z
#    x 1.478040 0.000000 0.000000 
#    y 0.000000 1.466750 0.000000 
#    z 0.000000 0.000000 1.442080 
# 
# From -- ./inp_files/30109.got.cif
#   From: 2010.05.17/outbox.cif.g08.bks.cpg/sg62_16_cif.got.tgz:30109.got - 2010.06.03 15:25:27.
