data_PCOD9461711
_publ_section_title
;
Structure prediction by ZEFSAII (Michael W. Deem and Ramdas Pophale) SiO2 
 PCOD9461711
Probable space group: P N M A
;
_chemical_formula_sum "Si O2"
_cell_formula_units_Z 48
_cell_length_a 17.171223
_cell_length_b 7.616225
_cell_length_c 18.704344
_cell_angle_alpha 90.000000
_cell_angle_beta 90.000000
_cell_angle_gamma 90.000000
_cell_volume 2446.152198
_symmetry_space_group_name_H-M "P N M A"
_symmetry_group_IT_number 62
_symmetry_cell_setting 'orthorhombic'
loop_
_space_group_symop_operation_xyz
x,y,z
1/2-x,-y,1/2+z
1/2+x,1/2-y,1/2-z
-x,1/2+y,-z
-x,-y,-z
1/2+x,y,1/2-z
1/2-x,1/2+y,1/2+z
x,1/2-y,z
loop_
_atom_site_type_symbol
_atom_site_label
_atom_site_fract_x
_atom_site_fract_y
_atom_site_fract_z
Si Si1 0.331967 0.958254 0.330331
Si Si2 0.236362 0.543488 0.057302
Si Si3 0.508173 0.539542 0.083832
Si Si4 0.413162 0.458546 0.475364
Si Si5 0.180411 0.536483 0.411156
Si Si6 0.357570 0.966347 0.170709
O O1 0.322238 0.750000 0.321657
O O2 0.248970 0.026942 0.359040
O O3 0.355855 0.025672 0.252750
O O4 0.392720 0.983729 0.394866
O O5 0.223790 0.750000 0.070664
O O6 0.154257 0.468622 0.028554
O O7 0.281292 0.474079 0.126606
O O8 0.295261 0.522925 0.990533
O O9 0.508253 0.750000 0.091564
O O10 0.593671 0.476278 0.107265
O O11 0.434903 0.473624 0.129027
O O12 0.500000 0.500000 0.000000
O O13 0.500000 0.500000 0.500000
O O14 0.404235 0.250000 0.475458
O O15 0.181271 0.750000 0.411651
O O16 0.358018 0.750000 0.169050
#
# Coordination Sequence:
#
# PCOD9461711 Si02
#       6
#     8   8   8   8   8   8
#     4   9  18  34  52  72 101 134 165 207 257 300
#     4   9  17  31  52  74  95 128 167 203 245 301
#     4  10  18  29  48  75 101 130 165 203 245 298
#     4  10  20  35  55  77 100 132 175 215 251 298
#     4   9  17  29  47  72  97 127 163 200 245 295
#     4   9  17  31  50  74 102 130 165 207 251 299
#
# _framework density 19.622654000000001
#
# number of rings (size 3 to 8) (size 9 to 14) (size 15 to 20)
#    0.000    2.667    1.667    0.500    0.000    0.667 
#    3.000    1.667    0.000    0.000    0.000    0.000 
#    0.000    0.000    0.000    0.000    0.000    0.000 
#
# Total GULP energy -267636.529604 kJ/mol
# GULP energy per Si atom -5575.761033 kJ/mol
# Density = 1.957799 g / cm^3
# Si number density = 19.622654 Si / 1000 Ang^3
#
#
#
# Elastic Constant Matrix: (Units=GPa)
#
#
# Indices 1 2 3 4 5 6 
#
# 1 156.5249 -6.5948 100.7248 0.0000 0.0000 0.0000
# 2 -6.5948 32.5512 -6.4860 0.0000 0.0000 0.0000
# 3 100.7248 -6.4860 162.8309 0.0000 0.0000 0.0000
# 4 0.0000 0.0000 0.0000 17.9901 0.0000 0.0000
# 5 0.0000 0.0000 0.0000 0.0000 23.2147 0.0000
# 6 0.0000 0.0000 0.0000 0.0000 0.0000 5.1397
#
#
#
# Elastic Compliance Matrix: (Units=1/GPa)
#
#
# Indices 1 2 3 4 5 6 
#
# 1 0.010637 0.000851 -0.006546 0.000000 0.000000 0.000000
# 2 0.000851 0.031035 0.000710 0.000000 0.000000 0.000000
# 3 -0.006546 0.000710 0.010219 0.000000 0.000000 0.000000
# 4 0.000000 0.000000 0.000000 0.055586 0.000000 0.000000
# 5 0.000000 0.000000 0.000000 0.000000 0.043076 0.000000
# 6 0.000000 0.000000 0.000000 0.000000 0.000000 0.194564
#
#
# Mechanical properties :
#
#
# Convention : Reuss Voigt Hill
#
# Bulk Modulus (GPa) = 23.85502 58.57722 41.21612
# Shear Modulus (GPa) = 13.54791 26.88643 20.21717
#
# Velocity S-wave (km/s) = 2.63044 3.70560 3.21331
# Velocity P-wave (km/s) = 4.62697 6.94444 5.90060
#
# Compressibility (1/GPa) = 0.04191989
#
# Stress axis : x y z
#
# Youngs Moduli (GPa) = 94.01150 32.22201 97.85804
#
# Poissons Ratio (x) = -0.02741 0.64058
# Poissons Ratio (y) = -0.07998 -0.06948
# Poissons Ratio (z) = 0.61540 -0.02288
#
# Static dielectric constant tensor:
#      x y z
#    x 1.683770 0.000000 0.000000 
#    y 0.000000 1.742150 0.000000 
#    z 0.000000 0.000000 1.659800 
# 
# From -- ./inp_files/19661.got.cif
#   From: 2010.05.17/outbox.cif.g08.bks.cpg/sg62_10_cif.got.tgz:19661.got - 2010.06.03 15:25:27.
