data_PCOD9461707
_publ_section_title
;
Structure prediction by ZEFSAII (Michael W. Deem and Ramdas Pophale) SiO2 
 PCOD9461707
Probable space group: P N M A
;
_chemical_formula_sum "Si O2"
_cell_formula_units_Z 48
_cell_length_a 20.760280
_cell_length_b 7.533368
_cell_length_c 15.447598
_cell_angle_alpha 90.000000
_cell_angle_beta 90.000000
_cell_angle_gamma 90.000000
_cell_volume 2415.924448
_symmetry_space_group_name_H-M "P N M A"
_symmetry_group_IT_number 62
_symmetry_cell_setting 'orthorhombic'
loop_
_space_group_symop_operation_xyz
x,y,z
1/2-x,-y,1/2+z
1/2+x,1/2-y,1/2-z
-x,1/2+y,-z
-x,-y,-z
1/2+x,y,1/2-z
1/2-x,1/2+y,1/2+z
x,1/2-y,z
loop_
_atom_site_type_symbol
_atom_site_label
_atom_site_fract_x
_atom_site_fract_y
_atom_site_fract_z
Si Si1 0.336416 0.462925 0.696700
Si Si2 0.058929 0.462938 0.935490
Si Si3 0.812916 0.467414 0.610650
Si Si4 0.542084 0.962083 0.083632
Si Si5 0.695197 0.461198 0.494464
Si Si6 0.517235 0.533050 0.273893
O O1 0.338133 0.250000 0.699809
O O2 0.307042 0.522041 0.788535
O O3 0.301197 0.512514 0.608516
O O4 0.411292 0.522420 0.694416
O O5 0.064941 0.250000 0.930231
O O6 0.126538 0.533333 0.971603
O O7 0.036517 0.528419 0.841187
O O8 0.000000 0.500000 0.000000
O O9 0.812467 0.250000 0.609326
O O10 0.883936 0.525477 0.579509
O O11 0.755571 0.530523 0.549215
O O12 0.546103 0.750000 0.091463
O O13 0.511651 0.025649 0.174433
O O14 0.500000 0.000000 0.000000
O O15 0.694154 0.250000 0.508675
O O16 0.516368 0.750000 0.275265
#
# Coordination Sequence:
#
# PCOD9461707 Si02
#       6
#     8   8   8   8   8   8
#     4   9  16  31  53  69  89 129 167 191 230 289
#     4  10  18  29  48  73  99 125 156 196 237 282
#     4   8  17  34  51  68  96 133 163 188 236 298
#     4   9  17  33  54  71  93 126 162 199 237 281
#     4  10  19  31  49  73  99 126 158 200 243 281
#     4   8  15  29  48  68  94 126 156 189 233 285
#
# _framework density 19.868171
#
# number of rings (size 3 to 8) (size 9 to 14) (size 15 to 20)
#    0.000    3.000    1.667    2.000    0.000    0.000 
#    3.000    5.833    0.000    0.000    0.000    0.000 
#    0.000    0.000    0.000    0.000    0.000    0.000 
#
# Total GULP energy -267640.753594 kJ/mol
# GULP energy per Si atom -5575.849033 kJ/mol
# Density = 1.982295 g / cm^3
# Si number density = 19.868171 Si / 1000 Ang^3
#
#
#
# Elastic Constant Matrix: (Units=GPa)
#
#
# Indices 1 2 3 4 5 6 
#
# 1 127.6041 4.4553 121.1010 0.0000 0.0000 0.0000
# 2 4.4553 46.5634 0.3375 0.0000 0.0000 0.0000
# 3 121.1010 0.3375 200.1294 0.0000 0.0000 0.0000
# 4 0.0000 0.0000 0.0000 19.4280 0.0000 0.0000
# 5 0.0000 0.0000 0.0000 0.0000 38.9471 0.0000
# 6 0.0000 0.0000 0.0000 0.0000 0.0000 10.1345
#
#
#
# Elastic Compliance Matrix: (Units=1/GPa)
#
#
# Indices 1 2 3 4 5 6 
#
# 1 0.018540 -0.001693 -0.011216 0.000000 0.000000 0.000000
# 2 -0.001693 0.021631 0.000988 0.000000 0.000000 0.000000
# 3 -0.011216 0.000988 0.011782 0.000000 0.000000 0.000000
# 4 0.000000 0.000000 0.000000 0.051472 0.000000 0.000000
# 5 0.000000 0.000000 0.000000 0.000000 0.025676 0.000000
# 6 0.000000 0.000000 0.000000 0.000000 0.000000 0.098673
#
#
# Mechanical properties :
#
#
# Convention : Reuss Voigt Hill
#
# Bulk Modulus (GPa) = 35.57292 69.56495 52.56894
# Shear Modulus (GPa) = 19.15804 30.26215 24.71010
#
# Velocity S-wave (km/s) = 3.10862 3.90699 3.53044
# Velocity P-wave (km/s) = 5.55230 7.44594 6.56773
#
# Compressibility (1/GPa) = 0.02811127
#
# Stress axis : x y z
#
# Youngs Moduli (GPa) = 53.93614 46.23021 84.87386
#
# Poissons Ratio (x) = 0.07825 0.95196
# Poissons Ratio (y) = 0.09130 -0.08384
# Poissons Ratio (z) = 0.60496 -0.04567
#
# Static dielectric constant tensor:
#      x y z
#    x 1.684550 0.000000 0.000000 
#    y 0.000000 1.758680 0.000000 
#    z 0.000000 0.000000 1.708950 
# 
# From -- ./inp_files/14131.got.cif
#   From: 2010.05.17/outbox.cif.g08.bks.cpg/sg62_8_cif.got.tgz:14131.got - 2010.06.03 15:25:27.
