data_PCOD9461061
_publ_section_title
;
Structure prediction by ZEFSAII (Michael W. Deem and Ramdas Pophale) SiO2 
 PCOD9461061
Probable space group: P B C A
;
_chemical_formula_sum "Si O2"
_cell_formula_units_Z 48
_cell_length_a 8.577846
_cell_length_b 9.692619
_cell_length_c 28.717545
_cell_angle_alpha 90.000000
_cell_angle_beta 90.000000
_cell_angle_gamma 90.000000
_cell_volume 2387.628185
_symmetry_space_group_name_H-M "P B C A"
_symmetry_group_IT_number 61
_symmetry_cell_setting 'orthorhombic'
loop_
_space_group_symop_operation_xyz
x,y,z
1/2-x,-y,1/2+z
1/2+x,1/2-y,-z
-x,1/2+y,1/2-z
-x,-y,-z
1/2+x,y,1/2-z
1/2-x,1/2+y,z
x,1/2-y,1/2+z
loop_
_atom_site_type_symbol
_atom_site_label
_atom_site_fract_x
_atom_site_fract_y
_atom_site_fract_z
Si Si1 0.097733 0.317579 0.705293
Si Si2 0.094780 0.785200 0.887753
Si Si3 0.561582 0.887134 0.963487
Si Si4 0.393538 0.973269 0.873073
Si Si5 0.573388 0.357325 0.983789
Si Si6 0.410904 0.009519 0.219892
O O1 0.255931 0.405957 0.706592
O O2 0.031472 0.304797 0.653193
O O3 0.978357 0.410869 0.735306
O O4 0.113969 0.157803 0.724116
O O5 0.241836 0.881384 0.878872
O O6 0.151472 0.628912 0.884932
O O7 0.016148 0.811273 0.937290
O O8 0.523477 0.930581 0.910991
O O9 0.743959 0.865931 0.972795
O O10 0.463899 0.751453 0.975904
O O11 0.500000 0.000000 0.000000
O O12 0.464557 0.969916 0.821584
O O13 0.500000 0.500000 0.000000
#
# Coordination Sequence:
#
# PCOD9461061 Si02
#       6
#     8   8   8   8   8   8
#     4  11  24  44  69  98 135 174 222 276 337 406
#     4  11  25  44  66  97 132 173 221 270 336 396
#     4  12  24  45  66  95 135 170 225 272 332 400
#     4  11  25  43  67  96 133 172 220 275 329 402
#     4  12  26  43  68  97 131 178 220 276 336 397
#     4  11  24  44  68  99 134 174 222 276 338 403
#
# _framework density 20.103631
#
# number of rings (size 3 to 8) (size 9 to 14) (size 15 to 20)
#    0.000    0.667    1.667    6.000    2.333    5.333 
#    0.000    0.000    0.000    0.000    0.000    0.000 
#    0.000    0.000    0.000    0.000    0.000    0.000 
#
# Total GULP energy -268533.616798 kJ/mol
# GULP energy per Si atom -5594.450350 kJ/mol
# Density = 2.005787 g / cm^3
# Si number density = 20.103631 Si / 1000 Ang^3
#
#
#
# Elastic Constant Matrix: (Units=GPa)
#
#
# Indices 1 2 3 4 5 6 
#
# 1 105.0051 36.6250 -21.2747 0.0000 0.0000 0.0000
# 2 36.6250 142.2632 20.3160 0.0000 0.0000 0.0000
# 3 -21.2747 20.3160 56.3673 0.0000 0.0000 0.0000
# 4 0.0000 0.0000 0.0000 32.4753 0.0000 0.0000
# 5 0.0000 0.0000 0.0000 0.0000 23.9949 0.0000
# 6 0.0000 0.0000 0.0000 0.0000 0.0000 33.4993
#
#
#
# Elastic Compliance Matrix: (Units=1/GPa)
#
#
# Indices 1 2 3 4 5 6 
#
# 1 0.012131 -0.003982 0.006014 0.000000 0.000000 0.000000
# 2 -0.003982 0.008718 -0.004645 0.000000 0.000000 0.000000
# 3 0.006014 -0.004645 0.021685 0.000000 0.000000 0.000000
# 4 0.000000 0.000000 0.000000 0.030793 0.000000 0.000000
# 5 0.000000 0.000000 0.000000 0.000000 0.041676 0.000000
# 6 0.000000 0.000000 0.000000 0.000000 0.000000 0.029851
#
#
# Mechanical properties :
#
#
# Convention : Reuss Voigt Hill
#
# Bulk Modulus (GPa) = 26.80488 41.66314 34.23401
# Shear Modulus (GPa) = 30.76659 35.85850 33.31255
#
# Velocity S-wave (km/s) = 3.91628 4.22795 4.07509
# Velocity P-wave (km/s) = 5.81480 6.67857 6.26160
#
# Compressibility (1/GPa) = 0.03730664
#
# Stress axis : x y z
#
# Youngs Moduli (GPa) = 82.43673 114.71029 46.11571
#
# Poissons Ratio (x) = 0.45674 -0.27732
# Poissons Ratio (y) = 0.32824 0.21420
# Poissons Ratio (z) = -0.49574 0.53281
#
# Static dielectric constant tensor:
#      x y z
#    x 1.707540 0.000000 0.000000 
#    y 0.000000 1.689270 0.000000 
#    z 0.000000 0.000000 1.683780 
# 
# From -- ./inp_files/1877.got.cif
#   From: 2010.05.17/outbox.cif.g08.bks.cpg/sg61_1_cif.got.tgz:1877.got - 2010.06.03 15:17:17.
