data_PCOD9461484
_publ_section_title
;
Structure prediction by ZEFSAII (Michael W. Deem and Ramdas Pophale) SiO2 
 PCOD9461484
Probable space group: P N M A
;
_chemical_formula_sum "Si O2"
_cell_formula_units_Z 64
_cell_length_a 20.003878
_cell_length_b 7.434874
_cell_length_c 21.517897
_cell_angle_alpha 90.000000
_cell_angle_beta 90.000000
_cell_angle_gamma 90.000000
_cell_volume 3200.277472
_symmetry_space_group_name_H-M "P N M A"
_symmetry_group_IT_number 62
_symmetry_cell_setting 'orthorhombic'
loop_
_space_group_symop_operation_xyz
x,y,z
1/2-x,-y,1/2+z
1/2+x,1/2-y,1/2-z
-x,1/2+y,-z
-x,-y,-z
1/2+x,y,1/2-z
1/2-x,1/2+y,1/2+z
x,1/2-y,z
loop_
_atom_site_type_symbol
_atom_site_label
_atom_site_fract_x
_atom_site_fract_y
_atom_site_fract_z
Si Si1 0.081142 0.532913 0.744239
Si Si2 0.426466 0.967487 0.615854
Si Si3 0.067329 0.469514 0.260903
Si Si4 0.718354 0.956834 0.423703
Si Si5 0.714532 0.971451 0.558734
Si Si6 0.574439 0.968536 0.611062
Si Si7 0.774631 0.542612 0.295780
Si Si8 0.197399 0.456640 0.327076
O O1 0.083250 0.750000 0.742923
O O2 0.085651 0.479429 0.816842
O O3 0.145501 0.466300 0.707846
O O4 0.007801 0.475967 0.721450
O O5 0.424000 0.750000 0.613238
O O6 0.421154 0.020029 0.688761
O O7 0.499700 0.026605 0.592590
O O8 0.362038 0.039145 0.580863
O O9 0.069004 0.250000 0.261094
O O10 0.126962 0.535843 0.304431
O O11 0.741539 0.750000 0.423622
O O12 0.737027 0.032937 0.490724
O O13 0.746658 0.037769 0.359893
O O14 0.713719 0.750000 0.559048
O O15 0.638246 0.028609 0.572272
O O16 0.761936 0.033320 0.614861
O O17 0.573566 0.750000 0.610036
O O18 0.752641 0.750000 0.292587
O O19 0.744544 0.456126 0.233771
O O20 0.183470 0.250000 0.344154
#
# Coordination Sequence:
#
# PCOD9461484 Si02
#       8
#     8   8   8   8   8   8   8   8
#     4   9  16  30  51  73  94 119 155 201 241 276
#     4   9  16  28  47  70  96 123 155 195 233 272
#     4   8  15  27  49  78  96 110 151 207 245 273
#     4  10  21  33  44  65  99 132 159 189 228 281
#     4   9  17  30  49  69  91 125 164 194 227 276
#     4   8  14  26  47  72  93 118 156 199 232 265
#     4  11  21  31  45  70 101 128 156 192 235 282
#     4  10  17  31  56  75  88 119 164 203 237 273
#
# _framework density 19.998266000000001
#
# number of rings (size 3 to 8) (size 9 to 14) (size 15 to 20)
#    0.000    2.750    2.500    1.875    0.000    1.000 
#    0.000    3.750    0.000    0.750    0.000    0.000 
#    0.000    0.000    0.000    0.000    0.000    0.125 
#
# Total GULP energy -357070.411002 kJ/mol
# GULP energy per Si atom -5579.225172 kJ/mol
# Density = 1.995275 g / cm^3
# Si number density = 19.998266 Si / 1000 Ang^3
#
#
#
# Elastic Constant Matrix: (Units=GPa)
#
#
# Indices 1 2 3 4 5 6 
#
# 1 98.3167 -6.9895 41.9602 0.0000 0.0000 0.0000
# 2 -6.9895 61.2426 1.0133 0.0000 0.0000 0.0000
# 3 41.9602 1.0133 105.6283 0.0000 0.0000 0.0000
# 4 0.0000 0.0000 0.0000 -0.8633 0.0000 0.0000
# 5 0.0000 0.0000 0.0000 0.0000 22.5768 0.0000
# 6 0.0000 0.0000 0.0000 0.0000 0.0000 11.7862
#
#
#
# Elastic Compliance Matrix: (Units=1/GPa)
#
#
# Indices 1 2 3 4 5 6 
#
# 1 0.012383 0.001495 -0.004933 0.000000 0.000000 0.000000
# 2 0.001495 0.016512 -0.000752 0.000000 0.000000 0.000000
# 3 -0.004933 -0.000752 0.011434 0.000000 0.000000 0.000000
# 4 0.000000 0.000000 0.000000 -1.158308 0.000000 0.000000
# 5 0.000000 0.000000 0.000000 0.000000 0.044293 0.000000
# 6 0.000000 0.000000 0.000000 0.000000 0.000000 0.084845
#
#
# Mechanical properties :
#
#
# Convention : Reuss Voigt Hill
#
# Bulk Modulus (GPa) = 31.30169 37.46176 34.38172
# Shear Modulus (GPa) = -5.15564 21.98017 8.41226
#
# Velocity S-wave (km/s) = -1.60737 3.31887 2.05320
# Velocity P-wave (km/s) = 3.49876 5.78444 4.78022
#
# Compressibility (1/GPa) = 0.03194715
#
# Stress axis : x y z
#
# Youngs Moduli (GPa) = 80.75592 60.56364 87.45735
#
# Poissons Ratio (x) = -0.09053 0.43146
# Poissons Ratio (y) = -0.12072 0.06579
# Poissons Ratio (z) = 0.39840 0.04556
#
# Static dielectric constant tensor:
#      x y z
#    x 1.709360 0.000000 0.000000 
#    y 0.000000 1.752260 0.000000 
#    z 0.000000 0.000000 1.700110 
# 
# From -- ./inp_files/27963.got.cif
#   From: 2010.05.17/outbox.cif.g08.bks.cpg/sg62_14_cif.got.tgz:27963.got - 2010.06.03 15:25:27.
