data_PCOD9461925
_publ_section_title
;
Structure prediction by ZEFSAII (Michael W. Deem and Ramdas Pophale) SiO2 
 PCOD9461925
Probable space group: P N M A
;
_chemical_formula_sum "Si O2"
_cell_formula_units_Z 56
_cell_length_a 19.919634
_cell_length_b 7.587407
_cell_length_c 18.260144
_cell_angle_alpha 90.000000
_cell_angle_beta 90.000000
_cell_angle_gamma 90.000000
_cell_volume 2759.808408
_symmetry_space_group_name_H-M "P N M A"
_symmetry_group_IT_number 62
_symmetry_cell_setting 'orthorhombic'
loop_
_space_group_symop_operation_xyz
x,y,z
1/2-x,-y,1/2+z
1/2+x,1/2-y,1/2-z
-x,1/2+y,-z
-x,-y,-z
1/2+x,y,1/2-z
1/2-x,1/2+y,1/2+z
x,1/2-y,z
loop_
_atom_site_type_symbol
_atom_site_label
_atom_site_fract_x
_atom_site_fract_y
_atom_site_fract_z
Si Si1 0.186999 0.534122 0.073108
Si Si2 0.571251 0.538015 0.537744
Si Si3 0.106555 0.541289 0.212707
Si Si4 0.547647 0.546357 0.697683
Si Si5 0.901697 0.537547 0.622430
Si Si6 0.831972 0.540638 0.476890
Si Si7 0.445746 0.463380 0.140889
O O1 0.187992 0.750000 0.073392
O O2 0.160302 0.479580 0.153013
O O3 0.260878 0.470827 0.051654
O O4 0.131819 0.476730 0.013526
O O5 0.500000 0.500000 0.500000
O O6 0.576419 0.750000 0.541930
O O7 0.571620 0.467399 0.620863
O O8 0.097044 0.750000 0.202569
O O9 0.124955 0.508281 0.296978
O O10 0.033603 0.457758 0.198187
O O11 0.569608 0.750000 0.698111
O O12 0.568380 0.470152 0.776474
O O13 0.903570 0.750000 0.617884
O O14 0.858250 0.469537 0.554654
O O15 0.979338 0.476044 0.618677
O O16 0.822688 0.750000 0.486921
O O17 0.889897 0.514974 0.417017
O O18 0.448043 0.250000 0.143961
#
# Coordination Sequence:
#
# PCOD9461925 Si02
#       7
#     8   8   8   8   8   8   8
#     4   9  19  34  51  74 105 138 170 208 255 306
#     4  10  18  32  54  76 102 135 171 211 252 298
#     4  10  18  31  53  77 102 132 168 209 256 304
#     4   9  18  32  52  78 106 131 165 212 257 302
#     4   9  19  35  55  78 102 131 173 216 254 305
#     4  10  20  36  54  74 102 139 177 209 254 313
#     4   9  18  33  51  77 107 130 166 219 262 297
#
# _framework density 20.291263000000001
#
# number of rings (size 3 to 8) (size 9 to 14) (size 15 to 20)
#    0.000    2.571    1.429    1.714    0.000    2.857 
#    2.571    2.143    0.000    0.000    0.000    0.000 
#    0.000    0.000    0.000    0.000    0.000    0.000 
#
# Total GULP energy -312477.803919 kJ/mol
# GULP energy per Si atom -5579.960784 kJ/mol
# Density = 2.024508 g / cm^3
# Si number density = 20.291263 Si / 1000 Ang^3
#
#
#
# Elastic Constant Matrix: (Units=GPa)
#
#
# Indices 1 2 3 4 5 6 
#
# 1 116.0668 -1.2856 108.4915 0.0000 0.0000 0.0000
# 2 -1.2856 42.9013 -4.5621 0.0000 0.0000 0.0000
# 3 108.4915 -4.5621 207.8133 0.0000 0.0000 0.0000
# 4 0.0000 0.0000 0.0000 4.1284 0.0000 0.0000
# 5 0.0000 0.0000 0.0000 0.0000 20.8299 0.0000
# 6 0.0000 0.0000 0.0000 0.0000 0.0000 13.4281
#
#
#
# Elastic Compliance Matrix: (Units=1/GPa)
#
#
# Indices 1 2 3 4 5 6 
#
# 1 0.016835 -0.000431 -0.008798 0.000000 0.000000 0.000000
# 2 -0.000431 0.023375 0.000738 0.000000 0.000000 0.000000
# 3 -0.008798 0.000738 0.009422 0.000000 0.000000 0.000000
# 4 0.000000 0.000000 0.000000 0.242226 0.000000 0.000000
# 5 0.000000 0.000000 0.000000 0.000000 0.048008 0.000000
# 6 0.000000 0.000000 0.000000 0.000000 0.000000 0.074471
#
#
# Mechanical properties :
#
#
# Convention : Reuss Voigt Hill
#
# Bulk Modulus (GPa) = 30.62891 63.56322 47.09607
# Shear Modulus (GPa) = 11.30706 25.28645 18.29676
#
# Velocity S-wave (km/s) = 2.36315 3.53395 3.00610
# Velocity P-wave (km/s) = 4.75114 6.93146 5.94216
#
# Compressibility (1/GPa) = 0.03264889
#
# Stress axis : x y z
#
# Youngs Moduli (GPa) = 59.39938 42.78091 106.13934
#
# Poissons Ratio (x) = 0.01844 0.93387
# Poissons Ratio (y) = 0.02561 -0.07836
# Poissons Ratio (z) = 0.52262 -0.03158
#
# Static dielectric constant tensor:
#      x y z
#    x 1.676170 0.000000 0.000000 
#    y 0.000000 1.758970 0.000000 
#    z 0.000000 0.000000 1.736020 
# 
# From -- ./inp_files/24572.got.cif
#   From: 2010.05.17/outbox.cif.g08.bks.cpg/sg62_13_cif.got.tgz:24572.got - 2010.06.03 15:25:27.
