data_PCOD9461656
_publ_section_title
;
Structure prediction by ZEFSAII (Michael W. Deem and Ramdas Pophale) SiO2 
 PCOD9461656
Probable space group: P N M A
;
_chemical_formula_sum "Si O2"
_cell_formula_units_Z 56
_cell_length_a 16.405682
_cell_length_b 9.670819
_cell_length_c 19.333413
_cell_angle_alpha 90.000000
_cell_angle_beta 90.000000
_cell_angle_gamma 90.000000
_cell_volume 3067.369343
_symmetry_space_group_name_H-M "P N M A"
_symmetry_group_IT_number 62
_symmetry_cell_setting 'orthorhombic'
loop_
_space_group_symop_operation_xyz
x,y,z
1/2-x,-y,1/2+z
1/2+x,1/2-y,1/2-z
-x,1/2+y,-z
-x,-y,-z
1/2+x,y,1/2-z
1/2-x,1/2+y,1/2+z
x,1/2-y,z
loop_
_atom_site_type_symbol
_atom_site_label
_atom_site_fract_x
_atom_site_fract_y
_atom_site_fract_z
Si Si1 0.801159 0.591609 0.376300
Si Si2 0.110534 0.907814 0.091185
Si Si3 0.827762 0.085553 0.241032
Si Si4 0.728929 0.084989 0.103312
Si Si5 0.632244 0.407395 0.532307
Si Si6 0.035031 0.093938 0.824658
Si Si7 0.582706 0.085766 0.008328
O O1 0.819175 0.750000 0.354010
O O2 0.706892 0.587188 0.397807
O O3 0.810406 0.486457 0.313533
O O4 0.859001 0.560985 0.441745
O O5 0.089973 0.750000 0.069597
O O6 0.059641 0.935574 0.160970
O O7 0.091626 0.018522 0.032585
O O8 0.834187 0.250000 0.246911
O O9 0.758521 0.056095 0.182009
O O10 0.912503 0.017915 0.215536
O O11 0.741029 0.250000 0.091384
O O12 0.790533 0.997922 0.055968
O O13 0.637727 0.052892 0.076492
O O14 0.655652 0.250000 0.515923
O O15 0.573438 0.405115 0.598387
O O16 0.044568 0.250000 0.795958
O O17 0.564670 0.250000 0.010385
O O18 0.500000 0.000000 0.000000
#
# Coordination Sequence:
#
# PCOD9461656 Si02
#       7
#     8   8   8   8   8   8   8
#     4  10  21  39  60  80 111 152 190 231 285 344
#     4  10  19  34  55  78 109 148 182 219 273 334
#     4  10  21  37  59  83 112 149 186 237 291 338
#     4   9  18  37  59  79 109 149 188 226 284 347
#     4  10  18  28  50  84 114 139 173 223 268 318
#     4   9  19  34  53  79 112 147 183 220 269 336
#     4  10  21  39  62  86 112 148 194 243 289 340
#
# _framework density 18.256686999999999
#
# number of rings (size 3 to 8) (size 9 to 14) (size 15 to 20)
#    0.000    2.286    1.429    1.286    0.000    3.429 
#    2.571    0.000    0.000    0.000    0.000    0.000 
#    0.000    0.000    0.000    0.000    0.000    0.000 
#
# Total GULP energy -312170.023062 kJ/mol
# GULP energy per Si atom -5574.464698 kJ/mol
# Density = 1.821513 g / cm^3
# Si number density = 18.256687 Si / 1000 Ang^3
#
#
#
# Elastic Constant Matrix: (Units=GPa)
#
#
# Indices 1 2 3 4 5 6 
#
# 1 109.5728 32.4957 17.2159 0.0000 0.0000 0.0000
# 2 32.4957 65.1862 40.0570 0.0000 0.0000 0.0000
# 3 17.2159 40.0570 57.4497 0.0000 0.0000 0.0000
# 4 0.0000 0.0000 0.0000 32.8290 0.0000 0.0000
# 5 0.0000 0.0000 0.0000 0.0000 9.8499 0.0000
# 6 0.0000 0.0000 0.0000 0.0000 0.0000 27.4490
#
#
#
# Elastic Compliance Matrix: (Units=1/GPa)
#
#
# Indices 1 2 3 4 5 6 
#
# 1 0.010736 -0.005905 0.000900 0.000000 0.000000 0.000000
# 2 -0.005905 0.030089 -0.019210 0.000000 0.000000 0.000000
# 3 0.000900 -0.019210 0.030531 0.000000 0.000000 0.000000
# 4 0.000000 0.000000 0.000000 0.030461 0.000000 0.000000
# 5 0.000000 0.000000 0.000000 0.000000 0.101524 0.000000
# 6 0.000000 0.000000 0.000000 0.000000 0.000000 0.036431
#
#
# Mechanical properties :
#
#
# Convention : Reuss Voigt Hill
#
# Bulk Modulus (GPa) = 43.61857 45.74954 44.68405
# Shear Modulus (GPa) = 16.90077 23.52159 20.21118
#
# Velocity S-wave (km/s) = 3.04588 3.59330 3.33086
# Velocity P-wave (km/s) = 6.02607 6.50609 6.27068
#
# Compressibility (1/GPa) = 0.02292602
#
# Stress axis : x y z
#
# Youngs Moduli (GPa) = 93.14281 33.23479 32.75359
#
# Poissons Ratio (x) = 0.19626 -0.02948
# Poissons Ratio (y) = 0.55002 0.62920
# Poissons Ratio (z) = -0.08383 0.63844
#
# Static dielectric constant tensor:
#      x y z
#    x 1.653130 0.000000 0.000000 
#    y 0.000000 1.618040 0.000000 
#    z 0.000000 0.000000 1.628240 
# 
# From -- ./inp_files/27260.got.cif
#   From: 2010.05.17/outbox.cif.g08.bks.cpg/sg62_14_cif.got.tgz:27260.got - 2010.06.03 15:25:27.
