data_PCOD9461209
_publ_section_title
;
Structure prediction by ZEFSAII (Michael W. Deem and Ramdas Pophale) SiO2 
 PCOD9461209
Probable space group: P B C A
;
_chemical_formula_sum "Si O2"
_cell_formula_units_Z 40
_cell_length_a 9.751937
_cell_length_b 15.228585
_cell_length_c 11.217016
_cell_angle_alpha 90.000000
_cell_angle_beta 90.000000
_cell_angle_gamma 90.000000
_cell_volume 1665.818873
_symmetry_space_group_name_H-M "P B C A"
_symmetry_group_IT_number 61
_symmetry_cell_setting 'orthorhombic'
loop_
_space_group_symop_operation_xyz
x,y,z
1/2-x,-y,1/2+z
1/2+x,1/2-y,-z
-x,1/2+y,1/2-z
-x,-y,-z
1/2+x,y,1/2-z
1/2-x,1/2+y,z
x,1/2-y,1/2+z
loop_
_atom_site_type_symbol
_atom_site_label
_atom_site_fract_x
_atom_site_fract_y
_atom_site_fract_z
Si Si1 0.809121 0.959344 0.293290
Si Si2 0.973586 0.895196 0.499355
Si Si3 0.459681 0.954600 0.624894
Si Si4 0.853808 0.190434 0.681452
Si Si5 0.086805 0.295431 0.763907
O O1 0.716504 0.902214 0.206684
O O2 0.856595 0.893897 0.398470
O O3 0.700507 0.026162 0.349512
O O4 0.933767 0.003192 0.221008
O O5 0.088968 0.828361 0.450626
O O6 0.934480 0.862611 0.628261
O O7 0.000000 0.000000 0.500000
O O8 0.460058 0.849247 0.645457
O O9 0.500000 0.000000 0.500000
O O10 0.739811 0.261662 0.714933
O O11 0.982765 0.213468 0.765683
#
# Coordination Sequence:
#
# PCOD9461209 Si02
#       5
#     8   8   8   8   8
#     4  12  25  52  72 111 150 207 262 317 397 489
#     4  12  27  50  79 105 159 205 259 323 391 491
#     4  12  29  48  81 113 158 211 268 325 400 493
#     4  12  27  49  74 114 155 197 258 330 399 464
#     4  12  28  48  77 118 154 202 264 328 406 467
#
# _framework density 24.012212999999999
#
# number of rings (size 3 to 8) (size 9 to 14) (size 15 to 20)
#    0.000    0.000    6.000    1.200   11.200    1.600 
#    0.000    0.000    0.000    0.000    0.000    0.000 
#    0.000    0.000    0.000    0.000    0.000    0.000 
#
# Total GULP energy -223387.166663 kJ/mol
# GULP energy per Si atom -5584.679167 kJ/mol
# Density = 2.395756 g / cm^3
# Si number density = 24.012213 Si / 1000 Ang^3
#
#
#
# Elastic Constant Matrix: (Units=GPa)
#
#
# Indices 1 2 3 4 5 6 
#
# 1 133.6493 32.1107 39.2891 0.0000 0.0000 0.0000
# 2 32.1107 81.3161 15.5770 0.0000 0.0000 0.0000
# 3 39.2891 15.5770 85.3184 0.0000 0.0000 0.0000
# 4 0.0000 0.0000 0.0000 41.0492 0.0000 0.0000
# 5 0.0000 0.0000 0.0000 0.0000 20.4432 0.0000
# 6 0.0000 0.0000 0.0000 0.0000 0.0000 48.6502
#
#
#
# Elastic Compliance Matrix: (Units=1/GPa)
#
#
# Indices 1 2 3 4 5 6 
#
# 1 0.009291 -0.002953 -0.003739 0.000000 0.000000 0.000000
# 2 -0.002953 0.013682 -0.001138 0.000000 0.000000 0.000000
# 3 -0.003739 -0.001138 0.013651 0.000000 0.000000 0.000000
# 4 0.000000 0.000000 0.000000 0.024361 0.000000 0.000000
# 5 0.000000 0.000000 0.000000 0.000000 0.048916 0.000000
# 6 0.000000 0.000000 0.000000 0.000000 0.000000 0.020555
#
#
# Mechanical properties :
#
#
# Convention : Reuss Voigt Hill
#
# Bulk Modulus (GPa) = 47.70368 52.69304 50.19836
# Shear Modulus (GPa) = 32.65772 36.24899 34.45335
#
# Velocity S-wave (km/s) = 3.69188 3.88958 3.79202
# Velocity P-wave (km/s) = 6.17113 6.49336 6.33429
#
# Compressibility (1/GPa) = 0.02096274
#
# Stress axis : x y z
#
# Youngs Moduli (GPa) = 107.63178 73.09049 73.25678
#
# Poissons Ratio (x) = 0.21580 0.27394
# Poissons Ratio (y) = 0.31779 0.08339
# Poissons Ratio (z) = 0.40248 0.08320
#
# Static dielectric constant tensor:
#      x y z
#    x 1.954240 0.000000 0.000000 
#    y 0.000000 1.597500 0.000000 
#    z 0.000000 0.000000 2.041610 
# 
# From -- ./inp_files/4809.got.cif
#   From: 2010.05.17/outbox.cif.g08.bks.cpg/sg61_3_cif.got.tgz:4809.got - 2010.06.03 15:17:17.
