data_PCOD9461680
_publ_section_title
;
Structure prediction by ZEFSAII (Michael W. Deem and Ramdas Pophale) SiO2 
 PCOD9461680
Probable space group: P N M A
;
_chemical_formula_sum "Si O2"
_cell_formula_units_Z 56
_cell_length_a 9.007311
_cell_length_b 24.443277
_cell_length_c 11.894726
_cell_angle_alpha 90.000000
_cell_angle_beta 90.000000
_cell_angle_gamma 90.000000
_cell_volume 2618.840387
_symmetry_space_group_name_H-M "P N M A"
_symmetry_group_IT_number 62
_symmetry_cell_setting 'orthorhombic'
loop_
_space_group_symop_operation_xyz
x,y,z
1/2-x,-y,1/2+z
1/2+x,1/2-y,1/2-z
-x,1/2+y,-z
-x,-y,-z
1/2+x,y,1/2-z
1/2-x,1/2+y,1/2+z
x,1/2-y,z
loop_
_atom_site_type_symbol
_atom_site_label
_atom_site_fract_x
_atom_site_fract_y
_atom_site_fract_z
Si Si1 0.367566 0.750000 0.424324
Si Si2 0.039099 0.362810 0.953886
Si Si3 0.703129 0.131950 0.775232
Si Si4 0.186397 0.917759 0.910384
Si Si5 0.831029 0.250000 0.777811
Si Si6 0.456458 0.065365 0.863701
Si Si7 0.930321 0.550465 0.744186
Si Si8 0.771616 0.966172 0.967156
O O1 0.391687 0.694535 0.494037
O O2 0.504852 0.750000 0.332227
O O3 0.211059 0.750000 0.356429
O O4 0.078626 0.360384 0.822479
O O5 0.121542 0.417654 0.991342
O O6 0.874907 0.373335 0.001076
O O7 0.757207 0.192053 0.811327
O O8 0.610178 0.097814 0.865745
O O9 0.831673 0.097438 0.711060
O O10 0.343548 0.913465 0.847556
O O11 0.061785 0.920425 0.811617
O O12 0.188837 0.977160 0.971476
O O13 0.386429 0.053183 0.985272
O O14 0.483266 0.006940 0.806798
O O15 0.806768 0.531864 0.836401
#
# Coordination Sequence:
#
# PCOD9461680 Si02
#       8
#     4   8   8   8   4   8   8   8
#     4  10  20  34  52  74 100 130 168 200 240 292
#     4   9  17  31  50  70  93 130 164 192 234 297
#     4  10  18  30  46  67  97 128 160 192 234 288
#     4  10  19  32  52  72  98 130 163 202 244 291
#     4  10  20  30  46  72  98 128 160 196 234 282
#     4  10  18  29  46  68  95 128 157 193 239 290
#     4  10  18  32  49  72  97 125 162 201 241 288
#     4   9  18  31  50  73  98 129 163 194 243 302
#
# _framework density 21.383510000000001
#
# number of rings (size 3 to 8) (size 9 to 14) (size 15 to 20)
#    0.000    2.286    0.000    6.857    0.000    0.000 
#    0.000    9.286    0.000    3.429    0.000    0.000 
#    0.000    0.000    0.000    0.000    0.000    0.000 
#
# Total GULP energy -312398.152810 kJ/mol
# GULP energy per Si atom -5578.538443 kJ/mol
# Density = 2.133484 g / cm^3
# Si number density = 21.383510 Si / 1000 Ang^3
#
#
#
# Elastic Constant Matrix: (Units=GPa)
#
#
# Indices 1 2 3 4 5 6 
#
# 1 83.8225 9.2030 27.4148 0.0000 0.0000 0.0000
# 2 9.2030 76.9043 13.5863 0.0000 0.0000 0.0000
# 3 27.4148 13.5863 37.2357 0.0000 0.0000 0.0000
# 4 0.0000 0.0000 0.0000 26.3568 0.0000 0.0000
# 5 0.0000 0.0000 0.0000 0.0000 45.5031 0.0000
# 6 0.0000 0.0000 0.0000 0.0000 0.0000 34.7232
#
#
#
# Elastic Compliance Matrix: (Units=1/GPa)
#
#
# Indices 1 2 3 4 5 6 
#
# 1 0.015716 0.000175 -0.011635 0.000000 0.000000 0.000000
# 2 0.000175 0.013901 -0.005201 0.000000 0.000000 0.000000
# 3 -0.011635 -0.005201 0.037320 0.000000 0.000000 0.000000
# 4 0.000000 0.000000 0.000000 0.037941 0.000000 0.000000
# 5 0.000000 0.000000 0.000000 0.000000 0.021977 0.000000
# 6 0.000000 0.000000 0.000000 0.000000 0.000000 0.028799
#
#
# Mechanical properties :
#
#
# Convention : Reuss Voigt Hill
#
# Bulk Modulus (GPa) = 29.74842 33.15231 31.45037
# Shear Modulus (GPa) = 24.97757 31.16719 28.07238
#
# Velocity S-wave (km/s) = 3.42142 3.82191 3.62720
# Velocity P-wave (km/s) = 5.43601 5.91720 5.68170
#
# Compressibility (1/GPa) = 0.03361523
#
# Stress axis : x y z
#
# Youngs Moduli (GPa) = 63.62950 71.93694 26.79561
#
# Poissons Ratio (x) = -0.01257 0.31176
# Poissons Ratio (y) = -0.01112 0.13936
# Poissons Ratio (z) = 0.74031 0.37413
#
# Static dielectric constant tensor:
#      x y z
#    x 1.890660 0.000000 0.000000 
#    y 0.000000 1.794790 0.000000 
#    z 0.000000 0.000000 1.840360 
# 
# From -- ./inp_files/12584.got.cif
#   From: 2010.05.17/outbox.cif.g08.bks.cpg/sg62_7_cif.got.tgz:12584.got - 2010.06.03 15:25:27.
