data_PCOD9461786
_publ_section_title
;
Structure prediction by ZEFSAII (Michael W. Deem and Ramdas Pophale) SiO2 
 PCOD9461786
Probable space group: P N M A
;
_chemical_formula_sum "Si O2"
_cell_formula_units_Z 64
_cell_length_a 23.967053
_cell_length_b 8.872727
_cell_length_c 19.641518
_cell_angle_alpha 90.000000
_cell_angle_beta 90.000000
_cell_angle_gamma 90.000000
_cell_volume 4176.830050
_symmetry_space_group_name_H-M "P N M A"
_symmetry_group_IT_number 62
_symmetry_cell_setting 'orthorhombic'
loop_
_space_group_symop_operation_xyz
x,y,z
1/2-x,-y,1/2+z
1/2+x,1/2-y,1/2-z
-x,1/2+y,-z
-x,-y,-z
1/2+x,y,1/2-z
1/2-x,1/2+y,1/2+z
x,1/2-y,z
loop_
_atom_site_type_symbol
_atom_site_label
_atom_site_fract_x
_atom_site_fract_y
_atom_site_fract_z
Si Si1 0.231245 0.431616 0.352873
Si Si2 0.751393 0.068967 0.995057
Si Si3 0.160448 0.430442 0.226315
Si Si4 0.936637 0.068394 0.858157
Si Si5 0.333714 0.569463 0.270338
Si Si6 0.226357 0.569887 0.646201
Si Si7 0.617587 0.568412 0.501950
Si Si8 0.064300 0.068130 0.862474
O O1 0.239285 0.250000 0.348465
O O2 0.225094 0.470874 0.431881
O O3 0.180453 0.470880 0.302507
O O4 0.286283 0.508192 0.321758
O O5 0.748481 0.250000 0.986535
O O6 0.724150 0.990876 0.930127
O O7 0.817057 0.027093 0.998538
O O8 0.154445 0.250000 0.222840
O O9 0.104874 0.506036 0.198804
O O10 0.212918 0.472985 0.177838
O O11 0.935083 0.250000 0.855954
O O12 0.000663 0.018966 0.850992
O O13 0.912721 0.021886 0.932105
O O14 0.330182 0.750000 0.266770
O O15 0.318931 0.500004 0.197245
O O16 0.393333 0.526140 0.301962
O O17 0.222536 0.750000 0.648070
O O18 0.614624 0.750000 0.507420
O O19 0.588299 0.497366 0.567355
O O20 0.064588 0.250000 0.867689
#
# Coordination Sequence:
#
# PCOD9461786 Si02
#       8
#     8   8   8   8   8   8   8   8
#     4   9  18  32  48  68  96 123 153 194 237 279
#     4  10  18  30  49  72  97 127 157 188 233 286
#     4   9  18  31  46  66  90 121 156 192 232 273
#     4  10  20  33  46  65  94 127 162 198 231 269
#     4  10  19  31  47  67  91 123 160 195 234 279
#     4  10  20  32  48  69  95 122 154 197 239 281
#     4  10  19  30  46  67  95 130 164 192 224 271
#     4  10  21  33  46  66  94 127 163 199 232 269
#
# _framework density 15.322625
#
# number of rings (size 3 to 8) (size 9 to 14) (size 15 to 20)
#    0.000    2.250    2.500    1.875    0.000    4.500 
#    0.000    0.000    0.000    0.000    0.000    0.875 
#    0.000    0.000    0.000    0.000    0.000    0.000 
#
# Total GULP energy -356946.784414 kJ/mol
# GULP energy per Si atom -5577.293506 kJ/mol
# Density = 1.528775 g / cm^3
# Si number density = 15.322625 Si / 1000 Ang^3
#
#
#
# Elastic Constant Matrix: (Units=GPa)
#
#
# Indices 1 2 3 4 5 6 
#
# 1 99.8677 27.3680 76.3301 0.0000 0.0000 0.0000
# 2 27.3680 16.6870 39.4858 0.0000 0.0000 0.0000
# 3 76.3301 39.4858 152.4289 0.0000 0.0000 0.0000
# 4 0.0000 0.0000 0.0000 24.1334 0.0000 0.0000
# 5 0.0000 0.0000 0.0000 0.0000 19.9551 0.0000
# 6 0.0000 0.0000 0.0000 0.0000 0.0000 18.4721
#
#
#
# Elastic Compliance Matrix: (Units=1/GPa)
#
#
# Indices 1 2 3 4 5 6 
#
# 1 0.018971 -0.022310 -0.003721 0.000000 0.000000 0.000000
# 2 -0.022310 0.181072 -0.035734 0.000000 0.000000 0.000000
# 3 -0.003721 -0.035734 0.017680 0.000000 0.000000 0.000000
# 4 0.000000 0.000000 0.000000 0.041436 0.000000 0.000000
# 5 0.000000 0.000000 0.000000 0.000000 0.050113 0.000000
# 6 0.000000 0.000000 0.000000 0.000000 0.000000 0.054136
#
#
# Mechanical properties :
#
#
# Convention : Reuss Voigt Hill
#
# Bulk Modulus (GPa) = 10.61631 61.70574 36.16102
# Shear Modulus (GPa) = 9.64630 20.89877 15.27254
#
# Velocity S-wave (km/s) = 2.51180 3.69713 3.16053
# Velocity P-wave (km/s) = 3.91864 7.65398 6.08026
#
# Compressibility (1/GPa) = 0.09419466
#
# Stress axis : x y z
#
# Youngs Moduli (GPa) = 52.71279 5.52267 56.56042
#
# Poissons Ratio (x) = 0.12321 0.21044
# Poissons Ratio (y) = 1.17600 2.02112
# Poissons Ratio (z) = 0.19612 0.19735
#
# Static dielectric constant tensor:
#      x y z
#    x 1.493930 0.000000 0.000000 
#    y 0.000000 1.512500 0.000000 
#    z 0.000000 0.000000 1.505720 
# 
# From -- ./inp_files/24932.got.cif
#   From: 2010.05.17/outbox.cif.g08.bks.cpg/sg62_13_cif.got.tgz:24932.got - 2010.06.03 15:25:27.
