data_PCOD9461091
_publ_section_title
;
Structure prediction by ZEFSAII (Michael W. Deem and Ramdas Pophale) SiO2 
 PCOD9461091
Probable space group: P B C A
;
_chemical_formula_sum "Si O2"
_cell_formula_units_Z 48
_cell_length_a 14.519557
_cell_length_b 9.281223
_cell_length_c 13.104188
_cell_angle_alpha 90.000000
_cell_angle_beta 90.000000
_cell_angle_gamma 90.000000
_cell_volume 1765.910499
_symmetry_space_group_name_H-M "P B C A"
_symmetry_group_IT_number 61
_symmetry_cell_setting 'orthorhombic'
loop_
_space_group_symop_operation_xyz
x,y,z
1/2-x,-y,1/2+z
1/2+x,1/2-y,-z
-x,1/2+y,1/2-z
-x,-y,-z
1/2+x,y,1/2-z
1/2-x,1/2+y,z
x,1/2-y,1/2+z
loop_
_atom_site_type_symbol
_atom_site_label
_atom_site_fract_x
_atom_site_fract_y
_atom_site_fract_z
Si Si1 0.701985 0.011714 0.803577
Si Si2 0.888286 0.989126 0.700256
Si Si3 0.445922 0.298235 0.656347
Si Si4 0.920688 0.567357 0.610153
Si Si5 0.811880 0.806906 0.508994
Si Si6 0.100760 0.741380 0.941434
O O1 0.809940 0.994183 0.785320
O O2 0.652826 0.077243 0.703368
O O3 0.653988 0.854770 0.812524
O O4 0.681682 0.108807 0.902298
O O5 0.911967 0.147796 0.659075
O O6 0.838307 0.913426 0.601865
O O7 0.978262 0.892429 0.714506
O O8 0.484234 0.136913 0.649210
O O9 0.448912 0.336768 0.535172
O O10 0.876865 0.668036 0.522411
O O11 0.069816 0.595204 0.425324
O O12 0.707856 0.755120 0.528573
#
# Coordination Sequence:
#
# PCOD9461091 Si02
#       6
#     8   8   8   8   8   8
#     4  12  26  51  84 114 163 221 273 336 414 490
#     4  11  25  52  80 118 166 214 280 342 402 502
#     4  11  28  49  82 120 160 221 269 341 416 493
#     4  11  27  49  76 127 164 208 279 347 398 498
#     4  11  24  48  81 116 159 223 272 328 415 490
#     4  12  22  48  80 115 164 213 267 340 413 478
#
# _framework density 27.181446000000001
#
# number of rings (size 3 to 8) (size 9 to 14) (size 15 to 20)
#    0.000    0.667    5.000    1.000    2.333    6.667 
#    3.000    0.000    0.000    0.000    0.000    0.000 
#    0.000    0.000    0.000    0.000    0.000    0.000 
#
# Total GULP energy -269569.143847 kJ/mol
# GULP energy per Si atom -5616.023830 kJ/mol
# Density = 2.711958 g / cm^3
# Si number density = 27.181446 Si / 1000 Ang^3
#
#
#
# Elastic Constant Matrix: (Units=GPa)
#
#
# Indices 1 2 3 4 5 6 
#
# 1 156.9774 57.5792 23.3918 0.0000 0.0000 0.0000
# 2 57.5792 173.2267 23.6040 0.0000 0.0000 0.0000
# 3 23.3918 23.6040 99.9691 0.0000 0.0000 0.0000
# 4 0.0000 0.0000 0.0000 53.2640 0.0000 0.0000
# 5 0.0000 0.0000 0.0000 0.0000 49.2636 0.0000
# 6 0.0000 0.0000 0.0000 0.0000 0.0000 46.9045
#
#
#
# Elastic Compliance Matrix: (Units=1/GPa)
#
#
# Indices 1 2 3 4 5 6 
#
# 1 0.007389 -0.002294 -0.001187 0.000000 0.000000 0.000000
# 2 -0.002294 0.006677 -0.001040 0.000000 0.000000 0.000000
# 3 -0.001187 -0.001040 0.010526 0.000000 0.000000 0.000000
# 4 0.000000 0.000000 0.000000 0.018774 0.000000 0.000000
# 5 0.000000 0.000000 0.000000 0.000000 0.020299 0.000000
# 6 0.000000 0.000000 0.000000 0.000000 0.000000 0.021320
#
#
# Mechanical properties :
#
#
# Convention : Reuss Voigt Hill
#
# Bulk Modulus (GPa) = 64.30898 71.03592 67.67245
# Shear Modulus (GPa) = 50.39763 51.59297 50.99530
#
# Velocity S-wave (km/s) = 4.31062 4.36144 4.33610
# Velocity P-wave (km/s) = 6.96317 7.18008 7.07246
#
# Compressibility (1/GPa) = 0.01554993
#
# Stress axis : x y z
#
# Youngs Moduli (GPa) = 135.34062 149.76723 94.99944
#
# Poissons Ratio (x) = 0.34360 0.11278
# Poissons Ratio (y) = 0.31050 0.09877
# Poissons Ratio (z) = 0.16068 0.15572
#
# Static dielectric constant tensor:
#      x y z
#    x 2.073040 0.000000 0.000000 
#    y 0.000000 2.124780 0.000000 
#    z 0.000000 0.000000 2.184040 
# 
# From -- ./inp_files/7460.got.cif
#   From: 2010.05.17/outbox.cif.g08.bks.cpg/sg61_4_cif.got.tgz:7460.got - 2010.06.03 15:17:17.
