data_PCOD9461555
_publ_section_title
;
Structure prediction by ZEFSAII (Michael W. Deem and Ramdas Pophale) SiO2 
 PCOD9461555
Probable space group: P N M A
;
_chemical_formula_sum "Si O2"
_cell_formula_units_Z 64
_cell_length_a 19.190472
_cell_length_b 7.814166
_cell_length_c 27.346364
_cell_angle_alpha 90.000000
_cell_angle_beta 90.000000
_cell_angle_gamma 90.000000
_cell_volume 4100.793305
_symmetry_space_group_name_H-M "P N M A"
_symmetry_group_IT_number 62
_symmetry_cell_setting 'orthorhombic'
loop_
_space_group_symop_operation_xyz
x,y,z
1/2-x,-y,1/2+z
1/2+x,1/2-y,1/2-z
-x,1/2+y,-z
-x,-y,-z
1/2+x,y,1/2-z
1/2-x,1/2+y,1/2+z
x,1/2-y,z
loop_
_atom_site_type_symbol
_atom_site_label
_atom_site_fract_x
_atom_site_fract_y
_atom_site_fract_z
Si Si1 0.931222 0.039831 0.754712
Si Si2 0.672186 0.039235 0.644721
Si Si3 0.587823 0.049233 0.552664
Si Si4 0.806893 0.054862 0.693820
Si Si5 0.653980 0.545482 0.351035
Si Si6 0.567302 0.452502 0.443984
Si Si7 0.273999 0.052462 0.212362
Si Si8 0.910015 0.956298 0.242494
O O1 0.929889 0.250000 0.753974
O O2 0.880549 0.978904 0.710906
O O3 0.896168 0.987483 0.806221
O O4 0.010931 0.983608 0.751480
O O5 0.673156 0.250000 0.644947
O O6 0.638589 0.978146 0.594212
O O7 0.750999 0.979337 0.656010
O O8 0.623333 0.988209 0.690536
O O9 0.604763 0.250000 0.549021
O O10 0.589796 0.978471 0.497413
O O11 0.507481 0.032143 0.569439
O O12 0.820236 0.250000 0.678276
O O13 0.763101 0.056027 0.744769
O O14 0.652996 0.750000 0.351499
O O15 0.623280 0.482675 0.401976
O O16 0.731511 0.486091 0.336694
O O17 0.555069 0.250000 0.449112
O O18 0.263187 0.250000 0.225117
O O19 0.355557 0.013155 0.215985
O O20 0.911362 0.750000 0.242090
#
# Coordination Sequence:
#
# PCOD9461555 Si02
#       8
#     8   8   8   8   8   8   8   8
#     4   8  14  24  41  60  75  97 131 164 188 223
#     4   8  13  23  40  56  73 103 139 165 185 223
#     4   9  17  29  42  56  78 109 139 166 199 236
#     4   8  14  26  41  57  76 101 133 163 191 225
#     4  10  18  30  45  57  74 105 139 166 198 236
#     4  10  19  28  39  58  81 103 133 173 207 233
#     4  10  18  27  38  56  80 102 127 160 195 229
#     4   9  15  25  40  57  77 102 131 157 185 224
#
# _framework density 15.606737000000001
#
# number of rings (size 3 to 8) (size 9 to 14) (size 15 to 20)
#    0.000    3.000    0.000    4.125    0.000    2.500 
#    0.000    8.125    0.000    0.000    0.000    0.000 
#    0.000    1.000    0.000    1.750    0.000    2.500 
#
# Total GULP energy -356306.681933 kJ/mol
# GULP energy per Si atom -5567.291905 kJ/mol
# Density = 1.557121 g / cm^3
# Si number density = 15.606737 Si / 1000 Ang^3
#
#
#
# Elastic Constant Matrix: (Units=GPa)
#
#
# Indices 1 2 3 4 5 6 
#
# 1 113.8621 -0.1767 50.0479 0.0000 0.0000 0.0000
# 2 -0.1767 24.7002 -0.8969 0.0000 0.0000 0.0000
# 3 50.0479 -0.8969 74.5981 0.0000 0.0000 0.0000
# 4 0.0000 0.0000 0.0000 9.6507 0.0000 0.0000
# 5 0.0000 0.0000 0.0000 0.0000 29.6214 0.0000
# 6 0.0000 0.0000 0.0000 0.0000 0.0000 4.9931
#
#
#
# Elastic Compliance Matrix: (Units=1/GPa)
#
#
# Indices 1 2 3 4 5 6 
#
# 1 0.012457 -0.000214 -0.008360 0.000000 0.000000 0.000000
# 2 -0.000214 0.040507 0.000631 0.000000 0.000000 0.000000
# 3 -0.008360 0.000631 0.019021 0.000000 0.000000 0.000000
# 4 0.000000 0.000000 0.000000 0.103619 0.000000 0.000000
# 5 0.000000 0.000000 0.000000 0.000000 0.033759 0.000000
# 6 0.000000 0.000000 0.000000 0.000000 0.000000 0.200275
#
#
# Mechanical properties :
#
#
# Convention : Reuss Voigt Hill
#
# Bulk Modulus (GPa) = 17.82586 34.56768 26.19677
# Shear Modulus (GPa) = 11.25557 19.79880 15.52718
#
# Velocity S-wave (km/s) = 2.68843 3.56561 3.15763
# Velocity P-wave (km/s) = 4.59168 6.25690 5.48782
#
# Compressibility (1/GPa) = 0.05609826
#
# Stress axis : x y z
#
# Youngs Moduli (GPa) = 80.27763 24.68717 52.57244
#
# Poissons Ratio (x) = 0.00529 0.43950
# Poissons Ratio (y) = 0.01722 -0.03317
# Poissons Ratio (z) = 0.67111 -0.01558
#
# Static dielectric constant tensor:
#      x y z
#    x 1.541410 0.000000 0.000000 
#    y 0.000000 1.573910 0.000000 
#    z 0.000000 0.000000 1.521920 
# 
# From -- ./inp_files/30089.got.cif
#   From: 2010.05.17/outbox.cif.g08.bks.cpg/sg62_16_cif.got.tgz:30089.got - 2010.06.03 15:25:27.
