data_PCOD9461282
_publ_section_title
;
Structure prediction by ZEFSAII (Michael W. Deem and Ramdas Pophale) SiO2 
 PCOD9461282
Probable space group: P B C A
;
_chemical_formula_sum "Si O2"
_cell_formula_units_Z 64
_cell_length_a 9.000000
_cell_length_b 24.000000
_cell_length_c 15.000000
_cell_angle_alpha 90.000000
_cell_angle_beta 90.000000
_cell_angle_gamma 90.000000
_cell_volume 3240.000000
_symmetry_space_group_name_H-M "P B C A"
_symmetry_group_IT_number 61
_symmetry_cell_setting 'orthorhombic'
loop_
_space_group_symop_operation_xyz
x,y,z
1/2-x,-y,1/2+z
1/2+x,1/2-y,-z
-x,1/2+y,1/2-z
-x,-y,-z
1/2+x,y,1/2-z
1/2-x,1/2+y,z
x,1/2-y,1/2+z
loop_
_atom_site_type_symbol
_atom_site_label
_atom_site_fract_x
_atom_site_fract_y
_atom_site_fract_z
Si Si1 0.167857 0.302782 0.064692
Si Si2 0.477183 0.156803 0.628632
Si Si3 0.074704 0.994965 0.770939
Si Si4 0.207881 0.434882 0.639334
Si Si5 0.417085 0.722359 0.360694
Si Si6 0.198337 0.438081 0.428387
Si Si7 0.237860 0.305491 0.676899
Si Si8 0.527256 0.610338 0.679108
O O1 0.337733 0.323401 0.071041
O O2 0.162542 0.242857 0.115587
O O3 0.075604 0.347880 0.122389
O O4 0.119850 0.297950 0.961233
O O5 0.584355 0.210192 0.637045
O O6 0.560009 0.104167 0.585777
O O7 0.424671 0.140909 0.728975
O O8 0.152478 0.954652 0.699295
O O9 0.928136 0.966595 0.812042
O O10 0.170165 0.010927 0.859469
O O11 0.046368 0.053171 0.717404
O O12 0.216192 0.450601 0.533722
O O13 0.195770 0.367830 0.646041
O O14 0.311085 0.702538 0.280052
O O15 0.585055 0.703664 0.335515
O O16 0.339952 0.406933 0.386225
#
# Coordination Sequence:
#
# PCOD9461282 Si02
#       8
#     8   8   8   8   8   8   8   8
#     4  11  24  42  70 106 136 179 229 278 343 412
#     4  10  22  41  69 101 141 177 226 282 333 407
#     4  11  25  46  68  97 134 179 226 291 337 400
#     4  12  25  46  66  96 139 178 230 274 347 407
#     4  11  24  42  66 102 140 183 221 273 347 405
#     4  11  24  43  72 101 130 183 228 285 341 406
#     4  11  25  44  66  99 141 184 216 283 338 411
#     4  11  22  44  73 100 134 175 233 287 338 400
#
# _framework density 19.753086
#
# number of rings (size 3 to 8) (size 9 to 14) (size 15 to 20)
#    0.000    1.000    2.500    4.125    3.500    5.500 
#    2.250    0.000    0.000    0.000    0.000    0.000 
#    0.000    0.000    0.000    0.000    0.000    0.000 
#
# Total GULP energy -357766.041880 kJ/mol
# GULP energy per Si atom -5590.094404 kJ/mol
# Density = 1.970813 g / cm^3
# Si number density = 19.753086 Si / 1000 Ang^3
#
#
#
# Elastic Constant Matrix: (Units=GPa)
#
#
# Indices 1 2 3 4 5 6 
#
# 1 64.0140 17.2152 60.1178 0.0000 0.0000 0.0000
# 2 17.2152 85.0008 38.9271 0.0000 0.0000 0.0000
# 3 60.1178 38.9271 205.3861 0.0000 0.0000 0.0000
# 4 0.0000 0.0000 0.0000 31.6543 0.0000 0.0000
# 5 0.0000 0.0000 0.0000 0.0000 37.5820 0.0000
# 6 0.0000 0.0000 0.0000 0.0000 0.0000 33.0723
#
#
#
# Elastic Compliance Matrix: (Units=1/GPa)
#
#
# Indices 1 2 3 4 5 6 
#
# 1 0.021748 -0.001631 -0.006057 0.000000 0.000000 0.000000
# 2 -0.001631 0.013005 -0.001987 0.000000 0.000000 0.000000
# 3 -0.006057 -0.001987 0.007018 0.000000 0.000000 0.000000
# 4 0.000000 0.000000 0.000000 0.031591 0.000000 0.000000
# 5 0.000000 0.000000 0.000000 0.000000 0.026608 0.000000
# 6 0.000000 0.000000 0.000000 0.000000 0.000000 0.030237
#
#
# Mechanical properties :
#
#
# Convention : Reuss Voigt Hill
#
# Bulk Modulus (GPa) = 44.60008 65.21346 54.90677
# Shear Modulus (GPa) = 31.84053 36.33777 34.08915
#
# Velocity S-wave (km/s) = 4.01924 4.29371 4.15874
# Velocity P-wave (km/s) = 6.64581 7.59389 7.13562
#
# Compressibility (1/GPa) = 0.02242149
#
# Stress axis : x y z
#
# Youngs Moduli (GPa) = 45.98056 76.89286 142.48210
#
# Poissons Ratio (x) = 0.12541 0.86298
# Poissons Ratio (y) = 0.07499 0.28318
# Poissons Ratio (z) = 0.27849 0.15282
#
# Static dielectric constant tensor:
#      x y z
#    x 1.728020 0.000000 0.000000 
#    y 0.000000 1.703840 0.000000 
#    z 0.000000 0.000000 1.655860 
# 
# From -- ./inp_files/7238.got.cif
#   From: 2010.05.17/outbox.ucp.g08.bks.cvg/sg61_4_cif.got.tgz:7238.got - 2010.06.11 16:28:26.
