data_PCOD9461280
_publ_section_title
;
Structure prediction by ZEFSAII (Michael W. Deem and Ramdas Pophale) SiO2 
 PCOD9461280
Probable space group: P B C A
;
_chemical_formula_sum "Si O2"
_cell_formula_units_Z 56
_cell_length_a 12.000000
_cell_length_b 15.000000
_cell_length_c 15.000000
_cell_angle_alpha 90.000000
_cell_angle_beta 90.000000
_cell_angle_gamma 90.000000
_cell_volume 2700.000000
_symmetry_space_group_name_H-M "P B C A"
_symmetry_group_IT_number 61
_symmetry_cell_setting 'orthorhombic'
loop_
_space_group_symop_operation_xyz
x,y,z
1/2-x,-y,1/2+z
1/2+x,1/2-y,-z
-x,1/2+y,1/2-z
-x,-y,-z
1/2+x,y,1/2-z
1/2-x,1/2+y,z
x,1/2-y,1/2+z
loop_
_atom_site_type_symbol
_atom_site_label
_atom_site_fract_x
_atom_site_fract_y
_atom_site_fract_z
Si Si1 0.001470 0.365103 0.476602
Si Si2 0.606459 0.573374 0.613716
Si Si3 0.640473 0.027304 0.400713
Si Si4 0.985440 0.198821 0.343513
Si Si5 0.312528 0.589984 0.294978
Si Si6 0.113765 0.975037 0.593889
Si Si7 0.108306 0.718292 0.345577
O O1 0.945143 0.447766 0.423442
O O2 0.996815 0.281737 0.409732
O O3 0.938061 0.332658 0.566890
O O4 0.117338 0.402192 0.519003
O O5 0.693936 0.510336 0.665913
O O6 0.604323 0.545519 0.510657
O O7 0.480031 0.538845 0.637908
O O8 0.629932 0.678003 0.627880
O O9 0.637201 0.076314 0.304694
O O10 0.763371 0.985694 0.397356
O O11 0.891389 0.124871 0.365309
O O12 0.971567 0.227002 0.240912
O O13 0.094812 0.139146 0.353949
O O14 0.207746 0.654620 0.309550
#
# Coordination Sequence:
#
# PCOD9461280 Si02
#       7
#     8   8   8   8   8   8   8
#     4  11  25  42  70 100 140 185 239 283 356 430
#     4  10  23  42  67  99 131 181 230 280 354 425
#     4  11  23  45  67  98 138 185 226 298 353 415
#     4  11  23  43  65  99 136 176 230 294 340 423
#     4  11  24  43  69  99 139 177 233 292 354 413
#     4  10  21  44  66  90 138 176 221 287 350 413
#     4  12  23  45  68 103 140 181 238 292 349 425
#
# _framework density 20.740741
#
# number of rings (size 3 to 8) (size 9 to 14) (size 15 to 20)
#    0.000    1.143    4.286    1.714    2.000    0.000 
#    7.714    0.000    0.000    0.000    0.000    0.000 
#    0.000    0.000    0.000    0.000    0.000    0.000 
#
# Total GULP energy -311945.407690 kJ/mol
# GULP energy per Si atom -5570.453709 kJ/mol
# Density = 2.069353 g / cm^3
# Si number density = 20.740741 Si / 1000 Ang^3
#
#
#
# Elastic Constant Matrix: (Units=GPa)
#
#
# Indices 1 2 3 4 5 6 
#
# 1 56.6132 34.2035 13.2863 0.0000 0.0000 0.0000
# 2 34.2035 104.0198 35.6066 0.0000 0.0000 0.0000
# 3 13.2863 35.6066 105.0432 0.0000 0.0000 0.0000
# 4 0.0000 0.0000 0.0000 31.7081 0.0000 0.0000
# 5 0.0000 0.0000 0.0000 0.0000 19.3937 0.0000
# 6 0.0000 0.0000 0.0000 0.0000 0.0000 24.7319
#
#
#
# Elastic Compliance Matrix: (Units=1/GPa)
#
#
# Indices 1 2 3 4 5 6 
#
# 1 0.022056 -0.007124 -0.000375 0.000000 0.000000 0.000000
# 2 -0.007124 0.013177 -0.003565 0.000000 0.000000 0.000000
# 3 -0.000375 -0.003565 0.010776 0.000000 0.000000 0.000000
# 4 0.000000 0.000000 0.000000 0.031538 0.000000 0.000000
# 5 0.000000 0.000000 0.000000 0.000000 0.051563 0.000000
# 6 0.000000 0.000000 0.000000 0.000000 0.000000 0.040434
#
#
# Mechanical properties :
#
#
# Convention : Reuss Voigt Hill
#
# Bulk Modulus (GPa) = 41.87671 47.98545 44.93108
# Shear Modulus (GPa) = 25.04622 27.33872 26.19247
#
# Velocity S-wave (km/s) = 3.47880 3.63453 3.55752
# Velocity P-wave (km/s) = 6.03079 6.38742 6.21167
#
# Compressibility (1/GPa) = 0.02387962
#
# Stress axis : x y z
#
# Youngs Moduli (GPa) = 45.33966 75.89267 92.79995
#
# Poissons Ratio (x) = 0.54066 0.03479
# Poissons Ratio (y) = 0.32300 0.33087
# Poissons Ratio (z) = 0.01700 0.27059
#
# Static dielectric constant tensor:
#      x y z
#    x 1.875020 0.000000 0.000000 
#    y 0.000000 1.745390 0.000000 
#    z 0.000000 0.000000 1.768490 
# 
# From -- ./inp_files/7527.got.cif
#   From: 2010.05.17/outbox.ucp.g08.bks.cvg/sg61_4_cif.got.tgz:7527.got - 2010.06.11 16:28:26.
