data_PCOD9461654
_publ_section_title
;
Structure prediction by ZEFSAII (Michael W. Deem and Ramdas Pophale) SiO2 
 PCOD9461654
Probable space group: P N M A
;
_chemical_formula_sum "Si O2"
_cell_formula_units_Z 32
_cell_length_a 7.245323
_cell_length_b 19.403577
_cell_length_c 8.938515
_cell_angle_alpha 90.000000
_cell_angle_beta 90.000000
_cell_angle_gamma 90.000000
_cell_volume 1256.622765
_symmetry_space_group_name_H-M "P N M A"
_symmetry_group_IT_number 62
_symmetry_cell_setting 'orthorhombic'
loop_
_space_group_symop_operation_xyz
x,y,z
1/2-x,-y,1/2+z
1/2+x,1/2-y,1/2-z
-x,1/2+y,-z
-x,-y,-z
1/2+x,y,1/2-z
1/2-x,1/2+y,1/2+z
x,1/2-y,z
loop_
_atom_site_type_symbol
_atom_site_label
_atom_site_fract_x
_atom_site_fract_y
_atom_site_fract_z
Si Si1 0.115941 0.539464 0.345230
Si Si2 0.524557 0.394523 0.556015
Si Si3 0.904814 0.750000 0.489558
Si Si4 0.991462 0.750000 0.148829
Si Si5 0.348878 0.897667 0.911282
O O1 0.098908 0.586575 0.200551
O O2 0.304074 0.553854 0.436615
O O3 0.113932 0.459551 0.295673
O O4 0.947316 0.564870 0.447288
O O5 0.603454 0.318813 0.588298
O O6 0.371587 0.391542 0.427900
O O7 0.694001 0.750000 0.426616
O O8 0.928296 0.679828 0.585115
O O9 0.007765 0.750000 0.328915
#
# Coordination Sequence:
#
# PCOD9461654 Si02
#       5
#     8   8   4   4   8
#     4  11  20  33  51  76 102 134 169 200 255 305
#     4  11  19  34  52  76 107 131 163 209 253 307
#     4  10  18  32  48  72 104 127 163 210 253 305
#     4  10  18  28  50  78  98 127 155 202 271 303
#     4  10  22  33  50  77 102 134 168 206 252 306
#
# _framework density 25.46508
#
# number of rings (size 3 to 8) (size 9 to 14) (size 15 to 20)
#    0.000    1.500    5.000    2.250    0.000    0.000 
#    0.000    0.000    0.000    1.500    0.000    0.000 
#    0.000    0.000    0.000    0.000    0.000    0.000 
#
# Total GULP energy -178698.708368 kJ/mol
# GULP energy per Si atom -5584.334637 kJ/mol
# Density = 2.540712 g / cm^3
# Si number density = 25.465080 Si / 1000 Ang^3
#
#
#
# Elastic Constant Matrix: (Units=GPa)
#
#
# Indices 1 2 3 4 5 6 
#
# 1 105.6386 12.1440 1.3717 0.0000 0.0000 0.0000
# 2 12.1440 241.9239 5.3938 0.0000 0.0000 0.0000
# 3 1.3717 5.3938 11.1965 0.0000 0.0000 0.0000
# 4 0.0000 0.0000 0.0000 12.4098 0.0000 0.0000
# 5 0.0000 0.0000 0.0000 0.0000 14.9753 0.0000
# 6 0.0000 0.0000 0.0000 0.0000 0.0000 35.1624
#
#
#
# Elastic Compliance Matrix: (Units=1/GPa)
#
#
# Indices 1 2 3 4 5 6 
#
# 1 0.009531 -0.000457 -0.000947 0.000000 0.000000 0.000000
# 2 -0.000457 0.004200 -0.001967 0.000000 0.000000 0.000000
# 3 -0.000947 -0.001967 0.090377 0.000000 0.000000 0.000000
# 4 0.000000 0.000000 0.000000 0.080581 0.000000 0.000000
# 5 0.000000 0.000000 0.000000 0.000000 0.066777 0.000000
# 6 0.000000 0.000000 0.000000 0.000000 0.000000 0.028439
#
#
# Mechanical properties :
#
#
# Convention : Reuss Voigt Hill
#
# Bulk Modulus (GPa) = 10.27067 44.06423 27.16745
# Shear Modulus (GPa) = 15.66881 35.16614 25.41747
#
# Velocity S-wave (km/s) = 2.48323 3.72015 3.16275
# Velocity P-wave (km/s) = 3.50198 5.98281 4.90194
#
# Compressibility (1/GPa) = 0.09736467
#
# Stress axis : x y z
#
# Youngs Moduli (GPa) = 104.91954 238.07522 11.06470
#
# Poissons Ratio (x) = 0.10888 0.01048
# Poissons Ratio (y) = 0.04798 0.02177
# Poissons Ratio (z) = 0.09940 0.46841
#
# Static dielectric constant tensor:
#      x y z
#    x 1.998800 0.000000 0.000000 
#    y 0.000000 2.048260 0.000000 
#    z 0.000000 0.000000 2.043850 
# 
# From -- ./inp_files/4138.got.cif
#   From: 2010.05.17/outbox.cif.g08.bks.cpg/sg62_3_cif.got.tgz:4138.got - 2010.06.03 15:25:27.
