data_PCOD9461976
_publ_section_title
;
Structure prediction by ZEFSAII (Michael W. Deem and Ramdas Pophale) SiO2 
 PCOD9461976
Probable space group: P N M A
;
_chemical_formula_sum "Si O2"
_cell_formula_units_Z 56
_cell_length_a 19.593091
_cell_length_b 8.148751
_cell_length_c 18.818980
_cell_angle_alpha 90.000000
_cell_angle_beta 90.000000
_cell_angle_gamma 90.000000
_cell_volume 3004.623666
_symmetry_space_group_name_H-M "P N M A"
_symmetry_group_IT_number 62
_symmetry_cell_setting 'orthorhombic'
loop_
_space_group_symop_operation_xyz
x,y,z
1/2-x,-y,1/2+z
1/2+x,1/2-y,1/2-z
-x,1/2+y,-z
-x,-y,-z
1/2+x,y,1/2-z
1/2-x,1/2+y,1/2+z
x,1/2-y,z
loop_
_atom_site_type_symbol
_atom_site_label
_atom_site_fract_x
_atom_site_fract_y
_atom_site_fract_z
Si Si1 0.641040 0.050367 0.544579
Si Si2 0.743364 0.559557 0.344069
Si Si3 0.398563 0.557090 0.613949
Si Si4 0.042733 0.053756 0.830893
Si Si5 0.389152 0.549032 0.187882
Si Si6 0.426978 0.553692 0.028741
Si Si7 0.284578 0.054725 0.001112
O O1 0.636740 0.250000 0.544145
O O2 0.615150 0.994194 0.466664
O O3 0.593097 0.988740 0.607489
O O4 0.721676 0.011078 0.550475
O O5 0.732676 0.750000 0.327241
O O6 0.670623 0.472442 0.341678
O O7 0.809958 0.497625 0.302210
O O8 0.767913 0.539794 0.425835
O O9 0.410381 0.750000 0.608387
O O10 0.465105 0.480244 0.648526
O O11 0.051884 0.250000 0.829103
O O12 0.065170 0.992276 0.753463
O O13 0.388549 0.750000 0.186219
O O14 0.415932 0.495637 0.110469
O O15 0.423247 0.750000 0.028244
O O16 0.362509 0.486773 0.983698
O O17 0.500000 0.500000 0.000000
O O18 0.279481 0.250000 0.015253
#
# Coordination Sequence:
#
# PCOD9461976 Si02
#       7
#     8   8   8   8   8   8   8
#     4   8  16  29  48  71  97 127 162 197 237 284
#     4   9  16  30  50  70  90 122 164 203 239 287
#     4  10  19  31  46  72 102 128 161 203 242 287
#     4  10  18  32  51  71  96 130 163 198 242 291
#     4   8  17  32  51  72  94 119 160 205 241 284
#     4  10  19  33  52  75  97 125 164 208 250 294
#     4   9  16  29  48  73  99 123 153 198 246 291
#
# _framework density 18.637941000000001
#
# number of rings (size 3 to 8) (size 9 to 14) (size 15 to 20)
#    0.000    2.857    0.000    3.857    0.000    0.000 
#    0.000    9.286    0.000    5.143    0.000    0.000 
#    0.000    0.000    0.000    0.000    0.000    0.000 
#
# Total GULP energy -311904.385716 kJ/mol
# GULP energy per Si atom -5569.721174 kJ/mol
# Density = 1.859552 g / cm^3
# Si number density = 18.637941 Si / 1000 Ang^3
#
#
#
# Elastic Constant Matrix: (Units=GPa)
#
#
# Indices 1 2 3 4 5 6 
#
# 1 162.9399 -2.3567 64.2312 0.0000 0.0000 0.0000
# 2 -2.3567 14.8760 8.2904 0.0000 0.0000 0.0000
# 3 64.2312 8.2904 66.0842 0.0000 0.0000 0.0000
# 4 0.0000 0.0000 0.0000 11.3400 0.0000 0.0000
# 5 0.0000 0.0000 0.0000 0.0000 18.9838 0.0000
# 6 0.0000 0.0000 0.0000 0.0000 0.0000 26.8895
#
#
#
# Elastic Compliance Matrix: (Units=1/GPa)
#
#
# Indices 1 2 3 4 5 6 
#
# 1 0.010791 0.008123 -0.011507 0.000000 0.000000 0.000000
# 2 0.008123 0.078390 -0.017729 0.000000 0.000000 0.000000
# 3 -0.011507 -0.017729 0.028541 0.000000 0.000000 0.000000
# 4 0.000000 0.000000 0.000000 0.088183 0.000000 0.000000
# 5 0.000000 0.000000 0.000000 0.000000 0.052677 0.000000
# 6 0.000000 0.000000 0.000000 0.000000 0.000000 0.037189
#
#
# Mechanical properties :
#
#
# Convention : Reuss Voigt Hill
#
# Bulk Modulus (GPa) = 13.24607 42.69221 27.96914
# Shear Modulus (GPa) = 13.76794 23.02499 18.39646
#
# Velocity S-wave (km/s) = 2.72086 3.51861 3.14513
# Velocity P-wave (km/s) = 4.12229 6.28198 5.31303
#
# Compressibility (1/GPa) = 0.07549411
#
# Stress axis : x y z
#
# Youngs Moduli (GPa) = 92.67044 12.75681 35.03730
#
# Poissons Ratio (x) = -0.10362 0.40319
# Poissons Ratio (y) = -0.75272 0.62117
# Poissons Ratio (z) = 1.06639 0.22616
#
# Static dielectric constant tensor:
#      x y z
#    x 1.662860 0.000000 0.000000 
#    y 0.000000 1.676090 0.000000 
#    z 0.000000 0.000000 1.642880 
# 
# From -- ./inp_files/27564.got.cif
#   From: 2010.05.17/outbox.cif.g08.bks.cpg/sg62_14_cif.got.tgz:27564.got - 2010.06.03 15:25:27.
