data_PCOD9461190
_publ_section_title
;
Structure prediction by ZEFSAII (Michael W. Deem and Ramdas Pophale) SiO2 
 PCOD9461190
Probable space group: P B C A
;
_chemical_formula_sum "Si O2"
_cell_formula_units_Z 60
_cell_length_a 22.059296
_cell_length_b 10.179912
_cell_length_c 11.241045
_cell_angle_alpha 90.000000
_cell_angle_beta 90.000000
_cell_angle_gamma 90.000000
_cell_volume 2524.308086
_symmetry_space_group_name_H-M "P B C A"
_symmetry_group_IT_number 61
_symmetry_cell_setting 'orthorhombic'
loop_
_space_group_symop_operation_xyz
x,y,z
1/2-x,-y,1/2+z
1/2+x,1/2-y,-z
-x,1/2+y,1/2-z
-x,-y,-z
1/2+x,y,1/2-z
1/2-x,1/2+y,z
x,1/2-y,1/2+z
loop_
_atom_site_type_symbol
_atom_site_label
_atom_site_fract_x
_atom_site_fract_y
_atom_site_fract_z
Si Si1 0.000000 0.000000 0.000000
Si Si2 0.122293 0.412818 0.366898
Si Si3 0.926682 0.255246 0.344597
Si Si4 0.314537 0.847753 0.949218
Si Si5 0.760580 0.016015 0.235276
Si Si6 0.714732 0.771761 0.372462
Si Si7 0.988518 0.265211 0.591921
Si Si8 0.917068 0.947614 0.389652
O O1 0.021498 0.098540 0.117926
O O2 0.066434 0.026596 0.934068
O O3 0.148153 0.283676 0.426847
O O4 0.178817 0.509970 0.344360
O O5 0.098788 0.379896 0.235255
O O6 0.857129 0.295151 0.367125
O O7 0.965671 0.317689 0.456103
O O8 0.947747 0.273186 0.206928
O O9 0.930700 0.099373 0.368136
O O10 0.251017 0.805902 0.008824
O O11 0.357768 0.935416 0.030312
O O12 0.296733 0.928774 0.834116
O O13 0.772981 0.121196 0.338349
O O14 0.746223 0.869704 0.278179
O O15 0.028297 0.139425 0.561745
#
# Coordination Sequence:
#
# PCOD9461190 Si02
#       8
#     4   8   8   8   8   8   8   8
#     4  12  24  48  74 104 150 206 254 324 390 472
#     4  12  25  48  75 108 154 202 267 330 398 487
#     4  12  29  49  78 113 154 203 262 331 393 484
#     4  12  27  45  79 106 152 206 259 326 410 481
#     4  12  26  48  74 115 155 203 260 333 405 484
#     4  12  27  48  76 114 156 200 262 328 403 483
#     4  12  28  50  77 109 152 207 261 323 400 469
#     4  12  25  52  73 107 154 197 264 330 391 482
#
# _framework density 23.768889999999999
#
# number of rings (size 3 to 8) (size 9 to 14) (size 15 to 20)
#    0.000    0.000    6.667    1.200    9.333    0.000 
#    2.400    0.000    0.000    0.000    0.000    0.000 
#    0.000    0.000    0.000    0.000    0.000    0.000 
#
# Total GULP energy -334795.468329 kJ/mol
# GULP energy per Si atom -5579.924472 kJ/mol
# Density = 2.371479 g / cm^3
# Si number density = 23.768890 Si / 1000 Ang^3
#
#
#
# Elastic Constant Matrix: (Units=GPa)
#
#
# Indices 1 2 3 4 5 6 
#
# 1 101.5867 23.6955 24.1604 0.0000 0.0000 0.0000
# 2 23.6955 84.6438 5.8683 0.0000 0.0000 0.0000
# 3 24.1604 5.8683 65.3556 0.0000 0.0000 0.0000
# 4 0.0000 0.0000 0.0000 37.8984 0.0000 0.0000
# 5 0.0000 0.0000 0.0000 0.0000 82.4928 0.0000
# 6 0.0000 0.0000 0.0000 0.0000 0.0000 62.2820
#
#
#
# Elastic Compliance Matrix: (Units=1/GPa)
#
#
# Indices 1 2 3 4 5 6 
#
# 1 0.011475 -0.002937 -0.003978 0.000000 0.000000 0.000000
# 2 -0.002937 0.012640 -0.000049 0.000000 0.000000 0.000000
# 3 -0.003978 -0.000049 0.016776 0.000000 0.000000 0.000000
# 4 0.000000 0.000000 0.000000 0.026386 0.000000 0.000000
# 5 0.000000 0.000000 0.000000 0.000000 0.012122 0.000000
# 6 0.000000 0.000000 0.000000 0.000000 0.000000 0.016056
#
#
# Mechanical properties :
#
#
# Convention : Reuss Voigt Hill
#
# Bulk Modulus (GPa) = 37.08892 39.89272 38.49082
# Shear Modulus (GPa) = 42.24003 49.72542 45.98273
#
# Velocity S-wave (km/s) = 4.22016 4.57884 4.40315
# Velocity P-wave (km/s) = 6.27568 6.69137 6.48685
#
# Compressibility (1/GPa) = 0.02696223
#
# Stress axis : x y z
#
# Youngs Moduli (GPa) = 87.14649 79.11581 59.60884
#
# Poissons Ratio (x) = 0.23233 0.23714
# Poissons Ratio (y) = 0.25591 0.00294
# Poissons Ratio (z) = 0.34670 0.00391
#
# Static dielectric constant tensor:
#      x y z
#    x 10.630620 0.000000 0.000000 
#    y 0.000000 0.210280 0.000000 
#    z 0.000000 0.000000 1.345540 
# 
# From -- ./inp_files/6498.got.cif
#   From: 2010.05.17/outbox.cif.g08.bks.cpg/sg61_4_cif.got.tgz:6498.got - 2010.06.03 15:17:17.
