data_PCOD9461096
_publ_section_title
;
Structure prediction by ZEFSAII (Michael W. Deem and Ramdas Pophale) SiO2 
 PCOD9461096
Probable space group: P B C A
;
_chemical_formula_sum "Si O2"
_cell_formula_units_Z 40
_cell_length_a 5.101026
_cell_length_b 9.857144
_cell_length_c 31.156288
_cell_angle_alpha 90.000000
_cell_angle_beta 90.000000
_cell_angle_gamma 90.000000
_cell_volume 1566.586385
_symmetry_space_group_name_H-M "P B C A"
_symmetry_group_IT_number 61
_symmetry_cell_setting 'orthorhombic'
loop_
_space_group_symop_operation_xyz
x,y,z
1/2-x,-y,1/2+z
1/2+x,1/2-y,-z
-x,1/2+y,1/2-z
-x,-y,-z
1/2+x,y,1/2-z
1/2-x,1/2+y,z
x,1/2-y,1/2+z
loop_
_atom_site_type_symbol
_atom_site_label
_atom_site_fract_x
_atom_site_fract_y
_atom_site_fract_z
Si Si1 0.907819 0.082313 0.721596
Si Si2 0.813529 0.522232 0.079284
Si Si3 0.633898 0.881849 0.836576
Si Si4 0.969609 0.897481 0.150593
Si Si5 0.548311 0.767875 0.027318
O O1 0.679760 0.114100 0.755458
O O2 0.786646 0.142390 0.677756
O O3 0.962413 0.928194 0.704463
O O4 0.597626 0.425685 0.101775
O O5 0.669942 0.649535 0.057494
O O6 0.960687 0.417342 0.048290
O O7 0.990636 0.571450 0.119313
O O8 0.668018 0.723790 0.842258
O O9 0.901136 0.964968 0.832386
O O10 0.260460 0.726468 0.011303
#
# Coordination Sequence:
#
# PCOD9461096 Si02
#       5
#     8   8   8   8   8
#     4  11  24  50  72 111 150 194 246 311 366 436
#     4  11  26  46  72 109 152 198 252 309 366 466
#     4  11  26  46  78 112 151 207 252 307 379 444
#     4  11  26  46  78 112 151 207 252 307 379 444
#     4  12  28  48  76 110 148 194 246 312 384 442
#
# _framework density 25.533223
#
# number of rings (size 3 to 8) (size 9 to 14) (size 15 to 20)
#    0.000    0.800    4.000    1.200    8.400    3.200 
#    0.000    0.000    0.000    0.000    0.000    0.000 
#    0.000    0.000    0.000    0.000    0.000    0.000 
#
# Total GULP energy -223701.922793 kJ/mol
# GULP energy per Si atom -5592.548070 kJ/mol
# Density = 2.547511 g / cm^3
# Si number density = 25.533223 Si / 1000 Ang^3
#
#
#
# Elastic Constant Matrix: (Units=GPa)
#
#
# Indices 1 2 3 4 5 6 
#
# 1 116.8219 6.0118 16.0763 0.0000 0.0000 0.0000
# 2 6.0118 83.4498 23.4088 0.0000 0.0000 0.0000
# 3 16.0763 23.4088 81.5342 0.0000 0.0000 0.0000
# 4 0.0000 0.0000 0.0000 25.4727 0.0000 0.0000
# 5 0.0000 0.0000 0.0000 0.0000 31.2194 0.0000
# 6 0.0000 0.0000 0.0000 0.0000 0.0000 27.4107
#
#
#
# Elastic Compliance Matrix: (Units=1/GPa)
#
#
# Indices 1 2 3 4 5 6 
#
# 1 0.008801 -0.000160 -0.001689 0.000000 0.000000 0.000000
# 2 -0.000160 0.013036 -0.003711 0.000000 0.000000 0.000000
# 3 -0.001689 -0.003711 0.013663 0.000000 0.000000 0.000000
# 4 0.000000 0.000000 0.000000 0.039258 0.000000 0.000000
# 5 0.000000 0.000000 0.000000 0.000000 0.032031 0.000000
# 6 0.000000 0.000000 0.000000 0.000000 0.000000 0.036482
#
#
# Mechanical properties :
#
#
# Convention : Reuss Voigt Hill
#
# Bulk Modulus (GPa) = 41.01908 41.42219 41.22063
# Shear Modulus (GPa) = 30.76575 32.57449 31.67012
#
# Velocity S-wave (km/s) = 3.47498 3.57567 3.52568
# Velocity P-wave (km/s) = 5.67455 5.77107 5.72301
#
# Compressibility (1/GPa) = 0.02437890
#
# Stress axis : x y z
#
# Youngs Moduli (GPa) = 113.62672 76.71184 73.18859
#
# Poissons Ratio (x) = 0.01229 0.12364
# Poissons Ratio (y) = 0.01820 0.27161
# Poissons Ratio (z) = 0.19195 0.28468
#
# Static dielectric constant tensor:
#      x y z
#    x 2.026830 0.000000 0.000000 
#    y 0.000000 2.004630 0.000000 
#    z 0.000000 0.000000 2.039620 
# 
# From -- ./inp_files/11201.got.cif
#   From: 2010.05.17/outbox.cif.g08.bks.cpg/sg61_6_cif.got.tgz:11201.got - 2010.06.03 15:17:17.
