data_PCOD9461356
_publ_section_title
;
Structure prediction by ZEFSAII (Michael W. Deem and Ramdas Pophale) SiO2 
 PCOD9461356
Probable space group: P N M A
;
_chemical_formula_sum "Si O2"
_cell_formula_units_Z 48
_cell_length_a 5.450733
_cell_length_b 33.879653
_cell_length_c 13.537436
_cell_angle_alpha 90.000000
_cell_angle_beta 90.000000
_cell_angle_gamma 90.000000
_cell_volume 2499.943992
_symmetry_space_group_name_H-M "P N M A"
_symmetry_group_IT_number 62
_symmetry_cell_setting 'orthorhombic'
loop_
_space_group_symop_operation_xyz
x,y,z
1/2-x,-y,1/2+z
1/2+x,1/2-y,1/2-z
-x,1/2+y,-z
-x,-y,-z
1/2+x,y,1/2-z
1/2-x,1/2+y,1/2+z
x,1/2-y,z
loop_
_atom_site_type_symbol
_atom_site_label
_atom_site_fract_x
_atom_site_fract_y
_atom_site_fract_z
Si Si1 0.000000 0.547036 0.988059
Si Si2 1.000000 0.829633 0.365980
Si Si3 1.000000 0.092506 0.527387
Si Si4 0.500000 0.703043 0.358104
Si Si5 0.000000 0.974889 0.767025
Si Si6 0.500000 0.890078 0.807743
O O1 0.750334 0.566836 0.027528
O O2 0.000000 0.548618 0.869486
O O3 0.249666 0.566836 0.027528
O O4 0.000000 0.500000 0.000000
O O5 0.000000 0.876109 0.384351
O O6 1.000000 0.816878 0.250823
O O7 0.749734 0.811307 0.408468
O O8 0.250266 0.811307 0.408468
O O9 1.000000 0.118046 0.424657
O O10 0.500000 0.750000 0.345344
O O11 0.750000 0.998080 0.750000
O O12 0.000000 0.938359 0.691483
O O13 0.750000 0.878064 0.750000
#
# Coordination Sequence:
#
# PCOD9461356 Si02
#       6
#     8   8   8   8   8   8
#     4  12  23  35  53  73 101 144 189 232 282 338
#     4  10  20  32  57  84 113 141 179 229 275 309
#     4  12  21  35  54  80 110 135 178 243 288 312
#     4  10  19  38  62  84 116 157 184 206 264 352
#     4  10  16  32  54  68  86 126 175 227 270 311
#     4  10  16  30  53  71  92 133 163 217 281 308
#
# _framework density 19.200430000000001
#
# number of rings (size 3 to 8) (size 9 to 14) (size 15 to 20)
#    0.000    1.333    6.667    4.000    0.000    0.000 
#    0.000    0.000   22.000    0.000    0.000    0.000 
#    0.000   22.667    0.000    0.000    0.000    0.000 
#
# Total GULP energy -267349.948483 kJ/mol
# GULP energy per Si atom -5569.790593 kJ/mol
# Density = 1.915673 g / cm^3
# Si number density = 19.200430 Si / 1000 Ang^3
#
#
#
# Elastic Constant Matrix: (Units=GPa)
#
#
# Indices 1 2 3 4 5 6 
#
# 1 249.5289 71.4615 13.0728 0.0000 0.0000 0.0000
# 2 71.4615 106.8158 22.6870 0.0000 0.0000 0.0000
# 3 13.0728 22.6870 11.1169 0.0000 0.0000 0.0000
# 4 0.0000 0.0000 0.0000 8.5304 0.0000 0.0000
# 5 0.0000 0.0000 0.0000 0.0000 4.1065 0.0000
# 6 0.0000 0.0000 0.0000 0.0000 0.0000 18.2576
#
#
#
# Elastic Compliance Matrix: (Units=1/GPa)
#
#
# Indices 1 2 3 4 5 6 
#
# 1 0.004975 -0.003681 0.001663 0.000000 0.000000 0.000000
# 2 -0.003681 0.019249 -0.034953 0.000000 0.000000 0.000000
# 3 0.001663 -0.034953 0.159329 0.000000 0.000000 0.000000
# 4 0.000000 0.000000 0.000000 0.117228 0.000000 0.000000
# 5 0.000000 0.000000 0.000000 0.000000 0.243518 0.000000
# 6 0.000000 0.000000 0.000000 0.000000 0.000000 0.054772
#
#
# Mechanical properties :
#
#
# Convention : Reuss Voigt Hill
#
# Bulk Modulus (GPa) = 9.12332 64.65604 36.88968
# Shear Modulus (GPa) = 7.04673 23.52824 15.28748
#
# Velocity S-wave (km/s) = 1.91783 3.50437 2.82477
# Velocity P-wave (km/s) = 3.10902 7.07966 5.46752
#
# Compressibility (1/GPa) = 0.10960917
#
# Stress axis : x y z
#
# Youngs Moduli (GPa) = 201.01630 51.95190 6.27633
#
# Poissons Ratio (x) = 0.19125 -0.01044
# Poissons Ratio (y) = 0.74001 0.21938
# Poissons Ratio (z) = -0.33425 1.81587
#
# Static dielectric constant tensor:
#      x y z
#    x 1.859380 0.000000 0.000000 
#    y 0.000000 1.683060 0.000000 
#    z 0.000000 0.000000 2.265180 
# 
# From -- ./inp_files/16230.got.cif
#   From: 2010.05.17/outbox.cif.g08.bks.cpg/sg62_9_cif.got.tgz:16230.got - 2010.06.03 15:25:27.
