data_PCOD9461653
_publ_section_title
;
Structure prediction by ZEFSAII (Michael W. Deem and Ramdas Pophale) SiO2 
 PCOD9461653
Probable space group: P N M A
;
_chemical_formula_sum "Si O2"
_cell_formula_units_Z 36
_cell_length_a 26.005235
_cell_length_b 7.254280
_cell_length_c 6.804673
_cell_angle_alpha 90.000000
_cell_angle_beta 90.000000
_cell_angle_gamma 90.000000
_cell_volume 1283.696500
_symmetry_space_group_name_H-M "P N M A"
_symmetry_group_IT_number 62
_symmetry_cell_setting 'orthorhombic'
loop_
_space_group_symop_operation_xyz
x,y,z
1/2-x,-y,1/2+z
1/2+x,1/2-y,1/2-z
-x,1/2+y,-z
-x,-y,-z
1/2+x,y,1/2-z
1/2-x,1/2+y,1/2+z
x,1/2-y,z
loop_
_atom_site_type_symbol
_atom_site_label
_atom_site_fract_x
_atom_site_fract_y
_atom_site_fract_z
Si Si1 0.956046 0.968629 0.779909
Si Si2 0.794485 0.535939 0.805718
Si Si3 0.820875 0.027528 0.358332
Si Si4 0.126900 0.750000 0.049120
Si Si5 0.067346 0.529077 0.682780
O O1 0.952229 0.750000 0.816061
O O2 0.015731 0.032581 0.791691
O O3 0.916323 0.089565 0.900102
O O4 0.942737 0.999884 0.548751
O O5 0.794525 0.750000 0.862191
O O6 0.735415 0.469508 0.787596
O O7 0.819639 0.514828 0.591362
O O8 0.827094 0.408314 0.947337
O O9 0.823743 0.250000 0.341707
O O10 0.875561 0.954695 0.282012
O O11 0.071783 0.750000 0.719743
#
# Coordination Sequence:
#
# PCOD9461653 Si02
#       5
#     8   8   8   4   8
#     4  10  18  28  50  75 106 143 174 222 291 322
#     4  11  23  36  58  79 113 152 184 224 277 329
#     4  10  20  38  56  83 116 144 186 227 273 334
#     4  12  20  36  46  78 114 144 178 234 260 340
#     4   9  16  30  49  76 111 135 174 230 279 327
#
# _framework density 28.044011999999999
#
# number of rings (size 3 to 8) (size 9 to 14) (size 15 to 20)
#    0.000    1.778    4.444    0.667    3.111    0.000 
#    0.000    0.000    0.000    0.000    0.000    1.556 
#    0.000    0.000    0.000    0.000    0.000    0.000 
#
# Total GULP energy -201072.187857 kJ/mol
# GULP energy per Si atom -5585.338552 kJ/mol
# Density = 2.798018 g / cm^3
# Si number density = 28.044012 Si / 1000 Ang^3
#
#
#
# Elastic Constant Matrix: (Units=GPa)
#
#
# Indices 1 2 3 4 5 6 
#
# 1 372.1914 111.1805 53.9580 0.0000 0.0000 0.0000
# 2 111.1805 246.9513 37.1709 0.0000 0.0000 0.0000
# 3 53.9580 37.1709 105.1610 0.0000 0.0000 0.0000
# 4 0.0000 0.0000 0.0000 38.8713 0.0000 0.0000
# 5 0.0000 0.0000 0.0000 0.0000 -461.4799 0.0000
# 6 0.0000 0.0000 0.0000 0.0000 0.0000 45.4358
#
#
#
# Elastic Compliance Matrix: (Units=1/GPa)
#
#
# Indices 1 2 3 4 5 6 
#
# 1 0.003244 -0.001278 -0.001213 0.000000 0.000000 0.000000
# 2 -0.001278 0.004780 -0.001034 0.000000 0.000000 0.000000
# 3 -0.001213 -0.001034 0.010497 0.000000 0.000000 0.000000
# 4 0.000000 0.000000 0.000000 0.025726 0.000000 0.000000
# 5 0.000000 0.000000 0.000000 0.000000 -0.002167 0.000000
# 6 0.000000 0.000000 0.000000 0.000000 0.000000 0.022009
#
#
# Mechanical properties :
#
#
# Convention : Reuss Voigt Hill
#
# Bulk Modulus (GPa) = 87.16914 125.43582 106.30248
# Shear Modulus (GPa) = 66.69873 -40.63496 13.03189
#
# Velocity S-wave (km/s) = 4.88213 -3.81066 2.15802
# Velocity P-wave (km/s) = 7.93289 5.04616 6.64810
#
# Compressibility (1/GPa) = 0.01147195
#
# Stress axis : x y z
#
# Youngs Moduli (GPa) = 308.22048 209.18632 95.26485
#
# Poissons Ratio (x) = 0.26736 0.11555
# Poissons Ratio (y) = 0.39394 0.09850
# Poissons Ratio (z) = 0.37386 0.21628
#
# Static dielectric constant tensor:
#      x y z
#    x 1.480680 0.000000 0.000000 
#    y 0.000000 2.062870 0.000000 
#    z 0.000000 0.000000 2.356520 
# 
# From -- ./inp_files/15017.got.cif
#   From: 2010.05.17/outbox.cif.g08.bks.cpg/sg62_8_cif.got.tgz:15017.got - 2010.06.03 15:25:27.
