data_PCOD9461765
_publ_section_title
;
Structure prediction by ZEFSAII (Michael W. Deem and Ramdas Pophale) SiO2 
 PCOD9461765
Probable space group: P N M A
;
_chemical_formula_sum "Si O2"
_cell_formula_units_Z 56
_cell_length_a 19.955758
_cell_length_b 7.644263
_cell_length_c 19.907449
_cell_angle_alpha 90.000000
_cell_angle_beta 90.000000
_cell_angle_gamma 90.000000
_cell_volume 3036.822867
_symmetry_space_group_name_H-M "P N M A"
_symmetry_group_IT_number 62
_symmetry_cell_setting 'orthorhombic'
loop_
_space_group_symop_operation_xyz
x,y,z
1/2-x,-y,1/2+z
1/2+x,1/2-y,1/2-z
-x,1/2+y,-z
-x,-y,-z
1/2+x,y,1/2-z
1/2-x,1/2+y,1/2+z
x,1/2-y,z
loop_
_atom_site_type_symbol
_atom_site_label
_atom_site_fract_x
_atom_site_fract_y
_atom_site_fract_z
Si Si1 0.256367 0.541493 0.331155
Si Si2 0.945305 0.041755 0.556521
Si Si3 0.246380 0.535203 0.620588
Si Si4 0.294280 0.036132 0.973530
Si Si5 0.145477 0.454560 0.222234
Si Si6 0.134700 0.959892 0.726675
Si Si7 0.485418 0.542710 0.792176
O O1 0.247452 0.750000 0.329972
O O2 0.246476 0.481420 0.407419
O O3 0.197651 0.465583 0.284199
O O4 0.326405 0.499024 0.295554
O O5 0.940740 0.250000 0.562487
O O6 0.871372 0.978140 0.535567
O O7 0.966876 0.974769 0.629494
O O8 0.000000 0.000000 0.500000
O O9 0.247047 0.750000 0.621748
O O10 0.236073 0.478487 0.544332
O O11 0.313515 0.473323 0.658584
O O12 0.183330 0.478615 0.666482
O O13 0.294618 0.250000 0.975069
O O14 0.134098 0.250000 0.207918
O O15 0.075268 0.532029 0.247297
O O16 0.131440 0.750000 0.719668
O O17 0.059477 0.029994 0.721509
O O18 0.488337 0.750000 0.777972
#
# Coordination Sequence:
#
# PCOD9461765 Si02
#       7
#     8   8   8   8   8   8   8
#     4  10  18  30  48  70  94 124 163 203 242 292
#     4  11  21  32  46  70 103 137 166 197 244 299
#     4   8  14  27  46  66  89 121 160 195 232 283
#     4   9  17  29  46  68  96 128 159 195 243 292
#     4   9  17  30  50  72  93 123 164 204 242 290
#     4   9  18  32  49  68  94 127 161 201 244 291
#     4  10  19  32  50  72  97 127 164 205 249 296
#
# _framework density 18.440325000000001
#
# number of rings (size 3 to 8) (size 9 to 14) (size 15 to 20)
#    0.000    2.571    1.429    2.571    0.000    2.857 
#    0.000    0.000    0.000    8.571    0.000    0.000 
#    0.000    0.000    0.000    0.000    0.000    0.143 
#
# Total GULP energy -312340.684513 kJ/mol
# GULP energy per Si atom -5577.512223 kJ/mol
# Density = 1.839835 g / cm^3
# Si number density = 18.440325 Si / 1000 Ang^3
#
#
#
# Elastic Constant Matrix: (Units=GPa)
#
#
# Indices 1 2 3 4 5 6 
#
# 1 90.1839 -7.1627 78.3646 0.0000 0.0000 0.0000
# 2 -7.1627 32.5574 -11.2638 0.0000 0.0000 0.0000
# 3 78.3646 -11.2638 154.4999 0.0000 0.0000 0.0000
# 4 0.0000 0.0000 0.0000 16.5181 0.0000 0.0000
# 5 0.0000 0.0000 0.0000 0.0000 25.7922 0.0000
# 6 0.0000 0.0000 0.0000 0.0000 0.0000 2.2523
#
#
#
# Elastic Compliance Matrix: (Units=1/GPa)
#
#
# Indices 1 2 3 4 5 6 
#
# 1 0.019853 0.000907 -0.010004 0.000000 0.000000 0.000000
# 2 0.000907 0.031551 0.001840 0.000000 0.000000 0.000000
# 3 -0.010004 0.001840 0.011681 0.000000 0.000000 0.000000
# 4 0.000000 0.000000 0.000000 0.060540 0.000000 0.000000
# 5 0.000000 0.000000 0.000000 0.000000 0.038771 0.000000
# 6 0.000000 0.000000 0.000000 0.000000 0.000000 0.444000
#
#
# Mechanical properties :
#
#
# Convention : Reuss Voigt Hill
#
# Bulk Modulus (GPa) = 20.58807 44.12414 32.35611
# Shear Modulus (GPa) = 7.84806 23.39937 15.62371
#
# Velocity S-wave (km/s) = 2.06523 3.56606 2.91393
# Velocity P-wave (km/s) = 4.10802 6.39810 5.37641
#
# Compressibility (1/GPa) = 0.04857181
#
# Stress axis : x y z
#
# Youngs Moduli (GPa) = 50.37003 31.69451 85.61156
#
# Poissons Ratio (x) = -0.02874 0.85643
# Poissons Ratio (y) = -0.04568 -0.15755
# Poissons Ratio (z) = 0.50388 -0.05833
#
# Static dielectric constant tensor:
#      x y z
#    x 1.648050 0.000000 0.000000 
#    y 0.000000 1.378580 0.000000 
#    z 0.000000 0.000000 1.611740 
# 
# From -- ./inp_files/24612.got.cif
#   From: 2010.05.17/outbox.cif.g08.bks.cpg/sg62_13_cif.got.tgz:24612.got - 2010.06.03 15:25:27.
