data_PCOD9461178
_publ_section_title
;
Structure prediction by ZEFSAII (Michael W. Deem and Ramdas Pophale) SiO2 
 PCOD9461178
Probable space group: P B C A
;
_chemical_formula_sum "Si O2"
_cell_formula_units_Z 48
_cell_length_a 17.101612
_cell_length_b 8.111005
_cell_length_c 13.245473
_cell_angle_alpha 90.000000
_cell_angle_beta 90.000000
_cell_angle_gamma 90.000000
_cell_volume 1837.296255
_symmetry_space_group_name_H-M "P B C A"
_symmetry_group_IT_number 61
_symmetry_cell_setting 'orthorhombic'
loop_
_space_group_symop_operation_xyz
x,y,z
1/2-x,-y,1/2+z
1/2+x,1/2-y,-z
-x,1/2+y,1/2-z
-x,-y,-z
1/2+x,y,1/2-z
1/2-x,1/2+y,z
x,1/2-y,1/2+z
loop_
_atom_site_type_symbol
_atom_site_label
_atom_site_fract_x
_atom_site_fract_y
_atom_site_fract_z
Si Si1 0.963336 0.481070 0.770331
Si Si2 0.282228 0.524191 0.168191
Si Si3 0.364087 0.842654 0.087391
Si Si4 0.576191 0.653736 0.872324
Si Si5 0.638598 0.631261 0.083851
Si Si6 0.806319 0.990183 0.600847
O O1 0.941309 0.629397 0.846512
O O2 0.964961 0.322425 0.841804
O O3 0.899058 0.444645 0.683841
O O4 0.038675 0.523400 0.704636
O O5 0.325422 0.668325 0.108244
O O6 0.195401 0.480423 0.133508
O O7 0.331753 0.355346 0.153294
O O8 0.293166 0.569125 0.285287
O O9 0.364454 0.883507 0.968916
O O10 0.577108 0.622464 0.991598
O O11 0.718702 0.535354 0.057922
O O12 0.663910 0.822155 0.097846
#
# Coordination Sequence:
#
# PCOD9461178 Si02
#       6
#     8   8   8   8   8   8
#     4  12  26  48  69 101 145 195 240 294 353 425
#     4  12  24  43  71 104 143 186 236 297 356 418
#     4  12  24  43  71 104 143 186 236 297 356 418
#     4  12  26  48  69 101 145 195 240 294 353 425
#     4  12  25  44  74 108 144 181 238 297 357 427
#     4  12  24  42  74 110 141 176 236 294 357 420
#
# _framework density 26.125346
#
# number of rings (size 3 to 8) (size 9 to 14) (size 15 to 20)
#    0.000    0.000    6.667    4.500    0.000    0.000 
#    0.000    6.667    0.000    0.000    0.000    0.000 
#    0.000    0.000    0.000    0.000    0.000    0.000 
#
# Total GULP energy -269044.920539 kJ/mol
# GULP energy per Si atom -5605.102511 kJ/mol
# Density = 2.606588 g / cm^3
# Si number density = 26.125346 Si / 1000 Ang^3
#
#
#
# Elastic Constant Matrix: (Units=GPa)
#
#
# Indices 1 2 3 4 5 6 
#
# 1 52.3502 -12.7811 -10.6457 0.0000 0.0000 0.0000
# 2 -12.7811 73.4164 -5.4923 0.0000 0.0000 0.0000
# 3 -10.6457 -5.4923 122.4676 0.0000 0.0000 0.0000
# 4 0.0000 0.0000 0.0000 30.3161 0.0000 0.0000
# 5 0.0000 0.0000 0.0000 0.0000 47.2016 0.0000
# 6 0.0000 0.0000 0.0000 0.0000 0.0000 29.0920
#
#
#
# Elastic Compliance Matrix: (Units=1/GPa)
#
#
# Indices 1 2 3 4 5 6 
#
# 1 0.020399 0.003696 0.001939 0.000000 0.000000 0.000000
# 2 0.003696 0.014337 0.000964 0.000000 0.000000 0.000000
# 3 0.001939 0.000964 0.008377 0.000000 0.000000 0.000000
# 4 0.000000 0.000000 0.000000 0.032986 0.000000 0.000000
# 5 0.000000 0.000000 0.000000 0.000000 0.021186 0.000000
# 6 0.000000 0.000000 0.000000 0.000000 0.000000 0.034374
#
#
# Mechanical properties :
#
#
# Convention : Reuss Voigt Hill
#
# Bulk Modulus (GPa) = 17.75829 21.15510 19.45670
# Shear Modulus (GPa) = 36.43533 39.79880 38.11706
#
# Velocity S-wave (km/s) = 3.73853 3.90728 3.82384
# Velocity P-wave (km/s) = 5.04456 5.33582 5.19223
#
# Compressibility (1/GPa) = 0.05631172
#
# Stress axis : x y z
#
# Youngs Moduli (GPa) = 49.02234 69.75175 119.37133
#
# Poissons Ratio (x) = -0.25782 -0.23146
# Poissons Ratio (y) = -0.18120 -0.11511
# Poissons Ratio (z) = -0.09505 -0.06726
#
# Static dielectric constant tensor:
#      x y z
#    x 2.037990 0.000000 0.000000 
#    y 0.000000 2.040800 0.000000 
#    z 0.000000 0.000000 2.116160 
# 
# From -- ./inp_files/8108.got.cif
#   From: 2010.05.17/outbox.cif.g08.bks.cpg/sg61_5_cif.got.tgz:8108.got - 2010.06.03 15:17:17.
