data_PCOD9461566
_publ_section_title
;
Structure prediction by ZEFSAII (Michael W. Deem and Ramdas Pophale) SiO2 
 PCOD9461566
Probable space group: P N M A
;
_chemical_formula_sum "Si O2"
_cell_formula_units_Z 64
_cell_length_a 27.005270
_cell_length_b 8.716960
_cell_length_c 19.136731
_cell_angle_alpha 90.000000
_cell_angle_beta 90.000000
_cell_angle_gamma 90.000000
_cell_volume 4504.860314
_symmetry_space_group_name_H-M "P N M A"
_symmetry_group_IT_number 62
_symmetry_cell_setting 'orthorhombic'
loop_
_space_group_symop_operation_xyz
x,y,z
1/2-x,-y,1/2+z
1/2+x,1/2-y,1/2-z
-x,1/2+y,-z
-x,-y,-z
1/2+x,y,1/2-z
1/2-x,1/2+y,1/2+z
x,1/2-y,z
loop_
_atom_site_type_symbol
_atom_site_label
_atom_site_fract_x
_atom_site_fract_y
_atom_site_fract_z
Si Si1 0.644721 0.566637 0.834751
Si Si2 0.741688 0.564349 0.923911
Si Si3 0.299913 0.932031 0.288325
Si Si4 0.443207 0.433382 0.923988
Si Si5 0.143624 0.433190 0.335999
Si Si6 0.794918 0.934883 0.791188
Si Si7 0.260786 0.063724 0.916820
Si Si8 0.557886 0.066500 0.924325
O O1 0.642960 0.750000 0.836517
O O2 0.690894 0.516834 0.884769
O O3 0.657297 0.512440 0.756316
O O4 0.595024 0.498305 0.866849
O O5 0.740293 0.750000 0.927248
O O6 0.787291 0.524140 0.872354
O O7 0.744474 0.510344 0.003383
O O8 0.307118 0.750000 0.285116
O O9 0.286327 0.976156 0.367870
O O10 0.249870 0.980239 0.247800
O O11 0.440353 0.250000 0.927995
O O12 0.406159 0.493694 0.865383
O O13 0.500518 0.477654 0.911478
O O14 0.428258 0.501326 0.999364
O O15 0.141085 0.250000 0.343050
O O16 0.156935 0.470109 0.255046
O O17 0.189761 0.494485 0.382168
O O18 0.786881 0.750000 0.785413
O O19 0.265495 0.250000 0.915229
O O20 0.560874 0.250000 0.926127
#
# Coordination Sequence:
#
# PCOD9461566 Si02
#       8
#     8   8   8   8   8   8   8   8
#     4  10  18  28  43  59  80 111 139 165 201 242
#     4   8  14  25  40  57  77 103 135 165 196 236
#     4   9  16  25  38  57  80 105 135 169 201 238
#     4  10  20  32  44  59  82 109 134 165 205 243
#     4  10  18  27  41  59  80 108 140 171 201 238
#     4   8  15  27  40  55  77 105 136 170 205 238
#     4   9  16  26  41  59  80 108 139 171 206 241
#     4  10  20  32  45  61  80 103 136 174 203 233
#
# _framework density 14.206878
#
# number of rings (size 3 to 8) (size 9 to 14) (size 15 to 20)
#    0.000    2.750    0.000    3.375    0.000    3.500 
#    0.000    2.500    0.000    0.000    0.000    0.000 
#    0.000    1.000    0.000    2.000    0.000    2.625 
#
# Total GULP energy -356275.955316 kJ/mol
# GULP energy per Si atom -5566.811802 kJ/mol
# Density = 1.417454 g / cm^3
# Si number density = 14.206878 Si / 1000 Ang^3
#
#
#
# Elastic Constant Matrix: (Units=GPa)
#
#
# Indices 1 2 3 4 5 6 
#
# 1 59.0307 20.0708 36.7487 0.0000 0.0000 0.0000
# 2 20.0708 25.9780 17.9630 0.0000 0.0000 0.0000
# 3 36.7487 17.9630 92.2039 0.0000 0.0000 0.0000
# 4 0.0000 0.0000 0.0000 17.9204 0.0000 0.0000
# 5 0.0000 0.0000 0.0000 0.0000 25.0392 0.0000
# 6 0.0000 0.0000 0.0000 0.0000 0.0000 18.7169
#
#
#
# Elastic Compliance Matrix: (Units=1/GPa)
#
#
# Indices 1 2 3 4 5 6 
#
# 1 0.027050 -0.015538 -0.007754 0.000000 0.000000 0.000000
# 2 -0.015538 0.053412 -0.004213 0.000000 0.000000 0.000000
# 3 -0.007754 -0.004213 0.014757 0.000000 0.000000 0.000000
# 4 0.000000 0.000000 0.000000 0.055802 0.000000 0.000000
# 5 0.000000 0.000000 0.000000 0.000000 0.039937 0.000000
# 6 0.000000 0.000000 0.000000 0.000000 0.000000 0.053428
#
#
# Mechanical properties :
#
#
# Convention : Reuss Voigt Hill
#
# Bulk Modulus (GPa) = 24.86977 36.30863 30.58920
# Shear Modulus (GPa) = 15.98473 19.16398 17.57436
#
# Velocity S-wave (km/s) = 3.35795 3.67675 3.52096
# Velocity P-wave (km/s) = 5.70770 6.60585 6.17313
#
# Compressibility (1/GPa) = 0.04020945
#
# Stress axis : x y z
#
# Youngs Moduli (GPa) = 36.96800 18.72254 67.76550
#
# Poissons Ratio (x) = 0.29090 0.52547
# Poissons Ratio (y) = 0.57439 0.28549
# Poissons Ratio (z) = 0.28666 0.07888
#
# Static dielectric constant tensor:
#      x y z
#    x 1.459210 0.000000 0.000000 
#    y 0.000000 1.474850 0.000000 
#    z 0.000000 0.000000 1.493390 
# 
# From -- ./inp_files/24913.got.cif
#   From: 2010.05.17/outbox.cif.g08.bks.cpg/sg62_13_cif.got.tgz:24913.got - 2010.06.03 15:25:27.
