data_PCOD9461035
_publ_section_title
;
Structure prediction by ZEFSAII (Michael W. Deem and Ramdas Pophale) SiO2 
 PCOD9461035
Probable space group: P B C A
;
_chemical_formula_sum "Si O2"
_cell_formula_units_Z 60
_cell_length_a 12.199199
_cell_length_b 15.284969
_cell_length_c 13.378917
_cell_angle_alpha 90.000000
_cell_angle_beta 90.000000
_cell_angle_gamma 90.000000
_cell_volume 2494.691444
_symmetry_space_group_name_H-M "P B C A"
_symmetry_group_IT_number 61
_symmetry_cell_setting 'orthorhombic'
loop_
_space_group_symop_operation_xyz
x,y,z
1/2-x,-y,1/2+z
1/2+x,1/2-y,-z
-x,1/2+y,1/2-z
-x,-y,-z
1/2+x,y,1/2-z
1/2-x,1/2+y,z
x,1/2-y,1/2+z
loop_
_atom_site_type_symbol
_atom_site_label
_atom_site_fract_x
_atom_site_fract_y
_atom_site_fract_z
Si Si1 0.062844 0.167475 0.956603
Si Si2 0.572165 0.824803 0.904750
Si Si3 0.000000 0.000000 0.500000
Si Si4 0.747433 0.142323 0.233048
Si Si5 0.066634 0.430587 0.645512
Si Si6 0.767797 0.944493 0.414252
Si Si7 0.265377 0.269520 0.971484
Si Si8 0.641222 0.466617 0.202197
O O1 0.151659 0.229244 0.008357
O O2 0.991592 0.233099 0.889774
O O3 0.128991 0.100784 0.887180
O O4 0.010497 0.114367 0.049103
O O5 0.659137 0.842505 0.816896
O O6 0.641067 0.799489 0.003831
O O7 0.498822 0.907383 0.933576
O O8 0.868435 0.988251 0.472963
O O9 0.627841 0.137398 0.282343
O O10 0.757338 0.210898 0.145085
O O11 0.774657 0.046494 0.187381
O O12 0.166346 0.490263 0.604770
O O13 0.978808 0.488132 0.704736
O O14 0.722857 0.858747 0.467430
O O15 0.821657 0.923612 0.305848
#
# Coordination Sequence:
#
# PCOD9461035 Si02
#       8
#     8   8   4   8   8   8   8   8
#     4  12  25  44  74 107 143 193 246 314 368 443
#     4  12  26  49  71 107 148 193 249 309 377 451
#     4  12  22  48  70 102 152 190 244 300 372 440
#     4  11  26  46  70 107 145 198 246 304 386 450
#     4  11  23  48  73 103 154 192 247 304 385 452
#     4  11  25  46  75 110 147 198 248 310 380 456
#     4  12  26  46  74 106 149 191 245 318 368 448
#     4  11  25  45  73 107 141 197 247 304 372 463
#
# _framework density 24.051071
#
# number of rings (size 3 to 8) (size 9 to 14) (size 15 to 20)
#    0.000    0.533    5.333    2.800    5.600    1.067 
#    2.400    0.000    0.000    0.000    0.000    0.000 
#    0.000    0.000    0.000    0.000    0.000    0.000 
#
# Total GULP energy -334843.699808 kJ/mol
# GULP energy per Si atom -5580.728330 kJ/mol
# Density = 2.399633 g / cm^3
# Si number density = 24.051071 Si / 1000 Ang^3
#
#
#
# Elastic Constant Matrix: (Units=GPa)
#
#
# Indices 1 2 3 4 5 6 
#
# 1 74.0201 4.2268 27.2009 0.0000 0.0000 0.0000
# 2 4.2268 69.9567 51.1456 0.0000 0.0000 0.0000
# 3 27.2009 51.1456 119.3670 0.0000 0.0000 0.0000
# 4 0.0000 0.0000 0.0000 30.5368 0.0000 0.0000
# 5 0.0000 0.0000 0.0000 0.0000 29.1354 0.0000
# 6 0.0000 0.0000 0.0000 0.0000 0.0000 29.4008
#
#
#
# Elastic Compliance Matrix: (Units=1/GPa)
#
#
# Indices 1 2 3 4 5 6 
#
# 1 0.014999 0.002319 -0.004411 0.000000 0.000000 0.000000
# 2 0.002319 0.021174 -0.009601 0.000000 0.000000 0.000000
# 3 -0.004411 -0.009601 0.013496 0.000000 0.000000 0.000000
# 4 0.000000 0.000000 0.000000 0.032747 0.000000 0.000000
# 5 0.000000 0.000000 0.000000 0.000000 0.034323 0.000000
# 6 0.000000 0.000000 0.000000 0.000000 0.000000 0.034013
#
#
# Mechanical properties :
#
#
# Convention : Reuss Voigt Hill
#
# Bulk Modulus (GPa) = 38.04862 47.61006 42.82934
# Shear Modulus (GPa) = 27.33760 29.86596 28.60178
#
# Velocity S-wave (km/s) = 3.37508 3.52770 3.45223
# Velocity P-wave (km/s) = 5.57158 6.03583 5.80835
#
# Compressibility (1/GPa) = 0.02628216
#
# Stress axis : x y z
#
# Youngs Moduli (GPa) = 66.67318 47.22865 74.09351
#
# Poissons Ratio (x) = -0.10952 0.32686
# Poissons Ratio (y) = -0.15461 0.71135
# Poissons Ratio (z) = 0.29412 0.45343
#
# Static dielectric constant tensor:
#      x y z
#    x 1.942470 0.000000 0.000000 
#    y 0.000000 1.929340 0.000000 
#    z 0.000000 0.000000 1.930230 
# 
# From -- ./inp_files/7968.got.cif
#   From: 2010.05.17/outbox.cif.g08.bks.cpg/sg61_4_cif.got.tgz:7968.got - 2010.06.03 15:17:17.
