data_PCOD9461133
_publ_section_title
;
Structure prediction by ZEFSAII (Michael W. Deem and Ramdas Pophale) SiO2 
 PCOD9461133
Probable space group: P B C A
;
_chemical_formula_sum "Si O2"
_cell_formula_units_Z 44
_cell_length_a 9.619465
_cell_length_b 19.509730
_cell_length_c 8.949483
_cell_angle_alpha 90.000000
_cell_angle_beta 90.000000
_cell_angle_gamma 90.000000
_cell_volume 1679.577799
_symmetry_space_group_name_H-M "P B C A"
_symmetry_group_IT_number 61
_symmetry_cell_setting 'orthorhombic'
loop_
_space_group_symop_operation_xyz
x,y,z
1/2-x,-y,1/2+z
1/2+x,1/2-y,-z
-x,1/2+y,1/2-z
-x,-y,-z
1/2+x,y,1/2-z
1/2-x,1/2+y,z
x,1/2-y,1/2+z
loop_
_atom_site_type_symbol
_atom_site_label
_atom_site_fract_x
_atom_site_fract_y
_atom_site_fract_z
Si Si1 0.810503 0.317520 0.675922
Si Si2 0.500000 0.000000 0.500000
Si Si3 0.302183 0.695136 0.633405
Si Si4 0.361023 0.542113 0.320393
Si Si5 0.802207 0.592903 0.610572
Si Si6 0.953831 0.148192 0.445849
O O1 0.727474 0.255708 0.753236
O O2 0.809563 0.304928 0.499971
O O3 0.736183 0.391113 0.699629
O O4 0.945974 0.323981 0.777737
O O5 0.568405 0.014025 0.329865
O O6 0.545762 0.078897 0.547827
O O7 0.300421 0.625022 0.726583
O O8 0.449961 0.694394 0.549841
O O9 0.258394 0.484699 0.387439
O O10 0.476968 0.572902 0.431476
O O11 0.698475 0.638642 0.513554
#
# Coordination Sequence:
#
# PCOD9461133 Si02
#       6
#     8   4   8   8   8   8
#     4  11  25  49  75 107 157 204 260 320 393 467
#     4  12  26  42  76 108 150 198 248 318 382 458
#     4  11  28  49  77 114 154 209 261 326 389 472
#     4  11  26  43  76 110 153 197 257 315 390 459
#     4  12  26  48  76 116 151 202 256 321 388 468
#     4  11  25  50  76 112 156 201 258 325 386 467
#
# _framework density 26.19706
#
# number of rings (size 3 to 8) (size 9 to 14) (size 15 to 20)
#    0.000    0.727    1.818    3.818    7.636    5.818 
#    0.000    0.000    0.000    0.000    0.000    0.000 
#    0.000    0.000    0.000    0.000    0.000    0.000 
#
# Total GULP energy -245561.789025 kJ/mol
# GULP energy per Si atom -5580.949751 kJ/mol
# Density = 2.613743 g / cm^3
# Si number density = 26.197060 Si / 1000 Ang^3
#
#
#
# Elastic Constant Matrix: (Units=GPa)
#
#
# Indices 1 2 3 4 5 6 
#
# 1 30.2208 23.4064 -1.2916 0.0000 0.0000 0.0000
# 2 23.4064 106.0496 9.5654 0.0000 0.0000 0.0000
# 3 -1.2916 9.5654 99.8817 0.0000 0.0000 0.0000
# 4 0.0000 0.0000 0.0000 36.6834 0.0000 0.0000
# 5 0.0000 0.0000 0.0000 0.0000 28.4955 0.0000
# 6 0.0000 0.0000 0.0000 0.0000 0.0000 47.5592
#
#
#
# Elastic Compliance Matrix: (Units=1/GPa)
#
#
# Indices 1 2 3 4 5 6 
#
# 1 0.040100 -0.008975 0.001378 0.000000 0.000000 0.000000
# 2 -0.008975 0.011520 -0.001219 0.000000 0.000000 0.000000
# 3 0.001378 -0.001219 0.010146 0.000000 0.000000 0.000000
# 4 0.000000 0.000000 0.000000 0.027260 0.000000 0.000000
# 5 0.000000 0.000000 0.000000 0.000000 0.035093 0.000000
# 6 0.000000 0.000000 0.000000 0.000000 0.000000 0.021026
#
#
# Mechanical properties :
#
#
# Convention : Reuss Voigt Hill
#
# Bulk Modulus (GPa) = 22.65803 33.27915 27.96859
# Shear Modulus (GPa) = 28.17057 36.17910 32.17483
#
# Velocity S-wave (km/s) = 3.28279 3.72026 3.50835
# Velocity P-wave (km/s) = 4.79966 5.58433 5.20680
#
# Compressibility (1/GPa) = 0.04413446
#
# Stress axis : x y z
#
# Youngs Moduli (GPa) = 24.93777 86.80273 98.55679
#
# Poissons Ratio (x) = 0.77904 -0.13582
# Poissons Ratio (y) = 0.22381 0.12017
# Poissons Ratio (z) = -0.03437 0.10584
#
# Static dielectric constant tensor:
#      x y z
#    x 2.770800 0.000000 0.000000 
#    y 0.000000 2.011210 0.000000 
#    z 0.000000 0.000000 2.082460 
# 
# From -- ./inp_files/2238.got.cif
#   From: 2010.05.17/outbox.cif.g08.bks.cpg/sg61_2_cif.got.tgz:2238.got - 2010.06.03 15:17:17.
