data_PCOD9461321
_publ_section_title
;
Structure prediction by ZEFSAII (Michael W. Deem and Ramdas Pophale) SiO2 
 PCOD9461321
Probable space group: P N M A
;
_chemical_formula_sum "Si O2"
_cell_formula_units_Z 36
_cell_length_a 11.411723
_cell_length_b 10.991178
_cell_length_c 12.496144
_cell_angle_alpha 90.000000
_cell_angle_beta 90.000000
_cell_angle_gamma 90.000000
_cell_volume 1567.369833
_symmetry_space_group_name_H-M "P N M A"
_symmetry_group_IT_number 62
_symmetry_cell_setting 'orthorhombic'
loop_
_space_group_symop_operation_xyz
x,y,z
1/2-x,-y,1/2+z
1/2+x,1/2-y,1/2-z
-x,1/2+y,-z
-x,-y,-z
1/2+x,y,1/2-z
1/2-x,1/2+y,1/2+z
x,1/2-y,z
loop_
_atom_site_type_symbol
_atom_site_label
_atom_site_fract_x
_atom_site_fract_y
_atom_site_fract_z
Si Si1 0.833036 0.501435 0.035757
Si Si2 0.396626 0.045931 0.852078
Si Si3 0.685180 0.750000 0.314948
Si Si4 0.932734 0.750000 0.128280
Si Si5 0.431543 0.750000 0.114581
Si Si6 0.455243 0.608087 0.656575
O O1 0.699028 0.488134 0.069396
O O2 0.874166 0.631823 0.082099
O O3 0.920650 0.410460 0.096650
O O4 0.864493 0.524619 0.912042
O O5 0.328185 0.136931 0.768523
O O6 0.491648 0.131158 0.911699
O O7 0.457614 0.947219 0.775484
O O8 0.570729 0.750000 0.389055
O O9 0.792509 0.750000 0.399015
O O10 0.926156 0.750000 0.255557
O O11 0.422642 0.750000 0.656491
#
# Coordination Sequence:
#
# PCOD9461321 Si02
#       6
#     8   8   4   4   4   8
#     4  11  20  37  57  87 117 146 197 243 284 341
#     4  10  19  34  56  84 115 152 186 237 294 339
#     4  10  16  28  56  84 107 139 192 239 283 334
#     4  10  15  30  55  88 102 143 190 241 287 319
#     4  10  17  30  57  88 107 142 198 240 284 345
#     4  11  23  34  57  89 116 153 193 238 290 340
#
# _framework density 22.968415
#
# number of rings (size 3 to 8) (size 9 to 14) (size 15 to 20)
#    0.000    1.778    7.778    0.667    0.000    0.889 
#    0.000    0.000    0.000    5.333    0.000    0.000 
#    0.000    0.000    0.000    0.000    0.000    0.000 
#
# Total GULP energy -201026.453192 kJ/mol
# GULP energy per Si atom -5584.068144 kJ/mol
# Density = 2.291614 g / cm^3
# Si number density = 22.968415 Si / 1000 Ang^3
#
#
#
# Elastic Constant Matrix: (Units=GPa)
#
#
# Indices 1 2 3 4 5 6 
#
# 1 96.8754 6.7818 20.9858 0.0000 0.0000 0.0000
# 2 6.7818 80.7443 18.6285 0.0000 0.0000 0.0000
# 3 20.9858 18.6285 30.1146 0.0000 0.0000 0.0000
# 4 0.0000 0.0000 0.0000 -105.1168 0.0000 0.0000
# 5 0.0000 0.0000 0.0000 0.0000 29.3173 0.0000
# 6 0.0000 0.0000 0.0000 0.0000 0.0000 20.6191
#
#
#
# Elastic Compliance Matrix: (Units=1/GPa)
#
#
# Indices 1 2 3 4 5 6 
#
# 1 0.012241 0.001096 -0.009208 0.000000 0.000000 0.000000
# 2 0.001096 0.014545 -0.009761 0.000000 0.000000 0.000000
# 3 -0.009208 -0.009761 0.045661 0.000000 0.000000 0.000000
# 4 0.000000 0.000000 0.000000 -0.009513 0.000000 0.000000
# 5 0.000000 0.000000 0.000000 0.000000 0.034109 0.000000
# 6 0.000000 0.000000 0.000000 0.000000 0.000000 0.048499
#
#
# Mechanical properties :
#
#
# Convention : Reuss Voigt Hill
#
# Bulk Modulus (GPa) = 27.24746 33.39185 30.31966
# Shear Modulus (GPa) = 25.83698 -0.28019 12.77840
#
# Velocity S-wave (km/s) = 3.35758 -0.34965 2.36126
# Velocity P-wave (km/s) = 5.18844 3.79562 4.54569
#
# Compressibility (1/GPa) = 0.03670067
#
# Stress axis : x y z
#
# Youngs Moduli (GPa) = 81.69584 68.75369 21.90032
#
# Poissons Ratio (x) = -0.07538 0.20166
# Poissons Ratio (y) = -0.08956 0.21377
# Poissons Ratio (z) = 0.75227 0.67111
#
# Static dielectric constant tensor:
#      x y z
#    x 1.998700 0.000000 0.000000 
#    y 0.000000 1.849310 0.000000 
#    z 0.000000 0.000000 1.869730 
# 
# From -- ./inp_files/17751.got.cif
#   From: 2010.05.17/outbox.cif.g08.bks.cpg/sg62_9_cif.got.tgz:17751.got - 2010.06.03 15:25:27.
