data_PCOD9461171
_publ_section_title
;
Structure prediction by ZEFSAII (Michael W. Deem and Ramdas Pophale) SiO2 
 PCOD9461171
Probable space group: P B C A
;
_chemical_formula_sum "Si O2"
_cell_formula_units_Z 40
_cell_length_a 4.954973
_cell_length_b 24.292060
_cell_length_c 14.436523
_cell_angle_alpha 90.000000
_cell_angle_beta 90.000000
_cell_angle_gamma 90.000000
_cell_volume 1737.673766
_symmetry_space_group_name_H-M "P B C A"
_symmetry_group_IT_number 61
_symmetry_cell_setting 'orthorhombic'
loop_
_space_group_symop_operation_xyz
x,y,z
1/2-x,-y,1/2+z
1/2+x,1/2-y,-z
-x,1/2+y,1/2-z
-x,-y,-z
1/2+x,y,1/2-z
1/2-x,1/2+y,z
x,1/2-y,1/2+z
loop_
_atom_site_type_symbol
_atom_site_label
_atom_site_fract_x
_atom_site_fract_y
_atom_site_fract_z
Si Si1 0.373627 0.011103 0.690489
Si Si2 0.230187 0.234883 0.560569
Si Si3 0.085067 0.670343 0.189602
Si Si4 0.204473 0.393125 0.075462
Si Si5 0.215494 0.080374 0.043047
O O1 0.668983 0.997417 0.726798
O O2 0.319199 0.074204 0.663309
O O3 0.308384 0.975970 0.599300
O O4 0.457998 0.238602 0.480597
O O5 0.347228 0.270951 0.644197
O O6 0.174111 0.172060 0.587568
O O7 0.279132 0.663831 0.278147
O O8 0.167242 0.625405 0.113851
O O9 0.424914 0.402589 0.995085
O O10 0.923018 0.419573 0.042446
#
# Coordination Sequence:
#
# PCOD9461171 Si02
#       5
#     8   8   8   8   8
#     4  12  26  44  66 100 137 171 216 279 337 389
#     4  12  23  44  65  95 133 176 218 268 321 393
#     4  12  24  39  65  97 130 167 216 273 329 373
#     4  12  24  43  72  94 131 180 226 264 328 405
#     4  12  23  44  68  98 131 174 224 272 327 398
#
# _framework density 23.019282
#
# number of rings (size 3 to 8) (size 9 to 14) (size 15 to 20)
#    0.000    0.000    4.000    7.200    0.000    1.600 
#    0.000    0.000    0.000    0.000    0.000    0.000 
#    0.000    0.000    0.000    0.000    0.000    0.000 
#
# Total GULP energy -224265.094026 kJ/mol
# GULP energy per Si atom -5606.627351 kJ/mol
# Density = 2.296689 g / cm^3
# Si number density = 23.019282 Si / 1000 Ang^3
#
#
#
# Elastic Constant Matrix: (Units=GPa)
#
#
# Indices 1 2 3 4 5 6 
#
# 1 61.7385 -11.1405 4.1498 0.0000 0.0000 0.0000
# 2 -11.1405 76.3944 -6.5014 0.0000 0.0000 0.0000
# 3 4.1498 -6.5014 25.6854 0.0000 0.0000 0.0000
# 4 0.0000 0.0000 0.0000 34.1504 0.0000 0.0000
# 5 0.0000 0.0000 0.0000 0.0000 31.3816 0.0000
# 6 0.0000 0.0000 0.0000 0.0000 0.0000 24.1195
#
#
#
# Elastic Compliance Matrix: (Units=1/GPa)
#
#
# Indices 1 2 3 4 5 6 
#
# 1 0.016749 0.002261 -0.002134 0.000000 0.000000 0.000000
# 2 0.002261 0.013683 0.003098 0.000000 0.000000 0.000000
# 3 -0.002134 0.003098 0.040062 0.000000 0.000000 0.000000
# 4 0.000000 0.000000 0.000000 0.029282 0.000000 0.000000
# 5 0.000000 0.000000 0.000000 0.000000 0.031866 0.000000
# 6 0.000000 0.000000 0.000000 0.000000 0.000000 0.041460
#
#
# Mechanical properties :
#
#
# Convention : Reuss Voigt Hill
#
# Bulk Modulus (GPa) = 12.99638 15.20377 14.10008
# Shear Modulus (GPa) = 26.00113 29.75099 27.87606
#
# Velocity S-wave (km/s) = 3.36450 3.59895 3.48370
# Velocity P-wave (km/s) = 4.55536 4.88764 4.72442
#
# Compressibility (1/GPa) = 0.07694448
#
# Stress axis : x y z
#
# Youngs Moduli (GPa) = 59.70604 73.08163 24.96154
#
# Poissons Ratio (x) = -0.16523 0.05326
# Poissons Ratio (y) = -0.13499 -0.07734
# Poissons Ratio (z) = 0.12739 -0.22642
#
# Static dielectric constant tensor:
#      x y z
#    x 1.820380 0.000000 0.000000 
#    y 0.000000 1.851180 0.000000 
#    z 0.000000 0.000000 1.851290 
# 
# From -- ./inp_files/1289.got.cif
#   From: 2010.05.17/outbox.cif.g08.bks.cpg/sg61_1_cif.got.tgz:1289.got - 2010.06.03 15:17:17.
