data_PCOD9461722
_publ_section_title
;
Structure prediction by ZEFSAII (Michael W. Deem and Ramdas Pophale) SiO2 
 PCOD9461722
Probable space group: P N M A
;
_chemical_formula_sum "Si O2"
_cell_formula_units_Z 64
_cell_length_a 19.552499
_cell_length_b 9.407463
_cell_length_c 18.085614
_cell_angle_alpha 90.000000
_cell_angle_beta 90.000000
_cell_angle_gamma 90.000000
_cell_volume 3326.657185
_symmetry_space_group_name_H-M "P N M A"
_symmetry_group_IT_number 62
_symmetry_cell_setting 'orthorhombic'
loop_
_space_group_symop_operation_xyz
x,y,z
1/2-x,-y,1/2+z
1/2+x,1/2-y,1/2-z
-x,1/2+y,-z
-x,-y,-z
1/2+x,y,1/2-z
1/2-x,1/2+y,1/2+z
x,1/2-y,z
loop_
_atom_site_type_symbol
_atom_site_label
_atom_site_fract_x
_atom_site_fract_y
_atom_site_fract_z
Si Si1 0.041969 0.584865 0.869858
Si Si2 0.019973 0.584948 0.610664
Si Si3 0.873081 0.913479 0.021721
Si Si4 0.740897 0.583392 0.329119
Si Si5 0.263091 0.918500 0.994071
Si Si6 0.399615 0.084774 0.953885
Si Si7 0.607880 0.087356 0.344458
Si Si8 0.366755 0.084634 0.228702
O O1 0.034389 0.750000 0.894081
O O2 0.063631 0.484132 0.936289
O O3 0.102025 0.577726 0.809955
O O4 0.970452 0.544979 0.831087
O O5 0.001263 0.750000 0.625066
O O6 0.061694 0.580738 0.533403
O O7 0.073156 0.537081 0.672978
O O8 0.952743 0.489791 0.601800
O O9 0.863251 0.750000 0.044449
O O10 0.805450 0.006986 0.035811
O O11 0.885394 0.915087 0.933765
O O12 0.738608 0.750000 0.314447
O O13 0.759724 0.563613 0.416402
O O14 0.667462 0.512403 0.314986
O O15 0.799689 0.506901 0.283078
O O16 0.263959 0.750000 0.978515
O O17 0.329939 0.996732 0.963014
O O18 0.386745 0.250000 0.936031
O O19 0.618321 0.250000 0.319388
O O20 0.351752 0.250000 0.210337
#
# Coordination Sequence:
#
# PCOD9461722 Si02
#       8
#     8   8   8   8   8   8   8   8
#     4  10  21  37  57  81 108 142 181 219 266 325
#     4   9  18  31  48  72 103 140 180 222 266 317
#     4  10  20  34  55  81 109 139 174 224 280 323
#     4  10  20  33  54  82 107 137 178 223 268 315
#     4  10  19  32  52  78 108 139 177 223 269 322
#     4  10  18  29  49  76 106 138 178 225 271 315
#     4   9  19  36  58  82 108 139 179 224 270 322
#     4  10  20  36  56  77 107 146 184 219 262 322
#
# _framework density 19.238531999999999
#
# number of rings (size 3 to 8) (size 9 to 14) (size 15 to 20)
#    0.000    2.250    1.250    1.875    0.000    3.500 
#    0.000    1.250    0.000    6.000    0.000    0.000 
#    0.000    0.000    0.000    0.000    0.000    0.000 
#
# Total GULP energy -357314.380034 kJ/mol
# GULP energy per Si atom -5583.037188 kJ/mol
# Density = 1.919474 g / cm^3
# Si number density = 19.238532 Si / 1000 Ang^3
#
#
#
# Elastic Constant Matrix: (Units=GPa)
#
#
# Indices 1 2 3 4 5 6 
#
# 1 138.3554 83.7294 11.8829 0.0000 0.0000 0.0000
# 2 83.7294 107.6802 15.0266 0.0000 0.0000 0.0000
# 3 11.8829 15.0266 6.3252 0.0000 0.0000 0.0000
# 4 0.0000 0.0000 0.0000 14.4938 0.0000 0.0000
# 5 0.0000 0.0000 0.0000 0.0000 18.9789 0.0000
# 6 0.0000 0.0000 0.0000 0.0000 0.0000 36.4826
#
#
#
# Elastic Compliance Matrix: (Units=1/GPa)
#
#
# Indices 1 2 3 4 5 6 
#
# 1 0.013654 -0.010527 -0.000641 0.000000 0.000000 0.000000
# 2 -0.010527 0.022009 -0.032510 0.000000 0.000000 0.000000
# 3 -0.000641 -0.032510 0.236537 0.000000 0.000000 0.000000
# 4 0.000000 0.000000 0.000000 0.068995 0.000000 0.000000
# 5 0.000000 0.000000 0.000000 0.000000 0.052690 0.000000
# 6 0.000000 0.000000 0.000000 0.000000 0.000000 0.027410
#
#
# Mechanical properties :
#
#
# Convention : Reuss Voigt Hill
#
# Bulk Modulus (GPa) = 5.41000 52.62653 29.01827
# Shear Modulus (GPa) = 8.76784 23.43917 16.10350
#
# Velocity S-wave (km/s) = 2.13713 3.49427 2.89631
# Velocity P-wave (km/s) = 2.98462 6.61014 5.12845
#
# Compressibility (1/GPa) = 0.18484288
#
# Stress axis : x y z
#
# Youngs Moduli (GPa) = 73.24015 45.43550 4.22768
#
# Poissons Ratio (x) = 0.47831 0.00271
# Poissons Ratio (y) = 0.77102 0.13744
# Poissons Ratio (z) = 0.04696 1.47710
#
# Static dielectric constant tensor:
#      x y z
#    x 1.658240 0.000000 0.000000 
#    y 0.000000 1.647840 0.000000 
#    z 0.000000 0.000000 1.673620 
# 
# From -- ./inp_files/27652.got.cif
#   From: 2010.05.17/outbox.cif.g08.bks.cpg/sg62_14_cif.got.tgz:27652.got - 2010.06.03 15:25:27.
