data_PCOD9461611
_publ_section_title
;
Structure prediction by ZEFSAII (Michael W. Deem and Ramdas Pophale) SiO2 
 PCOD9461611
Probable space group: P N M A
;
_chemical_formula_sum "Si O2"
_cell_formula_units_Z 56
_cell_length_a 7.817048
_cell_length_b 30.553806
_cell_length_c 12.605164
_cell_angle_alpha 90.000000
_cell_angle_beta 90.000000
_cell_angle_gamma 90.000000
_cell_volume 3010.624531
_symmetry_space_group_name_H-M "P N M A"
_symmetry_group_IT_number 62
_symmetry_cell_setting 'orthorhombic'
loop_
_space_group_symop_operation_xyz
x,y,z
1/2-x,-y,1/2+z
1/2+x,1/2-y,1/2-z
-x,1/2+y,-z
-x,-y,-z
1/2+x,y,1/2-z
1/2-x,1/2+y,1/2+z
x,1/2-y,z
loop_
_atom_site_type_symbol
_atom_site_label
_atom_site_fract_x
_atom_site_fract_y
_atom_site_fract_z
Si Si1 0.801800 0.153961 0.193039
Si Si2 0.686163 0.519687 0.418892
Si Si3 0.045777 0.520335 0.293479
Si Si4 0.328954 0.845805 0.579294
Si Si5 0.686955 0.750000 0.693181
Si Si6 0.219463 0.568301 0.477709
Si Si7 0.685251 0.250000 0.416913
Si Si8 0.859203 0.567764 0.602335
O O1 0.801351 0.150444 0.320847
O O2 0.731960 0.202855 0.166128
O O3 0.693170 0.113400 0.151801
O O4 0.987277 0.151304 0.138134
O O5 0.545171 0.529653 0.330994
O O6 0.674760 0.471493 0.469486
O O7 0.720433 0.552710 0.514838
O O8 0.861558 0.520488 0.349224
O O9 0.161085 0.554224 0.360389
O O10 0.122910 0.471653 0.313130
O O11 0.305731 0.885210 0.497763
O O12 0.306100 0.797395 0.529117
O O13 0.679320 0.750000 0.820780
O O14 0.498979 0.750000 0.642683
O O15 0.040498 0.569612 0.542970
#
# Coordination Sequence:
#
# PCOD9461611 Si02
#       8
#     8   8   8   8   4   8   4   8
#     4  10  18  28  43  63  87 115 143 173 208 249
#     4   9  18  31  45  61  86 115 142 174 210 246
#     4   9  18  31  45  61  86 115 142 174 210 246
#     4  10  18  28  43  63  87 115 143 173 208 249
#     4   8  16  28  40  58  85 112 139 170 207 248
#     4   9  18  31  44  62  87 114 142 173 209 249
#     4   8  16  28  40  58  85 112 139 170 207 248
#     4   9  18  31  44  62  87 114 142 173 209 249
#
# _framework density 18.600792999999999
#
# number of rings (size 3 to 8) (size 9 to 14) (size 15 to 20)
#    0.000    2.857    0.000    3.429    0.000    5.714 
#    0.000    2.857    0.000    0.000    0.000    1.000 
#    0.000    0.000    0.000    0.000    0.000    0.000 
#
# Total GULP energy -312364.496130 kJ/mol
# GULP energy per Si atom -5577.937431 kJ/mol
# Density = 1.855846 g / cm^3
# Si number density = 18.600793 Si / 1000 Ang^3
#
#
#
# Elastic Constant Matrix: (Units=GPa)
#
#
# Indices 1 2 3 4 5 6 
#
# 1 42.7638 16.5801 3.2758 0.0000 0.0000 0.0000
# 2 16.5801 147.1303 22.2705 0.0000 0.0000 0.0000
# 3 3.2758 22.2705 44.7340 0.0000 0.0000 0.0000
# 4 0.0000 0.0000 0.0000 19.1109 0.0000 0.0000
# 5 0.0000 0.0000 0.0000 0.0000 25.4953 0.0000
# 6 0.0000 0.0000 0.0000 0.0000 0.0000 21.9996
#
#
#
# Elastic Compliance Matrix: (Units=1/GPa)
#
#
# Indices 1 2 3 4 5 6 
#
# 1 0.024461 -0.002688 -0.000453 0.000000 0.000000 0.000000
# 2 -0.002688 0.007646 -0.003610 0.000000 0.000000 0.000000
# 3 -0.000453 -0.003610 0.024185 0.000000 0.000000 0.000000
# 4 0.000000 0.000000 0.000000 0.052326 0.000000 0.000000
# 5 0.000000 0.000000 0.000000 0.000000 0.039223 0.000000
# 6 0.000000 0.000000 0.000000 0.000000 0.000000 0.045455
#
#
# Mechanical properties :
#
#
# Convention : Reuss Voigt Hill
#
# Bulk Modulus (GPa) = 23.36977 35.43122 29.40050
# Shear Modulus (GPa) = 22.61821 26.15462 24.38641
#
# Velocity S-wave (km/s) = 3.49087 3.75387 3.62476
# Velocity P-wave (km/s) = 5.37023 6.15454 5.77571
#
# Compressibility (1/GPa) = 0.04279033
#
# Stress axis : x y z
#
# Youngs Moduli (GPa) = 40.88118 130.78771 41.34870
#
# Poissons Ratio (x) = 0.35155 0.01873
# Poissons Ratio (y) = 0.10989 0.14925
# Poissons Ratio (z) = 0.01852 0.47210
#
# Static dielectric constant tensor:
#      x y z
#    x 1.746620 0.000000 0.000000 
#    y 0.000000 1.662140 0.000000 
#    z 0.000000 0.000000 1.614050 
# 
# From -- ./inp_files/17424.got.cif
#   From: 2010.05.17/outbox.cif.g08.bks.cpg/sg62_9_cif.got.tgz:17424.got - 2010.06.03 15:25:27.
