data_PCOD9461634
_publ_section_title
;
Structure prediction by ZEFSAII (Michael W. Deem and Ramdas Pophale) SiO2 
 PCOD9461634
Probable space group: P N M A
;
_chemical_formula_sum "Si O2"
_cell_formula_units_Z 40
_cell_length_a 23.086154
_cell_length_b 10.348999
_cell_length_c 6.943460
_cell_angle_alpha 90.000000
_cell_angle_beta 90.000000
_cell_angle_gamma 90.000000
_cell_volume 1658.921636
_symmetry_space_group_name_H-M "P N M A"
_symmetry_group_IT_number 62
_symmetry_cell_setting 'orthorhombic'
loop_
_space_group_symop_operation_xyz
x,y,z
1/2-x,-y,1/2+z
1/2+x,1/2-y,1/2-z
-x,1/2+y,-z
-x,-y,-z
1/2+x,y,1/2-z
1/2-x,1/2+y,1/2+z
x,1/2-y,z
loop_
_atom_site_type_symbol
_atom_site_label
_atom_site_fract_x
_atom_site_fract_y
_atom_site_fract_z
Si Si1 0.785010 0.250000 0.053353
Si Si2 0.648457 0.250000 0.138900
Si Si3 0.320932 0.250000 0.900325
Si Si4 0.804331 0.750000 0.054890
Si Si5 0.599650 0.519892 0.168990
Si Si6 0.640914 0.505029 0.620328
Si Si7 0.980872 0.592108 0.179609
O O1 0.715388 0.250000 0.071769
O O2 0.818094 0.372505 0.143351
O O3 0.799852 0.250000 0.824060
O O4 0.654416 0.250000 0.370411
O O5 0.612528 0.377489 0.092528
O O6 0.261219 0.250000 0.012557
O O7 0.359430 0.124316 0.930910
O O8 0.819240 0.618845 0.160755
O O9 0.621311 0.516271 0.394129
O O10 0.533810 0.569638 0.173937
O O11 0.580680 0.473654 0.726781
O O12 0.975498 0.750000 0.142487
O O13 0.000000 0.500000 0.000000
#
# Coordination Sequence:
#
# PCOD9461634 Si02
#       7
#     4   4   4   4   8   8   8
#     4  10  20  33  47  71 101 132 159 200 242 290
#     4  10  20  33  47  71 101 132 159 200 242 290
#     4  10  18  31  49  71  95 130 165 198 238 290
#     4  10  18  31  49  71  95 130 165 198 238 290
#     4   9  18  29  46  69  99 125 160 200 246 288
#     4   9  18  29  46  69  99 125 160 200 246 288
#     4  10  18  28  46  72 101 129 160 202 256 298
#
# _framework density 24.112048999999999
#
# number of rings (size 3 to 8) (size 9 to 14) (size 15 to 20)
#    0.000    2.400    2.000    1.200    8.400    0.000 
#    0.000    0.000    0.000    0.000    0.000    8.400 
#    0.000    0.000    0.000    0.000    0.000    0.000 
#
# Total GULP energy -223406.601706 kJ/mol
# GULP energy per Si atom -5585.165043 kJ/mol
# Density = 2.405717 g / cm^3
# Si number density = 24.112049 Si / 1000 Ang^3
#
#
#
# Elastic Constant Matrix: (Units=GPa)
#
#
# Indices 1 2 3 4 5 6 
#
# 1 115.8506 64.7804 6.5871 0.0000 0.0000 0.0000
# 2 64.7804 199.8325 3.7675 0.0000 0.0000 0.0000
# 3 6.5871 3.7675 58.1784 0.0000 0.0000 0.0000
# 4 0.0000 0.0000 0.0000 -26.1061 0.0000 0.0000
# 5 0.0000 0.0000 0.0000 0.0000 38.6617 0.0000
# 6 0.0000 0.0000 0.0000 0.0000 0.0000 51.2351
#
#
#
# Elastic Compliance Matrix: (Units=1/GPa)
#
#
# Indices 1 2 3 4 5 6 
#
# 1 0.010598 -0.003417 -0.000979 0.000000 0.000000 0.000000
# 2 -0.003417 0.006112 -0.000009 0.000000 0.000000 0.000000
# 3 -0.000979 -0.000009 0.017300 0.000000 0.000000 0.000000
# 4 0.000000 0.000000 0.000000 -0.038305 0.000000 0.000000
# 5 0.000000 0.000000 0.000000 0.000000 0.025865 0.000000
# 6 0.000000 0.000000 0.000000 0.000000 0.000000 0.019518
#
#
# Mechanical properties :
#
#
# Convention : Reuss Voigt Hill
#
# Bulk Modulus (GPa) = 39.68142 58.23683 48.95912
# Shear Modulus (GPa) = 85.76588 32.67322 59.21955
#
# Velocity S-wave (km/s) = 5.97051 3.68510 4.96120
# Velocity P-wave (km/s) = 8.00138 6.50474 7.29156
#
# Compressibility (1/GPa) = 0.02520071
#
# Stress axis : x y z
#
# Youngs Moduli (GPa) = 94.35500 163.60897 57.80379
#
# Poissons Ratio (x) = 0.55909 0.05657
# Poissons Ratio (y) = 0.32243 0.00051
# Poissons Ratio (z) = 0.09234 0.00146
#
# Static dielectric constant tensor:
#      x y z
#    x 1.878420 0.000000 0.000000 
#    y 0.000000 -94.084060 0.000000 
#    z 0.000000 0.000000 2.046890 
# 
# From -- ./inp_files/4355.got.cif
#   From: 2010.05.17/outbox.cif.g08.bks.cpg/sg62_3_cif.got.tgz:4355.got - 2010.06.03 15:25:27.
