data_PCOD9461297
_publ_section_title
;
Structure prediction by ZEFSAII (Michael W. Deem and Ramdas Pophale) SiO2 
 PCOD9461297
Probable space group: P B C A
;
_chemical_formula_sum "Si O2"
_cell_formula_units_Z 64
_cell_length_a 18.000000
_cell_length_b 9.000000
_cell_length_c 21.000000
_cell_angle_alpha 90.000000
_cell_angle_beta 90.000000
_cell_angle_gamma 90.000000
_cell_volume 3402.000000
_symmetry_space_group_name_H-M "P B C A"
_symmetry_group_IT_number 61
_symmetry_cell_setting 'orthorhombic'
loop_
_space_group_symop_operation_xyz
x,y,z
1/2-x,-y,1/2+z
1/2+x,1/2-y,-z
-x,1/2+y,1/2-z
-x,-y,-z
1/2+x,y,1/2-z
1/2-x,1/2+y,z
x,1/2-y,1/2+z
loop_
_atom_site_type_symbol
_atom_site_label
_atom_site_fract_x
_atom_site_fract_y
_atom_site_fract_z
Si Si1 0.083257 0.622092 0.201328
Si Si2 0.200646 0.635186 0.658834
Si Si3 0.925159 0.559721 0.573479
Si Si4 0.805932 0.461534 0.197619
Si Si5 0.126060 0.192818 0.669069
Si Si6 0.156212 0.870980 0.835861
Si Si7 0.907288 0.950993 0.926623
Si Si8 0.915441 0.715880 0.187867
O O1 0.149487 0.722265 0.173421
O O2 0.085871 0.465821 0.165476
O O3 0.101555 0.599347 0.276006
O O4 0.003672 0.698535 0.195918
O O5 0.196409 0.542818 0.725121
O O6 0.286932 0.675563 0.651083
O O7 0.161106 0.548078 0.601250
O O8 0.885737 0.410349 0.599313
O O9 0.900601 0.592273 0.501112
O O10 0.902295 0.678534 0.627432
O O11 0.014304 0.538723 0.576501
O O12 0.729343 0.530025 0.173549
O O13 0.817162 0.296899 0.171938
O O14 0.875204 0.560069 0.176211
O O15 0.090069 0.312639 0.622092
O O16 0.118434 0.233602 0.744047
#
# Coordination Sequence:
#
# PCOD9461297 Si02
#       8
#     8   8   8   8   8   8   8   8
#     4  11  23  34  65  98 125 165 219 277 327 380
#     4  11  21  43  62  98 129 169 214 278 335 387
#     4  11  24  47  65  95 134 179 218 265 338 404
#     4  11  23  38  66  99 132 163 213 279 327 376
#     4  12  23  40  68  98 128 171 224 279 327 387
#     4  11  22  40  64  96 130 168 211 270 330 388
#     4  11  25  44  70  91 134 179 215 272 339 395
#     4  12  23  40  64  98 135 167 223 274 323 394
#
# _framework density 18.812463000000001
#
# number of rings (size 3 to 8) (size 9 to 14) (size 15 to 20)
#    0.000    0.750    5.000    3.750    5.250    0.000 
#    4.500    1.875    0.000    0.000    0.000    0.000 
#    0.000    0.000    0.000    0.000    0.000    0.000 
#
# Total GULP energy -357561.068087 kJ/mol
# GULP energy per Si atom -5586.891689 kJ/mol
# Density = 1.876965 g / cm^3
# Si number density = 18.812463 Si / 1000 Ang^3
#
#
#
# Elastic Constant Matrix: (Units=GPa)
#
#
# Indices 1 2 3 4 5 6 
#
# 1 67.1684 14.7642 22.7456 0.0000 0.0000 0.0000
# 2 14.7642 77.8498 42.3571 0.0000 0.0000 0.0000
# 3 22.7456 42.3571 120.1118 0.0000 0.0000 0.0000
# 4 0.0000 0.0000 0.0000 25.0435 0.0000 0.0000
# 5 0.0000 0.0000 0.0000 0.0000 20.5267 0.0000
# 6 0.0000 0.0000 0.0000 0.0000 0.0000 27.8686
#
#
#
# Elastic Compliance Matrix: (Units=1/GPa)
#
#
# Indices 1 2 3 4 5 6 
#
# 1 0.016093 -0.001725 -0.002439 0.000000 0.000000 0.000000
# 2 -0.001725 0.016080 -0.005344 0.000000 0.000000 0.000000
# 3 -0.002439 -0.005344 0.010672 0.000000 0.000000 0.000000
# 4 0.000000 0.000000 0.000000 0.039931 0.000000 0.000000
# 5 0.000000 0.000000 0.000000 0.000000 0.048717 0.000000
# 6 0.000000 0.000000 0.000000 0.000000 0.000000 0.035883
#
#
# Mechanical properties :
#
#
# Convention : Reuss Voigt Hill
#
# Bulk Modulus (GPa) = 41.96579 47.20710 44.58644
# Shear Modulus (GPa) = 25.72886 27.03864 26.38375
#
# Velocity S-wave (km/s) = 3.70219 3.79525 3.74901
# Velocity P-wave (km/s) = 6.37423 6.65982 6.51859
#
# Compressibility (1/GPa) = 0.02382894
#
# Stress axis : x y z
#
# Youngs Moduli (GPa) = 62.13834 62.18938 93.70303
#
# Poissons Ratio (x) = 0.10727 0.22857
# Poissons Ratio (y) = 0.10718 0.50074
# Poissons Ratio (z) = 0.15157 0.33233
#
# Static dielectric constant tensor:
#      x y z
#    x 1.641160 0.000000 0.000000 
#    y 0.000000 1.714790 0.000000 
#    z 0.000000 0.000000 1.616190 
# 
# From -- ./inp_files/10552.got.cif
#   From: 2010.05.17/outbox.ucp.g08.bks.cvg/sg61_6_cif.got.tgz:10552.got - 2010.06.11 16:28:26.
