data_PCOD9461878
_publ_section_title
;
Structure prediction by ZEFSAII (Michael W. Deem and Ramdas Pophale) SiO2 
 PCOD9461878
Probable space group: P N M A
;
_chemical_formula_sum "Si O2"
_cell_formula_units_Z 64
_cell_length_a 21.050318
_cell_length_b 7.489215
_cell_length_c 20.418780
_cell_angle_alpha 90.000000
_cell_angle_beta 90.000000
_cell_angle_gamma 90.000000
_cell_volume 3219.027963
_symmetry_space_group_name_H-M "P N M A"
_symmetry_group_IT_number 62
_symmetry_cell_setting 'orthorhombic'
loop_
_space_group_symop_operation_xyz
x,y,z
1/2-x,-y,1/2+z
1/2+x,1/2-y,1/2-z
-x,1/2+y,-z
-x,-y,-z
1/2+x,y,1/2-z
1/2-x,1/2+y,1/2+z
x,1/2-y,z
loop_
_atom_site_type_symbol
_atom_site_label
_atom_site_fract_x
_atom_site_fract_y
_atom_site_fract_z
Si Si1 0.225137 0.531231 0.070895
Si Si2 0.445687 0.967370 0.414181
Si Si3 0.726516 0.465386 0.072689
Si Si4 0.331574 0.531314 0.174731
Si Si5 0.166065 0.038932 0.822231
Si Si6 0.948343 0.536888 0.410490
Si Si7 0.414538 0.963806 0.943622
Si Si8 0.915437 0.459319 0.935150
O O1 0.224549 0.750000 0.070066
O O2 0.275502 0.475567 0.125654
O O3 0.153371 0.467784 0.083888
O O4 0.247449 0.475117 0.998304
O O5 0.446320 0.750000 0.414275
O O6 0.395800 0.032051 0.360374
O O7 0.518337 0.031545 0.406587
O O8 0.422151 0.023190 0.486240
O O9 0.726110 0.250000 0.071127
O O10 0.773604 0.517332 0.130625
O O11 0.653850 0.528444 0.080525
O O12 0.330258 0.750000 0.174766
O O13 0.324135 0.468448 0.249119
O O14 0.398790 0.473481 0.143647
O O15 0.154819 0.250000 0.814966
O O16 0.941031 0.750000 0.413175
O O17 0.928627 0.467178 0.482662
O O18 0.022857 0.501671 0.401347
O O19 0.409950 0.750000 0.948407
O O20 0.914334 0.250000 0.918526
#
# Coordination Sequence:
#
# PCOD9461878 Si02
#       8
#     8   8   8   8   8   8   8   8
#     4   9  15  27  49  72  90 120 166 202 228 276
#     4   9  17  28  42  67  97 119 144 190 245 282
#     4  10  18  31  51  72  95 126 165 202 238 286
#     4   9  17  31  49  70  98 131 163 196 239 290
#     4  10  20  32  47  70 102 131 157 199 250 290
#     4   9  16  29  49  71  95 124 159 197 237 288
#     4   9  17  29  48  73  97 120 154 203 246 277
#     4   9  16  27  47  69  88 115 157 197 227 272
#
# _framework density 19.881779000000002
#
# number of rings (size 3 to 8) (size 9 to 14) (size 15 to 20)
#    0.000    2.750    2.500    0.000    0.000    0.500 
#    0.000    1.875    0.000    6.750    0.000    3.500 
#    0.000    0.000    0.000    0.000    0.000    0.000 
#
# Total GULP energy -356944.993702 kJ/mol
# GULP energy per Si atom -5577.265527 kJ/mol
# Density = 1.983653 g / cm^3
# Si number density = 19.881779 Si / 1000 Ang^3
#
#
#
# Elastic Constant Matrix: (Units=GPa)
#
#
# Indices 1 2 3 4 5 6 
#
# 1 214.9876 -3.3058 99.1427 0.0000 0.0000 0.0000
# 2 -3.3058 50.7660 -4.5243 0.0000 0.0000 0.0000
# 3 99.1427 -4.5243 127.3843 0.0000 0.0000 0.0000
# 4 0.0000 0.0000 0.0000 10.6584 0.0000 0.0000
# 5 0.0000 0.0000 0.0000 0.0000 24.5552 0.0000
# 6 0.0000 0.0000 0.0000 0.0000 0.0000 10.6043
#
#
#
# Elastic Compliance Matrix: (Units=1/GPa)
#
#
# Indices 1 2 3 4 5 6 
#
# 1 0.007256 -0.000031 -0.005648 0.000000 0.000000 0.000000
# 2 -0.000031 0.019761 0.000726 0.000000 0.000000 0.000000
# 3 -0.005648 0.000726 0.012272 0.000000 0.000000 0.000000
# 4 0.000000 0.000000 0.000000 0.093823 0.000000 0.000000
# 5 0.000000 0.000000 0.000000 0.000000 0.040725 0.000000
# 6 0.000000 0.000000 0.000000 0.000000 0.000000 0.094301
#
#
# Mechanical properties :
#
#
# Convention : Reuss Voigt Hill
#
# Bulk Modulus (GPa) = 34.03417 63.97368 49.00393
# Shear Modulus (GPa) = 17.37091 29.28527 23.32809
#
# Velocity S-wave (km/s) = 2.95907 3.84209 3.42912
# Velocity P-wave (km/s) = 5.36938 7.20619 6.35450
#
# Compressibility (1/GPa) = 0.02938223
#
# Stress axis : x y z
#
# Youngs Moduli (GPa) = 137.82431 50.60498 81.48663
#
# Poissons Ratio (x) = 0.00156 0.46025
# Poissons Ratio (y) = 0.00426 -0.05915
# Poissons Ratio (z) = 0.77845 -0.03673
#
# Static dielectric constant tensor:
#      x y z
#    x 1.721920 0.000000 0.000000 
#    y 0.000000 1.767500 0.000000 
#    z 0.000000 0.000000 1.659890 
# 
# From -- ./inp_files/27887.got.cif
#   From: 2010.05.17/outbox.cif.g08.bks.cpg/sg62_14_cif.got.tgz:27887.got - 2010.06.03 15:25:27.
