data_PCOD9461955
_publ_section_title
;
Structure prediction by ZEFSAII (Michael W. Deem and Ramdas Pophale) SiO2 
 PCOD9461955
Probable space group: P N M A
;
_chemical_formula_sum "Si O2"
_cell_formula_units_Z 56
_cell_length_a 18.406986
_cell_length_b 8.697177
_cell_length_c 22.793227
_cell_angle_alpha 90.000000
_cell_angle_beta 90.000000
_cell_angle_gamma 90.000000
_cell_volume 3648.940707
_symmetry_space_group_name_H-M "P N M A"
_symmetry_group_IT_number 62
_symmetry_cell_setting 'orthorhombic'
loop_
_space_group_symop_operation_xyz
x,y,z
1/2-x,-y,1/2+z
1/2+x,1/2-y,1/2-z
-x,1/2+y,-z
-x,-y,-z
1/2+x,y,1/2-z
1/2-x,1/2+y,1/2+z
x,1/2-y,z
loop_
_atom_site_type_symbol
_atom_site_label
_atom_site_fract_x
_atom_site_fract_y
_atom_site_fract_z
Si Si1 0.932357 0.063764 0.715441
Si Si2 0.770816 0.928487 0.313719
Si Si3 0.884820 0.064132 0.848660
Si Si4 0.626654 0.435880 0.648604
Si Si5 0.219018 0.928938 0.322514
Si Si6 0.495886 0.433256 0.434867
Si Si7 0.914626 0.068312 0.275796
O O1 0.935114 0.250000 0.711945
O O2 0.915885 0.025650 0.783853
O O3 0.862640 0.007069 0.678005
O O4 0.009469 0.993261 0.699256
O O5 0.786219 0.750000 0.327487
O O6 0.700264 0.980709 0.349961
O O7 0.743201 0.931721 0.245967
O O8 0.844771 0.023329 0.314729
O O9 0.888231 0.250000 0.853837
O O10 0.934468 0.987531 0.897369
O O11 0.625877 0.250000 0.647528
O O12 0.710524 0.492411 0.644081
O O13 0.574194 0.501218 0.599246
O O14 0.597457 0.488431 0.712324
O O15 0.212873 0.750000 0.339693
O O16 0.500000 0.500000 0.500000
O O17 0.492645 0.250000 0.436379
O O18 0.917594 0.250000 0.267280
#
# Coordination Sequence:
#
# PCOD9461955 Si02
#       7
#     8   8   8   8   8   8   8
#     4   9  15  26  44  63  87 119 150 180 217 267
#     4   8  15  28  44  61  82 115 151 180 218 268
#     4   9  17  31  49  64  83 115 152 189 228 267
#     4  10  18  32  48  61  83 116 151 190 229 267
#     4   7  13  25  43  63  80 109 149 180 214 263
#     4  12  24  35  48  67  89 117 154 192 230 269
#     4  11  19  25  38  65  94 121 150 182 220 263
#
# _framework density 15.346921
#
# number of rings (size 3 to 8) (size 9 to 14) (size 15 to 20)
#    0.000    2.571    1.429    5.571    0.000    0.571 
#    0.000    6.429    0.000    0.000    0.000    0.000 
#    0.000    1.143    0.000    3.429    0.000    4.571 
#
# Total GULP energy -311845.316015 kJ/mol
# GULP energy per Si atom -5568.666357 kJ/mol
# Density = 1.531199 g / cm^3
# Si number density = 15.346921 Si / 1000 Ang^3
#
#
#
# Elastic Constant Matrix: (Units=GPa)
#
#
# Indices 1 2 3 4 5 6 
#
# 1 163.8011 48.3231 44.0887 0.0000 0.0000 0.0000
# 2 48.3231 56.5315 23.8146 0.0000 0.0000 0.0000
# 3 44.0887 23.8146 48.3117 0.0000 0.0000 0.0000
# 4 0.0000 0.0000 0.0000 15.6611 0.0000 0.0000
# 5 0.0000 0.0000 0.0000 0.0000 12.0068 0.0000
# 6 0.0000 0.0000 0.0000 0.0000 0.0000 2.4260
#
#
#
# Elastic Compliance Matrix: (Units=1/GPa)
#
#
# Indices 1 2 3 4 5 6 
#
# 1 0.009278 -0.005508 -0.005752 0.000000 0.000000 0.000000
# 2 -0.005508 0.025595 -0.007590 0.000000 0.000000 0.000000
# 3 -0.005752 -0.007590 0.029690 0.000000 0.000000 0.000000
# 4 0.000000 0.000000 0.000000 0.063852 0.000000 0.000000
# 5 0.000000 0.000000 0.000000 0.000000 0.083286 0.000000
# 6 0.000000 0.000000 0.000000 0.000000 0.000000 0.412195
#
#
# Mechanical properties :
#
#
# Convention : Reuss Voigt Hill
#
# Bulk Modulus (GPa) = 37.22682 55.67746 46.45214
# Shear Modulus (GPa) = 7.45657 16.17999 11.81828
#
# Velocity S-wave (km/s) = 2.20663 3.25049 2.77803
# Velocity P-wave (km/s) = 5.54994 7.10251 6.37367
#
# Compressibility (1/GPa) = 0.02686235
#
# Stress axis : x y z
#
# Youngs Moduli (GPa) = 107.78142 39.07054 33.68167
#
# Poissons Ratio (x) = 0.21519 0.19374
# Poissons Ratio (y) = 0.59363 0.25565
# Poissons Ratio (z) = 0.61997 0.29656
#
# Static dielectric constant tensor:
#      x y z
#    x 1.565430 0.000000 0.000000 
#    y 0.000000 1.511110 0.000000 
#    z 0.000000 0.000000 1.469540 
# 
# From -- ./inp_files/27586.got.cif
#   From: 2010.05.17/outbox.cif.g08.bks.cpg/sg62_14_cif.got.tgz:27586.got - 2010.06.03 15:25:27.
