data_PCOD9461092
_publ_section_title
;
Structure prediction by ZEFSAII (Michael W. Deem and Ramdas Pophale) SiO2 
 PCOD9461092
Probable space group: P B C A
;
_chemical_formula_sum "Si O2"
_cell_formula_units_Z 32
_cell_length_a 24.626781
_cell_length_b 4.855650
_cell_length_c 10.583304
_cell_angle_alpha 90.000000
_cell_angle_beta 90.000000
_cell_angle_gamma 90.000000
_cell_volume 1265.541218
_symmetry_space_group_name_H-M "P B C A"
_symmetry_group_IT_number 61
_symmetry_cell_setting 'orthorhombic'
loop_
_space_group_symop_operation_xyz
x,y,z
1/2-x,-y,1/2+z
1/2+x,1/2-y,-z
-x,1/2+y,1/2-z
-x,-y,-z
1/2+x,y,1/2-z
1/2-x,1/2+y,z
x,1/2-y,1/2+z
loop_
_atom_site_type_symbol
_atom_site_label
_atom_site_fract_x
_atom_site_fract_y
_atom_site_fract_z
Si Si1 0.286770 0.627289 0.107728
Si Si2 0.534291 0.304925 0.286398
Si Si3 0.881884 0.026050 0.445188
Si Si4 0.135866 0.944025 0.286573
O O1 0.262414 0.331578 0.077991
O O2 0.307060 0.592430 0.253947
O O3 0.340119 0.769476 0.050368
O O4 0.510047 0.563824 0.211450
O O5 0.557613 0.412987 0.419932
O O6 0.587263 0.164494 0.224839
O O7 0.870845 0.220657 0.324725
O O8 0.871485 0.179944 0.575713
#
# Coordination Sequence:
#
# PCOD9461092 Si02
#       4
#     8   8   8   8
#     4  11  24  49  70 104 140 193 238 291 354 430
#     4  11  24  49  70 108 144 197 246 305 364 434
#     4  11  26  47  75 111 150 190 245 307 367 438
#     4  11  26  47  75 111 150 190 245 307 367 438
#
# _framework density 25.285626000000001
#
# number of rings (size 3 to 8) (size 9 to 14) (size 15 to 20)
#    0.000    1.000    5.000    0.000    0.000   12.000 
#    0.000    0.000    0.000    0.000    0.000    0.000 
#    0.000    0.000    0.000    0.000    0.000    0.000 
#
# Total GULP energy -178777.761105 kJ/mol
# GULP energy per Si atom -5586.805035 kJ/mol
# Density = 2.522807 g / cm^3
# Si number density = 25.285626 Si / 1000 Ang^3
#
#
#
# Elastic Constant Matrix: (Units=GPa)
#
#
# Indices 1 2 3 4 5 6 
#
# 1 94.3612 25.0834 -1.4875 0.0000 0.0000 0.0000
# 2 25.0834 137.7047 40.9591 0.0000 0.0000 0.0000
# 3 -1.4875 40.9591 128.5327 0.0000 0.0000 0.0000
# 4 0.0000 0.0000 0.0000 29.4497 0.0000 0.0000
# 5 0.0000 0.0000 0.0000 0.0000 21.9786 0.0000
# 6 0.0000 0.0000 0.0000 0.0000 0.0000 44.5295
#
#
#
# Elastic Compliance Matrix: (Units=1/GPa)
#
#
# Indices 1 2 3 4 5 6 
#
# 1 0.011223 -0.002301 0.000863 0.000000 0.000000 0.000000
# 2 -0.002301 0.008494 -0.002733 0.000000 0.000000 0.000000
# 3 0.000863 -0.002733 0.008661 0.000000 0.000000 0.000000
# 4 0.000000 0.000000 0.000000 0.033956 0.000000 0.000000
# 5 0.000000 0.000000 0.000000 0.000000 0.045499 0.000000
# 6 0.000000 0.000000 0.000000 0.000000 0.000000 0.022457
#
#
# Mechanical properties :
#
#
# Convention : Reuss Voigt Hill
#
# Bulk Modulus (GPa) = 49.91136 54.41206 52.16171
# Shear Modulus (GPa) = 34.40888 38.92779 36.66834
#
# Velocity S-wave (km/s) = 3.69292 3.92793 3.81223
# Velocity P-wave (km/s) = 6.16160 6.49132 6.32861
#
# Compressibility (1/GPa) = 0.02003552
#
# Stress axis : x y z
#
# Youngs Moduli (GPa) = 89.10390 117.72897 115.45801
#
# Poissons Ratio (x) = 0.27090 -0.09966
# Poissons Ratio (y) = 0.20503 0.31559
# Poissons Ratio (z) = -0.07691 0.32180
#
# Static dielectric constant tensor:
#      x y z
#    x 2.042940 0.000000 0.000000 
#    y 0.000000 2.036310 0.000000 
#    z 0.000000 0.000000 2.080580 
# 
# From -- ./inp_files/6546.got.cif
#   From: 2010.05.17/outbox.cif.g08.bks.cpg/sg61_4_cif.got.tgz:6546.got - 2010.06.03 15:17:17.
