data_PCOD9461020
_publ_section_title
;
Structure prediction by ZEFSAII (Michael W. Deem and Ramdas Pophale) SiO2 
 PCOD9461020
Probable space group: P B C A
;
_chemical_formula_sum "Si O2"
_cell_formula_units_Z 64
_cell_length_a 13.372514
_cell_length_b 18.361847
_cell_length_c 12.515241
_cell_angle_alpha 90.000000
_cell_angle_beta 90.000000
_cell_angle_gamma 90.000000
_cell_volume 3073.043038
_symmetry_space_group_name_H-M "P B C A"
_symmetry_group_IT_number 61
_symmetry_cell_setting 'orthorhombic'
loop_
_space_group_symop_operation_xyz
x,y,z
1/2-x,-y,1/2+z
1/2+x,1/2-y,-z
-x,1/2+y,1/2-z
-x,-y,-z
1/2+x,y,1/2-z
1/2-x,1/2+y,z
x,1/2-y,1/2+z
loop_
_atom_site_type_symbol
_atom_site_label
_atom_site_fract_x
_atom_site_fract_y
_atom_site_fract_z
Si Si1 0.582677 0.645662 0.247303
Si Si2 0.116549 0.483643 0.016546
Si Si3 0.458530 0.571114 0.060971
Si Si4 0.701748 0.579835 0.654628
Si Si5 0.934118 0.668231 0.050808
Si Si6 0.250426 0.542371 0.182531
Si Si7 0.036836 0.804956 0.321432
Si Si8 0.894075 0.677491 0.620686
O O1 0.529062 0.593504 0.160370
O O2 0.512656 0.651580 0.353393
O O3 0.690325 0.613775 0.280084
O O4 0.585415 0.725766 0.195507
O O5 0.171103 0.550656 0.960578
O O6 0.131757 0.403505 0.969258
O O7 0.163467 0.490287 0.132858
O O8 0.000000 0.500000 0.000000
O O9 0.346731 0.558369 0.108352
O O10 0.500000 0.500000 0.000000
O O11 0.453783 0.635937 0.973670
O O12 0.709763 0.506279 0.721200
O O13 0.615860 0.631500 0.698481
O O14 0.799832 0.627580 0.644812
O O15 0.873165 0.740546 0.080882
O O16 0.992028 0.684512 0.939847
O O17 0.954055 0.813578 0.230325
#
# Coordination Sequence:
#
# PCOD9461020 Si02
#       8
#     8   8   8   8   8   8   8   8
#     4  11  25  45  74 103 144 194 242 300 365 443
#     4  12  23  43  72  99 136 188 239 294 351 431
#     4  12  25  47  72 108 150 187 241 309 370 434
#     4  12  25  43  68 106 139 184 243 296 353 440
#     4  11  23  46  73 100 145 192 241 302 371 434
#     4  12  26  44  71 106 141 189 242 296 366 437
#     4  11  24  46  73 103 146 192 238 300 372 439
#     4  11  25  46  69 104 147 185 239 309 365 434
#
# _framework density 20.826260999999999
#
# number of rings (size 3 to 8) (size 9 to 14) (size 15 to 20)
#    0.000    0.500    5.000    3.000    0.000    3.000 
#    2.250    0.000    0.000    0.000    0.000    0.000 
#    0.000    0.000    0.000    0.000    0.000    0.000 
#
# Total GULP energy -357705.446534 kJ/mol
# GULP energy per Si atom -5589.147602 kJ/mol
# Density = 2.077886 g / cm^3
# Si number density = 20.826261 Si / 1000 Ang^3
#
#
#
# Elastic Constant Matrix: (Units=GPa)
#
#
# Indices 1 2 3 4 5 6 
#
# 1 60.7639 36.7761 21.7196 0.0000 0.0000 0.0000
# 2 36.7761 144.2073 27.8739 0.0000 0.0000 0.0000
# 3 21.7196 27.8739 89.6101 0.0000 0.0000 0.0000
# 4 0.0000 0.0000 0.0000 39.6104 0.0000 0.0000
# 5 0.0000 0.0000 0.0000 0.0000 27.1611 0.0000
# 6 0.0000 0.0000 0.0000 0.0000 0.0000 32.3086
#
#
#
# Elastic Compliance Matrix: (Units=1/GPa)
#
#
# Indices 1 2 3 4 5 6 
#
# 1 0.020471 -0.004534 -0.003551 0.000000 0.000000 0.000000
# 2 -0.004534 0.008382 -0.001508 0.000000 0.000000 0.000000
# 3 -0.003551 -0.001508 0.012489 0.000000 0.000000 0.000000
# 4 0.000000 0.000000 0.000000 0.025246 0.000000 0.000000
# 5 0.000000 0.000000 0.000000 0.000000 0.036817 0.000000
# 6 0.000000 0.000000 0.000000 0.000000 0.000000 0.030952
#
#
# Mechanical properties :
#
#
# Convention : Reuss Voigt Hill
#
# Bulk Modulus (GPa) = 45.13683 51.92448 48.53065
# Shear Modulus (GPa) = 31.06947 33.69680 32.38314
#
# Velocity S-wave (km/s) = 3.86663 4.02680 3.94752
# Velocity P-wave (km/s) = 6.45403 6.82689 6.64308
#
# Compressibility (1/GPa) = 0.02215486
#
# Stress axis : x y z
#
# Youngs Moduli (GPa) = 48.85040 119.29886 80.06773
#
# Poissons Ratio (x) = 0.54091 0.28434
# Poissons Ratio (y) = 0.22149 0.12078
# Poissons Ratio (z) = 0.17348 0.17995
#
# Static dielectric constant tensor:
#      x y z
#    x 1.825620 0.000000 0.000000 
#    y 0.000000 1.822650 0.000000 
#    z 0.000000 0.000000 1.787660 
# 
# From -- ./inp_files/6005.got.cif
#   From: 2010.05.17/outbox.cif.g08.bks.cpg/sg61_4_cif.got.tgz:6005.got - 2010.06.03 15:17:17.
