data_PCOD9461330
_publ_section_title
;
Structure prediction by ZEFSAII (Michael W. Deem and Ramdas Pophale) SiO2 
 PCOD9461330
Probable space group: P N M A
;
_chemical_formula_sum "Si O2"
_cell_formula_units_Z 64
_cell_length_a 8.457074
_cell_length_b 21.609708
_cell_length_c 17.518594
_cell_angle_alpha 90.000000
_cell_angle_beta 90.000000
_cell_angle_gamma 90.000000
_cell_volume 3201.608889
_symmetry_space_group_name_H-M "P N M A"
_symmetry_group_IT_number 62
_symmetry_cell_setting 'orthorhombic'
loop_
_space_group_symop_operation_xyz
x,y,z
1/2-x,-y,1/2+z
1/2+x,1/2-y,1/2-z
-x,1/2+y,-z
-x,-y,-z
1/2+x,y,1/2-z
1/2-x,1/2+y,1/2+z
x,1/2-y,z
loop_
_atom_site_type_symbol
_atom_site_label
_atom_site_fract_x
_atom_site_fract_y
_atom_site_fract_z
Si Si1 0.131140 0.320811 0.580040
Si Si2 0.633792 0.568808 0.457553
Si Si3 0.778740 0.321024 0.761814
Si Si4 0.480870 0.524664 0.761326
Si Si5 0.774417 0.945095 0.866860
Si Si6 0.403782 0.402344 0.002474
Si Si7 0.437697 0.601824 0.325454
Si Si8 0.686173 0.023886 0.086370
O O1 0.166187 0.250000 0.559859
O O2 0.261869 0.369563 0.551053
O O3 0.143595 0.325044 0.671863
O O4 0.968132 0.343474 0.542564
O O5 0.711405 0.512625 0.408102
O O6 0.472173 0.582938 0.412841
O O7 0.651800 0.545676 0.544577
O O8 0.794037 0.250000 0.737780
O O9 0.933721 0.345942 0.803853
O O10 0.727560 0.367585 0.695597
O O11 0.423469 0.563373 0.688200
O O12 0.626360 0.550317 0.809556
O O13 0.524060 0.457050 0.728100
O O14 0.337091 0.522831 0.823164
O O15 0.734430 0.897652 0.934546
O O16 0.552190 0.430943 0.050505
O O17 0.360262 0.456263 0.943480
#
# Coordination Sequence:
#
# PCOD9461330 Si02
#       8
#     8   8   8   8   8   8   8   8
#     4   9  15  23  38  59  80 101 133 169 193 221
#     4   8  15  26  39  59  82 105 132 164 200 230
#     4  10  19  28  39  57  80 109 138 162 187 221
#     4  10  16  25  41  62  79 102 129 160 202 239
#     4   9  17  26  42  61  83 105 129 161 199 243
#     4   8  13  24  38  57  78 102 130 162 199 229
#     4  10  17  27  41  56  81 107 132 163 195 231
#     4   8  13  23  41  57  76 101 131 163 195 234
#
# _framework density 19.989948999999999
#
# number of rings (size 3 to 8) (size 9 to 14) (size 15 to 20)
#    0.000    3.000    0.000    5.625    0.000    0.500 
#    0.000    0.000    0.000   13.500    0.000    7.875 
#    0.000    0.000    0.000    0.000    0.000    0.000 
#
# Total GULP energy -356965.237715 kJ/mol
# GULP energy per Si atom -5577.581839 kJ/mol
# Density = 1.994445 g / cm^3
# Si number density = 19.989949 Si / 1000 Ang^3
#
#
#
# Elastic Constant Matrix: (Units=GPa)
#
#
# Indices 1 2 3 4 5 6 
#
# 1 33.5197 11.7627 31.5017 0.0000 0.0000 0.0000
# 2 11.7627 56.2659 12.1353 0.0000 0.0000 0.0000
# 3 31.5017 12.1353 81.1467 0.0000 0.0000 0.0000
# 4 0.0000 0.0000 0.0000 22.7004 0.0000 0.0000
# 5 0.0000 0.0000 0.0000 0.0000 41.0877 0.0000
# 6 0.0000 0.0000 0.0000 0.0000 0.0000 18.5533
#
#
#
# Elastic Compliance Matrix: (Units=1/GPa)
#
#
# Indices 1 2 3 4 5 6 
#
# 1 0.049074 -0.006355 -0.018100 0.000000 0.000000 0.000000
# 2 -0.006355 0.019188 -0.000402 0.000000 0.000000 0.000000
# 3 -0.018100 -0.000402 0.019410 0.000000 0.000000 0.000000
# 4 0.000000 0.000000 0.000000 0.044052 0.000000 0.000000
# 5 0.000000 0.000000 0.000000 0.000000 0.024338 0.000000
# 6 0.000000 0.000000 0.000000 0.000000 0.000000 0.053899
#
#
# Mechanical properties :
#
#
# Convention : Reuss Voigt Hill
#
# Bulk Modulus (GPa) = 26.34616 31.30351 28.82484
# Shear Modulus (GPa) = 18.36008 24.17045 21.26526
#
# Velocity S-wave (km/s) = 3.03391 3.48103 3.26513
# Velocity P-wave (km/s) = 5.04788 5.64361 5.35404
#
# Compressibility (1/GPa) = 0.03795619
#
# Stress axis : x y z
#
# Youngs Moduli (GPa) = 20.37734 52.11545 51.51918
#
# Poissons Ratio (x) = 0.33121 0.93252
# Poissons Ratio (y) = 0.12951 0.02073
# Poissons Ratio (z) = 0.36884 0.02097
#
# Static dielectric constant tensor:
#      x y z
#    x 1.832490 0.000000 0.000000 
#    y 0.000000 1.649430 0.000000 
#    z 0.000000 0.000000 1.753340 
# 
# From -- ./inp_files/23340.got.cif
#   From: 2010.05.17/outbox.cif.g08.bks.cpg/sg62_12_cif.got.tgz:23340.got - 2010.06.03 15:25:27.
