data_PCOD9461223
_publ_section_title
;
Structure prediction by ZEFSAII (Michael W. Deem and Ramdas Pophale) SiO2 
 PCOD9461223
Probable space group: P B C A
;
_chemical_formula_sum "Si O2"
_cell_formula_units_Z 24
_cell_length_a 9.097977
_cell_length_b 13.598359
_cell_length_c 7.110536
_cell_angle_alpha 90.000000
_cell_angle_beta 90.000000
_cell_angle_gamma 90.000000
_cell_volume 879.698146
_symmetry_space_group_name_H-M "P B C A"
_symmetry_group_IT_number 61
_symmetry_cell_setting 'orthorhombic'
loop_
_space_group_symop_operation_xyz
x,y,z
1/2-x,-y,1/2+z
1/2+x,1/2-y,-z
-x,1/2+y,1/2-z
-x,-y,-z
1/2+x,y,1/2-z
1/2-x,1/2+y,z
x,1/2-y,1/2+z
loop_
_atom_site_type_symbol
_atom_site_label
_atom_site_fract_x
_atom_site_fract_y
_atom_site_fract_z
Si Si1 0.929710 0.081676 0.298764
Si Si2 0.206378 0.392413 0.365072
Si Si3 0.714638 0.178640 0.050021
O O1 0.835729 0.077445 0.492162
O O2 0.858272 0.168949 0.177243
O O3 0.093783 0.109528 0.351621
O O4 0.902962 0.982720 0.178015
O O5 0.151723 0.288977 0.451130
O O6 0.252242 0.360663 0.155483
#
# Coordination Sequence:
#
# PCOD9461223 Si02
#       3
#     8   8   8
#     4  12  29  50  81 118 157 207 261 326 395 463
#     4  12  27  50  79 116 159 205 261 321 390 468
#     4  12  29  48  80 119 157 204 263 324 395 462
#
# _framework density 27.282084999999999
#
# number of rings (size 3 to 8) (size 9 to 14) (size 15 to 20)
#    0.000    0.000    6.667    1.000    4.667    4.000 
#    0.000    0.000    0.000    0.000    0.000    0.000 
#    0.000    0.000    0.000    0.000    0.000    0.000 
#
# Total GULP energy -134666.094845 kJ/mol
# GULP energy per Si atom -5611.087285 kJ/mol
# Density = 2.721999 g / cm^3
# Si number density = 27.282085 Si / 1000 Ang^3
#
#
#
# Elastic Constant Matrix: (Units=GPa)
#
#
# Indices 1 2 3 4 5 6 
#
# 1 90.4634 9.7097 54.5837 0.0000 0.0000 0.0000
# 2 9.7097 142.0275 -3.7282 0.0000 0.0000 0.0000
# 3 54.5837 -3.7282 167.5459 0.0000 0.0000 0.0000
# 4 0.0000 0.0000 0.0000 41.0863 0.0000 0.0000
# 5 0.0000 0.0000 0.0000 0.0000 56.5356 0.0000
# 6 0.0000 0.0000 0.0000 0.0000 0.0000 20.9571
#
#
#
# Elastic Compliance Matrix: (Units=1/GPa)
#
#
# Indices 1 2 3 4 5 6 
#
# 1 0.013920 -0.001071 -0.004559 0.000000 0.000000 0.000000
# 2 -0.001071 0.007127 0.000508 0.000000 0.000000 0.000000
# 3 -0.004559 0.000508 0.007465 0.000000 0.000000 0.000000
# 4 0.000000 0.000000 0.000000 0.024339 0.000000 0.000000
# 5 0.000000 0.000000 0.000000 0.000000 0.017688 0.000000
# 6 0.000000 0.000000 0.000000 0.000000 0.000000 0.047717
#
#
# Mechanical properties :
#
#
# Convention : Reuss Voigt Hill
#
# Bulk Modulus (GPa) = 54.74211 57.90747 56.32479
# Shear Modulus (GPa) = 37.14995 46.34723 41.74859
#
# Velocity S-wave (km/s) = 3.69412 4.12614 3.91609
# Velocity P-wave (km/s) = 6.18904 6.63111 6.41388
#
# Compressibility (1/GPa) = 0.01826747
#
# Stress axis : x y z
#
# Youngs Moduli (GPa) = 71.84015 140.30252 133.95938
#
# Poissons Ratio (x) = 0.15031 0.61068
# Poissons Ratio (y) = 0.07696 -0.06800
# Poissons Ratio (z) = 0.32750 -0.07122
#
# Static dielectric constant tensor:
#      x y z
#    x 2.045070 0.000000 0.000000 
#    y 0.000000 2.186930 0.000000 
#    z 0.000000 0.000000 2.089920 
# 
# From -- ./inp_files/1576.got.cif
#   From: 2010.05.17/outbox.cif.g08.bks.cpg/sg61_1_cif.got.tgz:1576.got - 2010.06.03 15:17:17.
