data_PCOD9461002
_publ_section_title
;
Structure prediction by ZEFSAII (Michael W. Deem and Ramdas Pophale) SiO2 
 PCOD9461002
Probable space group: P B C A
;
_chemical_formula_sum "Si O2"
_cell_formula_units_Z 64
_cell_length_a 29.944891
_cell_length_b 7.622545
_cell_length_c 11.688970
_cell_angle_alpha 90.000000
_cell_angle_beta 90.000000
_cell_angle_gamma 90.000000
_cell_volume 2668.080800
_symmetry_space_group_name_H-M "P B C A"
_symmetry_group_IT_number 61
_symmetry_cell_setting 'orthorhombic'
loop_
_space_group_symop_operation_xyz
x,y,z
1/2-x,-y,1/2+z
1/2+x,1/2-y,-z
-x,1/2+y,1/2-z
-x,-y,-z
1/2+x,y,1/2-z
1/2-x,1/2+y,z
x,1/2-y,1/2+z
loop_
_atom_site_type_symbol
_atom_site_label
_atom_site_fract_x
_atom_site_fract_y
_atom_site_fract_z
Si Si1 0.141780 0.585083 0.321370
Si Si2 0.953382 0.949785 0.777086
Si Si3 0.810768 0.589266 0.299656
Si Si4 0.834038 0.449039 0.065836
Si Si5 0.929791 0.950588 0.521743
Si Si6 0.549181 0.469567 0.280324
Si Si7 0.287837 0.315206 0.647659
Si Si8 0.109541 0.396444 0.542240
O O1 0.149575 0.779673 0.366190
O O2 0.094278 0.559569 0.260953
O O3 0.183350 0.564443 0.235299
O O4 0.137125 0.471724 0.436253
O O5 0.941625 0.011990 0.648725
O O6 0.945194 0.740368 0.776566
O O7 0.921249 0.021705 0.877065
O O8 0.005706 0.982105 0.792079
O O9 0.820268 0.585110 0.163890
O O10 0.805161 0.385581 0.341831
O O11 0.764067 0.681157 0.323278
O O12 0.852713 0.667063 0.367970
O O13 0.878035 0.505066 0.998880
O O14 0.796101 0.392374 0.978186
O O15 0.957923 0.018447 0.414405
O O16 0.925959 0.739642 0.511993
#
# Coordination Sequence:
#
# PCOD9461002 Si02
#       8
#     8   8   8   8   8   8   8   8
#     4  11  24  46  66  96 136 177 221 274 333 391
#     4  11  25  43  66 102 132 176 226 271 340 400
#     4  11  26  43  67  99 132 174 217 275 327 395
#     4  11  24  43  71  96 131 178 216 273 332 391
#     4  11  23  44  69  96 132 174 225 270 335 395
#     4  11  25  43  68  98 135 176 221 282 331 400
#     4  11  26  43  67 101 133 172 225 268 334 393
#     4  11  24  45  67  94 135 172 222 273 331 399
#
# _framework density 23.987279999999998
#
# number of rings (size 3 to 8) (size 9 to 14) (size 15 to 20)
#    0.000    1.000    5.000    0.375    5.250    2.500 
#    0.000    0.000    0.000    0.000    0.000    0.000 
#    0.000    0.000    0.000    0.000    0.000    0.000 
#
# Total GULP energy -357802.903977 kJ/mol
# GULP energy per Si atom -5590.670375 kJ/mol
# Density = 2.393268 g / cm^3
# Si number density = 23.987280 Si / 1000 Ang^3
#
#
#
# Elastic Constant Matrix: (Units=GPa)
#
#
# Indices 1 2 3 4 5 6 
#
# 1 123.6343 2.1482 28.0471 0.0000 0.0000 0.0000
# 2 2.1482 28.7860 21.1284 0.0000 0.0000 0.0000
# 3 28.0471 21.1284 89.8393 0.0000 0.0000 0.0000
# 4 0.0000 0.0000 0.0000 20.2623 0.0000 0.0000
# 5 0.0000 0.0000 0.0000 0.0000 29.9716 0.0000
# 6 0.0000 0.0000 0.0000 0.0000 0.0000 29.2679
#
#
#
# Elastic Compliance Matrix: (Units=1/GPa)
#
#
# Indices 1 2 3 4 5 6 
#
# 1 0.008768 0.001637 -0.003122 0.000000 0.000000 0.000000
# 2 0.001637 0.042293 -0.010458 0.000000 0.000000 0.000000
# 3 -0.003122 -0.010458 0.014565 0.000000 0.000000 0.000000
# 4 0.000000 0.000000 0.000000 0.049353 0.000000 0.000000
# 5 0.000000 0.000000 0.000000 0.000000 0.033365 0.000000
# 6 0.000000 0.000000 0.000000 0.000000 0.000000 0.034167
#
#
# Mechanical properties :
#
#
# Convention : Reuss Voigt Hill
#
# Bulk Modulus (GPa) = 23.95732 38.32300 31.14016
# Shear Modulus (GPa) = 22.69533 28.62941 25.66237
#
# Velocity S-wave (km/s) = 3.07928 3.45849 3.27438
# Velocity P-wave (km/s) = 4.75939 5.65325 5.22547
#
# Compressibility (1/GPa) = 0.04174089
#
# Stress axis : x y z
#
# Youngs Moduli (GPa) = 114.04756 23.64484 68.65677
#
# Poissons Ratio (x) = -0.03872 0.21438
# Poissons Ratio (y) = -0.18675 0.71798
# Poissons Ratio (z) = 0.35611 0.24727
#
# Static dielectric constant tensor:
#      x y z
#    x 1.856910 0.000000 0.000000 
#    y 0.000000 1.995730 0.000000 
#    z 0.000000 0.000000 1.972010 
# 
# From -- ./inp_files/2428.got.cif
#   From: 2010.05.17/outbox.cif.g08.bks.cpg/sg61_2_cif.got.tgz:2428.got - 2010.06.03 15:17:17.
