data_PCOD9461325
_publ_section_title
;
Structure prediction by ZEFSAII (Michael W. Deem and Ramdas Pophale) SiO2 
 PCOD9461325
Probable space group: P N M A
;
_chemical_formula_sum "Si O2"
_cell_formula_units_Z 40
_cell_length_a 27.463843
_cell_length_b 8.801405
_cell_length_c 7.403617
_cell_angle_alpha 90.000000
_cell_angle_beta 90.000000
_cell_angle_gamma 90.000000
_cell_volume 1789.605300
_symmetry_space_group_name_H-M "P N M A"
_symmetry_group_IT_number 62
_symmetry_cell_setting 'orthorhombic'
loop_
_space_group_symop_operation_xyz
x,y,z
1/2-x,-y,1/2+z
1/2+x,1/2-y,1/2-z
-x,1/2+y,-z
-x,-y,-z
1/2+x,y,1/2-z
1/2-x,1/2+y,1/2+z
x,1/2-y,z
loop_
_atom_site_type_symbol
_atom_site_label
_atom_site_fract_x
_atom_site_fract_y
_atom_site_fract_z
Si Si1 0.296632 0.920081 0.779738
Si Si2 0.598658 0.570757 0.800805
Si Si3 0.803816 0.580954 0.288246
Si Si4 0.500093 0.431689 0.795260
Si Si5 0.902031 0.933542 0.706119
O O1 0.284810 0.750000 0.713835
O O2 0.349574 0.967339 0.704363
O O3 0.250194 0.024645 0.753868
O O4 0.304804 0.911911 0.994501
O O5 0.591045 0.750000 0.791822
O O6 0.651710 0.524855 0.727695
O O7 0.552054 0.484910 0.718522
O O8 0.599679 0.515128 0.010165
O O9 0.812351 0.750000 0.217288
O O10 0.497194 0.250000 0.800777
O O11 0.451582 0.502974 0.707924
O O12 0.500000 0.500000 0.000000
O O13 0.905054 0.750000 0.684170
#
# Coordination Sequence:
#
# PCOD9461325 Si02
#       5
#     8   8   8   8   8
#     4   9  19  33  48  69  96 125 158 195 233 276
#     4  10  17  26  41  61  88 120 152 188 233 278
#     4  10  20  33  49  70  96 125 159 197 234 277
#     4  10  16  23  37  59  87 117 150 186 230 279
#     4   9  16  27  41  61  90 119 151 190 231 276
#
# _framework density 22.351296000000001
#
# number of rings (size 3 to 8) (size 9 to 14) (size 15 to 20)
#    0.000    2.400    0.000    8.400    0.000    4.800 
#    0.000    0.000    0.000    0.000    0.000    1.400 
#    0.000    0.000    0.000    0.000    0.000    0.000 
#
# Total GULP energy -223165.689713 kJ/mol
# GULP energy per Si atom -5579.142243 kJ/mol
# Density = 2.230042 g / cm^3
# Si number density = 22.351296 Si / 1000 Ang^3
#
#
#
# Elastic Constant Matrix: (Units=GPa)
#
#
# Indices 1 2 3 4 5 6 
#
# 1 201.8810 82.2658 -6.8336 0.0000 0.0000 0.0000
# 2 82.2658 157.2857 2.6054 0.0000 0.0000 0.0000
# 3 -6.8336 2.6054 54.6341 0.0000 0.0000 0.0000
# 4 0.0000 0.0000 0.0000 3.8551 0.0000 0.0000
# 5 0.0000 0.0000 0.0000 0.0000 2.3191 0.0000
# 6 0.0000 0.0000 0.0000 0.0000 0.0000 47.7101
#
#
#
# Elastic Compliance Matrix: (Units=1/GPa)
#
#
# Indices 1 2 3 4 5 6 
#
# 1 0.006344 -0.003334 0.000953 0.000000 0.000000 0.000000
# 2 -0.003334 0.008115 -0.000804 0.000000 0.000000 0.000000
# 3 0.000953 -0.000804 0.018461 0.000000 0.000000 0.000000
# 4 0.000000 0.000000 0.000000 0.259396 0.000000 0.000000
# 5 0.000000 0.000000 0.000000 0.000000 0.431199 0.000000
# 6 0.000000 0.000000 0.000000 0.000000 0.000000 0.020960
#
#
# Mechanical properties :
#
#
# Convention : Reuss Voigt Hill
#
# Bulk Modulus (GPa) = 37.66578 63.31956 50.49267
# Shear Modulus (GPa) = 6.58158 33.16107 19.87132
#
# Velocity S-wave (km/s) = 1.71785 3.85597 2.98492
# Velocity P-wave (km/s) = 4.56322 6.94373 5.87530
#
# Compressibility (1/GPa) = 0.02654929
#
# Stress axis : x y z
#
# Youngs Moduli (GPa) = 157.62251 123.22859 54.16800
#
# Poissons Ratio (x) = 0.41085 -0.05160
# Poissons Ratio (y) = 0.52552 0.04355
# Poissons Ratio (z) = -0.15014 0.09908
#
# Static dielectric constant tensor:
#      x y z
#    x 1.922540 0.000000 0.000000 
#    y 0.000000 1.767620 0.000000 
#    z 0.000000 0.000000 1.933600 
# 
# From -- ./inp_files/9702.got.cif
#   From: 2010.05.17/outbox.cif.g08.bks.cpg/sg62_5_cif.got.tgz:9702.got - 2010.06.03 15:25:27.
