data_PCOD9461327
_publ_section_title
;
Structure prediction by ZEFSAII (Michael W. Deem and Ramdas Pophale) SiO2 
 PCOD9461327
Probable space group: P N M A
;
_chemical_formula_sum "Si O2"
_cell_formula_units_Z 48
_cell_length_a 18.356003
_cell_length_b 16.324838
_cell_length_c 7.205512
_cell_angle_alpha 90.000000
_cell_angle_beta 90.000000
_cell_angle_gamma 90.000000
_cell_volume 2159.194901
_symmetry_space_group_name_H-M "P N M A"
_symmetry_group_IT_number 62
_symmetry_cell_setting 'orthorhombic'
loop_
_space_group_symop_operation_xyz
x,y,z
1/2-x,-y,1/2+z
1/2+x,1/2-y,1/2-z
-x,1/2+y,-z
-x,-y,-z
1/2+x,y,1/2-z
1/2-x,1/2+y,1/2+z
x,1/2-y,z
loop_
_atom_site_type_symbol
_atom_site_label
_atom_site_fract_x
_atom_site_fract_y
_atom_site_fract_z
Si Si1 0.201849 0.075362 0.245153
Si Si2 0.533690 0.750000 0.280607
Si Si3 0.452283 0.914528 0.279217
Si Si4 0.038504 0.072459 0.232124
Si Si5 0.963781 0.750000 0.812561
Si Si6 0.711850 0.410142 0.694742
Si Si7 0.702739 0.750000 0.175036
Si Si8 0.287352 0.750000 0.712476
O O1 0.119866 0.051473 0.297363
O O2 0.222110 0.164898 0.323341
O O3 0.254207 0.999139 0.272454
O O4 0.201824 0.093902 0.026348
O O5 0.497028 0.835082 0.218384
O O6 0.513052 0.750000 0.501631
O O7 0.617646 0.750000 0.221634
O O8 0.458179 0.920871 0.505616
O O9 0.368716 0.903453 0.224711
O O10 0.484072 0.000972 0.213507
O O11 0.020573 0.165066 0.290343
O O12 0.874675 0.750000 0.850490
O O13 0.762130 0.334159 0.750233
O O14 0.729288 0.750000 0.957717
#
# Coordination Sequence:
#
# PCOD9461327 Si02
#       8
#     8   4   8   8   4   8   4   4
#     4   9  17  31  51  71  94 125 162 197 236 287
#     4  10  16  24  42  66  89 118 157 198 230 268
#     4   9  16  26  42  66  93 117 150 195 238 271
#     4   8  14  26  44  65  89 119 152 190 234 278
#     4   8  14  26  45  68  92 116 154 200 238 274
#     4  10  19  32  49  72  99 127 158 198 242 289
#     4  10  18  28  47  70  95 124 159 196 236 286
#     4   8  16  32  50  68  96 134 160 186 240 306
#
# _framework density 22.230508
#
# number of rings (size 3 to 8) (size 9 to 14) (size 15 to 20)
#    0.000    3.000    0.000    4.500    0.000    1.333 
#    0.000    1.667    0.000   11.000    0.000    2.333 
#    0.000    0.000    0.000    0.000    0.000    0.000 
#
# Total GULP energy -267759.129996 kJ/mol
# GULP energy per Si atom -5578.315208 kJ/mol
# Density = 2.217991 g / cm^3
# Si number density = 22.230508 Si / 1000 Ang^3
#
#
#
# Elastic Constant Matrix: (Units=GPa)
#
#
# Indices 1 2 3 4 5 6 
#
# 1 251.3875 135.5896 47.0168 0.0000 0.0000 0.0000
# 2 135.5896 242.3122 -4.6067 0.0000 0.0000 0.0000
# 3 47.0168 -4.6067 89.5880 0.0000 0.0000 0.0000
# 4 0.0000 0.0000 0.0000 -5.1302 0.0000 0.0000
# 5 0.0000 0.0000 0.0000 0.0000 -4.2267 0.0000
# 6 0.0000 0.0000 0.0000 0.0000 0.0000 49.2333
#
#
#
# Elastic Compliance Matrix: (Units=1/GPa)
#
#
# Indices 1 2 3 4 5 6 
#
# 1 0.006755 -0.003851 -0.003743 0.000000 0.000000 0.000000
# 2 -0.003851 0.006326 0.002346 0.000000 0.000000 0.000000
# 3 -0.003743 0.002346 0.013247 0.000000 0.000000 0.000000
# 4 0.000000 0.000000 0.000000 -0.194925 0.000000 0.000000
# 5 0.000000 0.000000 0.000000 0.000000 -0.236591 0.000000
# 6 0.000000 0.000000 0.000000 0.000000 0.000000 0.020311
#
#
# Mechanical properties :
#
#
# Convention : Reuss Voigt Hill
#
# Bulk Modulus (GPa) = 63.15858 104.36526 83.76192
# Shear Modulus (GPa) = -13.54640 34.99447 10.72404
#
# Velocity S-wave (km/s) = -2.47120 3.97188 2.19875
# Velocity P-wave (km/s) = 4.50888 8.25125 6.64880
#
# Compressibility (1/GPa) = 0.01583316
#
# Stress axis : x y z
#
# Youngs Moduli (GPa) = 148.03451 158.06586 75.48674
#
# Poissons Ratio (x) = 0.60873 0.28256
# Poissons Ratio (y) = 0.57010 -0.17712
# Poissons Ratio (z) = 0.55413 -0.37089
#
# Static dielectric constant tensor:
#      x y z
#    x 1.766690 0.000000 0.000000 
#    y 0.000000 1.869150 0.000000 
#    z 0.000000 0.000000 1.896590 
# 
# From -- ./inp_files/6576.got.cif
#   From: 2010.05.17/outbox.cif.g08.bks.cpg/sg62_4_cif.got.tgz:6576.got - 2010.06.03 15:25:27.
