data_PCOD9461443
_publ_section_title
;
Structure prediction by ZEFSAII (Michael W. Deem and Ramdas Pophale) SiO2 
 PCOD9461443
Probable space group: P N M A
;
_chemical_formula_sum "Si O2"
_cell_formula_units_Z 56
_cell_length_a 12.187142
_cell_length_b 7.267312
_cell_length_c 25.294584
_cell_angle_alpha 90.000000
_cell_angle_beta 90.000000
_cell_angle_gamma 90.000000
_cell_volume 2240.284729
_symmetry_space_group_name_H-M "P N M A"
_symmetry_group_IT_number 62
_symmetry_cell_setting 'orthorhombic'
loop_
_space_group_symop_operation_xyz
x,y,z
1/2-x,-y,1/2+z
1/2+x,1/2-y,1/2-z
-x,1/2+y,-z
-x,-y,-z
1/2+x,y,1/2-z
1/2-x,1/2+y,1/2+z
x,1/2-y,z
loop_
_atom_site_type_symbol
_atom_site_label
_atom_site_fract_x
_atom_site_fract_y
_atom_site_fract_z
Si Si1 0.058505 0.472888 0.733552
Si Si2 0.695952 0.973441 0.262814
Si Si3 0.992517 0.025739 0.619303
Si Si4 0.348338 0.527601 0.030356
Si Si5 0.329223 0.473235 0.617149
Si Si6 0.774076 0.456907 0.585177
Si Si7 0.960610 0.530057 0.059845
O O1 0.057792 0.250000 0.739064
O O2 0.931593 0.529548 0.748494
O O3 0.059609 0.522010 0.671180
O O4 0.179301 0.529357 0.757727
O O5 0.694636 0.750000 0.256580
O O6 0.701389 0.027246 0.324402
O O7 0.991192 0.250000 0.617927
O O8 0.867324 0.960318 0.622062
O O9 0.047366 0.966700 0.564469
O O10 0.349785 0.750000 0.025282
O O11 0.249330 0.473607 0.069212
O O12 0.328643 0.448257 0.972932
O O13 0.326622 0.250000 0.617507
O O14 0.449482 0.535328 0.600869
O O15 0.755618 0.250000 0.605575
O O16 0.657862 0.546106 0.574317
O O17 0.953556 0.750000 0.064368
O O18 0.000000 0.500000 0.000000
#
# Coordination Sequence:
#
# PCOD9461443 Si02
#       7
#     8   8   8   8   8   8   8
#     4   9  16  26  41  61  87 119 152 186 229 279
#     4   9  16  26  41  62  86 116 154 190 226 277
#     4   9  17  29  43  62  90 124 154 185 230 277
#     4  10  17  29  49  65  88 127 160 181 218 278
#     4   9  16  27  43  61  83 119 157 181 218 275
#     4  10  20  30  43  68  97 120 152 197 231 259
#     4  10  19  30  44  63  90 122 154 188 225 268
#
# _framework density 24.996822000000002
#
# number of rings (size 3 to 8) (size 9 to 14) (size 15 to 20)
#    0.000    2.571    2.857    0.429    0.000    1.143 
#    0.000    5.714    0.000    0.000    0.000    0.000 
#    0.000    4.571    0.000    0.000    0.000    0.000 
#
# Total GULP energy -312250.220360 kJ/mol
# GULP energy per Si atom -5575.896792 kJ/mol
# Density = 2.493993 g / cm^3
# Si number density = 24.996822 Si / 1000 Ang^3
#
#
#
# Elastic Constant Matrix: (Units=GPa)
#
#
# Indices 1 2 3 4 5 6 
#
# 1 254.1077 3.7873 30.6778 0.0000 0.0000 0.0000
# 2 3.7873 112.1970 -10.3527 0.0000 0.0000 0.0000
# 3 30.6778 -10.3527 26.2335 0.0000 0.0000 0.0000
# 4 0.0000 0.0000 0.0000 1.6407 0.0000 0.0000
# 5 0.0000 0.0000 0.0000 0.0000 43.3239 0.0000
# 6 0.0000 0.0000 0.0000 0.0000 0.0000 -13.8583
#
#
#
# Elastic Compliance Matrix: (Units=1/GPa)
#
#
# Indices 1 2 3 4 5 6 
#
# 1 0.004632 -0.000681 -0.005685 0.000000 0.000000 0.000000
# 2 -0.000681 0.009350 0.004486 0.000000 0.000000 0.000000
# 3 -0.005685 0.004486 0.046538 0.000000 0.000000 0.000000
# 4 0.000000 0.000000 0.000000 0.609511 0.000000 0.000000
# 5 0.000000 0.000000 0.000000 0.000000 0.023082 0.000000
# 6 0.000000 0.000000 0.000000 0.000000 0.000000 -0.072159
#
#
# Mechanical properties :
#
#
# Convention : Reuss Voigt Hill
#
# Bulk Modulus (GPa) = 17.61821 48.97365 33.29593
# Shear Modulus (GPa) = 7.76839 30.78296 19.27567
#
# Velocity S-wave (km/s) = 1.76479 3.51304 2.77993
# Velocity P-wave (km/s) = 3.34905 6.00748 4.86343
#
# Compressibility (1/GPa) = 0.05675945
#
# Stress axis : x y z
#
# Youngs Moduli (GPa) = 215.89604 106.95389 21.48780
#
# Poissons Ratio (x) = 0.07283 0.12216
# Poissons Ratio (y) = 0.14701 -0.09640
# Poissons Ratio (z) = 1.22743 -0.47981
#
# Static dielectric constant tensor:
#      x y z
#    x 2.087440 0.000000 0.000000 
#    y 0.000000 2.050570 0.000000 
#    z 0.000000 0.000000 1.911200 
# 
# From -- ./inp_files/31169.got.cif
#   From: 2010.05.17/outbox.cif.g08.bks.cpg/sg62_16_cif.got.tgz:31169.got - 2010.06.03 15:25:27.
