data_PCOD9461602
_publ_section_title
;
Structure prediction by ZEFSAII (Michael W. Deem and Ramdas Pophale) SiO2 
 PCOD9461602
Probable space group: P N M A
;
_chemical_formula_sum "Si O2"
_cell_formula_units_Z 56
_cell_length_a 14.112937
_cell_length_b 8.660606
_cell_length_c 30.321381
_cell_angle_alpha 90.000000
_cell_angle_beta 90.000000
_cell_angle_gamma 90.000000
_cell_volume 3706.078909
_symmetry_space_group_name_H-M "P N M A"
_symmetry_group_IT_number 62
_symmetry_cell_setting 'orthorhombic'
loop_
_space_group_symop_operation_xyz
x,y,z
1/2-x,-y,1/2+z
1/2+x,1/2-y,1/2-z
-x,1/2+y,-z
-x,-y,-z
1/2+x,y,1/2-z
1/2-x,1/2+y,1/2+z
x,1/2-y,z
loop_
_atom_site_type_symbol
_atom_site_label
_atom_site_fract_x
_atom_site_fract_y
_atom_site_fract_z
Si Si1 0.390565 0.563420 0.231397
Si Si2 0.609542 0.065566 0.406212
Si Si3 0.394103 0.063896 0.771808
Si Si4 0.705392 0.935557 0.319760
Si Si5 0.893068 0.435191 0.998121
Si Si6 0.287320 0.435221 0.316852
Si Si7 0.611023 0.937622 0.594773
O O1 0.388789 0.750000 0.235192
O O2 0.497624 0.515513 0.221049
O O3 0.311796 0.520546 0.195063
O O4 0.355035 0.495865 0.277782
O O5 0.608758 0.250000 0.408807
O O6 0.499266 0.013287 0.400808
O O7 0.668608 0.011081 0.364253
O O8 0.647824 0.000031 0.452628
O O9 0.388410 0.250000 0.774877
O O10 0.360543 0.022097 0.722174
O O11 0.317500 0.993742 0.804988
O O12 0.701646 0.750000 0.324525
O O13 0.895237 0.250000 0.995891
O O14 0.851993 0.481438 0.045989
O O15 0.000000 0.500000 0.000000
O O16 0.288095 0.250000 0.316344
O O17 0.327181 0.490788 0.363906
O O18 0.610234 0.750000 0.595933
#
# Coordination Sequence:
#
# PCOD9461602 Si02
#       7
#     8   8   8   8   8   8   8
#     4   9  18  32  46  61  86 117 148 180 212 251
#     4  10  18  28  42  62  88 115 143 175 212 254
#     4   9  18  32  46  62  87 117 148 181 215 254
#     4   9  17  28  43  63  84 111 145 175 210 253
#     4   9  16  28  43  60  85 114 143 174 211 254
#     4  10  18  28  44  66  89 113 144 177 213 256
#     4   8  16  28  41  60  87 115 139 168 208 254
#
# _framework density 15.110309000000001
#
# number of rings (size 3 to 8) (size 9 to 14) (size 15 to 20)
#    0.000    2.857    0.000    3.857    0.000    2.857 
#    0.000    7.857    0.000    0.000    0.000    1.000 
#    0.000    0.000    0.000    0.000    0.000    0.000 
#
# Total GULP energy -311886.307555 kJ/mol
# GULP energy per Si atom -5569.398349 kJ/mol
# Density = 1.507592 g / cm^3
# Si number density = 15.110309 Si / 1000 Ang^3
#
#
#
# Elastic Constant Matrix: (Units=GPa)
#
#
# Indices 1 2 3 4 5 6 
#
# 1 102.6413 24.8059 69.6324 0.0000 0.0000 0.0000
# 2 24.8059 23.3018 35.7934 0.0000 0.0000 0.0000
# 3 69.6324 35.7934 159.1660 0.0000 0.0000 0.0000
# 4 0.0000 0.0000 0.0000 24.1987 0.0000 0.0000
# 5 0.0000 0.0000 0.0000 0.0000 22.9678 0.0000
# 6 0.0000 0.0000 0.0000 0.0000 0.0000 17.8769
#
#
#
# Elastic Compliance Matrix: (Units=1/GPa)
#
#
# Indices 1 2 3 4 5 6 
#
# 1 0.014994 -0.008992 -0.004538 0.000000 0.000000 0.000000
# 2 -0.008992 0.070955 -0.012023 0.000000 0.000000 0.000000
# 3 -0.004538 -0.012023 0.010972 0.000000 0.000000 0.000000
# 4 0.000000 0.000000 0.000000 0.041325 0.000000 0.000000
# 5 0.000000 0.000000 0.000000 0.000000 0.043539 0.000000
# 6 0.000000 0.000000 0.000000 0.000000 0.000000 0.055938
#
#
# Mechanical properties :
#
#
# Convention : Reuss Voigt Hill
#
# Bulk Modulus (GPa) = 21.82614 60.61916 41.22265
# Shear Modulus (GPa) = 16.44199 23.33384 19.88791
#
# Velocity S-wave (km/s) = 3.30226 3.93394 3.63186
# Velocity P-wave (km/s) = 5.38663 7.79996 6.70280
#
# Compressibility (1/GPa) = 0.04581663
#
# Stress axis : x y z
#
# Youngs Moduli (GPa) = 66.69302 14.09338 91.14502
#
# Poissons Ratio (x) = 0.12673 0.41357
# Poissons Ratio (y) = 0.59970 1.09581
# Poissons Ratio (z) = 0.30262 0.16944
#
# Static dielectric constant tensor:
#      x y z
#    x 1.498520 0.000000 0.000000 
#    y 0.000000 1.512640 0.000000 
#    z 0.000000 0.000000 1.514320 
# 
# From -- ./inp_files/32645.got.cif
#   From: 2010.05.17/outbox.cif.g08.bks.cpg/sg62_17_cif.got.tgz:32645.got - 2010.06.03 15:25:27.
