data_PCOD9461710
_publ_section_title
;
Structure prediction by ZEFSAII (Michael W. Deem and Ramdas Pophale) SiO2 
 PCOD9461710
Probable space group: P N M A
;
_chemical_formula_sum "Si O2"
_cell_formula_units_Z 48
_cell_length_a 21.443811
_cell_length_b 23.520417
_cell_length_c 4.933596
_cell_angle_alpha 90.000000
_cell_angle_beta 90.000000
_cell_angle_gamma 90.000000
_cell_volume 2488.344873
_symmetry_space_group_name_H-M "P N M A"
_symmetry_group_IT_number 62
_symmetry_cell_setting 'orthorhombic'
loop_
_space_group_symop_operation_xyz
x,y,z
1/2-x,-y,1/2+z
1/2+x,1/2-y,1/2-z
-x,1/2+y,-z
-x,-y,-z
1/2+x,y,1/2-z
1/2-x,1/2+y,1/2+z
x,1/2-y,z
loop_
_atom_site_type_symbol
_atom_site_label
_atom_site_fract_x
_atom_site_fract_y
_atom_site_fract_z
Si Si1 0.934757 0.313027 0.387380
Si Si2 0.002859 0.943643 0.183370
Si Si3 0.117382 0.631829 0.121416
Si Si4 0.323370 0.684691 0.844662
Si Si5 0.237402 0.684354 0.347043
Si Si6 0.552379 0.115905 0.186265
O O1 0.924428 0.250000 0.290142
O O2 0.916029 0.320167 0.697752
O O3 0.005823 0.332356 0.376132
O O4 0.893966 0.354367 0.193899
O O5 0.075280 0.923221 0.195253
O O6 0.970036 0.934422 0.477004
O O7 0.964842 0.900612 0.991425
O O8 0.000000 0.000000 0.000000
O O9 0.187493 0.639625 0.227979
O O10 0.344017 0.750000 0.781131
O O11 0.265797 0.672147 0.641369
O O12 0.377876 0.638609 0.829171
O O13 0.295560 0.684477 0.144413
O O14 0.212356 0.750000 0.348453
#
# Coordination Sequence:
#
# PCOD9461710 Si02
#       6
#     8   8   8   8   8   8
#     4  10  18  29  48  74 105 133 164 212 263 315
#     4  10  21  37  57  78 100 133 178 233 282 311
#     4  10  20  32  50  76 103 137 177 216 263 315
#     4  10  20  33  51  77 111 147 174 202 250 319
#     4  10  19  31  49  74 108 144 173 203 247 314
#     4  10  20  34  53  77 103 134 174 216 264 320
#
# _framework density 19.289932
#
# number of rings (size 3 to 8) (size 9 to 14) (size 15 to 20)
#    0.000    2.000    0.000    4.500    0.000    1.333 
#    0.000    5.000    0.000    4.000    0.000    0.000 
#    0.000    0.000    0.000    0.000    0.000    0.000 
#
# Total GULP energy -267298.789303 kJ/mol
# GULP energy per Si atom -5568.724777 kJ/mol
# Density = 1.924603 g / cm^3
# Si number density = 19.289932 Si / 1000 Ang^3
#
#
#
# Elastic Constant Matrix: (Units=GPa)
#
#
# Indices 1 2 3 4 5 6 
#
# 1 70.4411 20.7205 -8.5432 0.0000 0.0000 0.0000
# 2 20.7205 32.2520 -4.6871 0.0000 0.0000 0.0000
# 3 -8.5432 -4.6871 77.1983 0.0000 0.0000 0.0000
# 4 0.0000 0.0000 0.0000 21.2172 0.0000 0.0000
# 5 0.0000 0.0000 0.0000 0.0000 17.6341 0.0000
# 6 0.0000 0.0000 0.0000 0.0000 0.0000 19.8285
#
#
#
# Elastic Compliance Matrix: (Units=1/GPa)
#
#
# Indices 1 2 3 4 5 6 
#
# 1 0.017628 -0.011140 0.001274 0.000000 0.000000 0.000000
# 2 -0.011140 0.038322 0.001094 0.000000 0.000000 0.000000
# 3 0.001274 0.001094 0.013161 0.000000 0.000000 0.000000
# 4 0.000000 0.000000 0.000000 0.047131 0.000000 0.000000
# 5 0.000000 0.000000 0.000000 0.000000 0.056708 0.000000
# 6 0.000000 0.000000 0.000000 0.000000 0.000000 0.050432
#
#
# Mechanical properties :
#
#
# Convention : Reuss Voigt Hill
#
# Bulk Modulus (GPa) = 19.39206 21.65241 20.52224
# Shear Modulus (GPa) = 19.37126 23.22940 21.30033
#
# Velocity S-wave (km/s) = 3.17237 3.47396 3.32659
# Velocity P-wave (km/s) = 4.84700 5.22879 5.04151
#
# Compressibility (1/GPa) = 0.05156749
#
# Stress axis : x y z
#
# Youngs Moduli (GPa) = 56.72919 26.09496 75.98140
#
# Poissons Ratio (x) = 0.29069 -0.09683
# Poissons Ratio (y) = 0.63195 -0.08312
# Poissons Ratio (z) = -0.07230 -0.02855
#
# Static dielectric constant tensor:
#      x y z
#    x 1.700130 0.000000 0.000000 
#    y 0.000000 1.699870 0.000000 
#    z 0.000000 0.000000 1.666380 
# 
# From -- ./inp_files/1713.got.cif
#   From: 2010.05.17/outbox.cif.g08.bks.cpg/sg62_1_cif.got.tgz:1713.got - 2010.06.03 15:25:27.
