data_PCOD9461863
_publ_section_title
;
Structure prediction by ZEFSAII (Michael W. Deem and Ramdas Pophale) SiO2 
 PCOD9461863
Probable space group: P N M A
;
_chemical_formula_sum "Si O2"
_cell_formula_units_Z 48
_cell_length_a 24.177457
_cell_length_b 8.649713
_cell_length_c 14.260025
_cell_angle_alpha 90.000000
_cell_angle_beta 90.000000
_cell_angle_gamma 90.000000
_cell_volume 2982.171423
_symmetry_space_group_name_H-M "P N M A"
_symmetry_group_IT_number 62
_symmetry_cell_setting 'orthorhombic'
loop_
_space_group_symop_operation_xyz
x,y,z
1/2-x,-y,1/2+z
1/2+x,1/2-y,1/2-z
-x,1/2+y,-z
-x,-y,-z
1/2+x,y,1/2-z
1/2-x,1/2+y,1/2+z
x,1/2-y,z
loop_
_atom_site_type_symbol
_atom_site_label
_atom_site_fract_x
_atom_site_fract_y
_atom_site_fract_z
Si Si1 0.227464 0.937420 0.103540
Si Si2 0.227710 0.936229 0.890388
Si Si3 0.163718 0.435585 0.717787
Si Si4 0.665069 0.935798 0.213630
Si Si5 0.436013 0.064876 0.103011
Si Si6 0.564049 0.064949 0.103338
O O1 0.227358 0.750000 0.101433
O O2 0.287088 0.983464 0.145805
O O3 0.182034 0.984168 0.180728
O O4 0.219024 0.989752 0.997347
O O5 0.228143 0.750000 0.887786
O O6 0.181979 0.998890 0.818304
O O7 0.286534 0.997840 0.852788
O O8 0.163001 0.250000 0.721570
O O9 0.106297 0.498183 0.678473
O O10 0.666601 0.750000 0.208889
O O11 0.606664 0.996495 0.177696
O O12 0.432005 0.250000 0.100263
O O13 0.500051 0.022762 0.122376
O O14 0.421939 0.998466 0.000214
O O15 0.568541 0.250000 0.102016
#
# Coordination Sequence:
#
# PCOD9461863 Si02
#       6
#     8   8   8   8   8   8
#     4   8  17  31  47  68  95 126 157 194 236 280
#     4  10  18  31  50  71  97 129 163 198 240 285
#     4  10  19  32  49  72 101 128 158 198 243 288
#     4  10  19  32  49  71  98 128 163 199 240 288
#     4  10  20  33  50  72  97 128 163 196 237 291
#     4  10  20  33  49  72 100 127 158 199 244 288
#
# _framework density 16.095654
#
# number of rings (size 3 to 8) (size 9 to 14) (size 15 to 20)
#    0.000    2.333    0.000    4.500    0.000    3.333 
#    0.000    9.167    0.000    1.000    0.000    0.000 
#    0.000    0.000    0.000    0.000    0.000    0.000 
#
# Total GULP energy -267769.970765 kJ/mol
# GULP energy per Si atom -5578.541058 kJ/mol
# Density = 1.605902 g / cm^3
# Si number density = 16.095654 Si / 1000 Ang^3
#
#
#
# Elastic Constant Matrix: (Units=GPa)
#
#
# Indices 1 2 3 4 5 6 
#
# 1 89.4892 32.3385 77.8194 0.0000 0.0000 0.0000
# 2 32.3385 51.3577 37.0525 0.0000 0.0000 0.0000
# 3 77.8194 37.0525 156.6518 0.0000 0.0000 0.0000
# 4 0.0000 0.0000 0.0000 25.3215 0.0000 0.0000
# 5 0.0000 0.0000 0.0000 0.0000 24.5847 0.0000
# 6 0.0000 0.0000 0.0000 0.0000 0.0000 27.8787
#
#
#
# Elastic Compliance Matrix: (Units=1/GPa)
#
#
# Indices 1 2 3 4 5 6 
#
# 1 0.021610 -0.007069 -0.009063 0.000000 0.000000 0.000000
# 2 -0.007069 0.025790 -0.002589 0.000000 0.000000 0.000000
# 3 -0.009063 -0.002589 0.011498 0.000000 0.000000 0.000000
# 4 0.000000 0.000000 0.000000 0.039492 0.000000 0.000000
# 5 0.000000 0.000000 0.000000 0.000000 0.040676 0.000000
# 6 0.000000 0.000000 0.000000 0.000000 0.000000 0.035870
#
#
# Mechanical properties :
#
#
# Convention : Reuss Voigt Hill
#
# Bulk Modulus (GPa) = 46.60424 65.76885 56.18655
# Shear Modulus (GPa) = 22.77598 25.57617 24.17607
#
# Velocity S-wave (km/s) = 3.76578 3.99056 3.87980
# Velocity P-wave (km/s) = 6.92283 7.88560 7.41985
#
# Compressibility (1/GPa) = 0.02145727
#
# Stress axis : x y z
#
# Youngs Moduli (GPa) = 46.27405 38.77512 86.96971
#
# Poissons Ratio (x) = 0.27409 0.78824
# Poissons Ratio (y) = 0.32709 0.22513
# Poissons Ratio (z) = 0.41940 0.10037
#
# Static dielectric constant tensor:
#      x y z
#    x 1.525880 0.000000 0.000000 
#    y 0.000000 1.541490 0.000000 
#    z 0.000000 0.000000 1.531150 
# 
# From -- ./inp_files/20041.got.cif
#   From: 2010.05.17/outbox.cif.g08.bks.cpg/sg62_11_cif.got.tgz:20041.got - 2010.06.03 15:25:27.
