data_PCOD9461487
_publ_section_title
;
Structure prediction by ZEFSAII (Michael W. Deem and Ramdas Pophale) SiO2 
 PCOD9461487
Probable space group: P N M A
;
_chemical_formula_sum "Si O2"
_cell_formula_units_Z 64
_cell_length_a 12.067003
_cell_length_b 7.458818
_cell_length_c 32.054020
_cell_angle_alpha 90.000000
_cell_angle_beta 90.000000
_cell_angle_gamma 90.000000
_cell_volume 2885.040635
_symmetry_space_group_name_H-M "P N M A"
_symmetry_group_IT_number 62
_symmetry_cell_setting 'orthorhombic'
loop_
_space_group_symop_operation_xyz
x,y,z
1/2-x,-y,1/2+z
1/2+x,1/2-y,1/2-z
-x,1/2+y,-z
-x,-y,-z
1/2+x,y,1/2-z
1/2-x,1/2+y,1/2+z
x,1/2-y,z
loop_
_atom_site_type_symbol
_atom_site_label
_atom_site_fract_x
_atom_site_fract_y
_atom_site_fract_z
Si Si1 0.762791 0.541860 0.045053
Si Si2 0.996162 0.533473 0.932753
Si Si3 0.902852 0.033057 0.376875
Si Si4 0.208515 0.958731 0.789202
Si Si5 0.339259 0.042227 0.869984
Si Si6 0.758184 0.969374 0.802999
Si Si7 0.004002 0.030738 0.162810
Si Si8 0.746869 0.969668 0.954897
O O1 0.729299 0.750000 0.046341
O O2 0.721406 0.462367 0.088988
O O3 0.896326 0.532630 0.042689
O O4 0.716370 0.468350 0.001495
O O5 0.997965 0.750000 0.934902
O O6 0.012838 0.476639 0.884860
O O7 0.873651 0.474651 0.945949
O O8 0.902624 0.250000 0.377255
O O9 0.837370 0.975599 0.335257
O O10 0.834699 0.973745 0.417833
O O11 0.029650 0.973991 0.376215
O O12 0.185217 0.750000 0.781132
O O13 0.241925 0.033090 0.744309
O O14 0.095961 0.034884 0.808605
O O15 0.299618 0.965184 0.825789
O O16 0.307364 0.250000 0.867354
O O17 0.759684 0.750000 0.803241
O O18 0.876793 0.026033 0.820726
O O19 0.002606 0.250000 0.162662
O O20 0.746954 0.750000 0.954784
#
# Coordination Sequence:
#
# PCOD9461487 Si02
#       8
#     8   8   8   8   8   8   8   8
#     4  10  21  36  53  76 110 147 180 215 265 323
#     4  10  17  31  56  83 110 135 170 220 270 317
#     4  10  20  37  60  82 105 138 182 229 273 319
#     4  10  20  34  58  85 108 137 177 220 266 319
#     4  11  24  39  52  73 111 151 183 221 264 313
#     4   9  18  32  56  88 111 132 171 226 276 314
#     4   9  16  29  52  84 113 132 163 219 274 315
#     4   9  18  34  57  83 108 138 175 222 275 322
#
# _framework density 22.183398
#
# number of rings (size 3 to 8) (size 9 to 14) (size 15 to 20)
#    0.000    2.250    2.500    0.750    1.750    1.000 
#    0.000    1.875    0.000    1.500    0.000    0.000 
#    0.000    0.000    0.000    0.000    0.000    0.000 
#
# Total GULP energy -357535.661972 kJ/mol
# GULP energy per Si atom -5586.494718 kJ/mol
# Density = 2.213291 g / cm^3
# Si number density = 22.183398 Si / 1000 Ang^3
#
#
#
# Elastic Constant Matrix: (Units=GPa)
#
#
# Indices 1 2 3 4 5 6 
#
# 1 104.8574 -12.6545 26.7197 0.0000 0.0000 0.0000
# 2 -12.6545 64.1812 2.8524 0.0000 0.0000 0.0000
# 3 26.7197 2.8524 116.9372 0.0000 0.0000 0.0000
# 4 0.0000 0.0000 0.0000 -10.2609 0.0000 0.0000
# 5 0.0000 0.0000 0.0000 0.0000 7.5847 0.0000
# 6 0.0000 0.0000 0.0000 0.0000 0.0000 -6.9785
#
#
#
# Elastic Compliance Matrix: (Units=1/GPa)
#
#
# Indices 1 2 3 4 5 6 
#
# 1 0.010418 0.002162 -0.002433 0.000000 0.000000 0.000000
# 2 0.002162 0.016047 -0.000885 0.000000 0.000000 0.000000
# 3 -0.002433 -0.000885 0.009129 0.000000 0.000000 0.000000
# 4 0.000000 0.000000 0.000000 -0.097458 0.000000 0.000000
# 5 0.000000 0.000000 0.000000 0.000000 0.131844 0.000000
# 6 0.000000 0.000000 0.000000 0.000000 0.000000 -0.143298
#
#
# Mechanical properties :
#
#
# Convention : Reuss Voigt Hill
#
# Bulk Modulus (GPa) = 30.04757 35.53455 32.79106
# Shear Modulus (GPa) = -83.45496 16.00631 -33.72433
#
# Velocity S-wave (km/s) = -6.14021 2.68907 -3.90327
# Velocity P-wave (km/s) = 6.05764 5.06900 2.34523
#
# Compressibility (1/GPa) = 0.03328056
#
# Stress axis : x y z
#
# Youngs Moduli (GPa) = 95.99037 62.31872 109.53903
#
# Poissons Ratio (x) = -0.13474 0.26652
# Poissons Ratio (y) = -0.20755 0.09699
# Poissons Ratio (z) = 0.23356 0.05518
#
# Static dielectric constant tensor:
#      x y z
#    x 1.757880 0.000000 0.000000 
#    y 0.000000 1.850700 0.000000 
#    z 0.000000 0.000000 1.821070 
# 
# From -- ./inp_files/32619.got.cif
#   From: 2010.05.17/outbox.cif.g08.bks.cpg/sg62_17_cif.got.tgz:32619.got - 2010.06.03 15:25:27.
