data_PCOD9461847
_publ_section_title
;
Structure prediction by ZEFSAII (Michael W. Deem and Ramdas Pophale) SiO2 
 PCOD9461847
Probable space group: P N M A
;
_chemical_formula_sum "Si O2"
_cell_formula_units_Z 52
_cell_length_a 14.855008
_cell_length_b 7.982349
_cell_length_c 23.049946
_cell_angle_alpha 90.000000
_cell_angle_beta 90.000000
_cell_angle_gamma 90.000000
_cell_volume 2733.213230
_symmetry_space_group_name_H-M "P N M A"
_symmetry_group_IT_number 62
_symmetry_cell_setting 'orthorhombic'
loop_
_space_group_symop_operation_xyz
x,y,z
1/2-x,-y,1/2+z
1/2+x,1/2-y,1/2-z
-x,1/2+y,-z
-x,-y,-z
1/2+x,y,1/2-z
1/2-x,1/2+y,1/2+z
x,1/2-y,z
loop_
_atom_site_type_symbol
_atom_site_label
_atom_site_fract_x
_atom_site_fract_y
_atom_site_fract_z
Si Si1 0.626938 0.250000 0.761023
Si Si2 0.440027 0.548377 0.944234
Si Si3 0.434947 0.444920 0.159173
Si Si4 0.437441 0.938923 0.447680
Si Si5 0.683599 0.750000 0.316252
Si Si6 0.755887 0.444620 0.019950
Si Si7 0.492574 0.750000 0.343357
Si Si8 0.737599 0.434004 0.392144
O O1 0.586662 0.416955 0.791999
O O2 0.734858 0.250000 0.770583
O O3 0.596533 0.250000 0.694819
O O4 0.440020 0.750000 0.941738
O O5 0.486339 0.495109 0.884091
O O6 0.337099 0.490880 0.952653
O O7 0.500000 0.500000 0.000000
O O8 0.450491 0.250000 0.178627
O O9 0.344622 0.439472 0.120033
O O10 0.408004 0.750000 0.462380
O O11 0.490766 0.908416 0.387604
O O12 0.500000 0.000000 0.500000
O O13 0.345812 0.041496 0.441947
O O14 0.578382 0.750000 0.301307
O O15 0.697839 0.585858 0.355616
O O16 0.741016 0.250000 0.004993
O O17 0.776540 0.536410 0.959845
O O18 0.704301 0.250000 0.374556
#
# Coordination Sequence:
#
# PCOD9461847 Si02
#       8
#     4   8   8   8   4   8   4   8
#     4  10  22  42  66  88 116 162 211 258 305 349
#     4  10  20  30  49  83 128 162 202 252 306 376
#     4   9  19  36  55  86 121 161 209 256 294 358
#     4  10  22  39  61  84 121 149 197 257 313 375
#     4  10  20  40  66  82 122 154 203 265 290 352
#     4  11  20  32  52  84 127 164 192 240 320 366
#     4  10  24  44  62  94 120 158 214 253 309 385
#     4  10  18  30  57  88 117 160 205 242 294 365
#
# _framework density 19.025226
#
# number of rings (size 3 to 8) (size 9 to 14) (size 15 to 20)
#    0.462    1.538    2.308    1.846    1.077    0.615 
#    2.769    3.077    0.000    0.000    0.000    0.000 
#    0.000    0.000    0.000    0.000    0.000    0.000 
#
# Total GULP energy -289684.883069 kJ/mol
# GULP energy per Si atom -5570.863136 kJ/mol
# Density = 1.898192 g / cm^3
# Si number density = 19.025226 Si / 1000 Ang^3
#
#
#
# Elastic Constant Matrix: (Units=GPa)
#
#
# Indices 1 2 3 4 5 6 
#
# 1 107.8755 4.3728 22.8175 0.0000 0.0000 0.0000
# 2 4.3728 72.3909 6.7434 0.0000 0.0000 0.0000
# 3 22.8175 6.7434 52.9584 0.0000 0.0000 0.0000
# 4 0.0000 0.0000 0.0000 13.8887 0.0000 0.0000
# 5 0.0000 0.0000 0.0000 0.0000 20.6371 0.0000
# 6 0.0000 0.0000 0.0000 0.0000 0.0000 15.1513
#
#
#
# Elastic Compliance Matrix: (Units=1/GPa)
#
#
# Indices 1 2 3 4 5 6 
#
# 1 0.010203 -0.000209 -0.004369 0.000000 0.000000 0.000000
# 2 -0.000209 0.013984 -0.001690 0.000000 0.000000 0.000000
# 3 -0.004369 -0.001690 0.020981 0.000000 0.000000 0.000000
# 4 0.000000 0.000000 0.000000 0.072001 0.000000 0.000000
# 5 0.000000 0.000000 0.000000 0.000000 0.048456 0.000000
# 6 0.000000 0.000000 0.000000 0.000000 0.000000 0.066001
#
#
# Mechanical properties :
#
#
# Convention : Reuss Voigt Hill
#
# Bulk Modulus (GPa) = 30.64740 33.45467 32.05103
# Shear Modulus (GPa) = 19.60477 23.22149 21.41313
#
# Velocity S-wave (km/s) = 3.21356 3.49745 3.35851
# Velocity P-wave (km/s) = 5.46929 5.82512 5.65001
#
# Compressibility (1/GPa) = 0.03262920
#
# Stress axis : x y z
#
# Youngs Moduli (GPa) = 98.01425 71.51025 47.66330
#
# Poissons Ratio (x) = 0.01497 0.20825
# Poissons Ratio (y) = 0.02051 0.08057
# Poissons Ratio (z) = 0.42825 0.12088
#
# Static dielectric constant tensor:
#      x y z
#    x 1.698070 0.000000 0.000000 
#    y 0.000000 1.744740 0.000000 
#    z 0.000000 0.000000 1.634610 
# 
# From -- ./inp_files/27040.got.cif
#   From: 2010.05.17/outbox.cif.g08.bks.cpg/sg62_14_cif.got.tgz:27040.got - 2010.06.03 15:25:27.
