data_PCOD9461074
_publ_section_title
;
Structure prediction by ZEFSAII (Michael W. Deem and Ramdas Pophale) SiO2 
 PCOD9461074
Probable space group: P B C A
;
_chemical_formula_sum "Si O2"
_cell_formula_units_Z 56
_cell_length_a 8.678304
_cell_length_b 13.547455
_cell_length_c 21.100912
_cell_angle_alpha 90.000000
_cell_angle_beta 90.000000
_cell_angle_gamma 90.000000
_cell_volume 2480.811707
_symmetry_space_group_name_H-M "P B C A"
_symmetry_group_IT_number 61
_symmetry_cell_setting 'orthorhombic'
loop_
_space_group_symop_operation_xyz
x,y,z
1/2-x,-y,1/2+z
1/2+x,1/2-y,-z
-x,1/2+y,1/2-z
-x,-y,-z
1/2+x,y,1/2-z
1/2-x,1/2+y,z
x,1/2-y,1/2+z
loop_
_atom_site_type_symbol
_atom_site_label
_atom_site_fract_x
_atom_site_fract_y
_atom_site_fract_z
Si Si1 0.167351 0.183932 0.197382
Si Si2 0.368721 0.043868 0.677908
Si Si3 0.867043 0.186158 0.422269
Si Si4 0.204607 0.205284 0.469150
Si Si5 0.319104 0.540846 0.554243
Si Si6 0.182387 0.145654 0.783308
Si Si7 0.565969 0.820241 0.120254
O O1 0.317454 0.189631 0.151331
O O2 0.189908 0.238490 0.264308
O O3 0.039143 0.250219 0.163220
O O4 0.116134 0.070463 0.197849
O O5 0.319988 0.051380 0.604664
O O6 0.230167 0.088316 0.719568
O O7 0.519095 0.107011 0.693382
O O8 0.737511 0.242663 0.463143
O O9 0.037111 0.224842 0.439124
O O10 0.859597 0.073505 0.445638
O O11 0.220174 0.090006 0.487028
O O12 0.335438 0.249932 0.425231
O O13 0.463191 0.602213 0.581931
O O14 0.312746 0.124651 0.834831
#
# Coordination Sequence:
#
# PCOD9461074 Si02
#       7
#     8   8   8   8   8   8   8
#     4  11  25  48  68 102 140 180 231 295 340 420
#     4  11  25  44  72  97 136 181 234 280 361 406
#     4  11  24  46  76  99 142 184 231 290 349 407
#     4  12  24  43  71 104 136 187 224 286 342 414
#     4  11  24  49  68 100 141 183 229 294 339 415
#     4  12  25  46  67 101 137 184 223 298 337 428
#     4  12  26  42  70 100 143 180 234 276 357 402
#
# _framework density 22.573257000000002
#
# number of rings (size 3 to 8) (size 9 to 14) (size 15 to 20)
#    0.000    0.571    5.714    0.429    6.000    1.143 
#    2.571    2.143    0.000    0.000    0.000    0.000 
#    0.000    0.000    0.000    0.000    0.000    0.000 
#
# Total GULP energy -313532.535222 kJ/mol
# GULP energy per Si atom -5598.795272 kJ/mol
# Density = 2.252188 g / cm^3
# Si number density = 22.573257 Si / 1000 Ang^3
#
#
#
# Elastic Constant Matrix: (Units=GPa)
#
#
# Indices 1 2 3 4 5 6 
#
# 1 105.3326 49.5125 6.8052 0.0000 0.0000 0.0000
# 2 49.5125 113.0070 6.2857 0.0000 0.0000 0.0000
# 3 6.8052 6.2857 20.5907 0.0000 0.0000 0.0000
# 4 0.0000 0.0000 0.0000 25.5061 0.0000 0.0000
# 5 0.0000 0.0000 0.0000 0.0000 45.3436 0.0000
# 6 0.0000 0.0000 0.0000 0.0000 0.0000 21.8939
#
#
#
# Elastic Compliance Matrix: (Units=1/GPa)
#
#
# Indices 1 2 3 4 5 6 
#
# 1 0.012073 -0.005155 -0.002416 0.000000 0.000000 0.000000
# 2 -0.005155 0.011203 -0.001716 0.000000 0.000000 0.000000
# 3 -0.002416 -0.001716 0.049888 0.000000 0.000000 0.000000
# 4 0.000000 0.000000 0.000000 0.039206 0.000000 0.000000
# 5 0.000000 0.000000 0.000000 0.000000 0.022054 0.000000
# 6 0.000000 0.000000 0.000000 0.000000 0.000000 0.045675
#
#
# Mechanical properties :
#
#
# Convention : Reuss Voigt Hill
#
# Bulk Modulus (GPa) = 18.31883 40.45968 29.38925
# Shear Modulus (GPa) = 23.05515 30.30385 26.67950
#
# Velocity S-wave (km/s) = 3.19932 3.66794 3.44162
# Velocity P-wave (km/s) = 4.66695 5.99175 5.37036
#
# Compressibility (1/GPa) = 0.05458864
#
# Stress axis : x y z
#
# Youngs Moduli (GPa) = 82.82853 89.26039 20.04488
#
# Poissons Ratio (x) = 0.46016 0.04844
# Poissons Ratio (y) = 0.42700 0.03440
# Poissons Ratio (z) = 0.20015 0.15319
#
# Static dielectric constant tensor:
#      x y z
#    x 1.812570 0.000000 0.000000 
#    y 0.000000 1.844200 0.000000 
#    z 0.000000 0.000000 1.899090 
# 
# From -- ./inp_files/10111.got.cif
#   From: 2010.05.17/outbox.cif.g08.bks.cpg/sg61_6_cif.got.tgz:10111.got - 2010.06.03 15:17:17.
