data_PCOD9461913
_publ_section_title
;
Structure prediction by ZEFSAII (Michael W. Deem and Ramdas Pophale) SiO2 
 PCOD9461913
Probable space group: P N M A
;
_chemical_formula_sum "Si O2"
_cell_formula_units_Z 64
_cell_length_a 8.721987
_cell_length_b 13.427748
_cell_length_c 27.249531
_cell_angle_alpha 90.000000
_cell_angle_beta 90.000000
_cell_angle_gamma 90.000000
_cell_volume 3191.373608
_symmetry_space_group_name_H-M "P N M A"
_symmetry_group_IT_number 62
_symmetry_cell_setting 'orthorhombic'
loop_
_space_group_symop_operation_xyz
x,y,z
1/2-x,-y,1/2+z
1/2+x,1/2-y,1/2-z
-x,1/2+y,-z
-x,-y,-z
1/2+x,y,1/2-z
1/2-x,1/2+y,1/2+z
x,1/2-y,z
loop_
_atom_site_type_symbol
_atom_site_label
_atom_site_fract_x
_atom_site_fract_y
_atom_site_fract_z
Si Si1 0.137172 0.359741 0.398508
Si Si2 0.502283 0.529049 0.818007
Si Si3 0.693337 0.479519 0.550541
Si Si4 0.073757 0.638487 0.181821
Si Si5 0.847710 0.134722 0.465797
Si Si6 0.713352 0.443685 0.738552
Si Si7 0.598846 0.862889 0.470074
Si Si8 0.765953 0.965657 0.393972
O O1 0.210366 0.250000 0.399336
O O2 0.240585 0.458383 0.404047
O O3 0.038522 0.372097 0.348634
O O4 0.021010 0.365810 0.445042
O O5 0.625192 0.523758 0.773609
O O6 0.346422 0.490003 0.794391
O O7 0.580929 0.463324 0.861399
O O8 0.818518 0.420536 0.517394
O O9 0.554221 0.402689 0.556982
O O10 0.625729 0.567632 0.516603
O O11 0.072607 0.750000 0.160503
O O12 0.200733 0.631712 0.224804
O O13 0.129384 0.554458 0.143981
O O14 0.912961 0.610639 0.205868
O O15 0.798214 0.250000 0.468062
O O16 0.758850 0.068183 0.424844
O O17 0.581586 0.750000 0.484125
O O18 0.743541 0.880937 0.434550
#
# Coordination Sequence:
#
# PCOD9461913 Si02
#       8
#     8   8   8   8   8   8   8   8
#     4  10  20  35  57  83 113 148 189 238 289 344
#     4   9  19  37  57  81 111 146 186 230 287 338
#     4  10  20  33  55  80 111 154 193 241 280 340
#     4  10  18  31  52  78 108 143 183 226 281 341
#     4   9  18  35  57  80 111 151 192 234 287 339
#     4   9  19  34  56  77 107 148 183 228 285 341
#     4  10  20  34  51  77 114 153 192 237 286 336
#     4   9  19  33  53  80 111 151 183 234 283 332
#
# _framework density 20.05406
#
# number of rings (size 3 to 8) (size 9 to 14) (size 15 to 20)
#    0.000    2.500    0.000    1.875    1.750    0.000 
#    0.000    3.125    0.000   21.750    0.000    0.000 
#    0.000    0.000    0.000    0.000    0.000    0.000 
#
# Total GULP energy -356415.700250 kJ/mol
# GULP energy per Si atom -5568.995316 kJ/mol
# Density = 2.000842 g / cm^3
# Si number density = 20.054060 Si / 1000 Ang^3
#
#
#
# Elastic Constant Matrix: (Units=GPa)
#
#
# Indices 1 2 3 4 5 6 
#
# 1 62.5882 12.8451 15.5395 0.0000 0.0000 0.0000
# 2 12.8451 100.0629 17.4265 0.0000 0.0000 0.0000
# 3 15.5395 17.4265 53.9523 0.0000 0.0000 0.0000
# 4 0.0000 0.0000 0.0000 9.6016 0.0000 0.0000
# 5 0.0000 0.0000 0.0000 0.0000 35.5576 0.0000
# 6 0.0000 0.0000 0.0000 0.0000 0.0000 14.9764
#
#
#
# Elastic Compliance Matrix: (Units=1/GPa)
#
#
# Indices 1 2 3 4 5 6 
#
# 1 0.017402 -0.001442 -0.004546 0.000000 0.000000 0.000000
# 2 -0.001442 0.010709 -0.003044 0.000000 0.000000 0.000000
# 3 -0.004546 -0.003044 0.020827 0.000000 0.000000 0.000000
# 4 0.000000 0.000000 0.000000 0.104149 0.000000 0.000000
# 5 0.000000 0.000000 0.000000 0.000000 0.028123 0.000000
# 6 0.000000 0.000000 0.000000 0.000000 0.000000 0.066772
#
#
# Mechanical properties :
#
#
# Convention : Reuss Voigt Hill
#
# Bulk Modulus (GPa) = 32.38945 34.24729 33.31837
# Shear Modulus (GPa) = 18.09374 23.41328 20.75351
#
# Velocity S-wave (km/s) = 3.00700 3.42059 3.22044
# Velocity P-wave (km/s) = 5.31434 5.71971 5.52075
#
# Compressibility (1/GPa) = 0.03087425
#
# Stress axis : x y z
#
# Youngs Moduli (GPa) = 57.46395 93.38027 48.01357
#
# Poissons Ratio (x) = 0.13467 0.21829
# Poissons Ratio (y) = 0.08287 0.14613
# Poissons Ratio (z) = 0.26126 0.28421
#
# Static dielectric constant tensor:
#      x y z
#    x 1.767830 0.000000 0.000000 
#    y 0.000000 1.694730 0.000000 
#    z 0.000000 0.000000 1.763210 
# 
# From -- ./inp_files/32229.got.cif
#   From: 2010.05.17/outbox.cif.g08.bks.cpg/sg62_17_cif.got.tgz:32229.got - 2010.06.03 15:25:27.
