data_PCOD9461506
_publ_section_title
;
Structure prediction by ZEFSAII (Michael W. Deem and Ramdas Pophale) SiO2 
 PCOD9461506
Probable space group: P N M A
;
_chemical_formula_sum "Si O2"
_cell_formula_units_Z 56
_cell_length_a 14.663584
_cell_length_b 20.106626
_cell_length_c 8.500568
_cell_angle_alpha 90.000000
_cell_angle_beta 90.000000
_cell_angle_gamma 90.000000
_cell_volume 2506.266661
_symmetry_space_group_name_H-M "P N M A"
_symmetry_group_IT_number 62
_symmetry_cell_setting 'orthorhombic'
loop_
_space_group_symop_operation_xyz
x,y,z
1/2-x,-y,1/2+z
1/2+x,1/2-y,1/2-z
-x,1/2+y,-z
-x,-y,-z
1/2+x,y,1/2-z
1/2-x,1/2+y,1/2+z
x,1/2-y,z
loop_
_atom_site_type_symbol
_atom_site_label
_atom_site_fract_x
_atom_site_fract_y
_atom_site_fract_z
Si Si1 0.049115 0.124089 0.467199
Si Si2 0.437140 0.556200 0.626452
Si Si3 0.779574 0.820244 0.400696
Si Si4 0.298872 0.055849 0.695411
Si Si5 0.354983 0.119577 0.011968
Si Si6 0.898353 0.509431 0.280778
Si Si7 0.839739 0.674442 0.033405
O O1 0.063558 0.090247 0.299364
O O2 0.131041 0.173963 0.495790
O O3 0.950263 0.158113 0.475439
O O4 0.060012 0.065376 0.600725
O O5 0.352712 0.505597 0.627744
O O6 0.530956 0.512680 0.645637
O O7 0.414266 0.617658 0.508997
O O8 0.731027 0.750000 0.421577
O O9 0.720858 0.886101 0.429766
O O10 0.815812 0.823707 0.219908
O O11 0.201390 0.034755 0.767203
O O12 0.351955 0.090782 0.835837
O O13 0.372917 0.056157 0.121154
O O14 0.258667 0.154962 0.042972
O O15 0.866518 0.750000 0.988653
#
# Coordination Sequence:
#
# PCOD9461506 Si02
#       7
#     8   8   8   8   8   8   8
#     4  10  19  33  60  87 112 141 192 242 281 328
#     4  11  19  34  61  86 113 143 186 242 282 331
#     4   9  21  37  53  78 115 151 186 228 278 338
#     4  10  18  32  58  83 114 142 184 232 282 323
#     4  10  17  33  56  83 111 147 187 231 278 338
#     4  10  18  32  54  91 115 140 182 235 290 331
#     4  10  22  38  55  78 115 156 186 227 288 345
#
# _framework density 22.343990000000002
#
# number of rings (size 3 to 8) (size 9 to 14) (size 15 to 20)
#    0.000    2.000    4.286    0.857    0.000    1.143 
#    0.000   10.000    0.000    0.000    0.000    0.000 
#    0.000    0.000    0.000    0.000    0.000    0.000 
#
# Total GULP energy -312487.731794 kJ/mol
# GULP energy per Si atom -5580.138068 kJ/mol
# Density = 2.229313 g / cm^3
# Si number density = 22.343990 Si / 1000 Ang^3
#
#
#
# Elastic Constant Matrix: (Units=GPa)
#
#
# Indices 1 2 3 4 5 6 
#
# 1 83.7338 25.6884 -6.2062 0.0000 0.0000 0.0000
# 2 25.6884 117.6831 -15.6040 0.0000 0.0000 0.0000
# 3 -6.2062 -15.6040 12.5725 0.0000 0.0000 0.0000
# 4 0.0000 0.0000 0.0000 12.9812 0.0000 0.0000
# 5 0.0000 0.0000 0.0000 0.0000 25.3063 0.0000
# 6 0.0000 0.0000 0.0000 0.0000 0.0000 5.5916
#
#
#
# Elastic Compliance Matrix: (Units=1/GPa)
#
#
# Indices 1 2 3 4 5 6 
#
# 1 0.012923 -0.002364 0.003445 0.000000 0.000000 0.000000
# 2 -0.002364 0.010604 0.011993 0.000000 0.000000 0.000000
# 3 0.003445 0.011993 0.096124 0.000000 0.000000 0.000000
# 4 0.000000 0.000000 0.000000 0.077034 0.000000 0.000000
# 5 0.000000 0.000000 0.000000 0.000000 0.039516 0.000000
# 6 0.000000 0.000000 0.000000 0.000000 0.000000 0.178839
#
#
# Mechanical properties :
#
#
# Convention : Reuss Voigt Hill
#
# Bulk Modulus (GPa) = 6.85869 24.63843 15.74856
# Shear Modulus (GPa) = 11.42879 22.78325 17.10602
#
# Velocity S-wave (km/s) = 2.26407 3.19667 2.76991
# Velocity P-wave (km/s) = 3.14817 4.96747 4.15853
#
# Compressibility (1/GPa) = 0.14580037
#
# Stress axis : x y z
#
# Youngs Moduli (GPa) = 77.37992 94.30679 10.40318
#
# Poissons Ratio (x) = 0.22295 -0.03584
# Poissons Ratio (y) = 0.18294 -0.12477
# Poissons Ratio (z) = -0.26659 -1.13106
#
# Static dielectric constant tensor:
#      x y z
#    x 1.863610 0.000000 0.000000 
#    y 0.000000 1.872690 0.000000 
#    z 0.000000 0.000000 1.864830 
# 
# From -- ./inp_files/6796.got.cif
#   From: 2010.05.17/outbox.cif.g08.bks.cpg/sg62_4_cif.got.tgz:6796.got - 2010.06.03 15:25:27.
