data_PCOD9461442
_publ_section_title
;
Structure prediction by ZEFSAII (Michael W. Deem and Ramdas Pophale) SiO2 
 PCOD9461442
Probable space group: P N M A
;
_chemical_formula_sum "Si O2"
_cell_formula_units_Z 64
_cell_length_a 19.185931
_cell_length_b 13.837688
_cell_length_c 10.448105
_cell_angle_alpha 90.000000
_cell_angle_beta 90.000000
_cell_angle_gamma 90.000000
_cell_volume 2773.856187
_symmetry_space_group_name_H-M "P N M A"
_symmetry_group_IT_number 62
_symmetry_cell_setting 'orthorhombic'
loop_
_space_group_symop_operation_xyz
x,y,z
1/2-x,-y,1/2+z
1/2+x,1/2-y,1/2-z
-x,1/2+y,-z
-x,-y,-z
1/2+x,y,1/2-z
1/2-x,1/2+y,1/2+z
x,1/2-y,z
loop_
_atom_site_type_symbol
_atom_site_label
_atom_site_fract_x
_atom_site_fract_y
_atom_site_fract_z
Si Si1 0.124949 0.135712 0.893102
Si Si2 0.459292 0.367979 0.220968
Si Si3 0.857034 0.143839 0.817867
Si Si4 0.090776 0.358975 0.421230
Si Si5 0.838470 0.931113 0.820298
Si Si6 0.811310 0.458515 0.236602
Si Si7 0.767137 0.638314 0.499141
Si Si8 0.987155 0.360213 0.996414
O O1 0.138277 0.250000 0.874495
O O2 0.167175 0.067228 0.799212
O O3 0.139375 0.101150 0.038955
O O4 0.042427 0.111021 0.888270
O O5 0.458666 0.250000 0.219917
O O6 0.514493 0.400316 0.112505
O O7 0.380379 0.404739 0.214898
O O8 0.486455 0.402725 0.361585
O O9 0.869367 0.250000 0.754726
O O10 0.863846 0.035753 0.763956
O O11 0.779162 0.143488 0.872976
O O12 0.910704 0.139416 0.937028
O O13 0.078195 0.250000 0.469692
O O14 0.129526 0.358533 0.282761
O O15 0.153799 0.402240 0.506698
O O16 0.754870 0.939168 0.826069
O O17 0.779998 0.416034 0.103251
O O18 0.773840 0.750000 0.541311
O O19 0.008125 0.250000 0.019717
#
# Coordination Sequence:
#
# PCOD9461442 Si02
#       8
#     8   8   8   8   8   8   8   8
#     4  11  22  36  53  77 112 145 173 215 267 321
#     4  10  17  29  48  75 106 132 168 217 265 315
#     4  10  19  32  52  75 102 133 169 216 260 309
#     4   9  18  29  47  74 101 132 168 207 256 311
#     4  11  21  33  51  76 105 141 182 209 255 323
#     4  11  22  32  50  78 107 141 174 215 265 314
#     4   9  16  30  48  71  99 129 166 212 258 303
#     4   9  17  29  48  76 102 130 164 200 263 326
#
# _framework density 23.072572000000001
#
# number of rings (size 3 to 8) (size 9 to 14) (size 15 to 20)
#    0.000    2.000    3.750    0.750    1.750    3.000 
#    0.000    0.000    0.000    0.750    0.000    0.000 
#    0.000    0.000    0.000    0.000    0.000    0.000 
#
# Total GULP energy -356474.823080 kJ/mol
# GULP energy per Si atom -5569.919111 kJ/mol
# Density = 2.302006 g / cm^3
# Si number density = 23.072572 Si / 1000 Ang^3
#
#
#
# Elastic Constant Matrix: (Units=GPa)
#
#
# Indices 1 2 3 4 5 6 
#
# 1 88.8290 13.6767 -6.7747 0.0000 0.0000 0.0000
# 2 13.6767 128.9709 2.8697 0.0000 0.0000 0.0000
# 3 -6.7747 2.8697 14.0460 0.0000 0.0000 0.0000
# 4 0.0000 0.0000 0.0000 14.0823 0.0000 0.0000
# 5 0.0000 0.0000 0.0000 0.0000 22.1713 0.0000
# 6 0.0000 0.0000 0.0000 0.0000 0.0000 13.5648
#
#
#
# Elastic Compliance Matrix: (Units=1/GPa)
#
#
# Indices 1 2 3 4 5 6 
#
# 1 0.011934 -0.001400 0.006042 0.000000 0.000000 0.000000
# 2 -0.001400 0.007953 -0.002300 0.000000 0.000000 0.000000
# 3 0.006042 -0.002300 0.074579 0.000000 0.000000 0.000000
# 4 0.000000 0.000000 0.000000 0.071011 0.000000 0.000000
# 5 0.000000 0.000000 0.000000 0.000000 0.045103 0.000000
# 6 0.000000 0.000000 0.000000 0.000000 0.000000 0.073720
#
#
# Mechanical properties :
#
#
# Convention : Reuss Voigt Hill
#
# Bulk Modulus (GPa) = 10.08574 27.93214 19.00894
# Shear Modulus (GPa) = 15.99145 24.76862 20.38003
#
# Velocity S-wave (km/s) = 2.63552 3.28000 2.97526
# Velocity P-wave (km/s) = 3.69352 5.14558 4.47879
#
# Compressibility (1/GPa) = 0.09914992
#
# Stress axis : x y z
#
# Youngs Moduli (GPa) = 83.79463 125.73360 13.40863
#
# Poissons Ratio (x) = 0.17602 -0.08102
# Poissons Ratio (y) = 0.11731 0.03084
# Poissons Ratio (z) = -0.50629 0.28921
#
# Static dielectric constant tensor:
#      x y z
#    x 1.932900 0.000000 0.000000 
#    y 0.000000 1.958160 0.000000 
#    z 0.000000 0.000000 1.855310 
# 
# From -- ./inp_files/19977.got.cif
#   From: 2010.05.17/outbox.cif.g08.bks.cpg/sg62_10_cif.got.tgz:19977.got - 2010.06.03 15:25:27.
