data_PCOD9461666
_publ_section_title
;
Structure prediction by ZEFSAII (Michael W. Deem and Ramdas Pophale) SiO2 
 PCOD9461666
Probable space group: P N M A
;
_chemical_formula_sum "Si O2"
_cell_formula_units_Z 56
_cell_length_a 14.199143
_cell_length_b 8.315309
_cell_length_c 30.329637
_cell_angle_alpha 90.000000
_cell_angle_beta 90.000000
_cell_angle_gamma 90.000000
_cell_volume 3581.028174
_symmetry_space_group_name_H-M "P N M A"
_symmetry_group_IT_number 62
_symmetry_cell_setting 'orthorhombic'
loop_
_space_group_symop_operation_xyz
x,y,z
1/2-x,-y,1/2+z
1/2+x,1/2-y,1/2-z
-x,1/2+y,-z
-x,-y,-z
1/2+x,y,1/2-z
1/2-x,1/2+y,1/2+z
x,1/2-y,z
loop_
_atom_site_type_symbol
_atom_site_label
_atom_site_fract_x
_atom_site_fract_y
_atom_site_fract_z
Si Si1 0.115439 0.555367 0.770683
Si Si2 0.105110 0.058209 0.402705
Si Si3 0.198577 0.939496 0.314166
Si Si4 0.114140 0.946193 0.593429
Si Si5 0.403868 0.942946 0.727600
Si Si6 0.717915 0.946276 0.819194
Si Si7 0.108236 0.557260 0.496928
O O1 0.115806 0.750000 0.771991
O O2 0.195105 0.495162 0.804014
O O3 0.150005 0.508410 0.721527
O O4 0.009687 0.496303 0.779229
O O5 0.104923 0.250000 0.398558
O O6 0.995215 0.003471 0.400708
O O7 0.162734 0.986166 0.362358
O O8 0.144612 0.012260 0.450904
O O9 0.192595 0.750000 0.308124
O O10 0.133080 0.019935 0.276726
O O11 0.113415 0.750000 0.594104
O O12 0.176940 0.002315 0.634273
O O13 0.149166 0.993512 0.544524
O O14 0.407180 0.750000 0.723310
O O15 0.322559 0.001809 0.694319
O O16 0.719339 0.750000 0.820293
O O17 0.111006 0.750000 0.494387
O O18 0.000000 0.500000 0.500000
#
# Coordination Sequence:
#
# PCOD9461666 Si02
#       7
#     8   8   8   8   8   8   8
#     4   9  17  30  46  63  86 117 151 182 211 251
#     4  10  18  29  44  61  85 118 152 184 218 260
#     4  11  21  30  43  65  91 117 146 181 223 267
#     4   8  14  24  41  64  89 114 139 172 214 260
#     4   9  17  30  48  66  86 115 150 184 214 253
#     4   8  13  23  41  64  85 108 141 174 206 249
#     4   9  16  26  40  61  88 117 146 177 218 264
#
# _framework density 15.637966
#
# number of rings (size 3 to 8) (size 9 to 14) (size 15 to 20)
#    0.000    2.857    0.000    4.714    0.000    2.857 
#    0.000    0.000    0.000   11.143    0.000    1.000 
#    0.000    0.000    0.000    0.000    0.000    0.000 
#
# Total GULP energy -311878.315177 kJ/mol
# GULP energy per Si atom -5569.255628 kJ/mol
# Density = 1.560237 g / cm^3
# Si number density = 15.637966 Si / 1000 Ang^3
#
#
#
# Elastic Constant Matrix: (Units=GPa)
#
#
# Indices 1 2 3 4 5 6 
#
# 1 100.1311 4.3857 56.9573 0.0000 0.0000 0.0000
# 2 4.3857 -0.8035 -10.0916 0.0000 0.0000 0.0000
# 3 56.9573 -10.0916 120.2356 0.0000 0.0000 0.0000
# 4 0.0000 0.0000 0.0000 20.0242 0.0000 0.0000
# 5 0.0000 0.0000 0.0000 0.0000 23.8842 0.0000
# 6 0.0000 0.0000 0.0000 0.0000 0.0000 6.6467
#
#
#
# Elastic Compliance Matrix: (Units=1/GPa)
#
#
# Indices 1 2 3 4 5 6 
#
# 1 0.008061 0.044768 -0.000061 0.000000 0.000000 0.000000
# 2 0.044768 -0.357261 -0.051193 0.000000 0.000000 0.000000
# 3 -0.000061 -0.051193 0.004049 0.000000 0.000000 0.000000
# 4 0.000000 0.000000 0.000000 0.049940 0.000000 0.000000
# 5 0.000000 0.000000 0.000000 0.000000 0.041869 0.000000
# 6 0.000000 0.000000 0.000000 0.000000 0.000000 0.150451
#
#
# Mechanical properties :
#
#
# Convention : Reuss Voigt Hill
#
# Bulk Modulus (GPa) = -2.79234 35.78513 16.49639
# Shear Modulus (GPa) = -23.88980 21.33179 -1.27900
#
# Velocity S-wave (km/s) = -3.91279 3.69738 -0.90535
# Velocity P-wave (km/s) = 4.71198 6.41566 3.07879
#
# Compressibility (1/GPa) = -0.35812281
#
# Stress axis : x y z
#
# Youngs Moduli (GPa) = 124.05690 -2.79907 246.95951
#
# Poissons Ratio (x) = 0.12531 0.01508
# Poissons Ratio (y) = -5.55376 12.64252
# Poissons Ratio (z) = 0.00758 -0.14329
#
# Static dielectric constant tensor:
#      x y z
#    x 1.516370 0.000000 0.000000 
#    y 0.000000 1.537530 0.000000 
#    z 0.000000 0.000000 1.532770 
# 
# From -- ./inp_files/32660.got.cif
#   From: 2010.05.17/outbox.cif.g08.bks.cpg/sg62_17_cif.got.tgz:32660.got - 2010.06.03 15:25:27.
