data_PCOD9461473
_publ_section_title
;
Structure prediction by ZEFSAII (Michael W. Deem and Ramdas Pophale) SiO2 
 PCOD9461473
Probable space group: P N M A
;
_chemical_formula_sum "Si O2"
_cell_formula_units_Z 48
_cell_length_a 11.479660
_cell_length_b 13.211163
_cell_length_c 14.394515
_cell_angle_alpha 90.000000
_cell_angle_beta 90.000000
_cell_angle_gamma 90.000000
_cell_volume 2183.067243
_symmetry_space_group_name_H-M "P N M A"
_symmetry_group_IT_number 62
_symmetry_cell_setting 'orthorhombic'
loop_
_space_group_symop_operation_xyz
x,y,z
1/2-x,-y,1/2+z
1/2+x,1/2-y,1/2-z
-x,1/2+y,-z
-x,-y,-z
1/2+x,y,1/2-z
1/2-x,1/2+y,1/2+z
x,1/2-y,z
loop_
_atom_site_type_symbol
_atom_site_label
_atom_site_fract_x
_atom_site_fract_y
_atom_site_fract_z
Si Si1 0.000340 0.634603 0.057552
Si Si2 0.741562 0.132994 0.020848
Si Si3 0.375648 0.983418 0.120841
Si Si4 0.025273 0.365832 0.287673
Si Si5 0.175966 0.365266 0.112152
Si Si6 0.649051 0.982629 0.679503
O O1 0.984231 0.750000 0.091765
O O2 0.943493 0.552818 0.125203
O O3 0.136550 0.620035 0.036090
O O4 0.929057 0.626223 0.961075
O O5 0.737303 0.250000 0.050269
O O6 0.635833 0.106107 0.951969
O O7 0.755493 0.057363 0.107786
O O8 0.494617 0.045477 0.139211
O O9 0.281824 0.064470 0.084571
O O10 0.328339 0.956903 0.224600
O O11 0.029740 0.250000 0.320769
O O12 0.913341 0.381474 0.219543
O O13 0.130407 0.385731 0.216408
O O14 0.216203 0.250000 0.110526
#
# Coordination Sequence:
#
# PCOD9461473 Si02
#       6
#     8   8   8   8   8   8
#     4  10  18  30  53  79 103 130 166 219 277 316
#     4  11  20  33  53  78 106 138 175 219 267 315
#     4  10  21  30  50  77 107 136 169 209 264 312
#     4   9  18  31  48  75 104 129 165 213 257 306
#     4  10  17  30  53  80 104 127 164 217 270 310
#     4  10  19  31  48  75 107 133 167 213 255 310
#
# _framework density 21.987411999999999
#
# number of rings (size 3 to 8) (size 9 to 14) (size 15 to 20)
#    1.000    1.000    3.333    2.500    0.000    0.667 
#    0.000    0.000    0.000    1.000    0.000    0.000 
#    0.000    0.000    0.000    0.000    0.000    0.000 
#
# Total GULP energy -267615.350841 kJ/mol
# GULP energy per Si atom -5575.319809 kJ/mol
# Density = 2.193737 g / cm^3
# Si number density = 21.987412 Si / 1000 Ang^3
#
#
#
# Elastic Constant Matrix: (Units=GPa)
#
#
# Indices 1 2 3 4 5 6 
#
# 1 48.9655 19.2098 17.1191 0.0000 0.0000 0.0000
# 2 19.2098 82.3718 30.1568 0.0000 0.0000 0.0000
# 3 17.1191 30.1568 103.1993 0.0000 0.0000 0.0000
# 4 0.0000 0.0000 0.0000 16.9295 0.0000 0.0000
# 5 0.0000 0.0000 0.0000 0.0000 40.7465 0.0000
# 6 0.0000 0.0000 0.0000 0.0000 0.0000 7.5398
#
#
#
# Elastic Compliance Matrix: (Units=1/GPa)
#
#
# Indices 1 2 3 4 5 6 
#
# 1 0.023051 -0.004452 -0.002523 0.000000 0.000000 0.000000
# 2 -0.004452 0.014454 -0.003485 0.000000 0.000000 0.000000
# 3 -0.002523 -0.003485 0.011127 0.000000 0.000000 0.000000
# 4 0.000000 0.000000 0.000000 0.059068 0.000000 0.000000
# 5 0.000000 0.000000 0.000000 0.000000 0.024542 0.000000
# 6 0.000000 0.000000 0.000000 0.000000 0.000000 0.132629
#
#
# Mechanical properties :
#
#
# Convention : Reuss Voigt Hill
#
# Bulk Modulus (GPa) = 36.08545 40.83424 38.45984
# Shear Modulus (GPa) = 16.94743 24.24656 20.59700
#
# Velocity S-wave (km/s) = 2.77930 3.32437 3.06398
# Velocity P-wave (km/s) = 5.17174 5.77470 5.48152
#
# Compressibility (1/GPa) = 0.02771200
#
# Stress axis : x y z
#
# Youngs Moduli (GPa) = 43.38166 69.18336 89.87186
#
# Poissons Ratio (x) = 0.30801 0.22673
# Poissons Ratio (y) = 0.19314 0.31323
# Poissons Ratio (z) = 0.10944 0.24112
#
# Static dielectric constant tensor:
#      x y z
#    x 1.851120 0.000000 0.000000 
#    y 0.000000 1.817050 0.000000 
#    z 0.000000 0.000000 1.866520 
# 
# From -- ./inp_files/14193.got.cif
#   From: 2010.05.17/outbox.cif.g08.bks.cpg/sg62_8_cif.got.tgz:14193.got - 2010.06.03 15:25:27.
