data_PCOD9461984
_publ_section_title
;
Structure prediction by ZEFSAII (Michael W. Deem and Ramdas Pophale) SiO2 
 PCOD9461984
Probable space group: P N M A
;
_chemical_formula_sum "Si O2"
_cell_formula_units_Z 52
_cell_length_a 7.550346
_cell_length_b 11.207551
_cell_length_c 28.823282
_cell_angle_alpha 90.000000
_cell_angle_beta 90.000000
_cell_angle_gamma 90.000000
_cell_volume 2439.051714
_symmetry_space_group_name_H-M "P N M A"
_symmetry_group_IT_number 62
_symmetry_cell_setting 'orthorhombic'
loop_
_space_group_symop_operation_xyz
x,y,z
1/2-x,-y,1/2+z
1/2+x,1/2-y,1/2-z
-x,1/2+y,-z
-x,-y,-z
1/2+x,y,1/2-z
1/2-x,1/2+y,1/2+z
x,1/2-y,z
loop_
_atom_site_type_symbol
_atom_site_label
_atom_site_fract_x
_atom_site_fract_y
_atom_site_fract_z
Si Si1 0.841612 0.492622 0.063680
Si Si2 0.153654 0.605514 0.789668
Si Si3 0.763988 0.984939 0.952828
Si Si4 0.562107 0.106773 0.133935
Si Si5 0.256186 0.750000 0.036007
Si Si6 0.766089 0.895660 0.813654
Si Si7 0.854428 0.750000 0.053504
Si Si8 0.072759 0.750000 0.528639
O O1 0.043518 0.447609 0.066698
O O2 0.690392 0.430579 0.092432
O O3 0.848495 0.628764 0.081218
O O4 0.793670 0.499720 0.008908
O O5 0.145411 0.750000 0.789368
O O6 0.320876 0.573430 0.820796
O O7 0.182723 0.571557 0.736295
O O8 0.969316 0.563459 0.812189
O O9 0.708032 0.120979 0.939648
O O10 0.632263 0.873286 0.947403
O O11 0.551268 0.250000 0.131898
O O12 0.364470 0.060323 0.145803
O O13 0.044456 0.750000 0.027110
O O14 0.373654 0.750000 0.989687
O O15 0.768607 0.750000 0.816167
O O16 0.692454 0.750000 0.017997
#
# Coordination Sequence:
#
# PCOD9461984 Si02
#       8
#     8   8   8   8   4   8   4   4
#     4   9  18  33  52  69  96 129 170 205 255 289
#     4   9  15  26  43  65  96 131 160 182 226 297
#     4   9  19  32  52  71  97 136 171 211 256 305
#     4  10  19  27  45  73 100 128 153 198 245 286
#     4  10  18  32  52  74  92 126 173 209 255 305
#     4   9  15  26  43  65  96 131 160 182 226 297
#     4   8  18  36  50  66  90 126 170 208 232 302
#     4  10  18  32  52  74  92 126 173 209 255 305
#
# _framework density 21.319761
#
# number of rings (size 3 to 8) (size 9 to 14) (size 15 to 20)
#    0.000    2.769    1.538    1.385    2.154    0.000 
#    0.000    7.692    0.000    0.000    0.000    1.077 
#    0.000    0.000    0.000    0.000    0.000    0.000 
#
# Total GULP energy -290119.651156 kJ/mol
# GULP energy per Si atom -5579.224061 kJ/mol
# Density = 2.127124 g / cm^3
# Si number density = 21.319761 Si / 1000 Ang^3
#
#
#
# Elastic Constant Matrix: (Units=GPa)
#
#
# Indices 1 2 3 4 5 6 
#
# 1 95.4112 29.0039 2.9093 0.0000 0.0000 0.0000
# 2 29.0039 73.8488 -9.1641 0.0000 0.0000 0.0000
# 3 2.9093 -9.1641 36.7282 0.0000 0.0000 0.0000
# 4 0.0000 0.0000 0.0000 8.6179 0.0000 0.0000
# 5 0.0000 0.0000 0.0000 0.0000 20.1829 0.0000
# 6 0.0000 0.0000 0.0000 0.0000 0.0000 21.0995
#
#
#
# Elastic Compliance Matrix: (Units=1/GPa)
#
#
# Indices 1 2 3 4 5 6 
#
# 1 0.012073 -0.005016 -0.002208 0.000000 0.000000 0.000000
# 2 -0.005016 0.016058 0.004404 0.000000 0.000000 0.000000
# 3 -0.002208 0.004404 0.028501 0.000000 0.000000 0.000000
# 4 0.000000 0.000000 0.000000 0.116038 0.000000 0.000000
# 5 0.000000 0.000000 0.000000 0.000000 0.049547 0.000000
# 6 0.000000 0.000000 0.000000 0.000000 0.000000 0.047395
#
#
# Mechanical properties :
#
#
# Convention : Reuss Voigt Hill
#
# Bulk Modulus (GPa) = 19.61086 27.94294 23.77690
# Shear Modulus (GPa) = 17.10881 22.19598 19.65239
#
# Velocity S-wave (km/s) = 2.83589 3.23011 3.03940
# Velocity P-wave (km/s) = 4.46559 5.20063 4.84706
#
# Compressibility (1/GPa) = 0.05099215
#
# Stress axis : x y z
#
# Youngs Moduli (GPa) = 82.82976 62.27605 35.08683
#
# Poissons Ratio (x) = 0.31235 0.07746
# Poissons Ratio (y) = 0.41544 -0.15452
# Poissons Ratio (z) = 0.18287 -0.27425
#
# Static dielectric constant tensor:
#      x y z
#    x 1.821440 0.000000 0.000000 
#    y 0.000000 1.796020 0.000000 
#    z 0.000000 0.000000 1.842440 
# 
# From -- ./inp_files/30831.got.cif
#   From: 2010.05.17/outbox.cif.g08.bks.cpg/sg62_16_cif.got.tgz:30831.got - 2010.06.03 15:25:27.
