data_PCOD9461661
_publ_section_title
;
Structure prediction by ZEFSAII (Michael W. Deem and Ramdas Pophale) SiO2 
 PCOD9461661
Probable space group: P N M A
;
_chemical_formula_sum "Si O2"
_cell_formula_units_Z 28
_cell_length_a 13.832188
_cell_length_b 5.563202
_cell_length_c 13.566991
_cell_angle_alpha 90.000000
_cell_angle_beta 90.000000
_cell_angle_gamma 90.000000
_cell_volume 1043.996997
_symmetry_space_group_name_H-M "P N M A"
_symmetry_group_IT_number 62
_symmetry_cell_setting 'orthorhombic'
loop_
_space_group_symop_operation_xyz
x,y,z
1/2-x,-y,1/2+z
1/2+x,1/2-y,1/2-z
-x,1/2+y,-z
-x,-y,-z
1/2+x,y,1/2-z
1/2-x,1/2+y,1/2+z
x,1/2-y,z
loop_
_atom_site_type_symbol
_atom_site_label
_atom_site_fract_x
_atom_site_fract_y
_atom_site_fract_z
Si Si1 0.963560 0.750000 0.233820
Si Si2 0.745268 0.250000 0.458340
Si Si3 0.255570 0.750000 0.780941
Si Si4 0.960089 0.250000 0.135956
Si Si5 0.040750 0.750000 0.456441
Si Si6 0.225393 0.750000 0.263285
Si Si7 0.144490 0.750000 0.042639
O O1 0.997053 0.503542 0.178933
O O2 0.844363 0.750000 0.241477
O O3 0.006886 0.750000 0.342690
O O4 0.752511 0.250000 0.338474
O O5 0.849567 0.250000 0.505687
O O6 0.690158 0.492550 0.489101
O O7 0.149719 0.750000 0.825705
O O8 0.304029 0.501893 0.810634
O O9 0.955912 0.250000 0.017932
O O10 0.000000 0.500000 0.500000
O O11 0.177346 0.750000 0.156290
#
# Coordination Sequence:
#
# PCOD9461661 Si02
#       7
#     4   4   4   4   4   4   4
#     4  10  19  30  43  64  89 119 152 184 218 262
#     4  10  19  30  43  64  89 119 152 184 218 262
#     4   8  14  25  38  54  78 106 137 171 206 243
#     4  10  18  29  43  60  85 119 151 184 225 264
#     4  12  20  30  48  68  92 126 162 188 214 266
#     4   8  14  25  38  54  78 106 137 171 206 243
#     4  10  18  29  43  60  85 119 151 184 225 264
#
# _framework density 26.820001000000001
#
# number of rings (size 3 to 8) (size 9 to 14) (size 15 to 20)
#    0.000    2.286    0.000    7.714    0.000    0.000 
#    0.000    0.000    0.000    0.000    0.000    0.000 
#    0.000    0.000    0.000  231.429    0.000    7.714 
#
# Total GULP energy -156693.482900 kJ/mol
# GULP energy per Si atom -5596.195818 kJ/mol
# Density = 2.675896 g / cm^3
# Si number density = 26.820001 Si / 1000 Ang^3
#
#
#
# Elastic Constant Matrix: (Units=GPa)
#
#
# Indices 1 2 3 4 5 6 
#
# 1 107.4235 43.5439 1.5637 0.0000 0.0000 0.0000
# 2 43.5439 312.9555 40.9241 0.0000 0.0000 0.0000
# 3 1.5637 40.9241 139.0315 0.0000 0.0000 0.0000
# 4 0.0000 0.0000 0.0000 34.7941 0.0000 0.0000
# 5 0.0000 0.0000 0.0000 0.0000 36.3689 0.0000
# 6 0.0000 0.0000 0.0000 0.0000 0.0000 44.9630
#
#
#
# Elastic Compliance Matrix: (Units=1/GPa)
#
#
# Indices 1 2 3 4 5 6 
#
# 1 0.009878 -0.001414 0.000305 0.000000 0.000000 0.000000
# 2 -0.001414 0.003526 -0.001022 0.000000 0.000000 0.000000
# 3 0.000305 -0.001022 0.007490 0.000000 0.000000 0.000000
# 4 0.000000 0.000000 0.000000 0.028741 0.000000 0.000000
# 5 0.000000 0.000000 0.000000 0.000000 0.027496 0.000000
# 6 0.000000 0.000000 0.000000 0.000000 0.000000 0.022241
#
#
# Mechanical properties :
#
#
# Convention : Reuss Voigt Hill
#
# Bulk Modulus (GPa) = 60.12668 81.27486 70.70077
# Shear Modulus (GPa) = 45.79743 54.78377 50.29060
#
# Velocity S-wave (km/s) = 4.13678 4.52447 4.33496
# Velocity P-wave (km/s) = 6.72938 7.59368 7.17456
#
# Compressibility (1/GPa) = 0.01663155
#
# Stress axis : x y z
#
# Youngs Moduli (GPa) = 101.23729 283.62732 133.51168
#
# Poissons Ratio (x) = 0.40113 -0.04075
# Poissons Ratio (y) = 0.14318 0.13644
# Poissons Ratio (z) = -0.03090 0.28984
#
# Static dielectric constant tensor:
#      x y z
#    x 2.102680 0.000000 0.000000 
#    y 0.000000 2.077620 0.000000 
#    z 0.000000 0.000000 2.113320 
# 
# From -- ./inp_files/18381.got.cif
#   From: 2010.05.17/outbox.cif.g08.bks.cpg/sg62_10_cif.got.tgz:18381.got - 2010.06.03 15:25:27.
