data_PCOD9461031
_publ_section_title
;
Structure prediction by ZEFSAII (Michael W. Deem and Ramdas Pophale) SiO2 
 PCOD9461031
Probable space group: P B C A
;
_chemical_formula_sum "Si O2"
_cell_formula_units_Z 40
_cell_length_a 10.268030
_cell_length_b 7.261028
_cell_length_c 16.094572
_cell_angle_alpha 90.000000
_cell_angle_beta 90.000000
_cell_angle_gamma 90.000000
_cell_volume 1199.954206
_symmetry_space_group_name_H-M "P B C A"
_symmetry_group_IT_number 61
_symmetry_cell_setting 'orthorhombic'
loop_
_space_group_symop_operation_xyz
x,y,z
1/2-x,-y,1/2+z
1/2+x,1/2-y,-z
-x,1/2+y,1/2-z
-x,-y,-z
1/2+x,y,1/2-z
1/2-x,1/2+y,z
x,1/2-y,1/2+z
loop_
_atom_site_type_symbol
_atom_site_label
_atom_site_fract_x
_atom_site_fract_y
_atom_site_fract_z
Si Si1 0.919555 0.786779 0.428335
Si Si2 0.248506 0.749048 0.447652
Si Si3 0.756997 0.505890 0.175081
Si Si4 0.926161 0.275172 0.930460
Si Si5 0.512047 0.140591 0.751805
O O1 0.864162 0.988550 0.234323
O O2 0.924236 0.006279 0.425133
O O3 0.746205 0.756879 0.442784
O O4 0.940561 0.734627 0.331695
O O5 0.254588 0.495697 0.429039
O O6 0.411079 0.760170 0.466525
O O7 0.084223 0.734753 0.461576
O O8 0.746186 0.242132 0.156958
O O9 0.898469 0.481666 0.209385
O O10 0.953664 0.191180 0.839594
#
# Coordination Sequence:
#
# PCOD9461031 Si02
#       5
#     8   8   8   8   8
#     4  11  23  47  75 107 160 210 257 334 398 474
#     4  12  24  52  76 115 157 217 260 336 406 482
#     4  12  28  46  82 111 164 208 276 324 412 473
#     4  11  24  47  76 107 156 210 262 327 402 476
#     4  12  27  49  76 121 153 217 266 336 393 487
#
# _framework density 33.334608000000003
#
# number of rings (size 3 to 8) (size 9 to 14) (size 15 to 20)
#    0.000    0.400    6.000    2.400    2.800    0.800 
#    3.600    0.000    0.000    0.000    0.000    0.000 
#    0.000    0.000    0.000    0.000    0.000    0.000 
#
# Total GULP energy -223673.952174 kJ/mol
# GULP energy per Si atom -5591.848804 kJ/mol
# Density = 3.325874 g / cm^3
# Si number density = 33.334608 Si / 1000 Ang^3
#
#
#
# Elastic Constant Matrix: (Units=GPa)
#
#
# Indices 1 2 3 4 5 6 
#
# 1 379.1861 97.5604 177.7530 0.0000 0.0000 0.0000
# 2 97.5604 142.5909 104.8888 0.0000 0.0000 0.0000
# 3 177.7530 104.8888 365.0198 0.0000 0.0000 0.0000
# 4 0.0000 0.0000 0.0000 92.1958 0.0000 0.0000
# 5 0.0000 0.0000 0.0000 0.0000 112.1531 0.0000
# 6 0.0000 0.0000 0.0000 0.0000 0.0000 93.6827
#
#
#
# Elastic Compliance Matrix: (Units=1/GPa)
#
#
# Indices 1 2 3 4 5 6 
#
# 1 0.003657 -0.001512 -0.001347 0.000000 0.000000 0.000000
# 2 -0.001512 0.009518 -0.001999 0.000000 0.000000 0.000000
# 3 -0.001347 -0.001999 0.003970 0.000000 0.000000 0.000000
# 4 0.000000 0.000000 0.000000 0.010846 0.000000 0.000000
# 5 0.000000 0.000000 0.000000 0.000000 0.008916 0.000000
# 6 0.000000 0.000000 0.000000 0.000000 0.000000 0.010674
#
#
# Mechanical properties :
#
#
# Convention : Reuss Voigt Hill
#
# Bulk Modulus (GPa) = 134.58101 183.02237 158.80169
# Shear Modulus (GPa) = 83.64941 93.37930 88.51435
#
# Velocity S-wave (km/s) = 5.01481 5.29845 5.15858
# Velocity P-wave (km/s) = 8.60183 9.61536 9.12268
#
# Compressibility (1/GPa) = 0.00743047
#
# Stress axis : x y z
#
# Youngs Moduli (GPa) = 273.41181 105.06732 251.90972
#
# Poissons Ratio (x) = 0.15885 0.33923
# Poissons Ratio (y) = 0.41336 0.50349
# Poissons Ratio (z) = 0.36819 0.21000
#
# Static dielectric constant tensor:
#      x y z
#    x 2.911190 0.000000 0.000000 
#    y 0.000000 3.609300 0.000000 
#    z 0.000000 0.000000 2.389980 
# 
# From -- ./inp_files/7355.got.cif
#   From: 2010.05.17/outbox.cif.g08.bks.cpg/sg61_4_cif.got.tgz:7355.got - 2010.06.03 15:17:17.
