data_PCOD9461245
_publ_section_title
;
Structure prediction by ZEFSAII (Michael W. Deem and Ramdas Pophale) SiO2 
 PCOD9461245
Probable space group: P B C A
;
_chemical_formula_sum "Si O2"
_cell_formula_units_Z 32
_cell_length_a 15.205647
_cell_length_b 9.004898
_cell_length_c 9.334652
_cell_angle_alpha 90.000000
_cell_angle_beta 90.000000
_cell_angle_gamma 90.000000
_cell_volume 1278.150028
_symmetry_space_group_name_H-M "P B C A"
_symmetry_group_IT_number 61
_symmetry_cell_setting 'orthorhombic'
loop_
_space_group_symop_operation_xyz
x,y,z
1/2-x,-y,1/2+z
1/2+x,1/2-y,-z
-x,1/2+y,1/2-z
-x,-y,-z
1/2+x,y,1/2-z
1/2-x,1/2+y,z
x,1/2-y,1/2+z
loop_
_atom_site_type_symbol
_atom_site_label
_atom_site_fract_x
_atom_site_fract_y
_atom_site_fract_z
Si Si1 0.898839 0.157913 0.743087
Si Si2 0.211920 0.407833 0.220246
Si Si3 0.345435 0.444000 0.980334
Si Si4 0.434033 0.661299 0.167060
O O1 0.889056 0.180573 0.916638
O O2 0.928938 0.984760 0.732353
O O3 0.797404 0.154602 0.693920
O O4 0.972288 0.262351 0.679534
O O5 0.254354 0.460653 0.070795
O O6 0.173463 0.541363 0.314096
O O7 0.140339 0.281317 0.200973
O O8 0.406790 0.587507 0.015617
#
# Coordination Sequence:
#
# PCOD9461245 Si02
#       4
#     8   8   8   8
#     4   8  21  37  64  93 123 173 206 271 318 382
#     4   9  19  40  59  91 126 168 218 258 321 379
#     4   8  21  37  64  88 124 174 206 269 312 386
#     4   9  19  38  61  95 128 161 217 263 324 383
#
# _framework density 25.036185
#
# number of rings (size 3 to 8) (size 9 to 14) (size 15 to 20)
#    3.000    0.000    0.000    0.000    0.000    9.000 
#    0.000    7.500    0.000    0.000    0.000    0.000 
#    0.000    0.000    0.000    0.000    0.000    0.000 
#
# Total GULP energy -178199.948754 kJ/mol
# GULP energy per Si atom -5568.748399 kJ/mol
# Density = 2.497920 g / cm^3
# Si number density = 25.036185 Si / 1000 Ang^3
#
#
#
# Elastic Constant Matrix: (Units=GPa)
#
#
# Indices 1 2 3 4 5 6 
#
# 1 172.7303 44.2869 8.3995 0.0000 0.0000 0.0000
# 2 44.2869 65.4553 17.4745 0.0000 0.0000 0.0000
# 3 8.3995 17.4745 58.6207 0.0000 0.0000 0.0000
# 4 0.0000 0.0000 0.0000 15.3595 0.0000 0.0000
# 5 0.0000 0.0000 0.0000 0.0000 19.7601 0.0000
# 6 0.0000 0.0000 0.0000 0.0000 0.0000 53.9895
#
#
#
# Elastic Compliance Matrix: (Units=1/GPa)
#
#
# Indices 1 2 3 4 5 6 
#
# 1 0.007015 -0.004865 0.000445 0.000000 0.000000 0.000000
# 2 -0.004865 0.019973 -0.005257 0.000000 0.000000 0.000000
# 3 0.000445 -0.005257 0.018562 0.000000 0.000000 0.000000
# 4 0.000000 0.000000 0.000000 0.065106 0.000000 0.000000
# 5 0.000000 0.000000 0.000000 0.000000 0.050607 0.000000
# 6 0.000000 0.000000 0.000000 0.000000 0.000000 0.018522
#
#
# Mechanical properties :
#
#
# Convention : Reuss Voigt Hill
#
# Bulk Modulus (GPa) = 38.17318 48.56979 43.37149
# Shear Modulus (GPa) = 24.05338 32.93152 28.49245
#
# Velocity S-wave (km/s) = 3.10295 3.63072 3.37716
# Velocity P-wave (km/s) = 5.30265 6.08425 5.70685
#
# Compressibility (1/GPa) = 0.02619640
#
# Stress axis : x y z
#
# Youngs Moduli (GPa) = 142.54870 50.06813 53.87344
#
# Poissons Ratio (x) = 0.24359 -0.02398
# Poissons Ratio (y) = 0.69354 0.28319
# Poissons Ratio (z) = -0.06345 0.26319
#
# Static dielectric constant tensor:
#      x y z
#    x 2.010130 0.000000 0.000000 
#    y 0.000000 2.032360 0.000000 
#    z 0.000000 0.000000 2.144060 
# 
# From -- ./inp_files/5517.got.cif
#   From: 2010.05.17/outbox.cif.g08.bks.cpg/sg61_3_cif.got.tgz:5517.got - 2010.06.03 15:17:17.
