data_PCOD9461167
_publ_section_title
;
Structure prediction by ZEFSAII (Michael W. Deem and Ramdas Pophale) SiO2 
 PCOD9461167
Probable space group: P B C A
;
_chemical_formula_sum "Si O2"
_cell_formula_units_Z 48
_cell_length_a 8.754410
_cell_length_b 11.976240
_cell_length_c 21.775233
_cell_angle_alpha 90.000000
_cell_angle_beta 90.000000
_cell_angle_gamma 90.000000
_cell_volume 2283.022458
_symmetry_space_group_name_H-M "P B C A"
_symmetry_group_IT_number 61
_symmetry_cell_setting 'orthorhombic'
loop_
_space_group_symop_operation_xyz
x,y,z
1/2-x,-y,1/2+z
1/2+x,1/2-y,-z
-x,1/2+y,1/2-z
-x,-y,-z
1/2+x,y,1/2-z
1/2-x,1/2+y,z
x,1/2-y,1/2+z
loop_
_atom_site_type_symbol
_atom_site_label
_atom_site_fract_x
_atom_site_fract_y
_atom_site_fract_z
Si Si1 0.936175 0.455143 0.435846
Si Si2 0.039043 0.820657 0.366562
Si Si3 0.540335 0.940224 0.809653
Si Si4 0.400241 0.896204 0.680135
Si Si5 0.892462 0.895249 0.483942
Si Si6 0.126395 0.259301 0.892905
O O1 0.956941 0.544361 0.381831
O O2 0.757576 0.433431 0.447630
O O3 0.000000 0.500000 0.500000
O O4 0.020479 0.342993 0.414337
O O5 0.215803 0.786383 0.365353
O O6 0.939164 0.733972 0.327599
O O7 0.985732 0.816856 0.437503
O O8 0.009734 0.945317 0.342547
O O9 0.486946 0.942395 0.739385
O O10 0.721191 0.920795 0.813434
O O11 0.458087 0.837990 0.844227
O O12 0.845589 0.833059 0.546084
O O13 0.000000 0.000000 0.500000
#
# Coordination Sequence:
#
# PCOD9461167 Si02
#       6
#     8   8   8   8   8   8
#     4  12  26  45  76 111 151 196 254 312 378 446
#     4  12  27  48  76 108 153 196 251 312 376 451
#     4  12  29  50  75 110 148 196 256 305 377 460
#     4  12  28  49  76 107 147 198 250 309 379 446
#     4  12  22  46  73 109 152 194 249 314 373 448
#     4  12  26  45  76 110 153 197 249 308 384 448
#
# _framework density 21.024760000000001
#
# number of rings (size 3 to 8) (size 9 to 14) (size 15 to 20)
#    0.000    0.000    3.333    6.000    7.000    0.000 
#    0.000    0.000    0.000    0.000    0.000    0.000 
#    0.000    0.000    0.000    0.000    0.000    0.000 
#
# Total GULP energy -268971.008356 kJ/mol
# GULP energy per Si atom -5603.562674 kJ/mol
# Density = 2.097691 g / cm^3
# Si number density = 21.024760 Si / 1000 Ang^3
#
#
#
# Elastic Constant Matrix: (Units=GPa)
#
#
# Indices 1 2 3 4 5 6 
#
# 1 123.6552 76.2993 51.5692 0.0000 0.0000 0.0000
# 2 76.2993 127.8677 42.1252 0.0000 0.0000 0.0000
# 3 51.5692 42.1252 139.2121 0.0000 0.0000 0.0000
# 4 0.0000 0.0000 0.0000 30.7830 0.0000 0.0000
# 5 0.0000 0.0000 0.0000 0.0000 33.2050 0.0000
# 6 0.0000 0.0000 0.0000 0.0000 0.0000 32.8934
#
#
#
# Elastic Compliance Matrix: (Units=1/GPa)
#
#
# Indices 1 2 3 4 5 6 
#
# 1 0.013783 -0.007267 -0.002907 0.000000 0.000000 0.000000
# 2 -0.007267 0.012518 -0.001096 0.000000 0.000000 0.000000
# 3 -0.002907 -0.001096 0.008592 0.000000 0.000000 0.000000
# 4 0.000000 0.000000 0.000000 0.032486 0.000000 0.000000
# 5 0.000000 0.000000 0.000000 0.000000 0.030116 0.000000
# 6 0.000000 0.000000 0.000000 0.000000 0.000000 0.030401
#
#
# Mechanical properties :
#
#
# Convention : Reuss Voigt Hill
#
# Bulk Modulus (GPa) = 80.94945 81.19137 81.07041
# Shear Modulus (GPa) = 32.35149 34.09237 33.22193
#
# Velocity S-wave (km/s) = 3.92692 4.03120 3.97940
# Velocity P-wave (km/s) = 7.69068 7.76970 7.73029
#
# Compressibility (1/GPa) = 0.01235339
#
# Stress axis : x y z
#
# Youngs Moduli (GPa) = 72.55239 79.88638 116.39114
#
# Poissons Ratio (x) = 0.58052 0.33833
# Poissons Ratio (y) = 0.52723 0.12756
# Poissons Ratio (z) = 0.21090 0.08755
#
# Static dielectric constant tensor:
#      x y z
#    x 1.755170 0.000000 0.000000 
#    y 0.000000 1.750680 0.000000 
#    z 0.000000 0.000000 1.738990 
# 
# From -- ./inp_files/10829.got.cif
#   From: 2010.05.17/outbox.cif.g08.bks.cpg/sg61_6_cif.got.tgz:10829.got - 2010.06.03 15:17:17.
