data_PCOD9461917
_publ_section_title
;
Structure prediction by ZEFSAII (Michael W. Deem and Ramdas Pophale) SiO2 
 PCOD9461917
Probable space group: P N M A
;
_chemical_formula_sum "Si O2"
_cell_formula_units_Z 64
_cell_length_a 15.784270
_cell_length_b 8.668795
_cell_length_c 24.270097
_cell_angle_alpha 90.000000
_cell_angle_beta 90.000000
_cell_angle_gamma 90.000000
_cell_volume 3320.891955
_symmetry_space_group_name_H-M "P N M A"
_symmetry_group_IT_number 62
_symmetry_cell_setting 'orthorhombic'
loop_
_space_group_symop_operation_xyz
x,y,z
1/2-x,-y,1/2+z
1/2+x,1/2-y,1/2-z
-x,1/2+y,-z
-x,-y,-z
1/2+x,y,1/2-z
1/2-x,1/2+y,1/2+z
x,1/2-y,z
loop_
_atom_site_type_symbol
_atom_site_label
_atom_site_fract_x
_atom_site_fract_y
_atom_site_fract_z
Si Si1 0.860042 0.436515 0.927824
Si Si2 0.195921 0.936596 0.193766
Si Si3 0.067661 0.932358 0.579085
Si Si4 0.477933 0.932756 0.728447
Si Si5 0.885179 0.565429 0.538540
Si Si6 0.959343 0.565601 0.113008
Si Si7 0.383950 0.567335 0.192018
Si Si8 0.302306 0.435976 0.452203
O O1 0.853796 0.250000 0.927598
O O2 0.819503 0.488683 0.869914
O O3 0.959483 0.477355 0.924782
O O4 0.818350 0.489096 0.984605
O O5 0.192367 0.750000 0.193966
O O6 0.290223 0.983310 0.211743
O O7 0.116954 0.998361 0.228639
O O8 0.079075 0.750000 0.588553
O O9 0.966894 0.967033 0.575811
O O10 0.102734 0.979400 0.519393
O O11 0.109961 0.028731 0.627456
O O12 0.471813 0.750000 0.727097
O O13 0.521381 0.993991 0.672414
O O14 0.538760 0.985175 0.777606
O O15 0.885794 0.750000 0.527271
O O16 0.794114 0.525487 0.563315
O O17 0.958849 0.750000 0.118499
O O18 0.873029 0.508000 0.086504
O O19 0.391040 0.750000 0.200881
O O20 0.311427 0.250000 0.450739
#
# Coordination Sequence:
#
# PCOD9461917 Si02
#       8
#     8   8   8   8   8   8   8   8
#     4   8  15  29  52  79 107 138 178 227 275 328
#     4   9  19  38  62  86 111 144 188 235 285 339
#     4  10  20  35  56  83 114 147 187 236 285 335
#     4  11  23  40  60  84 115 149 187 237 291 341
#     4   9  19  35  54  79 115 153 187 230 284 338
#     4  10  20  35  52  75 111 149 187 233 283 334
#     4  11  22  39  64  88 112 148 193 238 288 344
#     4  10  18  31  52  79 109 147 190 229 281 339
#
# _framework density 19.271930999999999
#
# number of rings (size 3 to 8) (size 9 to 14) (size 15 to 20)
#    0.000    2.250    0.000    4.125    0.000    4.000 
#    2.250    2.500    0.000    0.000    0.000    0.000 
#    0.000    0.000    0.000    0.000    0.000    0.000 
#
# Total GULP energy -357253.335160 kJ/mol
# GULP energy per Si atom -5582.083362 kJ/mol
# Density = 1.922807 g / cm^3
# Si number density = 19.271931 Si / 1000 Ang^3
#
#
#
# Elastic Constant Matrix: (Units=GPa)
#
#
# Indices 1 2 3 4 5 6 
#
# 1 120.7395 31.9262 18.2780 0.0000 0.0000 0.0000
# 2 31.9262 34.3032 5.6634 0.0000 0.0000 0.0000
# 3 18.2780 5.6634 15.0829 0.0000 0.0000 0.0000
# 4 0.0000 0.0000 0.0000 25.9507 0.0000 0.0000
# 5 0.0000 0.0000 0.0000 0.0000 16.9634 0.0000
# 6 0.0000 0.0000 0.0000 0.0000 0.0000 22.4021
#
#
#
# Elastic Compliance Matrix: (Units=1/GPa)
#
#
# Indices 1 2 3 4 5 6 
#
# 1 0.012647 -0.009851 -0.011628 0.000000 0.000000 0.000000
# 2 -0.009851 0.038752 -0.002612 0.000000 0.000000 0.000000
# 3 -0.011628 -0.002612 0.081372 0.000000 0.000000 0.000000
# 4 0.000000 0.000000 0.000000 0.038535 0.000000 0.000000
# 5 0.000000 0.000000 0.000000 0.000000 0.058950 0.000000
# 6 0.000000 0.000000 0.000000 0.000000 0.000000 0.044639
#
#
# Mechanical properties :
#
#
# Convention : Reuss Voigt Hill
#
# Bulk Modulus (GPa) = 11.82195 31.31788 21.56991
# Shear Modulus (GPa) = 14.23391 20.68045 17.45718
#
# Velocity S-wave (km/s) = 2.72064 3.27935 3.01297
# Velocity P-wave (km/s) = 4.00209 5.53396 4.82915
#
# Compressibility (1/GPa) = 0.08458842
#
# Stress axis : x y z
#
# Youngs Moduli (GPa) = 79.06730 25.80521 12.28924
#
# Poissons Ratio (x) = 0.25422 0.14289
# Poissons Ratio (y) = 0.77892 0.03210
# Poissons Ratio (z) = 0.91937 0.06741
#
# Static dielectric constant tensor:
#      x y z
#    x 1.690750 0.000000 0.000000 
#    y 0.000000 1.646890 0.000000 
#    z 0.000000 0.000000 1.655590 
# 
# From -- ./inp_files/29925.got.cif
#   From: 2010.05.17/outbox.cif.g08.bks.cpg/sg62_15_cif.got.tgz:29925.got - 2010.06.03 15:25:27.
