data_PCOD9461361
_publ_section_title
;
Structure prediction by ZEFSAII (Michael W. Deem and Ramdas Pophale) SiO2 
 PCOD9461361
Probable space group: P N M A
;
_chemical_formula_sum "Si O2"
_cell_formula_units_Z 48
_cell_length_a 14.046132
_cell_length_b 14.694298
_cell_length_c 11.621680
_cell_angle_alpha 90.000000
_cell_angle_beta 90.000000
_cell_angle_gamma 90.000000
_cell_volume 2398.692082
_symmetry_space_group_name_H-M "P N M A"
_symmetry_group_IT_number 62
_symmetry_cell_setting 'orthorhombic'
loop_
_space_group_symop_operation_xyz
x,y,z
1/2-x,-y,1/2+z
1/2+x,1/2-y,1/2-z
-x,1/2+y,-z
-x,-y,-z
1/2+x,y,1/2-z
1/2-x,1/2+y,1/2+z
x,1/2-y,z
loop_
_atom_site_type_symbol
_atom_site_label
_atom_site_fract_x
_atom_site_fract_y
_atom_site_fract_z
Si Si1 0.133879 0.144623 0.736950
Si Si2 0.890754 0.539565 0.496809
Si Si3 0.868706 0.348068 0.488913
Si Si4 0.357240 0.350225 0.749200
Si Si5 0.990591 0.487502 0.865230
Si Si6 0.957600 0.852578 0.693063
O O1 0.103190 0.250000 0.747624
O O2 0.122301 0.109120 0.606688
O O3 0.244955 0.140349 0.767397
O O4 0.074696 0.075673 0.815146
O O5 0.826442 0.449613 0.476463
O O6 0.000000 0.500000 0.500000
O O7 0.880038 0.592412 0.616821
O O8 0.816117 0.250000 0.478907
O O9 0.902377 0.351254 0.622650
O O10 0.952297 0.344093 0.394234
O O11 0.374601 0.250000 0.698047
O O12 0.398118 0.429644 0.671749
O O13 0.986467 0.583371 0.798435
O O14 0.000000 0.500000 0.000000
O O15 0.928532 0.750000 0.723970
#
# Coordination Sequence:
#
# PCOD9461361 Si02
#       6
#     8   8   8   8   8   8
#     4  11  23  40  64  93 122 161 210 258 315 381
#     4  10  16  32  60  89 115 148 196 257 306 351
#     4   9  16  31  60  89 115 147 191 252 305 351
#     4  10  22  40  64  93 125 160 208 262 311 378
#     4  12  24  41  60  89 127 174 204 257 326 380
#     4  10  19  34  59  91 118 152 206 255 308 368
#
# _framework density 20.010904
#
# number of rings (size 3 to 8) (size 9 to 14) (size 15 to 20)
#    0.000    1.667    5.000    2.000    0.000    6.000 
#    0.000    0.000    0.000    2.000    0.000    0.000 
#    0.000    0.000    0.000    0.000    0.000    0.000 
#
# Total GULP energy -267462.110900 kJ/mol
# GULP energy per Si atom -5572.127310 kJ/mol
# Density = 1.996536 g / cm^3
# Si number density = 20.010904 Si / 1000 Ang^3
#
#
#
# Elastic Constant Matrix: (Units=GPa)
#
#
# Indices 1 2 3 4 5 6 
#
# 1 42.3098 29.0237 6.6313 0.0000 0.0000 0.0000
# 2 29.0237 199.8849 58.7952 0.0000 0.0000 0.0000
# 3 6.6313 58.7952 128.7313 0.0000 0.0000 0.0000
# 4 0.0000 0.0000 0.0000 15.8581 0.0000 0.0000
# 5 0.0000 0.0000 0.0000 0.0000 6.6556 0.0000
# 6 0.0000 0.0000 0.0000 0.0000 0.0000 13.6302
#
#
#
# Elastic Compliance Matrix: (Units=1/GPa)
#
#
# Indices 1 2 3 4 5 6 
#
# 1 0.026272 -0.003947 0.000449 0.000000 0.000000 0.000000
# 2 -0.003947 0.006372 -0.002707 0.000000 0.000000 0.000000
# 3 0.000449 -0.002707 0.008981 0.000000 0.000000 0.000000
# 4 0.000000 0.000000 0.000000 0.063059 0.000000 0.000000
# 5 0.000000 0.000000 0.000000 0.000000 0.150250 0.000000
# 6 0.000000 0.000000 0.000000 0.000000 0.000000 0.073367
#
#
# Mechanical properties :
#
#
# Convention : Reuss Voigt Hill
#
# Bulk Modulus (GPa) = 34.22724 62.20296 48.21510
# Shear Modulus (GPa) = 14.26736 25.66049 19.96392
#
# Velocity S-wave (km/s) = 2.67306 3.58484 3.16199
# Velocity P-wave (km/s) = 5.16415 6.94887 6.12190
#
# Compressibility (1/GPa) = 0.02921649
#
# Stress axis : x y z
#
# Youngs Moduli (GPa) = 38.06293 156.93026 111.34160
#
# Poissons Ratio (x) = 0.61940 -0.05003
# Poissons Ratio (y) = 0.15023 0.30141
# Poissons Ratio (z) = -0.01710 0.42482
#
# Static dielectric constant tensor:
#      x y z
#    x 1.763540 0.000000 0.000000 
#    y 0.000000 1.799660 0.000000 
#    z 0.000000 0.000000 1.690100 
# 
# From -- ./inp_files/13272.got.cif
#   From: 2010.05.17/outbox.cif.g08.bks.cpg/sg62_7_cif.got.tgz:13272.got - 2010.06.03 15:25:27.
