data_PCOD9461620
_publ_section_title
;
Structure prediction by ZEFSAII (Michael W. Deem and Ramdas Pophale) SiO2 
 PCOD9461620
Probable space group: P N M A
;
_chemical_formula_sum "Si O2"
_cell_formula_units_Z 64
_cell_length_a 17.062342
_cell_length_b 7.401262
_cell_length_c 20.414066
_cell_angle_alpha 90.000000
_cell_angle_beta 90.000000
_cell_angle_gamma 90.000000
_cell_volume 2577.946710
_symmetry_space_group_name_H-M "P N M A"
_symmetry_group_IT_number 62
_symmetry_cell_setting 'orthorhombic'
loop_
_space_group_symop_operation_xyz
x,y,z
1/2-x,-y,1/2+z
1/2+x,1/2-y,1/2-z
-x,1/2+y,-z
-x,-y,-z
1/2+x,y,1/2-z
1/2-x,1/2+y,1/2+z
x,1/2-y,z
loop_
_atom_site_type_symbol
_atom_site_label
_atom_site_fract_x
_atom_site_fract_y
_atom_site_fract_z
Si Si1 0.031185 0.467516 0.285755
Si Si2 0.133687 0.535435 0.670466
Si Si3 0.909502 0.535955 0.478993
Si Si4 0.400067 0.530723 0.370646
Si Si5 0.155109 0.033233 0.390184
Si Si6 0.263798 0.046190 0.277280
Si Si7 0.092884 0.465661 0.011838
Si Si8 0.082679 0.042266 0.151504
O O1 0.026532 0.250000 0.276189
O O2 0.943812 0.540699 0.293518
O O3 0.071570 0.494514 0.355365
O O4 0.084360 0.535563 0.225073
O O5 0.136336 0.750000 0.682654
O O6 0.118293 0.518090 0.593290
O O7 0.212772 0.466855 0.706410
O O8 0.902434 0.750000 0.480458
O O9 0.852888 0.462005 0.536571
O O10 0.000000 0.500000 0.500000
O O11 0.400477 0.750000 0.367483
O O12 0.346407 0.449485 0.315090
O O13 0.370025 0.473878 0.443207
O O14 0.488679 0.464252 0.360912
O O15 0.170414 0.250000 0.393984
O O16 0.212394 0.957333 0.334527
O O17 0.231935 0.250000 0.267653
O O18 0.103020 0.250000 0.015137
O O19 0.115920 0.538611 0.083578
O O20 0.000000 0.500000 0.000000
O O21 0.109710 0.250000 0.154194
#
# Coordination Sequence:
#
# PCOD9461620 Si02
#       8
#     8   8   8   8   8   8   8   8
#     4   9  15  28  52  79 103 130 176 232 272 314
#     4  10  19  34  57  85 111 139 185 235 277 332
#     4  11  21  36  60  89 118 148 186 237 289 339
#     4  10  18  28  44  70 104 136 171 221 272 318
#     4   9  19  35  55  79 108 141 180 225 273 326
#     4  10  20  36  56  76 103 145 189 224 266 333
#     4   8  15  25  39  64  96 128 165 209 256 305
#     4   9  15  27  48  71  96 132 176 217 259 316
#
# _framework density 24.825959999999998
#
# number of rings (size 3 to 8) (size 9 to 14) (size 15 to 20)
#    0.000    2.500    2.500    0.750    0.000    1.000 
#    0.000    2.500    0.000    3.000    0.000    0.000 
#    0.000    0.000    0.000    0.000    0.000    0.000 
#
# Total GULP energy -356781.665092 kJ/mol
# GULP energy per Si atom -5574.713517 kJ/mol
# Density = 2.476946 g / cm^3
# Si number density = 24.825960 Si / 1000 Ang^3
#
#
#
# Elastic Constant Matrix: (Units=GPa)
#
#
# Indices 1 2 3 4 5 6 
#
# 1 41.4034 1.0966 32.9947 0.0000 0.0000 0.0000
# 2 1.0966 101.6266 7.5595 0.0000 0.0000 0.0000
# 3 32.9947 7.5595 233.8077 0.0000 0.0000 0.0000
# 4 0.0000 0.0000 0.0000 16.4785 0.0000 0.0000
# 5 0.0000 0.0000 0.0000 0.0000 31.0270 0.0000
# 6 0.0000 0.0000 0.0000 0.0000 0.0000 -2.9881
#
#
#
# Elastic Compliance Matrix: (Units=1/GPa)
#
#
# Indices 1 2 3 4 5 6 
#
# 1 0.027213 -0.000008 -0.003840 0.000000 0.000000 0.000000
# 2 -0.000008 0.009864 -0.000318 0.000000 0.000000 0.000000
# 3 -0.003840 -0.000318 0.004829 0.000000 0.000000 0.000000
# 4 0.000000 0.000000 0.000000 0.060685 0.000000 0.000000
# 5 0.000000 0.000000 0.000000 0.000000 0.032230 0.000000
# 6 0.000000 0.000000 0.000000 0.000000 0.000000 -0.334661
#
#
# Mechanical properties :
#
#
# Convention : Reuss Voigt Hill
#
# Bulk Modulus (GPa) = 29.78473 51.12658 40.45566
# Shear Modulus (GPa) = -27.72898 31.24928 1.76015
#
# Velocity S-wave (km/s) = -3.34568 3.55171 0.84293
# Velocity P-wave (km/s) = 1.70333 6.12032 4.15674
#
# Compressibility (1/GPa) = 0.03357425
#
# Stress axis : x y z
#
# Youngs Moduli (GPa) = 36.74719 101.38219 207.07405
#
# Poissons Ratio (x) = 0.00081 0.79517
# Poissons Ratio (y) = 0.00029 0.06581
# Poissons Ratio (z) = 0.14111 0.03222
#
# Static dielectric constant tensor:
#      x y z
#    x 2.827790 0.000000 0.000000 
#    y 0.000000 1.982630 0.000000 
#    z 0.000000 0.000000 2.402330 
# 
# From -- ./inp_files/27751.got.cif
#   From: 2010.05.17/outbox.cif.g08.bks.cpg/sg62_14_cif.got.tgz:27751.got - 2010.06.03 15:25:27.
