data_PCOD9461760
_publ_section_title
;
Structure prediction by ZEFSAII (Michael W. Deem and Ramdas Pophale) SiO2 
 PCOD9461760
Probable space group: P N M A
;
_chemical_formula_sum "Si O2"
_cell_formula_units_Z 40
_cell_length_a 12.437784
_cell_length_b 20.582841
_cell_length_c 7.142003
_cell_angle_alpha 90.000000
_cell_angle_beta 90.000000
_cell_angle_gamma 90.000000
_cell_volume 1828.387981
_symmetry_space_group_name_H-M "P N M A"
_symmetry_group_IT_number 62
_symmetry_cell_setting 'orthorhombic'
loop_
_space_group_symop_operation_xyz
x,y,z
1/2-x,-y,1/2+z
1/2+x,1/2-y,1/2-z
-x,1/2+y,-z
-x,-y,-z
1/2+x,y,1/2-z
1/2-x,1/2+y,1/2+z
x,1/2-y,z
loop_
_atom_site_type_symbol
_atom_site_label
_atom_site_fract_x
_atom_site_fract_y
_atom_site_fract_z
Si Si1 0.107749 0.040308 0.497072
Si Si2 0.367705 0.323975 0.600673
Si Si3 0.749784 0.927136 0.152927
Si Si4 0.891055 0.822260 0.056395
Si Si5 0.366718 0.819848 0.987793
O O1 0.157391 0.053564 0.700980
O O2 0.088188 0.112375 0.414472
O O3 0.195491 0.993781 0.404212
O O4 0.000000 0.000000 0.500000
O O5 0.370806 0.250000 0.681877
O O6 0.338818 0.380048 0.749304
O O7 0.484197 0.335001 0.512081
O O8 0.263006 0.324083 0.467854
O O9 0.809874 0.880048 0.005118
O O10 0.859183 0.750000 0.991887
O O11 0.885616 0.818599 0.285822
O O12 0.406404 0.750000 0.917420
#
# Coordination Sequence:
#
# PCOD9461760 Si02
#       5
#     8   8   8   8   8
#     4  10  20  34  51  73 101 128 160 203 246 289
#     4   8  13  24  43  67  93 120 154 198 243 282
#     4  10  18  30  47  72 100 129 159 197 239 288
#     4   8  13  23  42  68  94 118 152 200 244 279
#     4   8  15  27  44  64  88 125 165 194 230 286
#
# _framework density 21.877196999999999
#
# number of rings (size 3 to 8) (size 9 to 14) (size 15 to 20)
#    0.000    3.600    0.000    4.200    0.000    0.000 
#    0.000   10.000    0.000    3.600    0.000    0.000 
#    0.000    0.000    0.000    0.000    0.000    0.000 
#
# Total GULP energy -222687.015037 kJ/mol
# GULP energy per Si atom -5567.175376 kJ/mol
# Density = 2.182740 g / cm^3
# Si number density = 21.877197 Si / 1000 Ang^3
#
#
#
# Elastic Constant Matrix: (Units=GPa)
#
#
# Indices 1 2 3 4 5 6 
#
# 1 79.7693 55.1195 -3.1794 0.0000 0.0000 0.0000
# 2 55.1195 220.2741 13.5705 0.0000 0.0000 0.0000
# 3 -3.1794 13.5705 39.1103 0.0000 0.0000 0.0000
# 4 0.0000 0.0000 0.0000 1.6448 0.0000 0.0000
# 5 0.0000 0.0000 0.0000 0.0000 9.4111 0.0000
# 6 0.0000 0.0000 0.0000 0.0000 0.0000 31.9410
#
#
#
# Elastic Compliance Matrix: (Units=1/GPa)
#
#
# Indices 1 2 3 4 5 6 
#
# 1 0.015421 -0.004022 0.002649 0.000000 0.000000 0.000000
# 2 -0.004022 0.005688 -0.002301 0.000000 0.000000 0.000000
# 3 0.002649 -0.002301 0.026582 0.000000 0.000000 0.000000
# 4 0.000000 0.000000 0.000000 0.607973 0.000000 0.000000
# 5 0.000000 0.000000 0.000000 0.000000 0.106257 0.000000
# 6 0.000000 0.000000 0.000000 0.000000 0.000000 0.031308
#
#
# Mechanical properties :
#
#
# Convention : Reuss Voigt Hill
#
# Bulk Modulus (GPa) = 24.78660 52.24164 38.51412
# Shear Modulus (GPa) = 6.14233 26.84227 16.49230
#
# Velocity S-wave (km/s) = 1.67742 3.50659 2.74863
# Velocity P-wave (km/s) = 3.88666 6.35029 5.26461
#
# Compressibility (1/GPa) = 0.04034438
#
# Stress axis : x y z
#
# Youngs Moduli (GPa) = 64.84709 175.80996 37.61901
#
# Poissons Ratio (x) = 0.70711 -0.09966
# Poissons Ratio (y) = 0.26081 0.08655
# Poissons Ratio (z) = -0.17179 0.40446
#
# Static dielectric constant tensor:
#      x y z
#    x 1.803060 0.000000 0.000000 
#    y 0.000000 1.892000 0.000000 
#    z 0.000000 0.000000 1.901020 
# 
# From -- ./inp_files/6273.got.cif
#   From: 2010.05.17/outbox.cif.g08.bks.cpg/sg62_4_cif.got.tgz:6273.got - 2010.06.03 15:25:27.
