data_PCOD9461567
_publ_section_title
;
Structure prediction by ZEFSAII (Michael W. Deem and Ramdas Pophale) SiO2 
 PCOD9461567
Probable space group: P N M A
;
_chemical_formula_sum "Si O2"
_cell_formula_units_Z 64
_cell_length_a 27.081099
_cell_length_b 9.123383
_cell_length_c 18.686202
_cell_angle_alpha 90.000000
_cell_angle_beta 90.000000
_cell_angle_gamma 90.000000
_cell_volume 4616.823066
_symmetry_space_group_name_H-M "P N M A"
_symmetry_group_IT_number 62
_symmetry_cell_setting 'orthorhombic'
loop_
_space_group_symop_operation_xyz
x,y,z
1/2-x,-y,1/2+z
1/2+x,1/2-y,1/2-z
-x,1/2+y,-z
-x,-y,-z
1/2+x,y,1/2-z
1/2-x,1/2+y,1/2+z
x,1/2-y,z
loop_
_atom_site_type_symbol
_atom_site_label
_atom_site_fract_x
_atom_site_fract_y
_atom_site_fract_z
Si Si1 0.247190 0.924275 0.080873
Si Si2 0.148314 0.425522 0.830136
Si Si3 0.552756 0.075358 0.416444
Si Si4 0.796954 0.075942 0.292099
Si Si5 0.550693 0.425866 0.583482
Si Si6 0.642782 0.577370 0.340412
Si Si7 0.792845 0.076914 0.712511
Si Si8 0.256338 0.577477 0.429686
O O1 0.254249 0.750000 0.084399
O O2 0.192800 0.955514 0.114598
O O3 0.287576 0.004102 0.130605
O O4 0.248344 0.982625 0.000395
O O5 0.149026 0.250000 0.817914
O O6 0.159603 0.507877 0.756205
O O7 0.096834 0.466746 0.866972
O O8 0.193108 0.455590 0.886024
O O9 0.549768 0.250000 0.410791
O O10 0.561961 0.037849 0.500325
O O11 0.500358 0.003726 0.396777
O O12 0.597336 0.014451 0.369340
O O13 0.800605 0.250000 0.296802
O O14 0.748186 0.025568 0.248329
O O15 0.544379 0.250000 0.587539
O O16 0.632201 0.750000 0.349579
O O17 0.657499 0.551934 0.257309
O O18 0.779305 0.250000 0.725462
O O19 0.787754 0.055129 0.627872
O O20 0.257921 0.750000 0.448745
#
# Coordination Sequence:
#
# PCOD9461567 Si02
#       8
#     8   8   8   8   8   8   8   8
#     4  10  19  29  41  59  84 112 141 171 204 244
#     4   9  17  30  45  59  81 112 141 170 207 248
#     4  10  19  29  42  61  83 106 137 177 210 236
#     4  10  18  27  41  60  81 106 138 173 206 242
#     4   9  18  31  44  58  80 111 141 169 206 247
#     4   9  17  29  43  57  78 111 143 168 201 245
#     4   8  16  30  43  57  81 110 137 168 206 246
#     4   9  16  27  43  62  84 108 136 170 206 243
#
# _framework density 13.862347
#
# number of rings (size 3 to 8) (size 9 to 14) (size 15 to 20)
#    0.000    2.750    0.000    4.125    0.000    6.500 
#    0.000    0.000    0.000    0.000    0.000    0.000 
#    0.000    1.000    0.000    3.000    0.000    4.000 
#
# Total GULP energy -356441.616246 kJ/mol
# GULP energy per Si atom -5569.400254 kJ/mol
# Density = 1.383080 g / cm^3
# Si number density = 13.862347 Si / 1000 Ang^3
#
#
#
# Elastic Constant Matrix: (Units=GPa)
#
#
# Indices 1 2 3 4 5 6 
#
# 1 87.0846 44.2616 53.7927 0.0000 0.0000 0.0000
# 2 44.2616 52.4938 51.4190 0.0000 0.0000 0.0000
# 3 53.7927 51.4190 94.3267 0.0000 0.0000 0.0000
# 4 0.0000 0.0000 0.0000 25.2222 0.0000 0.0000
# 5 0.0000 0.0000 0.0000 0.0000 24.9720 0.0000
# 6 0.0000 0.0000 0.0000 0.0000 0.0000 19.2049
#
#
#
# Elastic Compliance Matrix: (Units=1/GPa)
#
#
# Indices 1 2 3 4 5 6 
#
# 1 0.021148 -0.012913 -0.005021 0.000000 0.000000 0.000000
# 2 -0.012913 0.048761 -0.019216 0.000000 0.000000 0.000000
# 3 -0.005021 -0.019216 0.023940 0.000000 0.000000 0.000000
# 4 0.000000 0.000000 0.000000 0.039648 0.000000 0.000000
# 5 0.000000 0.000000 0.000000 0.000000 0.040045 0.000000
# 6 0.000000 0.000000 0.000000 0.000000 0.000000 0.052070
#
#
# Mechanical properties :
#
#
# Convention : Reuss Voigt Hill
#
# Bulk Modulus (GPa) = 51.15676 59.20574 55.18125
# Shear Modulus (GPa) = 16.31709 19.50861 17.91285
#
# Velocity S-wave (km/s) = 3.43458 3.75548 3.59861
# Velocity P-wave (km/s) = 7.26030 7.84903 7.56040
#
# Compressibility (1/GPa) = 0.01954776
#
# Stress axis : x y z
#
# Youngs Moduli (GPa) = 47.28611 20.50839 41.77139
#
# Poissons Ratio (x) = 0.26483 0.20974
# Poissons Ratio (y) = 0.61061 0.80268
# Poissons Ratio (z) = 0.23743 0.39409
#
# Static dielectric constant tensor:
#      x y z
#    x 1.439880 0.000000 0.000000 
#    y 0.000000 1.458560 0.000000 
#    z 0.000000 0.000000 1.463570 
# 
# From -- ./inp_files/24939.got.cif
#   From: 2010.05.17/outbox.cif.g08.bks.cpg/sg62_13_cif.got.tgz:24939.got - 2010.06.03 15:25:27.
