data_PCOD9461769
_publ_section_title
;
Structure prediction by ZEFSAII (Michael W. Deem and Ramdas Pophale) SiO2 
 PCOD9461769
Probable space group: P N M A
;
_chemical_formula_sum "Si O2"
_cell_formula_units_Z 24
_cell_length_a 6.603729
_cell_length_b 17.981141
_cell_length_c 7.263765
_cell_angle_alpha 90.000000
_cell_angle_beta 90.000000
_cell_angle_gamma 90.000000
_cell_volume 862.518213
_symmetry_space_group_name_H-M "P N M A"
_symmetry_group_IT_number 62
_symmetry_cell_setting 'orthorhombic'
loop_
_space_group_symop_operation_xyz
x,y,z
1/2-x,-y,1/2+z
1/2+x,1/2-y,1/2-z
-x,1/2+y,-z
-x,-y,-z
1/2+x,y,1/2-z
1/2-x,1/2+y,1/2+z
x,1/2-y,z
loop_
_atom_site_type_symbol
_atom_site_label
_atom_site_fract_x
_atom_site_fract_y
_atom_site_fract_z
Si Si1 0.250005 0.603175 0.750001
Si Si2 0.499997 0.333883 0.571494
Si Si3 0.000004 0.014790 0.780194
O O1 0.000005 0.578366 0.697402
O O2 0.311825 0.649111 0.567321
O O3 0.188184 0.649109 0.932684
O O4 0.499996 0.250000 0.635990
O O5 0.500003 0.395469 0.731015
O O6 0.250004 0.997265 0.750003
O O7 0.000000 0.000000 0.000000
#
# Coordination Sequence:
#
# PCOD9461769 Si02
#       3
#     8   8   8
#     4   8  15  30  49  64  88 126 152 172 221 282
#     4  10  18  30  48  72  92 112 150 198 224 248
#     4   8  16  30  46  66  91 122 150 178 221 276
#
# _framework density 27.825499000000001
#
# number of rings (size 3 to 8) (size 9 to 14) (size 15 to 20)
#    0.000    4.000    0.000    1.000    0.000    0.000 
#    0.000   61.667    0.000    0.000    0.000    0.000 
#    0.000    0.000    0.000    0.000    0.000    0.000 
#
# Total GULP energy -133698.589065 kJ/mol
# GULP energy per Si atom -5570.774544 kJ/mol
# Density = 2.776217 g / cm^3
# Si number density = 27.825499 Si / 1000 Ang^3
#
#
#
# Elastic Constant Matrix: (Units=GPa)
#
#
# Indices 1 2 3 4 5 6 
#
# 1 272.0151 63.5552 59.9719 0.0000 0.0000 0.0000
# 2 63.5552 205.9812 -4.7222 0.0000 0.0000 0.0000
# 3 59.9719 -4.7222 89.9451 0.0000 0.0000 0.0000
# 4 0.0000 0.0000 0.0000 37.1142 0.0000 0.0000
# 5 0.0000 0.0000 0.0000 0.0000 64.8407 0.0000
# 6 0.0000 0.0000 0.0000 0.0000 0.0000 21.9371
#
#
#
# Elastic Compliance Matrix: (Units=1/GPa)
#
#
# Indices 1 2 3 4 5 6 
#
# 1 0.004753 -0.001541 -0.003250 0.000000 0.000000 0.000000
# 2 -0.001541 0.005360 0.001309 0.000000 0.000000 0.000000
# 3 -0.003250 0.001309 0.013354 0.000000 0.000000 0.000000
# 4 0.000000 0.000000 0.000000 0.026944 0.000000 0.000000
# 5 0.000000 0.000000 0.000000 0.000000 0.015422 0.000000
# 6 0.000000 0.000000 0.000000 0.000000 0.000000 0.045585
#
#
# Mechanical properties :
#
#
# Convention : Reuss Voigt Hill
#
# Bulk Modulus (GPa) = 60.59638 89.50568 75.05103
# Shear Modulus (GPa) = 40.36075 54.72082 47.54079
#
# Velocity S-wave (km/s) = 3.81267 4.43941 4.13792
# Velocity P-wave (km/s) = 6.41923 7.64948 7.06120
#
# Compressibility (1/GPa) = 0.01650264
#
# Stress axis : x y z
#
# Youngs Moduli (GPa) = 210.40109 186.55713 74.88664
#
# Poissons Ratio (x) = 0.28748 0.24337
# Poissons Ratio (y) = 0.32422 -0.09802
# Poissons Ratio (z) = 0.68378 -0.24418
#
# Static dielectric constant tensor:
#      x y z
#    x 1.723940 0.000000 0.000000 
#    y 0.000000 2.236020 0.000000 
#    z 0.000000 0.000000 1.912780 
# 
# From -- ./inp_files/3773.got.cif
#   From: 2010.05.17/outbox.cif.g08.bks.cpg/sg62_2_cif.got.tgz:3773.got - 2010.06.03 15:25:27.
