data_PCOD9461998
_publ_section_title
;
Structure prediction by ZEFSAII (Michael W. Deem and Ramdas Pophale) SiO2 
 PCOD9461998
Probable space group: P N M A
;
_chemical_formula_sum "Si O2"
_cell_formula_units_Z 64
_cell_length_a 14.150883
_cell_length_b 9.209918
_cell_length_c 22.370123
_cell_angle_alpha 90.000000
_cell_angle_beta 90.000000
_cell_angle_gamma 90.000000
_cell_volume 2915.463950
_symmetry_space_group_name_H-M "P N M A"
_symmetry_group_IT_number 62
_symmetry_cell_setting 'orthorhombic'
loop_
_space_group_symop_operation_xyz
x,y,z
1/2-x,-y,1/2+z
1/2+x,1/2-y,1/2-z
-x,1/2+y,-z
-x,-y,-z
1/2+x,y,1/2-z
1/2-x,1/2+y,1/2+z
x,1/2-y,z
loop_
_atom_site_type_symbol
_atom_site_label
_atom_site_fract_x
_atom_site_fract_y
_atom_site_fract_z
Si Si1 0.386865 0.577197 0.217884
Si Si2 0.922909 0.591708 0.560809
Si Si3 0.815182 0.577542 0.772955
Si Si4 0.360913 0.921729 0.424763
Si Si5 0.980953 0.422852 0.833433
Si Si6 0.824985 0.083477 0.654357
Si Si7 0.745818 0.587532 0.472888
Si Si8 0.118625 0.583824 0.601602
O O1 0.375718 0.750000 0.211557
O O2 0.286199 0.499660 0.224312
O O3 0.451661 0.551476 0.275657
O O4 0.423182 0.506833 0.156675
O O5 0.911455 0.750000 0.593349
O O6 0.891831 0.454379 0.599321
O O7 0.843799 0.601078 0.510139
O O8 0.035383 0.584793 0.551550
O O9 0.808728 0.750000 0.776356
O O10 0.849441 0.523591 0.707853
O O11 0.887208 0.513586 0.821594
O O12 0.361629 0.750000 0.439718
O O13 0.459284 0.960852 0.392762
O O14 0.279794 0.939238 0.373515
O O15 0.328989 0.014091 0.482171
O O16 0.961135 0.250000 0.835062
O O17 0.833338 0.250000 0.674507
O O18 0.716448 0.750000 0.454492
O O19 0.783411 0.486729 0.419747
O O20 0.135384 0.750000 0.618866
#
# Coordination Sequence:
#
# PCOD9461998 Si02
#       8
#     8   8   8   8   8   8   8   8
#     4  11  23  41  61  84 116 155 197 240 287 345
#     4   9  19  33  51  80 114 148 190 236 284 337
#     4  12  24  36  55  84 118 153 190 235 290 346
#     4   9  18  35  57  81 108 142 186 233 279 328
#     4  10  21  39  62  86 114 150 193 237 286 344
#     4  10  18  32  53  78 109 147 188 228 277 335
#     4  10  20  34  54  81 112 151 193 235 284 339
#     4  11  22  36  53  78 114 153 193 237 287 342
#
# _framework density 21.951909000000001
#
# number of rings (size 3 to 8) (size 9 to 14) (size 15 to 20)
#    0.000    1.750    1.250    3.750    0.000    5.500 
#    0.000    0.000    0.000    0.750    0.000    0.000 
#    0.000    0.000    0.000    0.000    0.000    0.000 
#
# Total GULP energy -357311.475009 kJ/mol
# GULP energy per Si atom -5582.991797 kJ/mol
# Density = 2.190195 g / cm^3
# Si number density = 21.951909 Si / 1000 Ang^3
#
#
#
# Elastic Constant Matrix: (Units=GPa)
#
#
# Indices 1 2 3 4 5 6 
#
# 1 64.4474 34.1833 3.4741 0.0000 0.0000 0.0000
# 2 34.1833 88.1743 10.8110 0.0000 0.0000 0.0000
# 3 3.4741 10.8110 27.7030 0.0000 0.0000 0.0000
# 4 0.0000 0.0000 0.0000 19.1013 0.0000 0.0000
# 5 0.0000 0.0000 0.0000 0.0000 26.7138 0.0000
# 6 0.0000 0.0000 0.0000 0.0000 0.0000 17.6411
#
#
#
# Elastic Compliance Matrix: (Units=1/GPa)
#
#
# Indices 1 2 3 4 5 6 
#
# 1 0.019540 -0.007641 0.000531 0.000000 0.000000 0.000000
# 2 -0.007641 0.014899 -0.004856 0.000000 0.000000 0.000000
# 3 0.000531 -0.004856 0.037926 0.000000 0.000000 0.000000
# 4 0.000000 0.000000 0.000000 0.052353 0.000000 0.000000
# 5 0.000000 0.000000 0.000000 0.000000 0.037434 0.000000
# 6 0.000000 0.000000 0.000000 0.000000 0.000000 0.056686
#
#
# Mechanical properties :
#
#
# Convention : Reuss Voigt Hill
#
# Bulk Modulus (GPa) = 20.64659 30.80682 25.72671
# Shear Modulus (GPa) = 19.31156 21.48165 20.39661
#
# Velocity S-wave (km/s) = 2.96923 3.13162 3.05150
# Velocity P-wave (km/s) = 4.60227 5.20963 4.91534
#
# Compressibility (1/GPa) = 0.04843414
#
# Stress axis : x y z
#
# Youngs Moduli (GPa) = 51.17581 67.12025 26.36740
#
# Poissons Ratio (x) = 0.51284 -0.01401
# Poissons Ratio (y) = 0.39101 0.12804
# Poissons Ratio (z) = -0.02719 0.32594
#
# Static dielectric constant tensor:
#      x y z
#    x 1.839460 0.000000 0.000000 
#    y 0.000000 1.776020 0.000000 
#    z 0.000000 0.000000 1.897470 
# 
# From -- ./inp_files/29822.got.cif
#   From: 2010.05.17/outbox.cif.g08.bks.cpg/sg62_15_cif.got.tgz:29822.got - 2010.06.03 15:25:27.
