data_PCOD9461643
_publ_section_title
;
Structure prediction by ZEFSAII (Michael W. Deem and Ramdas Pophale) SiO2 
 PCOD9461643
Probable space group: P N M A
;
_chemical_formula_sum "Si O2"
_cell_formula_units_Z 64
_cell_length_a 17.359389
_cell_length_b 7.481723
_cell_length_c 22.092824
_cell_angle_alpha 90.000000
_cell_angle_beta 90.000000
_cell_angle_gamma 90.000000
_cell_volume 2869.374887
_symmetry_space_group_name_H-M "P N M A"
_symmetry_group_IT_number 62
_symmetry_cell_setting 'orthorhombic'
loop_
_space_group_symop_operation_xyz
x,y,z
1/2-x,-y,1/2+z
1/2+x,1/2-y,1/2-z
-x,1/2+y,-z
-x,-y,-z
1/2+x,y,1/2-z
1/2-x,1/2+y,1/2+z
x,1/2-y,z
loop_
_atom_site_type_symbol
_atom_site_label
_atom_site_fract_x
_atom_site_fract_y
_atom_site_fract_z
Si Si1 0.461625 0.465587 0.615301
Si Si2 0.387465 0.533783 0.933881
Si Si3 0.842753 0.958801 0.432923
Si Si4 0.273902 0.456019 0.824510
Si Si5 0.528874 0.457706 0.851761
Si Si6 0.637335 0.029950 0.600755
Si Si7 0.913960 0.030077 0.751210
Si Si8 0.679377 0.457609 0.469020
O O1 0.462805 0.250000 0.615237
O O2 0.548953 0.526149 0.605210
O O3 0.431429 0.524114 0.680817
O O4 0.401815 0.521958 0.564126
O O5 0.384539 0.750000 0.932178
O O6 0.324895 0.462888 0.885967
O O7 0.469729 0.472679 0.908224
O O8 0.368945 0.469445 0.001468
O O9 0.863899 0.750000 0.434499
O O10 0.891089 0.035248 0.376761
O O11 0.750669 0.967424 0.431069
O O12 0.260345 0.250000 0.807394
O O13 0.191598 0.531622 0.844246
O O14 0.331403 0.532843 0.774282
O O15 0.541464 0.250000 0.835727
O O16 0.480991 0.532221 0.794923
O O17 0.638502 0.250000 0.600675
O O18 0.672335 0.967466 0.536787
O O19 0.912788 0.250000 0.748644
O O20 0.696969 0.250000 0.475377
#
# Coordination Sequence:
#
# PCOD9461643 Si02
#       8
#     8   8   8   8   8   8   8   8
#     4  10  20  37  56  79 106 135 173 226 275 312
#     4  10  18  28  47  78 110 141 174 214 267 315
#     4  10  20  33  50  77 111 141 175 221 267 311
#     4   9  16  32  54  77 104 141 180 217 258 314
#     4   9  18  33  52  76 105 140 178 215 259 317
#     4   9  18  33  56  80 103 134 178 220 262 314
#     4   8  16  32  55  79 103 134 175 216 262 310
#     4  11  22  36  54  78 105 143 179 216 272 325
#
# _framework density 22.304508999999999
#
# number of rings (size 3 to 8) (size 9 to 14) (size 15 to 20)
#    0.000    2.500    1.250    2.250    0.000    1.000 
#    2.250    3.750    0.000    0.000    0.000    0.000 
#    0.000    0.000    0.000    0.000    0.000    0.000 
#
# Total GULP energy -357239.475559 kJ/mol
# GULP energy per Si atom -5581.866806 kJ/mol
# Density = 2.225374 g / cm^3
# Si number density = 22.304509 Si / 1000 Ang^3
#
#
#
# Elastic Constant Matrix: (Units=GPa)
#
#
# Indices 1 2 3 4 5 6 
#
# 1 114.2154 -13.1676 20.2332 0.0000 0.0000 0.0000
# 2 -13.1676 65.3500 1.0650 0.0000 0.0000 0.0000
# 3 20.2332 1.0650 28.6669 0.0000 0.0000 0.0000
# 4 0.0000 0.0000 0.0000 7.4488 0.0000 0.0000
# 5 0.0000 0.0000 0.0000 0.0000 5.1332 0.0000
# 6 0.0000 0.0000 0.0000 0.0000 0.0000 12.6429
#
#
#
# Elastic Compliance Matrix: (Units=1/GPa)
#
#
# Indices 1 2 3 4 5 6 
#
# 1 0.010313 0.002198 -0.007360 0.000000 0.000000 0.000000
# 2 0.002198 0.015780 -0.002138 0.000000 0.000000 0.000000
# 3 -0.007360 -0.002138 0.040158 0.000000 0.000000 0.000000
# 4 0.000000 0.000000 0.000000 0.134250 0.000000 0.000000
# 5 0.000000 0.000000 0.000000 0.000000 0.194810 0.000000
# 6 0.000000 0.000000 0.000000 0.000000 0.000000 0.079096
#
#
# Mechanical properties :
#
#
# Convention : Reuss Voigt Hill
#
# Bulk Modulus (GPa) = 19.36097 24.94374 22.15236
# Shear Modulus (GPa) = 9.87708 18.38511 14.13110
#
# Velocity S-wave (km/s) = 2.10663 2.87414 2.51978
# Velocity P-wave (km/s) = 3.82313 4.71400 4.29174
#
# Compressibility (1/GPa) = 0.05165031
#
# Stress axis : x y z
#
# Youngs Moduli (GPa) = 96.96818 63.37173 24.90178
#
# Poissons Ratio (x) = -0.13928 0.18329
# Poissons Ratio (y) = -0.21313 0.05323
# Poissons Ratio (z) = 0.71372 0.13546
#
# Static dielectric constant tensor:
#      x y z
#    x 1.828480 0.000000 0.000000 
#    y 0.000000 0.369600 0.000000 
#    z 0.000000 0.000000 1.790500 
# 
# From -- ./inp_files/30065.got.cif
#   From: 2010.05.17/outbox.cif.g08.bks.cpg/sg62_16_cif.got.tgz:30065.got - 2010.06.03 15:25:27.
