data_PCOD9461114
_publ_section_title
;
Structure prediction by ZEFSAII (Michael W. Deem and Ramdas Pophale) SiO2 
 PCOD9461114
Probable space group: P B C A
;
_chemical_formula_sum "Si O2"
_cell_formula_units_Z 48
_cell_length_a 8.474918
_cell_length_b 9.448813
_cell_length_c 26.924805
_cell_angle_alpha 90.000000
_cell_angle_beta 90.000000
_cell_angle_gamma 90.000000
_cell_volume 2156.082256
_symmetry_space_group_name_H-M "P B C A"
_symmetry_group_IT_number 61
_symmetry_cell_setting 'orthorhombic'
loop_
_space_group_symop_operation_xyz
x,y,z
1/2-x,-y,1/2+z
1/2+x,1/2-y,-z
-x,1/2+y,1/2-z
-x,-y,-z
1/2+x,y,1/2-z
1/2-x,1/2+y,z
x,1/2-y,1/2+z
loop_
_atom_site_type_symbol
_atom_site_label
_atom_site_fract_x
_atom_site_fract_y
_atom_site_fract_z
Si Si1 0.091917 0.620592 0.154189
Si Si2 0.415704 0.610700 0.203568
Si Si3 0.572915 0.904171 0.457435
Si Si4 0.390436 0.610957 0.854660
Si Si5 0.895165 0.075666 0.457839
Si Si6 0.915764 0.394012 0.210159
O O1 0.272497 0.656333 0.167413
O O2 0.040389 0.583428 0.098071
O O3 0.986711 0.755649 0.165925
O O4 0.053897 0.484515 0.185915
O O5 0.541073 0.529360 0.169929
O O6 0.359914 0.497595 0.245348
O O7 0.508268 0.745200 0.225467
O O8 0.445190 0.897214 0.412386
O O9 0.618794 0.742565 0.471768
O O10 0.500000 0.000000 0.500000
O O11 0.735049 0.988107 0.447605
O O12 0.215214 0.626386 0.832857
O O13 0.000000 0.000000 0.500000
#
# Coordination Sequence:
#
# PCOD9461114 Si02
#       6
#     8   8   8   8   8   8
#     4  11  25  46  71 105 145 193 244 307 375 446
#     4  12  25  47  73 103 148 193 250 309 373 448
#     4  11  25  47  74 109 151 188 251 312 381 455
#     4  11  25  46  70 109 145 192 247 308 379 449
#     4  11  25  46  75 107 147 196 247 308 382 451
#     4  12  27  44  75 105 145 195 253 309 376 454
#
# _framework density 22.262602000000001
#
# number of rings (size 3 to 8) (size 9 to 14) (size 15 to 20)
#    0.000    0.667    1.667    5.000    4.667    5.333 
#    0.000    1.667    0.000    0.000    0.000    0.000 
#    0.000    0.000    0.000    0.000    0.000    0.000 
#
# Total GULP energy -267934.868709 kJ/mol
# GULP energy per Si atom -5581.976431 kJ/mol
# Density = 2.221193 g / cm^3
# Si number density = 22.262602 Si / 1000 Ang^3
#
#
#
# Elastic Constant Matrix: (Units=GPa)
#
#
# Indices 1 2 3 4 5 6 
#
# 1 83.8046 32.6668 41.1919 0.0000 0.0000 0.0000
# 2 32.6668 170.4315 56.9276 0.0000 0.0000 0.0000
# 3 41.1919 56.9276 128.0246 0.0000 0.0000 0.0000
# 4 0.0000 0.0000 0.0000 29.4786 0.0000 0.0000
# 5 0.0000 0.0000 0.0000 0.0000 9.8923 0.0000
# 6 0.0000 0.0000 0.0000 0.0000 0.0000 37.7882
#
#
#
# Elastic Compliance Matrix: (Units=1/GPa)
#
#
# Indices 1 2 3 4 5 6 
#
# 1 0.014465 -0.001430 -0.004018 0.000000 0.000000 0.000000
# 2 -0.001430 0.007032 -0.002667 0.000000 0.000000 0.000000
# 3 -0.004018 -0.002667 0.010290 0.000000 0.000000 0.000000
# 4 0.000000 0.000000 0.000000 0.033923 0.000000 0.000000
# 5 0.000000 0.000000 0.000000 0.000000 0.101089 0.000000
# 6 0.000000 0.000000 0.000000 0.000000 0.000000 0.026463
#
#
# Mechanical properties :
#
#
# Convention : Reuss Voigt Hill
#
# Bulk Modulus (GPa) = 64.28179 71.53705 67.90942
# Shear Modulus (GPa) = 23.29065 32.19677 27.74371
#
# Velocity S-wave (km/s) = 3.23798 3.80705 3.53399
# Velocity P-wave (km/s) = 6.55106 7.17830 6.87184
#
# Compressibility (1/GPa) = 0.01555650
#
# Stress axis : x y z
#
# Youngs Moduli (GPa) = 69.13203 142.19913 97.18516
#
# Poissons Ratio (x) = 0.20340 0.39050
# Poissons Ratio (y) = 0.09889 0.25917
# Poissons Ratio (z) = 0.27778 0.37922
#
# Static dielectric constant tensor:
#      x y z
#    x 1.690190 0.000000 0.000000 
#    y 0.000000 0.039800 0.000000 
#    z 0.000000 0.000000 2.041000 
# 
# From -- ./inp_files/11691.got.cif
#   From: 2010.05.17/outbox.cif.g08.bks.cpg/sg61_6_cif.got.tgz:11691.got - 2010.06.03 15:17:17.
