data_PCOD9461554
_publ_section_title
;
Structure prediction by ZEFSAII (Michael W. Deem and Ramdas Pophale) SiO2 
 PCOD9461554
Probable space group: P N M A
;
_chemical_formula_sum "Si O2"
_cell_formula_units_Z 40
_cell_length_a 12.872356
_cell_length_b 12.761515
_cell_length_c 9.369495
_cell_angle_alpha 90.000000
_cell_angle_beta 90.000000
_cell_angle_gamma 90.000000
_cell_volume 1539.134104
_symmetry_space_group_name_H-M "P N M A"
_symmetry_group_IT_number 62
_symmetry_cell_setting 'orthorhombic'
loop_
_space_group_symop_operation_xyz
x,y,z
1/2-x,-y,1/2+z
1/2+x,1/2-y,1/2-z
-x,1/2+y,-z
-x,-y,-z
1/2+x,y,1/2-z
1/2-x,1/2+y,1/2+z
x,1/2-y,z
loop_
_atom_site_type_symbol
_atom_site_label
_atom_site_fract_x
_atom_site_fract_y
_atom_site_fract_z
Si Si1 0.819339 0.621933 0.489793
Si Si2 0.255636 0.872674 0.331958
Si Si3 0.020482 0.078325 0.839135
Si Si4 0.451447 0.132948 0.965484
Si Si5 0.892552 0.128105 0.114778
O O1 0.824389 0.750000 0.479412
O O2 0.777556 0.587466 0.331349
O O3 0.730079 0.603645 0.608001
O O4 0.938211 0.589963 0.524523
O O5 0.231173 0.750000 0.313785
O O6 0.369438 0.883426 0.400025
O O7 0.165877 0.910882 0.441230
O O8 0.986888 0.138337 0.699962
O O9 0.043279 0.957287 0.796849
O O10 0.935654 0.100660 0.957569
O O11 0.438109 0.250000 0.027819
O O12 0.908915 0.250000 0.144762
#
# Coordination Sequence:
#
# PCOD9461554 Si02
#       5
#     8   8   8   8   8
#     4   8  14  24  40  60  84 110 135 170 214 251
#     4   9  15  25  43  65  87 106 133 177 215 246
#     4  10  18  26  43  67  86 111 139 172 214 257
#     4   9  15  26  45  68  87 105 134 178 220 249
#     4  10  18  29  42  62  90 114 139 172 213 255
#
# _framework density 25.988637000000001
#
# number of rings (size 3 to 8) (size 9 to 14) (size 15 to 20)
#    0.000    2.800    2.000    3.000    0.000    0.000 
#    0.000    1.000    0.000    1.200    0.000    0.000 
#    0.000    0.000    0.000    0.000    0.000    0.000 
#
# Total GULP energy -223051.594698 kJ/mol
# GULP energy per Si atom -5576.289867 kJ/mol
# Density = 2.592949 g / cm^3
# Si number density = 25.988637 Si / 1000 Ang^3
#
#
#
# Elastic Constant Matrix: (Units=GPa)
#
#
# Indices 1 2 3 4 5 6 
#
# 1 190.4384 26.0254 34.7811 0.0000 0.0000 0.0000
# 2 26.0254 113.8417 13.9174 0.0000 0.0000 0.0000
# 3 34.7811 13.9174 56.9102 0.0000 0.0000 0.0000
# 4 0.0000 0.0000 0.0000 -0.0175 0.0000 0.0000
# 5 0.0000 0.0000 0.0000 0.0000 34.0804 0.0000
# 6 0.0000 0.0000 0.0000 0.0000 0.0000 43.8047
#
#
#
# Elastic Compliance Matrix: (Units=1/GPa)
#
#
# Indices 1 2 3 4 5 6 
#
# 1 0.006010 -0.000953 -0.003440 0.000000 0.000000 0.000000
# 2 -0.000953 0.009206 -0.001669 0.000000 0.000000 0.000000
# 3 -0.003440 -0.001669 0.020082 0.000000 0.000000 0.000000
# 4 0.000000 0.000000 0.000000-57.067535 0.000000 0.000000
# 5 0.000000 0.000000 0.000000 0.000000 0.029342 0.000000
# 6 0.000000 0.000000 0.000000 0.000000 0.000000 0.022829
#
#
# Mechanical properties :
#
#
# Convention : Reuss Voigt Hill
#
# Bulk Modulus (GPa) = 43.15173 56.73757 49.94465
# Shear Modulus (GPa) = -0.08778 34.67127 17.29174
#
# Velocity S-wave (km/s) = -0.18398 3.65649 2.58225
# Velocity P-wave (km/s) = 4.07369 6.30124 5.30569
#
# Compressibility (1/GPa) = 0.02317404
#
# Stress axis : x y z
#
# Youngs Moduli (GPa) = 166.40232 108.62398 49.79633
#
# Poissons Ratio (x) = 0.10356 0.17128
# Poissons Ratio (y) = 0.15864 0.08310
# Poissons Ratio (z) = 0.57236 0.18126
#
# Static dielectric constant tensor:
#      x y z
#    x 2.072200 0.000000 0.000000 
#    y 0.000000 2.236800 0.000000 
#    z 0.000000 0.000000 1.970640 
# 
# From -- ./inp_files/13105.got.cif
#   From: 2010.05.17/outbox.cif.g08.bks.cpg/sg62_7_cif.got.tgz:13105.got - 2010.06.03 15:25:27.
