data_PCOD9461583
_publ_section_title
;
Structure prediction by ZEFSAII (Michael W. Deem and Ramdas Pophale) SiO2 
 PCOD9461583
Probable space group: P N M A
;
_chemical_formula_sum "Si O2"
_cell_formula_units_Z 56
_cell_length_a 22.398163
_cell_length_b 8.900528
_cell_length_c 18.238955
_cell_angle_alpha 90.000000
_cell_angle_beta 90.000000
_cell_angle_gamma 90.000000
_cell_volume 3636.035573
_symmetry_space_group_name_H-M "P N M A"
_symmetry_group_IT_number 62
_symmetry_cell_setting 'orthorhombic'
loop_
_space_group_symop_operation_xyz
x,y,z
1/2-x,-y,1/2+z
1/2+x,1/2-y,1/2-z
-x,1/2+y,-z
-x,-y,-z
1/2+x,y,1/2-z
1/2-x,1/2+y,1/2+z
x,1/2-y,z
loop_
_atom_site_type_symbol
_atom_site_label
_atom_site_fract_x
_atom_site_fract_y
_atom_site_fract_z
Si Si1 0.340553 0.072557 0.118854
Si Si2 0.178880 0.422848 0.765504
Si Si3 0.321164 0.076607 0.730248
Si Si4 0.154393 0.071327 0.377665
Si Si5 0.285363 0.069623 0.573269
Si Si6 0.565044 0.929512 0.007442
Si Si7 0.782438 0.930925 0.079311
O O1 0.327700 0.250000 0.116190
O O2 0.395727 0.040826 0.065543
O O3 0.350835 0.021609 0.202524
O O4 0.282168 0.985933 0.089288
O O5 0.158938 0.250000 0.758975
O O6 0.250005 0.424920 0.747720
O O7 0.176896 0.471354 0.850273
O O8 0.340849 0.250000 0.737823
O O9 0.324083 0.029168 0.645349
O O10 0.350751 0.975625 0.792407
O O11 0.156877 0.250000 0.385546
O O12 0.101457 0.002295 0.425620
O O13 0.216666 0.999996 0.406609
O O14 0.285078 0.250000 0.567344
O O15 0.305002 0.993862 0.497759
O O16 0.561574 0.750000 0.017148
O O17 0.500000 0.000000 0.000000
O O18 0.776973 0.750000 0.077833
#
# Coordination Sequence:
#
# PCOD9461583 Si02
#       7
#     8   8   8   8   8   8   8
#     4  10  19  30  45  62  85 115 147 186 228 264
#     4   8  16  28  42  60  85 116 148 180 218 264
#     4   8  16  29  42  60  87 116 147 182 219 263
#     4  11  20  30  46  64  85 117 152 186 227 270
#     4  10  18  27  43  65  89 120 152 181 219 267
#     4  11  23  36  49  66  88 117 154 196 232 267
#     4  10  18  28  42  63  91 121 150 183 220 262
#
# _framework density 15.401389999999999
#
# number of rings (size 3 to 8) (size 9 to 14) (size 15 to 20)
#    0.000    2.286    1.429    4.714    0.000    8.000 
#    0.000    0.000    0.000    0.000    0.000    0.000 
#    0.000    1.143    0.000    3.714    0.000    5.429 
#
# Total GULP energy -312110.935142 kJ/mol
# GULP energy per Si atom -5573.409556 kJ/mol
# Density = 1.536634 g / cm^3
# Si number density = 15.401390 Si / 1000 Ang^3
#
#
#
# Elastic Constant Matrix: (Units=GPa)
#
#
# Indices 1 2 3 4 5 6 
#
# 1 39.1534 34.1065 32.0928 0.0000 0.0000 0.0000
# 2 34.1065 79.6474 63.2093 0.0000 0.0000 0.0000
# 3 32.0928 63.2093 157.1678 0.0000 0.0000 0.0000
# 4 0.0000 0.0000 0.0000 30.8956 0.0000 0.0000
# 5 0.0000 0.0000 0.0000 0.0000 11.0030 0.0000
# 6 0.0000 0.0000 0.0000 0.0000 0.0000 16.3163
#
#
#
# Elastic Compliance Matrix: (Units=1/GPa)
#
#
# Indices 1 2 3 4 5 6 
#
# 1 0.041131 -0.016080 -0.001932 0.000000 0.000000 0.000000
# 2 -0.016080 0.024728 -0.006661 0.000000 0.000000 0.000000
# 3 -0.001932 -0.006661 0.009436 0.000000 0.000000 0.000000
# 4 0.000000 0.000000 0.000000 0.032367 0.000000 0.000000
# 5 0.000000 0.000000 0.000000 0.000000 0.090884 0.000000
# 6 0.000000 0.000000 0.000000 0.000000 0.000000 0.061288
#
#
# Mechanical properties :
#
#
# Convention : Reuss Voigt Hill
#
# Bulk Modulus (GPa) = 38.53772 59.42064 48.97918
# Shear Modulus (GPa) = 15.73163 21.41365 18.57264
#
# Velocity S-wave (km/s) = 3.19947 3.73281 3.47638
# Velocity P-wave (km/s) = 6.22297 7.56595 6.92708
#
# Compressibility (1/GPa) = 0.02594861
#
# Stress axis : x y z
#
# Youngs Moduli (GPa) = 24.31231 40.44023 105.97523
#
# Poissons Ratio (x) = 0.65029 0.20471
# Poissons Ratio (y) = 0.39095 0.70595
# Poissons Ratio (z) = 0.04696 0.26939
#
# Static dielectric constant tensor:
#      x y z
#    x 1.466310 0.000000 0.000000 
#    y 0.000000 1.513870 0.000000 
#    z 0.000000 0.000000 1.567890 
# 
# From -- ./inp_files/24599.got.cif
#   From: 2010.05.17/outbox.cif.g08.bks.cpg/sg62_13_cif.got.tgz:24599.got - 2010.06.03 15:25:27.
