data_PCOD9461671
_publ_section_title
;
Structure prediction by ZEFSAII (Michael W. Deem and Ramdas Pophale) SiO2 
 PCOD9461671
Probable space group: P N M A
;
_chemical_formula_sum "Si O2"
_cell_formula_units_Z 64
_cell_length_a 18.761550
_cell_length_b 9.009306
_cell_length_c 26.936335
_cell_angle_alpha 90.000000
_cell_angle_beta 90.000000
_cell_angle_gamma 90.000000
_cell_volume 4553.009512
_symmetry_space_group_name_H-M "P N M A"
_symmetry_group_IT_number 62
_symmetry_cell_setting 'orthorhombic'
loop_
_space_group_symop_operation_xyz
x,y,z
1/2-x,-y,1/2+z
1/2+x,1/2-y,1/2-z
-x,1/2+y,-z
-x,-y,-z
1/2+x,y,1/2-z
1/2-x,1/2+y,1/2+z
x,1/2-y,z
loop_
_atom_site_type_symbol
_atom_site_label
_atom_site_fract_x
_atom_site_fract_y
_atom_site_fract_z
Si Si1 0.418992 0.072931 0.759427
Si Si2 0.917644 0.573004 0.445813
Si Si3 0.656489 0.074479 0.145260
Si Si4 0.214375 0.925034 0.199771
Si Si5 0.569770 0.924478 0.754315
Si Si6 0.085279 0.926950 0.448372
Si Si7 0.212141 0.575402 0.792247
Si Si8 0.837642 0.426090 0.354257
O O1 0.414885 0.250000 0.767452
O O2 0.367440 0.036794 0.712675
O O3 0.387730 0.991179 0.808119
O O4 0.499337 0.021183 0.751030
O O5 0.909059 0.750000 0.448196
O O6 0.898553 0.500584 0.498610
O O7 0.871888 0.505732 0.401340
O O8 0.001738 0.541082 0.437043
O O9 0.642186 0.250000 0.141463
O O10 0.740142 0.054891 0.159018
O O11 0.632331 0.993650 0.095573
O O12 0.220103 0.750000 0.190422
O O13 0.253587 0.969083 0.251111
O O14 0.259008 0.013373 0.158794
O O15 0.550503 0.750000 0.754394
O O16 0.627768 0.950092 0.710655
O O17 0.612249 0.954483 0.805852
O O18 0.093567 0.750000 0.451402
O O19 0.222186 0.750000 0.776856
O O20 0.835665 0.250000 0.361681
#
# Coordination Sequence:
#
# PCOD9461671 Si02
#       8
#     8   8   8   8   8   8   8   8
#     4  10  19  28  40  61  86 111 141 174 207 245
#     4  10  20  32  45  61  83 111 141 174 210 244
#     4  10  18  29  45  61  81 111 143 173 208 248
#     4   9  17  28  41  58  81 108 138 172 207 244
#     4   9  17  28  42  60  83 111 141 171 204 244
#     4  10  20  32  45  62  84 109 140 176 209 243
#     4   8  16  29  42  58  80 107 139 172 205 244
#     4  10  19  30  44  61  82 110 143 175 208 247
#
# _framework density 14.056637
#
# number of rings (size 3 to 8) (size 9 to 14) (size 15 to 20)
#    0.000    2.500    0.000    3.750    0.000    8.000 
#    0.000    0.000    0.000    0.000    0.000    0.000 
#    0.000    1.000    0.000    3.000    0.000    4.625 
#
# Total GULP energy -356553.261417 kJ/mol
# GULP energy per Si atom -5571.144710 kJ/mol
# Density = 1.402464 g / cm^3
# Si number density = 14.056637 Si / 1000 Ang^3
#
#
#
# Elastic Constant Matrix: (Units=GPa)
#
#
# Indices 1 2 3 4 5 6 
#
# 1 83.1270 44.9127 48.4282 0.0000 0.0000 0.0000
# 2 44.9127 56.7993 45.1428 0.0000 0.0000 0.0000
# 3 48.4282 45.1428 84.4721 0.0000 0.0000 0.0000
# 4 0.0000 0.0000 0.0000 24.1055 0.0000 0.0000
# 5 0.0000 0.0000 0.0000 0.0000 24.1526 0.0000
# 6 0.0000 0.0000 0.0000 0.0000 0.0000 20.6727
#
#
#
# Elastic Compliance Matrix: (Units=1/GPa)
#
#
# Indices 1 2 3 4 5 6 
#
# 1 0.022585 -0.013155 -0.005918 0.000000 0.000000 0.000000
# 2 -0.013155 0.038268 -0.012909 0.000000 0.000000 0.000000
# 3 -0.005918 -0.012909 0.022129 0.000000 0.000000 0.000000
# 4 0.000000 0.000000 0.000000 0.041484 0.000000 0.000000
# 5 0.000000 0.000000 0.000000 0.000000 0.041403 0.000000
# 6 0.000000 0.000000 0.000000 0.000000 0.000000 0.048373
#
#
# Mechanical properties :
#
#
# Convention : Reuss Voigt Hill
#
# Bulk Modulus (GPa) = 52.57991 55.70732 54.14362
# Shear Modulus (GPa) = 17.57186 19.51379 18.54282
#
# Velocity S-wave (km/s) = 3.53948 3.72993 3.63595
# Velocity P-wave (km/s) = 7.36144 7.63325 7.49858
#
# Compressibility (1/GPa) = 0.01901867
#
# Stress axis : x y z
#
# Youngs Moduli (GPa) = 44.27712 26.13176 45.18860
#
# Poissons Ratio (x) = 0.34377 0.26742
# Poissons Ratio (y) = 0.58248 0.58333
# Poissons Ratio (z) = 0.26202 0.33733
#
# Static dielectric constant tensor:
#      x y z
#    x 1.475950 0.000000 0.000000 
#    y 0.000000 1.468960 0.000000 
#    z 0.000000 0.000000 1.440240 
# 
# From -- ./inp_files/30031.got.cif
#   From: 2010.05.17/outbox.cif.g08.bks.cpg/sg62_16_cif.got.tgz:30031.got - 2010.06.03 15:25:27.
