data_PCOD9461261
_publ_section_title
;
Structure prediction by ZEFSAII (Michael W. Deem and Ramdas Pophale) SiO2 
 PCOD9461261
Probable space group: P B C A
;
_chemical_formula_sum "Si O2"
_cell_formula_units_Z 64
_cell_length_a 9.000000
_cell_length_b 21.000000
_cell_length_c 18.000000
_cell_angle_alpha 90.000000
_cell_angle_beta 90.000000
_cell_angle_gamma 90.000000
_cell_volume 3402.000000
_symmetry_space_group_name_H-M "P B C A"
_symmetry_group_IT_number 61
_symmetry_cell_setting 'orthorhombic'
loop_
_space_group_symop_operation_xyz
x,y,z
1/2-x,-y,1/2+z
1/2+x,1/2-y,-z
-x,1/2+y,1/2-z
-x,-y,-z
1/2+x,y,1/2-z
1/2-x,1/2+y,z
x,1/2-y,1/2+z
loop_
_atom_site_type_symbol
_atom_site_label
_atom_site_fract_x
_atom_site_fract_y
_atom_site_fract_z
Si Si1 0.411812 0.955437 0.891878
Si Si2 0.221119 0.442982 0.305756
Si Si3 0.770724 0.298351 0.162365
Si Si4 0.945797 0.807631 0.601038
Si Si5 0.173410 0.719950 0.667003
Si Si6 0.555637 0.320339 0.426632
Si Si7 0.400926 0.079089 0.661909
Si Si8 0.164454 0.038224 0.561731
O O1 0.402095 0.879949 0.878849
O O2 0.320845 0.000566 0.837261
O O3 0.581936 0.980083 0.897831
O O4 0.347047 0.969791 0.973876
O O5 0.241238 0.374302 0.345919
O O6 0.271191 0.430997 0.221853
O O7 0.047671 0.456410 0.312939
O O8 0.675317 0.246629 0.118245
O O9 0.761364 0.281825 0.249955
O O10 0.935551 0.293535 0.129920
O O11 0.977896 0.806998 0.512685
O O12 0.083944 0.783325 0.649462
O O13 0.291365 0.709399 0.601831
O O14 0.073982 0.655334 0.661981
O O15 0.574414 0.396759 0.419505
O O16 0.331667 0.052168 0.586844
#
# Coordination Sequence:
#
# PCOD9461261 Si02
#       8
#     8   8   8   8   8   8   8   8
#     4  10  21  38  60  83 124 159 191 239 301 359
#     4  11  21  37  62  88 114 153 204 246 288 353
#     4  11  21  37  62  87 117 158 199 252 296 349
#     4  11  22  39  57  88 124 157 192 247 308 354
#     4  10  21  37  60  90 116 150 199 252 296 350
#     4  10  20  36  63  86 118 154 205 242 291 358
#     4  10  21  36  64  88 111 148 205 252 284 351
#     4   9  19  38  59  87 114 157 195 239 296 356
#
# _framework density 18.812463000000001
#
# number of rings (size 3 to 8) (size 9 to 14) (size 15 to 20)
#    0.000    1.750    2.500    2.250    7.000    0.500 
#    4.500    1.250    0.000    0.000    0.000    0.000 
#    0.000    0.000    0.000    0.000    0.000    0.000 
#
# Total GULP energy -356676.327235 kJ/mol
# GULP energy per Si atom -5573.067613 kJ/mol
# Density = 1.876965 g / cm^3
# Si number density = 18.812463 Si / 1000 Ang^3
#
#
#
# Elastic Constant Matrix: (Units=GPa)
#
#
# Indices 1 2 3 4 5 6 
#
# 1 28.6455 3.1034 11.3212 0.0000 0.0000 0.0000
# 2 3.1034 70.0311 28.7233 0.0000 0.0000 0.0000
# 3 11.3212 28.7233 50.4453 0.0000 0.0000 0.0000
# 4 0.0000 0.0000 0.0000 29.7262 0.0000 0.0000
# 5 0.0000 0.0000 0.0000 0.0000 16.5147 0.0000
# 6 0.0000 0.0000 0.0000 0.0000 0.0000 -7.5583
#
#
#
# Elastic Compliance Matrix: (Units=1/GPa)
#
#
# Indices 1 2 3 4 5 6 
#
# 1 0.038615 0.002405 -0.010035 0.000000 0.000000 0.000000
# 2 0.002405 0.018780 -0.011233 0.000000 0.000000 0.000000
# 3 -0.010035 -0.011233 0.028472 0.000000 0.000000 0.000000
# 4 0.000000 0.000000 0.000000 0.033640 0.000000 0.000000
# 5 0.000000 0.000000 0.000000 0.000000 0.060552 0.000000
# 6 0.000000 0.000000 0.000000 0.000000 0.000000 -0.132305
#
#
# Mechanical properties :
#
#
# Convention : Reuss Voigt Hill
#
# Bulk Modulus (GPa) = 20.77293 26.15752 23.46522
# Shear Modulus (GPa) = 49.24735 14.80145 32.02440
#
# Velocity S-wave (km/s) = 5.12200 2.80802 4.13037
# Velocity P-wave (km/s) = 6.78571 4.94448 5.93691
#
# Compressibility (1/GPa) = 0.04813958
#
# Stress axis : x y z
#
# Youngs Moduli (GPa) = 25.89660 53.24816 35.12273
#
# Poissons Ratio (x) = -0.12805 0.35247
# Poissons Ratio (y) = -0.06228 0.39453
# Poissons Ratio (z) = 0.25988 0.59813
#
# Static dielectric constant tensor:
#      x y z
#    x 1.714230 0.000000 0.000000 
#    y 0.000000 1.641360 0.000000 
#    z 0.000000 0.000000 1.629540 
# 
# From -- ./inp_files/3713.got.cif
#   From: 2010.05.17/outbox.ucp.g08.bks.cvg/sg61_2_cif.got.tgz:3713.got - 2010.06.11 16:28:26.
