data_PCOD9461196
_publ_section_title
;
Structure prediction by ZEFSAII (Michael W. Deem and Ramdas Pophale) SiO2 
 PCOD9461196
Probable space group: P B C A
;
_chemical_formula_sum "Si O2"
_cell_formula_units_Z 36
_cell_length_a 12.690125
_cell_length_b 8.163477
_cell_length_c 12.525881
_cell_angle_alpha 90.000000
_cell_angle_beta 90.000000
_cell_angle_gamma 90.000000
_cell_volume 1297.625451
_symmetry_space_group_name_H-M "P B C A"
_symmetry_group_IT_number 61
_symmetry_cell_setting 'orthorhombic'
loop_
_space_group_symop_operation_xyz
x,y,z
1/2-x,-y,1/2+z
1/2+x,1/2-y,-z
-x,1/2+y,1/2-z
-x,-y,-z
1/2+x,y,1/2-z
1/2-x,1/2+y,z
x,1/2-y,1/2+z
loop_
_atom_site_type_symbol
_atom_site_label
_atom_site_fract_x
_atom_site_fract_y
_atom_site_fract_z
Si Si1 0.302532 0.572162 0.185245
Si Si2 0.114897 0.613929 0.339370
Si Si3 0.977347 0.735377 0.683789
Si Si4 0.000000 0.000000 0.500000
Si Si5 0.733483 0.158639 0.965070
O O1 0.191779 0.565558 0.244269
O O2 0.377016 0.664583 0.267993
O O3 0.305588 0.390274 0.137856
O O4 0.309717 0.667453 0.073087
O O5 0.046342 0.449040 0.354112
O O6 0.188233 0.662810 0.436256
O O7 0.045661 0.764190 0.294686
O O8 0.013744 0.850289 0.587530
O O9 0.871511 0.947780 0.485546
#
# Coordination Sequence:
#
# PCOD9461196 Si02
#       5
#     8   8   8   4   8
#     4  12  26  50  77 121 167 222 281 350 437 520
#     4  12  29  52  84 122 179 221 295 360 441 522
#     4  12  27  52  83 126 166 235 282 369 435 532
#     4  12  24  50  84 122 168 216 294 350 446 516
#     4  12  28  49  82 121 164 227 282 360 436 527
#
# _framework density 27.742982000000001
#
# number of rings (size 3 to 8) (size 9 to 14) (size 15 to 20)
#    0.000    0.000    6.667    1.333    3.111    4.444 
#    0.000    0.000    0.000    0.000    0.000    0.000 
#    0.000    0.000    0.000    0.000    0.000    0.000 
#
# Total GULP energy -200617.586791 kJ/mol
# GULP energy per Si atom -5572.710744 kJ/mol
# Density = 2.767984 g / cm^3
# Si number density = 27.742982 Si / 1000 Ang^3
#
#
#
# Elastic Constant Matrix: (Units=GPa)
#
#
# Indices 1 2 3 4 5 6 
#
# 1 105.2934 22.8166 29.1210 0.0000 0.0000 0.0000
# 2 22.8166 115.1790 35.8314 0.0000 0.0000 0.0000
# 3 29.1210 35.8314 89.0119 0.0000 0.0000 0.0000
# 4 0.0000 0.0000 0.0000 28.3135 0.0000 0.0000
# 5 0.0000 0.0000 0.0000 0.0000 72.1233 0.0000
# 6 0.0000 0.0000 0.0000 0.0000 0.0000 40.6053
#
#
#
# Elastic Compliance Matrix: (Units=1/GPa)
#
#
# Indices 1 2 3 4 5 6 
#
# 1 0.010577 -0.001165 -0.002992 0.000000 0.000000 0.000000
# 2 -0.001165 0.010053 -0.003666 0.000000 0.000000 0.000000
# 3 -0.002992 -0.003666 0.013689 0.000000 0.000000 0.000000
# 4 0.000000 0.000000 0.000000 0.035319 0.000000 0.000000
# 5 0.000000 0.000000 0.000000 0.000000 0.013865 0.000000
# 6 0.000000 0.000000 0.000000 0.000000 0.000000 0.024627
#
#
# Mechanical properties :
#
#
# Convention : Reuss Voigt Hill
#
# Bulk Modulus (GPa) = 53.54745 53.89136 53.71941
# Shear Modulus (GPa) = 38.46164 42.98943 40.72554
#
# Velocity S-wave (km/s) = 3.72742 3.94072 3.83555
# Velocity P-wave (km/s) = 6.15370 6.33822 6.24664
#
# Compressibility (1/GPa) = 0.01867502
#
# Stress axis : x y z
#
# Youngs Moduli (GPa) = 94.54461 99.46994 73.05209
#
# Poissons Ratio (x) = 0.11585 0.21854
# Poissons Ratio (y) = 0.11011 0.26780
# Poissons Ratio (z) = 0.28283 0.36465
#
# Static dielectric constant tensor:
#      x y z
#    x 2.358550 0.000000 0.000000 
#    y 0.000000 2.287930 0.000000 
#    z 0.000000 0.000000 2.013050 
# 
# From -- ./inp_files/7327.got.cif
#   From: 2010.05.17/outbox.cif.g08.bks.cpg/sg61_4_cif.got.tgz:7327.got - 2010.06.03 15:17:17.
