data_PCOD9461873
_publ_section_title
;
Structure prediction by ZEFSAII (Michael W. Deem and Ramdas Pophale) SiO2 
 PCOD9461873
Probable space group: P N M A
;
_chemical_formula_sum "Si O2"
_cell_formula_units_Z 64
_cell_length_a 30.613057
_cell_length_b 8.084369
_cell_length_c 12.288411
_cell_angle_alpha 90.000000
_cell_angle_beta 90.000000
_cell_angle_gamma 90.000000
_cell_volume 3041.225033
_symmetry_space_group_name_H-M "P N M A"
_symmetry_group_IT_number 62
_symmetry_cell_setting 'orthorhombic'
loop_
_space_group_symop_operation_xyz
x,y,z
1/2-x,-y,1/2+z
1/2+x,1/2-y,1/2-z
-x,1/2+y,-z
-x,-y,-z
1/2+x,y,1/2-z
1/2-x,1/2+y,1/2+z
x,1/2-y,z
loop_
_atom_site_type_symbol
_atom_site_label
_atom_site_fract_x
_atom_site_fract_y
_atom_site_fract_z
Si Si1 0.156643 0.444827 0.856111
Si Si2 0.565549 0.939364 0.283415
Si Si3 0.663799 0.949820 0.260480
Si Si4 0.933790 0.939203 0.018394
Si Si5 0.973050 0.445457 0.242111
Si Si6 0.316626 0.047416 0.981435
Si Si7 0.888494 0.056522 0.359233
Si Si8 0.278183 0.550642 0.534593
O O1 0.162019 0.250000 0.828834
O O2 0.141996 0.538162 0.747795
O O3 0.115813 0.456234 0.939235
O O4 0.198218 0.507068 0.923272
O O5 0.565981 0.750000 0.246781
O O6 0.613739 0.012396 0.264897
O O7 0.559210 0.949143 0.413810
O O8 0.523238 0.021915 0.230100
O O9 0.661676 0.750000 0.264611
O O10 0.683728 0.999241 0.144784
O O11 0.692971 0.003702 0.361823
O O12 0.941575 0.750000 0.984109
O O13 0.962549 0.979276 0.123695
O O14 0.965893 0.250000 0.232061
O O15 0.935844 0.513033 0.324404
O O16 0.317522 0.250000 0.986022
O O17 0.360084 0.985617 0.042194
O O18 0.271800 0.993012 0.038572
O O19 0.895358 0.250000 0.383371
O O20 0.278178 0.750000 0.528371
#
# Coordination Sequence:
#
# PCOD9461873 Si02
#       8
#     8   8   8   8   8   8   8   8
#     4   9  18  31  51  80 111 143 174 217 274 322
#     4  11  21  33  51  77 108 145 185 228 276 327
#     4  10  22  39  59  82 112 147 186 229 273 330
#     4  10  18  31  50  75 111 146 176 219 272 326
#     4  10  20  33  52  78 108 144 186 230 275 328
#     4   9  20  39  60  81 110 148 185 227 278 328
#     4   9  19  36  57  79 107 145 188 227 268 325
#     4  10  20  36  58  83 112 144 179 223 279 333
#
# _framework density 21.044150999999999
#
# number of rings (size 3 to 8) (size 9 to 14) (size 15 to 20)
#    0.000    2.250    1.250    1.500    1.750    2.000 
#    0.000    1.875    0.000    0.000    0.000    0.000 
#    0.000    0.000    0.000    0.000    0.000    0.000 
#
# Total GULP energy -357178.092767 kJ/mol
# GULP energy per Si atom -5580.907699 kJ/mol
# Density = 2.099625 g / cm^3
# Si number density = 21.044151 Si / 1000 Ang^3
#
#
#
# Elastic Constant Matrix: (Units=GPa)
#
#
# Indices 1 2 3 4 5 6 
#
# 1 130.0242 2.4790 30.9891 0.0000 0.0000 0.0000
# 2 2.4790 14.2271 -7.2364 0.0000 0.0000 0.0000
# 3 30.9891 -7.2364 33.3372 0.0000 0.0000 0.0000
# 4 0.0000 0.0000 0.0000 10.7378 0.0000 0.0000
# 5 0.0000 0.0000 0.0000 0.0000 12.6748 0.0000
# 6 0.0000 0.0000 0.0000 0.0000 0.0000 16.1724
#
#
#
# Elastic Compliance Matrix: (Units=1/GPa)
#
#
# Indices 1 2 3 4 5 6 
#
# 1 0.010580 -0.007695 -0.011505 0.000000 0.000000 0.000000
# 2 -0.007695 0.084609 0.025519 0.000000 0.000000 0.000000
# 3 -0.011505 0.025519 0.046230 0.000000 0.000000 0.000000
# 4 0.000000 0.000000 0.000000 0.093129 0.000000 0.000000
# 5 0.000000 0.000000 0.000000 0.000000 0.078897 0.000000
# 6 0.000000 0.000000 0.000000 0.000000 0.000000 0.061834
#
#
# Mechanical properties :
#
#
# Convention : Reuss Voigt Hill
#
# Bulk Modulus (GPa) = 6.49113 25.56134 16.02624
# Shear Modulus (GPa) = 12.07752 18.00745 15.04249
#
# Velocity S-wave (km/s) = 2.39825 2.92841 2.67649
# Velocity P-wave (km/s) = 3.28025 4.85870 4.14530
#
# Compressibility (1/GPa) = 0.15405635
#
# Stress axis : x y z
#
# Youngs Moduli (GPa) = 94.52210 11.81910 21.63093
#
# Poissons Ratio (x) = 0.09095 0.24886
# Poissons Ratio (y) = 0.72736 -0.55199
# Poissons Ratio (z) = 1.08745 -0.30161
#
# Static dielectric constant tensor:
#      x y z
#    x 1.799850 0.000000 0.000000 
#    y 0.000000 1.758190 0.000000 
#    z 0.000000 0.000000 1.721640 
# 
# From -- ./inp_files/15776.got.cif
#   From: 2010.05.17/outbox.cif.g08.bks.cpg/sg62_8_cif.got.tgz:15776.got - 2010.06.03 15:25:27.
