data_PCOD9461376
_publ_section_title
;
Structure prediction by ZEFSAII (Michael W. Deem and Ramdas Pophale) SiO2 
 PCOD9461376
Probable space group: P N M A
;
_chemical_formula_sum "Si O2"
_cell_formula_units_Z 56
_cell_length_a 18.482912
_cell_length_b 8.514009
_cell_length_c 14.371079
_cell_angle_alpha 90.000000
_cell_angle_beta 90.000000
_cell_angle_gamma 90.000000
_cell_volume 2261.485864
_symmetry_space_group_name_H-M "P N M A"
_symmetry_group_IT_number 62
_symmetry_cell_setting 'orthorhombic'
loop_
_space_group_symop_operation_xyz
x,y,z
1/2-x,-y,1/2+z
1/2+x,1/2-y,1/2-z
-x,1/2+y,-z
-x,-y,-z
1/2+x,y,1/2-z
1/2-x,1/2+y,1/2+z
x,1/2-y,z
loop_
_atom_site_type_symbol
_atom_site_label
_atom_site_fract_x
_atom_site_fract_y
_atom_site_fract_z
Si Si1 0.003160 0.065924 0.274576
Si Si2 0.653234 0.563444 0.875357
Si Si3 0.861379 0.931503 0.921482
Si Si4 0.571242 0.062315 0.604795
Si Si5 0.715610 0.930598 0.257107
Si Si6 0.072423 0.938206 0.449603
Si Si7 0.220683 0.569517 0.917705
O O1 0.017069 0.250000 0.263936
O O2 0.925072 0.046678 0.325523
O O3 0.991371 0.988396 0.174256
O O4 0.062088 0.993997 0.344314
O O5 0.671660 0.750000 0.873332
O O6 0.713025 0.468468 0.818935
O O7 0.637219 0.509400 0.981945
O O8 0.864124 0.750000 0.896402
O O9 0.925918 0.968943 0.993530
O O10 0.792959 0.962103 0.991564
O O11 0.847829 0.028359 0.829139
O O12 0.583553 0.250000 0.614829
O O13 0.642686 0.962427 0.632957
O O14 0.713781 0.750000 0.230192
O O15 0.722514 0.026695 0.161640
O O16 0.073194 0.750000 0.451495
O O17 0.000000 0.000000 0.500000
O O18 0.225876 0.750000 0.946307
#
# Coordination Sequence:
#
# PCOD9461376 Si02
#       7
#     8   8   8   8   8   8   8
#     4  10  17  25  40  56  75 103 133 167 208 242
#     4   9  17  27  37  52  75 104 137 171 203 239
#     4   9  19  32  44  60  81 105 139 178 211 247
#     4   9  17  28  42  57  76 101 134 169 203 241
#     4  12  21  28  44  63  82 113 144 173 212 252
#     4   9  17  26  36  50  73 100 133 170 203 237
#     4  10  18  30  44  59  82 106 137 174 207 248
#
# _framework density 24.762481999999999
#
# number of rings (size 3 to 8) (size 9 to 14) (size 15 to 20)
#    0.857    1.429    1.429    4.714    0.000    2.857 
#    0.000    0.000    0.000    0.000    0.000    0.000 
#    0.000    0.000    0.000    1.286    0.000   17.000 
#
# Total GULP energy -312950.650967 kJ/mol
# GULP energy per Si atom -5588.404482 kJ/mol
# Density = 2.470612 g / cm^3
# Si number density = 24.762482 Si / 1000 Ang^3
#
#
#
# Elastic Constant Matrix: (Units=GPa)
#
#
# Indices 1 2 3 4 5 6 
#
# 1 96.4675 12.3160 15.4002 0.0000 0.0000 0.0000
# 2 12.3160 31.7796 59.5665 0.0000 0.0000 0.0000
# 3 15.4002 59.5665 108.0579 0.0000 0.0000 0.0000
# 4 0.0000 0.0000 0.0000 122.9037 0.0000 0.0000
# 5 0.0000 0.0000 0.0000 0.0000 33.1515 0.0000
# 6 0.0000 0.0000 0.0000 0.0000 0.0000 -18.8996
#
#
#
# Elastic Compliance Matrix: (Units=1/GPa)
#
#
# Indices 1 2 3 4 5 6 
#
# 1 0.009248 0.033504 -0.019787 0.000000 0.000000 0.000000
# 2 0.033504 -0.825395 0.450221 0.000000 0.000000 0.000000
# 3 -0.019787 0.450221 -0.236108 0.000000 0.000000 0.000000
# 4 0.000000 0.000000 0.000000 0.008136 0.000000 0.000000
# 5 0.000000 0.000000 0.000000 0.000000 0.030165 0.000000
# 6 0.000000 0.000000 0.000000 0.000000 0.000000 -0.052911
#
#
# Mechanical properties :
#
#
# Convention : Reuss Voigt Hill
#
# Bulk Modulus (GPa) = -8.03991 45.65227 18.80618
# Shear Modulus (GPa) = -2.45555 37.36595 17.45520
#
# Velocity S-wave (km/s) = -0.99689 3.88877 2.65789
# Velocity P-wave (km/s) = 2.13984 6.21606 4.12677
#
# Compressibility (1/GPa) = -0.12437947
#
# Stress axis : x y z
#
# Youngs Moduli (GPa) = 108.13727 -1.21154 -4.23535
#
# Poissons Ratio (x) = 0.04059 -0.08381
# Poissons Ratio (y) = -3.62308 1.90684
# Poissons Ratio (z) = 2.13973 0.54546
#
# Static dielectric constant tensor:
#      x y z
#    x 2.067340 0.000000 0.000000 
#    y 0.000000 1.821680 0.000000 
#    z 0.000000 0.000000 1.987740 
# 
# From -- ./inp_files/21166.got.cif
#   From: 2010.05.17/outbox.cif.g08.bks.cpg/sg62_11_cif.got.tgz:21166.got - 2010.06.03 15:25:27.
