data_PCOD9461339
_publ_section_title
;
Structure prediction by ZEFSAII (Michael W. Deem and Ramdas Pophale) SiO2 
 PCOD9461339
Probable space group: P N M A
;
_chemical_formula_sum "Si O2"
_cell_formula_units_Z 64
_cell_length_a 24.110504
_cell_length_b 7.615202
_cell_length_c 19.907649
_cell_angle_alpha 90.000000
_cell_angle_beta 90.000000
_cell_angle_gamma 90.000000
_cell_volume 3655.170935
_symmetry_space_group_name_H-M "P N M A"
_symmetry_group_IT_number 62
_symmetry_cell_setting 'orthorhombic'
loop_
_space_group_symop_operation_xyz
x,y,z
1/2-x,-y,1/2+z
1/2+x,1/2-y,1/2-z
-x,1/2+y,-z
-x,-y,-z
1/2+x,y,1/2-z
1/2-x,1/2+y,1/2+z
x,1/2-y,z
loop_
_atom_site_type_symbol
_atom_site_label
_atom_site_fract_x
_atom_site_fract_y
_atom_site_fract_z
Si Si1 0.271356 0.963239 0.345372
Si Si2 0.567369 0.955898 0.143112
Si Si3 0.771861 0.461078 0.862969
Si Si4 0.243356 0.959377 0.490447
Si Si5 0.838926 0.463344 0.738503
Si Si6 0.115868 0.965713 0.498225
Si Si7 0.336462 0.962360 0.218314
Si Si8 0.442015 0.044614 0.134191
O O1 0.274832 0.750000 0.346301
O O2 0.270918 0.027317 0.421824
O O3 0.211966 0.005211 0.311688
O O4 0.318058 0.022536 0.292588
O O5 0.581414 0.750000 0.139964
O O6 0.604822 0.028293 0.203893
O O7 0.501900 0.970403 0.151908
O O8 0.586379 0.025518 0.070334
O O9 0.771026 0.250000 0.858949
O O10 0.775510 0.507917 0.940643
O O11 0.819598 0.525228 0.812088
O O12 0.712628 0.522049 0.832367
O O13 0.238749 0.750000 0.482322
O O14 0.179964 0.024260 0.498144
O O15 0.841443 0.250000 0.743108
O O16 0.115866 0.750000 0.500257
O O17 0.083529 0.027561 0.564507
O O18 0.336125 0.750000 0.217968
O O19 0.395470 0.020416 0.190828
O O20 0.451161 0.250000 0.123677
#
# Coordination Sequence:
#
# PCOD9461339 Si02
#       8
#     8   8   8   8   8   8   8   8
#     4   8  14  26  47  68  86 111 150 190 217 253
#     4  10  18  31  49  64  82 120 164 191 211 250
#     4   9  17  28  44  67  92 114 142 184 226 263
#     4  10  16  27  47  69  91 120 149 176 218 270
#     4   8  14  27  46  65  85 113 150 188 221 253
#     4   9  17  28  43  63  90 121 153 181 211 255
#     4   9  17  30  46  65  86 115 154 189 216 253
#     4  11  21  31  42  63  94 124 150 184 226 264
#
# _framework density 17.509440000000001
#
# number of rings (size 3 to 8) (size 9 to 14) (size 15 to 20)
#    0.000    2.750    2.500    2.250    0.000    0.000 
#    0.000    2.500    0.000    1.500    0.000    0.875 
#    0.000    0.000    0.000    0.000    0.000    0.000 
#
# Total GULP energy -356768.709523 kJ/mol
# GULP energy per Si atom -5574.511086 kJ/mol
# Density = 1.746959 g / cm^3
# Si number density = 17.509440 Si / 1000 Ang^3
#
#
#
# Elastic Constant Matrix: (Units=GPa)
#
#
# Indices 1 2 3 4 5 6 
#
# 1 90.4613 -6.8675 64.4454 0.0000 0.0000 0.0000
# 2 -6.8675 28.1960 -6.7676 0.0000 0.0000 0.0000
# 3 64.4454 -6.7676 147.7863 0.0000 0.0000 0.0000
# 4 0.0000 0.0000 0.0000 12.7011 0.0000 0.0000
# 5 0.0000 0.0000 0.0000 0.0000 20.1213 0.0000
# 6 0.0000 0.0000 0.0000 0.0000 0.0000 6.3055
#
#
#
# Elastic Compliance Matrix: (Units=1/GPa)
#
#
# Indices 1 2 3 4 5 6 
#
# 1 0.016179 0.002272 -0.006951 0.000000 0.000000 0.000000
# 2 0.002272 0.036179 0.000666 0.000000 0.000000 0.000000
# 3 -0.006951 0.000666 0.009828 0.000000 0.000000 0.000000
# 4 0.000000 0.000000 0.000000 0.078733 0.000000 0.000000
# 5 0.000000 0.000000 0.000000 0.000000 0.049699 0.000000
# 6 0.000000 0.000000 0.000000 0.000000 0.000000 0.158591
#
#
# Mechanical properties :
#
#
# Convention : Reuss Voigt Hill
#
# Bulk Modulus (GPa) = 18.46364 40.89602 29.67983
# Shear Modulus (GPa) = 13.32308 22.20115 17.76211
#
# Velocity S-wave (km/s) = 2.76145 3.56470 3.18847
# Velocity P-wave (km/s) = 4.55361 6.35217 5.52654
#
# Compressibility (1/GPa) = 0.05416050
#
# Stress axis : x y z
#
# Youngs Moduli (GPa) = 61.80856 27.64008 101.74788
#
# Poissons Ratio (x) = -0.06280 0.70726
# Poissons Ratio (y) = -0.14044 -0.06776
# Poissons Ratio (z) = 0.42964 -0.01841
#
# Static dielectric constant tensor:
#      x y z
#    x 1.571940 0.000000 0.000000 
#    y 0.000000 1.676380 0.000000 
#    z 0.000000 0.000000 1.623930 
# 
# From -- ./inp_files/27884.got.cif
#   From: 2010.05.17/outbox.cif.g08.bks.cpg/sg62_14_cif.got.tgz:27884.got - 2010.06.03 15:25:27.
