data_PCOD9461949
_publ_section_title
;
Structure prediction by ZEFSAII (Michael W. Deem and Ramdas Pophale) SiO2 
 PCOD9461949
Probable space group: P N M A
;
_chemical_formula_sum "Si O2"
_cell_formula_units_Z 64
_cell_length_a 18.246285
_cell_length_b 12.947005
_cell_length_c 13.797486
_cell_angle_alpha 90.000000
_cell_angle_beta 90.000000
_cell_angle_gamma 90.000000
_cell_volume 3259.445561
_symmetry_space_group_name_H-M "P N M A"
_symmetry_group_IT_number 62
_symmetry_cell_setting 'orthorhombic'
loop_
_space_group_symop_operation_xyz
x,y,z
1/2-x,-y,1/2+z
1/2+x,1/2-y,1/2-z
-x,1/2+y,-z
-x,-y,-z
1/2+x,y,1/2-z
1/2-x,1/2+y,1/2+z
x,1/2-y,z
loop_
_atom_site_type_symbol
_atom_site_label
_atom_site_fract_x
_atom_site_fract_y
_atom_site_fract_z
Si Si1 0.795874 0.566199 0.632592
Si Si2 0.512536 0.129268 0.728424
Si Si3 0.160259 0.630266 0.252996
Si Si4 0.699319 0.626641 0.462322
Si Si5 0.073234 0.982777 0.607744
Si Si6 0.934078 0.635653 0.564473
Si Si7 0.569385 0.513535 0.571190
Si Si8 0.852564 0.369713 0.237862
O O1 0.811611 0.449330 0.666390
O O2 0.769883 0.592640 0.523236
O O3 0.872318 0.625637 0.646711
O O4 0.726367 0.607683 0.691606
O O5 0.523073 0.250000 0.739379
O O6 0.424730 0.110121 0.722181
O O7 0.538311 0.068787 0.822784
O O8 0.559919 0.088995 0.637092
O O9 0.164584 0.750000 0.284513
O O10 0.205207 0.617913 0.153078
O O11 0.683144 0.750000 0.482455
O O12 0.635800 0.549783 0.501692
O O13 0.082666 0.039609 0.506511
O O14 0.140983 0.936581 0.665081
O O15 0.015439 0.889299 0.599329
O O16 0.929816 0.750000 0.520765
O O17 0.500000 0.500000 0.500000
O O18 0.584245 0.595004 0.660294
O O19 0.860577 0.250000 0.257313
#
# Coordination Sequence:
#
# PCOD9461949 Si02
#       8
#     8   8   8   8   8   8   8   8
#     4  11  22  39  62  90 119 157 210 254 298 364
#     4  10  19  35  57  84 117 153 191 238 299 356
#     4  10  21  38  63  87 116 160 203 244 302 363
#     4  10  21  39  62  84 116 162 201 241 306 372
#     4  10  22  39  58  90 118 156 198 250 301 363
#     4  11  22  38  62  89 119 154 202 254 303 361
#     4  10  18  31  57  87 114 145 190 241 285 359
#     4  10  22  40  60  84 120 162 197 245 309 364
#
# _framework density 19.635241000000001
#
# number of rings (size 3 to 8) (size 9 to 14) (size 15 to 20)
#    0.000    1.750    2.500    3.000    1.750    0.500 
#    0.000    6.250    0.000    2.250    0.000    0.000 
#    0.000    0.000    0.000    0.000    0.000    0.000 
#
# Total GULP energy -356285.526786 kJ/mol
# GULP energy per Si atom -5566.961356 kJ/mol
# Density = 1.959055 g / cm^3
# Si number density = 19.635241 Si / 1000 Ang^3
#
#
#
# Elastic Constant Matrix: (Units=GPa)
#
#
# Indices 1 2 3 4 5 6 
#
# 1 67.8440 23.8819 2.9043 0.0000 0.0000 0.0000
# 2 23.8819 113.5054 24.5677 0.0000 0.0000 0.0000
# 3 2.9043 24.5677 39.7040 0.0000 0.0000 0.0000
# 4 0.0000 0.0000 0.0000 26.8716 0.0000 0.0000
# 5 0.0000 0.0000 0.0000 0.0000 17.5952 0.0000
# 6 0.0000 0.0000 0.0000 0.0000 0.0000 24.7888
#
#
#
# Elastic Compliance Matrix: (Units=1/GPa)
#
#
# Indices 1 2 3 4 5 6 
#
# 1 0.015957 -0.003585 0.001051 0.000000 0.000000 0.000000
# 2 -0.003585 0.010978 -0.006531 0.000000 0.000000 0.000000
# 3 0.001051 -0.006531 0.029150 0.000000 0.000000 0.000000
# 4 0.000000 0.000000 0.000000 0.037214 0.000000 0.000000
# 5 0.000000 0.000000 0.000000 0.000000 0.056834 0.000000
# 6 0.000000 0.000000 0.000000 0.000000 0.000000 0.040341
#
#
# Mechanical properties :
#
#
# Convention : Reuss Voigt Hill
#
# Bulk Modulus (GPa) = 26.34622 35.97346 31.15984
# Shear Modulus (GPa) = 22.59844 25.16443 23.88144
#
# Velocity S-wave (km/s) = 3.39619 3.58382 3.49127
# Velocity P-wave (km/s) = 5.36896 5.95698 5.67060
#
# Compressibility (1/GPa) = 0.03795610
#
# Stress axis : x y z
#
# Youngs Moduli (GPa) = 62.67005 91.09197 34.30482
#
# Poissons Ratio (x) = 0.32655 -0.03605
# Poissons Ratio (y) = 0.22466 0.22403
# Poissons Ratio (z) = -0.06586 0.59488
#
# Static dielectric constant tensor:
#      x y z
#    x 1.734060 0.000000 0.000000 
#    y 0.000000 1.665660 0.000000 
#    z 0.000000 0.000000 1.738730 
# 
# From -- ./inp_files/19914.got.cif
#   From: 2010.05.17/outbox.cif.g08.bks.cpg/sg62_10_cif.got.tgz:19914.got - 2010.06.03 15:25:27.
