data_PCOD9461273
_publ_section_title
;
Structure prediction by ZEFSAII (Michael W. Deem and Ramdas Pophale) SiO2 
 PCOD9461273
Probable space group: P B C A
;
_chemical_formula_sum "Si O2"
_cell_formula_units_Z 64
_cell_length_a 15.000000
_cell_length_b 9.000000
_cell_length_c 24.000000
_cell_angle_alpha 90.000000
_cell_angle_beta 90.000000
_cell_angle_gamma 90.000000
_cell_volume 3240.000000
_symmetry_space_group_name_H-M "P B C A"
_symmetry_group_IT_number 61
_symmetry_cell_setting 'orthorhombic'
loop_
_space_group_symop_operation_xyz
x,y,z
1/2-x,-y,1/2+z
1/2+x,1/2-y,-z
-x,1/2+y,1/2-z
-x,-y,-z
1/2+x,y,1/2-z
1/2-x,1/2+y,z
x,1/2-y,1/2+z
loop_
_atom_site_type_symbol
_atom_site_label
_atom_site_fract_x
_atom_site_fract_y
_atom_site_fract_z
Si Si1 0.760220 0.388366 0.073067
Si Si2 0.804198 0.296063 0.823304
Si Si3 0.329214 0.864824 0.001686
Si Si4 0.105901 0.257703 0.711875
Si Si5 0.132148 0.637229 0.377678
Si Si6 0.443416 0.706338 0.083229
Si Si7 0.944438 0.440606 0.742639
Si Si8 0.206698 0.525708 0.599087
O O1 0.813421 0.290010 0.117445
O O2 0.693786 0.505110 0.100692
O O3 0.826999 0.486507 0.035149
O O4 0.704474 0.272263 0.035711
O O5 0.712679 0.279098 0.787175
O O6 0.888492 0.350710 0.788816
O O7 0.822812 0.141509 0.853902
O O8 0.776003 0.414883 0.870644
O O9 0.417824 0.822632 0.035428
O O10 0.255494 0.890059 0.049584
O O11 0.080930 0.238566 0.646105
O O12 0.047737 0.392900 0.736789
O O13 0.072680 0.111807 0.743514
O O14 0.098580 0.601822 0.316314
O O15 0.044987 0.656680 0.416044
O O16 0.376047 0.568152 0.076571
#
# Coordination Sequence:
#
# PCOD9461273 Si02
#       8
#     8   8   8   8   8   8   8   8
#     4  10  23  41  60  87 120 165 210 239 307 372
#     4  11  21  36  61  90 123 156 198 245 310 375
#     4  11  18  38  67  87 120 154 194 263 308 354
#     4  10  23  39  59  95 121 157 206 246 302 374
#     4  10  25  43  58  84 126 166 207 251 291 369
#     4  10  21  39  66  93 122 149 204 262 307 368
#     4  11  24  40  62  86 129 164 201 254 298 365
#     4  11  19  36  64  95 120 148 192 257 323 355
#
# _framework density 19.753086
#
# number of rings (size 3 to 8) (size 9 to 14) (size 15 to 20)
#    0.000    1.500    5.000    0.000    7.000    1.000 
#    2.250    0.000    5.500    0.000    0.000    0.000 
#    0.000    0.000    0.000    0.000    0.000    0.000 
#
# Total GULP energy -357460.580273 kJ/mol
# GULP energy per Si atom -5585.321567 kJ/mol
# Density = 1.970813 g / cm^3
# Si number density = 19.753086 Si / 1000 Ang^3
#
#
#
# Elastic Constant Matrix: (Units=GPa)
#
#
# Indices 1 2 3 4 5 6 
#
# 1 48.9656 3.8954 -1.0885 0.0000 0.0000 0.0000
# 2 3.8954 42.6853 -9.8462 0.0000 0.0000 0.0000
# 3 -1.0885 -9.8462 -0.0721 0.0000 0.0000 0.0000
# 4 0.0000 0.0000 0.0000 -5.0908 0.0000 0.0000
# 5 0.0000 0.0000 0.0000 0.0000 15.9181 0.0000
# 6 0.0000 0.0000 0.0000 0.0000 0.0000 15.1465
#
#
#
# Elastic Compliance Matrix: (Units=1/GPa)
#
#
# Indices 1 2 3 4 5 6 
#
# 1 0.020565 -0.002261 -0.001667 0.000000 0.000000 0.000000
# 2 -0.002261 0.000969 -0.098256 0.000000 0.000000 0.000000
# 3 -0.001667 -0.098256 -0.426620 0.000000 0.000000 0.000000
# 4 0.000000 0.000000 0.000000 -0.196433 0.000000 0.000000
# 5 0.000000 0.000000 0.000000 0.000000 0.062821 0.000000
# 6 0.000000 0.000000 0.000000 0.000000 0.000000 0.066022
#
#
# Mechanical properties :
#
#
# Convention : Reuss Voigt Hill
#
# Bulk Modulus (GPa) = -1.64082 8.61115 3.48517
# Shear Modulus (GPa) = -10.60538 11.76931 0.58196
#
# Velocity S-wave (km/s) = -2.31962 2.44359 0.54338
# Velocity P-wave (km/s) = 2.82960 3.51147 1.47033
#
# Compressibility (1/GPa) = -0.60945287
#
# Stress axis : x y z
#
# Youngs Moduli (GPa) = 48.62548 1031.86760 -2.34401
#
# Poissons Ratio (x) = 2.33330 -0.00391
# Poissons Ratio (y) = 0.10995 -0.23031
# Poissons Ratio (z) = 0.08105 101.38684
#
# Static dielectric constant tensor:
#      x y z
#    x 1.689800 0.000000 0.000000 
#    y 0.000000 1.706580 0.000000 
#    z 0.000000 0.000000 1.690010 
# 
# From -- ./inp_files/7241.got.cif
#   From: 2010.05.17/outbox.ucp.g08.bks.cvg/sg61_4_cif.got.tgz:7241.got - 2010.06.11 16:28:26.
