data_PCOD9461577
_publ_section_title
;
Structure prediction by ZEFSAII (Michael W. Deem and Ramdas Pophale) SiO2 
 PCOD9461577
Probable space group: P N M A
;
_chemical_formula_sum "Si O2"
_cell_formula_units_Z 64
_cell_length_a 27.080410
_cell_length_b 9.004576
_cell_length_c 18.437699
_cell_angle_alpha 90.000000
_cell_angle_beta 90.000000
_cell_angle_gamma 90.000000
_cell_volume 4495.988834
_symmetry_space_group_name_H-M "P N M A"
_symmetry_group_IT_number 62
_symmetry_cell_setting 'orthorhombic'
loop_
_space_group_symop_operation_xyz
x,y,z
1/2-x,-y,1/2+z
1/2+x,1/2-y,1/2-z
-x,1/2+y,-z
-x,-y,-z
1/2+x,y,1/2-z
1/2-x,1/2+y,1/2+z
x,1/2-y,z
loop_
_atom_site_type_symbol
_atom_site_label
_atom_site_fract_x
_atom_site_fract_y
_atom_site_fract_z
Si Si1 0.355871 0.071380 0.834367
Si Si2 0.442654 0.573509 0.918406
Si Si3 0.442002 0.427515 0.073419
Si Si4 0.797255 0.579691 0.200840
Si Si5 0.263782 0.926947 0.918474
Si Si6 0.147146 0.573411 0.675340
Si Si7 0.257282 0.425232 0.074179
Si Si8 0.200217 0.579534 0.195579
O O1 0.353050 0.250000 0.840867
O O2 0.342982 0.033171 0.750799
O O3 0.407696 0.009948 0.862060
O O4 0.313255 0.999770 0.884535
O O5 0.434310 0.750000 0.915131
O O6 0.500932 0.544530 0.906699
O O7 0.430841 0.513061 0.998973
O O8 0.436542 0.250000 0.060130
O O9 0.403646 0.469169 0.136102
O O10 0.806954 0.750000 0.180510
O O11 0.781288 0.483894 0.131680
O O12 0.839906 0.512004 0.251049
O O13 0.748733 0.578541 0.252721
O O14 0.267644 0.750000 0.915382
O O15 0.257488 0.984164 0.000022
O O16 0.146659 0.750000 0.689939
O O17 0.191625 0.546917 0.617967
O O18 0.254281 0.250000 0.059230
O O19 0.213652 0.477326 0.127911
O O20 0.192457 0.750000 0.172007
#
# Coordination Sequence:
#
# PCOD9461577 Si02
#       8
#     8   8   8   8   8   8   8   8
#     4  10  19  31  45  60  83 113 143 177 215 251
#     4  10  19  29  43  63  85 112 147 182 214 249
#     4   9  18  31  44  60  86 116 145 180 216 248
#     4   9  17  29  43  60  83 108 137 173 210 247
#     4  11  20  29  43  62  85 112 143 174 205 249
#     4   9  17  29  44  60  81 112 145 174 209 249
#     4  10  18  27  42  63  86 111 139 172 209 248
#     4   8  16  29  42  57  79 108 139 171 208 249
#
# _framework density 14.234911
#
# number of rings (size 3 to 8) (size 9 to 14) (size 15 to 20)
#    0.000    2.500    0.000    4.125    0.000    6.000 
#    0.000    0.000    0.000    0.000    0.000    0.000 
#    0.000    1.000    0.000    3.000    0.000    4.625 
#
# Total GULP energy -356745.528554 kJ/mol
# GULP energy per Si atom -5574.148884 kJ/mol
# Density = 1.420251 g / cm^3
# Si number density = 14.234911 Si / 1000 Ang^3
#
#
#
# Elastic Constant Matrix: (Units=GPa)
#
#
# Indices 1 2 3 4 5 6 
#
# 1 55.2606 31.2159 27.2836 0.0000 0.0000 0.0000
# 2 31.2159 73.0850 43.4805 0.0000 0.0000 0.0000
# 3 27.2836 43.4805 55.0347 0.0000 0.0000 0.0000
# 4 0.0000 0.0000 0.0000 26.0886 0.0000 0.0000
# 5 0.0000 0.0000 0.0000 0.0000 26.7697 0.0000
# 6 0.0000 0.0000 0.0000 0.0000 0.0000 19.1957
#
#
#
# Elastic Compliance Matrix: (Units=1/GPa)
#
#
# Indices 1 2 3 4 5 6 
#
# 1 0.025429 -0.006342 -0.007596 0.000000 0.000000 0.000000
# 2 -0.006342 0.027400 -0.018503 0.000000 0.000000 0.000000
# 3 -0.007596 -0.018503 0.036554 0.000000 0.000000 0.000000
# 4 0.000000 0.000000 0.000000 0.038331 0.000000 0.000000
# 5 0.000000 0.000000 0.000000 0.000000 0.037356 0.000000
# 6 0.000000 0.000000 0.000000 0.000000 0.000000 0.052095
#
#
# Mechanical properties :
#
#
# Convention : Reuss Voigt Hill
#
# Bulk Modulus (GPa) = 40.81482 43.03782 41.92632
# Shear Modulus (GPa) = 17.22870 19.83749 18.53309
#
# Velocity S-wave (km/s) = 3.48273 3.73712 3.61216
# Velocity P-wave (km/s) = 6.70128 6.99436 6.84939
#
# Compressibility (1/GPa) = 0.02450090
#
# Stress axis : x y z
#
# Youngs Moduli (GPa) = 39.32531 36.49682 27.35647
#
# Poissons Ratio (x) = 0.23147 0.20779
# Poissons Ratio (y) = 0.24941 0.50618
# Poissons Ratio (z) = 0.29870 0.67530
#
# Static dielectric constant tensor:
#      x y z
#    x 1.465060 0.000000 0.000000 
#    y 0.000000 1.476140 0.000000 
#    z 0.000000 0.000000 1.455060 
# 
# From -- ./inp_files/24975.got.cif
#   From: 2010.05.17/outbox.cif.g08.bks.cpg/sg62_13_cif.got.tgz:24975.got - 2010.06.03 15:25:27.
