data_PCOD9461894
_publ_section_title
;
Structure prediction by ZEFSAII (Michael W. Deem and Ramdas Pophale) SiO2 
 PCOD9461894
Probable space group: P N M A
;
_chemical_formula_sum "Si O2"
_cell_formula_units_Z 40
_cell_length_a 8.113593
_cell_length_b 14.181576
_cell_length_c 13.056487
_cell_angle_alpha 90.000000
_cell_angle_beta 90.000000
_cell_angle_gamma 90.000000
_cell_volume 1502.325559
_symmetry_space_group_name_H-M "P N M A"
_symmetry_group_IT_number 62
_symmetry_cell_setting 'orthorhombic'
loop_
_space_group_symop_operation_xyz
x,y,z
1/2-x,-y,1/2+z
1/2+x,1/2-y,1/2-z
-x,1/2+y,-z
-x,-y,-z
1/2+x,y,1/2-z
1/2-x,1/2+y,1/2+z
x,1/2-y,z
loop_
_atom_site_type_symbol
_atom_site_label
_atom_site_fract_x
_atom_site_fract_y
_atom_site_fract_z
Si Si1 0.867452 0.140374 0.682273
Si Si2 0.177478 0.357612 0.211091
Si Si3 0.535683 0.964729 0.864756
Si Si4 0.986416 0.638683 0.100456
Si Si5 0.743406 0.643383 0.558494
O O1 0.887687 0.250000 0.656098
O O2 0.692922 0.102748 0.637879
O O3 0.885792 0.133252 0.804949
O O4 0.014946 0.075390 0.643509
O O5 0.134582 0.250000 0.179201
O O6 0.291079 0.411517 0.129545
O O7 0.040282 0.427722 0.255329
O O8 0.275233 0.345582 0.319276
O O9 0.403092 0.923097 0.944114
O O10 0.954905 0.750000 0.082697
O O11 0.083769 0.604947 0.000053
O O12 0.778534 0.750000 0.519768
#
# Coordination Sequence:
#
# PCOD9461894 Si02
#       5
#     8   8   8   8   8
#     4  10  20  33  52  74 104 141 179 214 249 302
#     4   9  17  31  53  79 106 133 165 209 262 317
#     4  10  18  31  51  79 105 137 171 207 261 308
#     4   9  18  35  55  74 100 138 178 216 255 297
#     4   8  17  32  55  79 101 131 172 214 259 313
#
# _framework density 26.625388999999998
#
# number of rings (size 3 to 8) (size 9 to 14) (size 15 to 20)
#    1.200    1.600    0.000    2.400    0.000    0.800 
#    0.000    0.000    4.400    2.400    0.000    0.000 
#    0.000    0.000    0.000    0.000    0.000    0.000 
#
# Total GULP energy -223158.554042 kJ/mol
# GULP energy per Si atom -5578.963851 kJ/mol
# Density = 2.656479 g / cm^3
# Si number density = 26.625389 Si / 1000 Ang^3
#
#
#
# Elastic Constant Matrix: (Units=GPa)
#
#
# Indices 1 2 3 4 5 6 
#
# 1 56.6039 36.7307 11.5249 0.0000 0.0000 0.0000
# 2 36.7307 126.5822 11.2357 0.0000 0.0000 0.0000
# 3 11.5249 11.2357 43.4004 0.0000 0.0000 0.0000
# 4 0.0000 0.0000 0.0000 -4.8433 0.0000 0.0000
# 5 0.0000 0.0000 0.0000 0.0000 28.5982 0.0000
# 6 0.0000 0.0000 0.0000 0.0000 0.0000 5.5805
#
#
#
# Elastic Compliance Matrix: (Units=1/GPa)
#
#
# Indices 1 2 3 4 5 6 
#
# 1 0.022556 -0.006155 -0.004396 0.000000 0.000000 0.000000
# 2 -0.006155 0.009765 -0.000894 0.000000 0.000000 0.000000
# 3 -0.004396 -0.000894 0.024440 0.000000 0.000000 0.000000
# 4 0.000000 0.000000 0.000000 -0.206472 0.000000 0.000000
# 5 0.000000 0.000000 0.000000 0.000000 0.034967 0.000000
# 6 0.000000 0.000000 0.000000 0.000000 0.000000 0.179197
#
#
# Mechanical properties :
#
#
# Convention : Reuss Voigt Hill
#
# Bulk Modulus (GPa) = 29.52335 38.39657 33.95996
# Shear Modulus (GPa) = 50.69284 17.00675 33.84980
#
# Velocity S-wave (km/s) = 4.36814 2.53008 3.56945
# Velocity P-wave (km/s) = 6.04593 4.79452 5.45622
#
# Compressibility (1/GPa) = 0.03387149
#
# Stress axis : x y z
#
# Youngs Moduli (GPa) = 44.33486 102.40362 40.91646
#
# Poissons Ratio (x) = 0.63027 0.17988
# Poissons Ratio (y) = 0.27287 0.03657
# Poissons Ratio (z) = 0.19491 0.09152
#
# Static dielectric constant tensor:
#      x y z
#    x 2.105950 0.000000 0.000000 
#    y 0.000000 2.102730 0.000000 
#    z 0.000000 0.000000 2.147070 
# 
# From -- ./inp_files/16673.got.cif
#   From: 2010.05.17/outbox.cif.g08.bks.cpg/sg62_9_cif.got.tgz:16673.got - 2010.06.03 15:25:27.
