data_PCOD9461400
_publ_section_title
;
Structure prediction by ZEFSAII (Michael W. Deem and Ramdas Pophale) SiO2 
 PCOD9461400
Probable space group: P N M A
;
_chemical_formula_sum "Si O2"
_cell_formula_units_Z 64
_cell_length_a 21.996079
_cell_length_b 19.512930
_cell_length_c 6.931009
_cell_angle_alpha 90.000000
_cell_angle_beta 90.000000
_cell_angle_gamma 90.000000
_cell_volume 2974.844163
_symmetry_space_group_name_H-M "P N M A"
_symmetry_group_IT_number 62
_symmetry_cell_setting 'orthorhombic'
loop_
_space_group_symop_operation_xyz
x,y,z
1/2-x,-y,1/2+z
1/2+x,1/2-y,1/2-z
-x,1/2+y,-z
-x,-y,-z
1/2+x,y,1/2-z
1/2-x,1/2+y,1/2+z
x,1/2-y,z
loop_
_atom_site_type_symbol
_atom_site_label
_atom_site_fract_x
_atom_site_fract_y
_atom_site_fract_z
Si Si1 0.328706 0.566066 0.016573
Si Si2 0.569357 0.592125 0.505888
Si Si3 0.685638 0.591881 0.055929
Si Si4 0.037535 0.433339 0.562761
Si Si5 0.438686 0.565424 0.528322
Si Si6 0.802522 0.436128 0.018116
Si Si7 0.185162 0.400025 0.942273
Si Si8 0.064976 0.830139 0.385558
O O1 0.398403 0.572959 0.951853
O O2 0.265119 0.584354 0.911606
O O3 0.325131 0.609278 0.214218
O O4 0.322275 0.483191 0.039435
O O5 0.503324 0.592166 0.606412
O O6 0.570726 0.514397 0.414737
O O7 0.635677 0.596297 0.603724
O O8 0.566962 0.649078 0.340896
O O9 0.693269 0.578312 0.287644
O O10 0.749159 0.627875 0.999726
O O11 0.625846 0.636294 0.030074
O O12 0.052867 0.439533 0.792616
O O13 0.000000 0.500000 0.500000
O O14 0.994577 0.368304 0.538837
O O15 0.378419 0.611537 0.550085
O O16 0.806571 0.517646 0.040776
O O17 0.063276 0.750000 0.414670
#
# Coordination Sequence:
#
# PCOD9461400 Si02
#       8
#     8   8   8   8   8   8   8   8
#     4   9  15  24  40  62  88 112 141 191 224 260
#     4   8  14  26  42  60  83 112 142 182 226 269
#     4   9  15  25  40  60  86 113 147 183 226 268
#     4  10  17  27  43  65  89 117 151 192 229 265
#     4   8  14  24  42  65  85 108 139 187 230 263
#     4   8  14  23  38  61  87 111 134 181 226 267
#     4   8  14  23  38  62  89 110 133 180 229 263
#     4  10  19  29  43  63  91 124 152 186 237 286
#
# _framework density 21.513729999999999
#
# number of rings (size 3 to 8) (size 9 to 14) (size 15 to 20)
#    0.000    3.250    1.250    0.000    0.000    0.000 
#    0.000    0.000    0.000   19.500    0.000    0.000 
#    0.000   13.000    0.000    0.000    0.000    0.000 
#
# Total GULP energy -356388.726145 kJ/mol
# GULP energy per Si atom -5568.573846 kJ/mol
# Density = 2.146476 g / cm^3
# Si number density = 21.513730 Si / 1000 Ang^3
#
#
#
# Elastic Constant Matrix: (Units=GPa)
#
#
# Indices 1 2 3 4 5 6 
#
# 1 254.6692 32.2104 -6.2656 0.0000 0.0000 0.0000
# 2 32.2104 50.4045 11.7337 0.0000 0.0000 0.0000
# 3 -6.2656 11.7337 69.4271 0.0000 0.0000 0.0000
# 4 0.0000 0.0000 0.0000 9.5065 0.0000 0.0000
# 5 0.0000 0.0000 0.0000 0.0000 10.0090 0.0000
# 6 0.0000 0.0000 0.0000 0.0000 0.0000 11.0982
#
#
#
# Elastic Compliance Matrix: (Units=1/GPa)
#
#
# Indices 1 2 3 4 5 6 
#
# 1 0.004324 -0.002971 0.000892 0.000000 0.000000 0.000000
# 2 -0.002971 0.022693 -0.004103 0.000000 0.000000 0.000000
# 3 0.000892 -0.004103 0.015178 0.000000 0.000000 0.000000
# 4 0.000000 0.000000 0.000000 0.105191 0.000000 0.000000
# 5 0.000000 0.000000 0.000000 0.000000 0.099910 0.000000
# 6 0.000000 0.000000 0.000000 0.000000 0.000000 0.090105
#
#
# Mechanical properties :
#
#
# Convention : Reuss Voigt Hill
#
# Bulk Modulus (GPa) = 33.52220 49.98418 41.75319
# Shear Modulus (GPa) = 13.90008 28.57756 21.23882
#
# Velocity S-wave (km/s) = 2.54461 3.64859 3.14542
# Velocity P-wave (km/s) = 4.92433 6.40576 5.71326
#
# Compressibility (1/GPa) = 0.02983097
#
# Stress axis : x y z
#
# Youngs Moduli (GPa) = 231.24516 44.06554 65.88633
#
# Poissons Ratio (x) = 0.13093 -0.05880
# Poissons Ratio (y) = 0.68708 0.27036
# Poissons Ratio (z) = -0.20637 0.18082
#
# Static dielectric constant tensor:
#      x y z
#    x 1.936560 0.000000 0.000000 
#    y 0.000000 1.677740 0.000000 
#    z 0.000000 0.000000 1.930060 
# 
# From -- ./inp_files/14966.got.cif
#   From: 2010.05.17/outbox.cif.g08.bks.cpg/sg62_8_cif.got.tgz:14966.got - 2010.06.03 15:25:27.
