data_PCOD9461770
_publ_section_title
;
Structure prediction by ZEFSAII (Michael W. Deem and Ramdas Pophale) SiO2 
 PCOD9461770
Probable space group: P N M A
;
_chemical_formula_sum "Si O2"
_cell_formula_units_Z 48
_cell_length_a 8.403269
_cell_length_b 19.708982
_cell_length_c 15.284262
_cell_angle_alpha 90.000000
_cell_angle_beta 90.000000
_cell_angle_gamma 90.000000
_cell_volume 2531.377600
_symmetry_space_group_name_H-M "P N M A"
_symmetry_group_IT_number 62
_symmetry_cell_setting 'orthorhombic'
loop_
_space_group_symop_operation_xyz
x,y,z
1/2-x,-y,1/2+z
1/2+x,1/2-y,1/2-z
-x,1/2+y,-z
-x,-y,-z
1/2+x,y,1/2-z
1/2-x,1/2+y,1/2+z
x,1/2-y,z
loop_
_atom_site_type_symbol
_atom_site_label
_atom_site_fract_x
_atom_site_fract_y
_atom_site_fract_z
Si Si1 0.904069 0.094213 0.048570
Si Si2 0.956580 0.922114 0.479508
Si Si3 0.739900 0.827418 0.695537
Si Si4 0.429411 0.390809 0.152972
Si Si5 0.838444 0.953391 0.304612
Si Si6 0.019235 0.054205 0.875068
O O1 0.894040 0.149682 0.125001
O O2 0.724832 0.090055 0.010219
O O3 0.016339 0.099534 0.963146
O O4 0.944904 0.022276 0.092775
O O5 0.069503 0.883189 0.547804
O O6 0.950887 0.914718 0.375207
O O7 0.000000 0.000000 0.500000
O O8 0.786197 0.750000 0.680071
O O9 0.676377 0.839196 0.792634
O O10 0.889804 0.876454 0.681939
O O11 0.380682 0.466679 0.182702
O O12 0.656918 0.944771 0.333772
O O13 0.864953 0.930994 0.205348
#
# Coordination Sequence:
#
# PCOD9461770 Si02
#       6
#     8   8   8   8   8   8
#     4   9  19  32  45  69 100 132 160 198 244 303
#     4   8  17  29  46  68  98 126 160 192 242 290
#     4  11  21  33  48  67  95 134 170 200 240 290
#     4  10  19  32  46  68  97 128 164 200 234 290
#     4  10  18  30  48  72  96 132 154 198 250 305
#     4  10  19  30  49  72 101 127 160 198 258 297
#
# _framework density 18.962005999999999
#
# number of rings (size 3 to 8) (size 9 to 14) (size 15 to 20)
#    0.000    2.333    1.667    1.500    4.667    0.000 
#    0.000    0.000    0.000    0.000    0.000   11.667 
#    0.000    0.000    0.000    0.000    0.000    0.000 
#
# Total GULP energy -267373.688428 kJ/mol
# GULP energy per Si atom -5570.285176 kJ/mol
# Density = 1.891885 g / cm^3
# Si number density = 18.962006 Si / 1000 Ang^3
#
#
#
# Elastic Constant Matrix: (Units=GPa)
#
#
# Indices 1 2 3 4 5 6 
#
# 1 22.0534 3.3018 5.3517 0.0000 0.0000 0.0000
# 2 3.3018 17.5344 1.2430 0.0000 0.0000 0.0000
# 3 5.3517 1.2430 79.1152 0.0000 0.0000 0.0000
# 4 0.0000 0.0000 0.0000 9.0877 0.0000 0.0000
# 5 0.0000 0.0000 0.0000 0.0000 26.1198 0.0000
# 6 0.0000 0.0000 0.0000 0.0000 0.0000 3.7325
#
#
#
# Elastic Compliance Matrix: (Units=1/GPa)
#
#
# Indices 1 2 3 4 5 6 
#
# 1 0.047393 -0.008707 -0.003069 0.000000 0.000000 0.000000
# 2 -0.008707 0.058694 -0.000333 0.000000 0.000000 0.000000
# 3 -0.003069 -0.000333 0.012853 0.000000 0.000000 0.000000
# 4 0.000000 0.000000 0.000000 0.110039 0.000000 0.000000
# 5 0.000000 0.000000 0.000000 0.000000 0.038285 0.000000
# 6 0.000000 0.000000 0.000000 0.000000 0.000000 0.267918
#
#
# Mechanical properties :
#
#
# Convention : Reuss Voigt Hill
#
# Bulk Modulus (GPa) = 10.55728 15.38844 12.97286
# Shear Modulus (GPa) = 8.46061 15.04176 11.75119
#
# Velocity S-wave (km/s) = 2.11461 2.81954 2.49212
# Velocity P-wave (km/s) = 3.39732 4.32814 3.89066
#
# Compressibility (1/GPa) = 0.09472135
#
# Stress axis : x y z
#
# Youngs Moduli (GPa) = 21.10022 17.03755 77.80504
#
# Poissons Ratio (x) = 0.14834 0.23879
# Poissons Ratio (y) = 0.18371 0.02592
# Poissons Ratio (z) = 0.06476 0.00568
#
# Static dielectric constant tensor:
#      x y z
#    x 1.762750 0.000000 0.000000 
#    y 0.000000 1.652060 0.000000 
#    z 0.000000 0.000000 1.753080 
# 
# From -- ./inp_files/17074.got.cif
#   From: 2010.05.17/outbox.cif.g08.bks.cpg/sg62_9_cif.got.tgz:17074.got - 2010.06.03 15:25:27.
