data_PCOD9461125
_publ_section_title
;
Structure prediction by ZEFSAII (Michael W. Deem and Ramdas Pophale) SiO2 
 PCOD9461125
Probable space group: P B C A
;
_chemical_formula_sum "Si O2"
_cell_formula_units_Z 48
_cell_length_a 8.862857
_cell_length_b 13.722186
_cell_length_c 18.451644
_cell_angle_alpha 90.000000
_cell_angle_beta 90.000000
_cell_angle_gamma 90.000000
_cell_volume 2244.047838
_symmetry_space_group_name_H-M "P B C A"
_symmetry_group_IT_number 61
_symmetry_cell_setting 'orthorhombic'
loop_
_space_group_symop_operation_xyz
x,y,z
1/2-x,-y,1/2+z
1/2+x,1/2-y,-z
-x,1/2+y,1/2-z
-x,-y,-z
1/2+x,y,1/2-z
1/2-x,1/2+y,z
x,1/2-y,1/2+z
loop_
_atom_site_type_symbol
_atom_site_label
_atom_site_fract_x
_atom_site_fract_y
_atom_site_fract_z
Si Si1 0.159719 0.394453 0.949167
Si Si2 0.492434 0.769161 0.204331
Si Si3 0.336165 0.494781 0.842940
Si Si4 0.327944 0.781672 0.349544
Si Si5 0.340887 0.566189 0.199832
Si Si6 0.594096 0.455242 0.391600
O O1 0.316916 0.429364 0.914196
O O2 0.134138 0.287290 0.916807
O O3 0.040459 0.471896 0.915187
O O4 0.150265 0.404159 0.034690
O O5 0.459643 0.775913 0.289817
O O6 0.667507 0.750078 0.186234
O O7 0.385838 0.677879 0.183593
O O8 0.448175 0.868912 0.163991
O O9 0.305527 0.605167 0.865986
O O10 0.223784 0.455453 0.780140
O O11 0.501278 0.488740 0.809281
O O12 0.220540 0.522003 0.144965
#
# Coordination Sequence:
#
# PCOD9461125 Si02
#       6
#     8   8   8   8   8   8
#     4  11  25  48  67  96 143 182 220 286 354 404
#     4  12  24  43  69 104 131 176 236 281 342 416
#     4  12  23  43  70 101 134 178 230 282 339 410
#     4  12  25  42  72 102 132 179 230 285 339 413
#     4  12  24  42  71 101 134 177 229 282 337 408
#     4  11  27  46  68 100 142 183 224 287 354 409
#
# _framework density 21.389918000000002
#
# number of rings (size 3 to 8) (size 9 to 14) (size 15 to 20)
#    0.000    0.333    6.667    2.000    2.333    2.000 
#    3.000    0.000    0.000    0.000    0.000    0.000 
#    0.000    0.000    0.000    0.000    0.000    0.000 
#
# Total GULP energy -268411.031491 kJ/mol
# GULP energy per Si atom -5591.896489 kJ/mol
# Density = 2.134123 g / cm^3
# Si number density = 21.389918 Si / 1000 Ang^3
#
#
#
# Elastic Constant Matrix: (Units=GPa)
#
#
# Indices 1 2 3 4 5 6 
#
# 1 26.6801 -9.0071 -14.3545 0.0000 0.0000 0.0000
# 2 -9.0071 122.2336 -8.2892 0.0000 0.0000 0.0000
# 3 -14.3545 -8.2892 51.8625 0.0000 0.0000 0.0000
# 4 0.0000 0.0000 0.0000 29.3509 0.0000 0.0000
# 5 0.0000 0.0000 0.0000 0.0000 20.4718 0.0000
# 6 0.0000 0.0000 0.0000 0.0000 0.0000 24.1973
#
#
#
# Elastic Compliance Matrix: (Units=1/GPa)
#
#
# Indices 1 2 3 4 5 6 
#
# 1 0.046188 0.004317 0.013474 0.000000 0.000000 0.000000
# 2 0.004317 0.008674 0.002581 0.000000 0.000000 0.000000
# 3 0.013474 0.002581 0.023424 0.000000 0.000000 0.000000
# 4 0.000000 0.000000 0.000000 0.034070 0.000000 0.000000
# 5 0.000000 0.000000 0.000000 0.000000 0.048848 0.000000
# 6 0.000000 0.000000 0.000000 0.000000 0.000000 0.041327
#
#
# Mechanical properties :
#
#
# Convention : Reuss Voigt Hill
#
# Bulk Modulus (GPa) = 8.40124 15.27498 11.83811
# Shear Modulus (GPa) = 24.81850 30.29915 27.55882
#
# Velocity S-wave (km/s) = 3.41000 3.76775 3.59333
# Velocity P-wave (km/s) = 4.40912 5.10731 4.77100
#
# Compressibility (1/GPa) = 0.11903011
#
# Stress axis : x y z
#
# Youngs Moduli (GPa) = 21.65078 115.28411 42.69197
#
# Poissons Ratio (x) = -0.49770 -0.57522
# Poissons Ratio (y) = -0.09347 -0.11020
# Poissons Ratio (z) = -0.29172 -0.29758
#
# Static dielectric constant tensor:
#      x y z
#    x 1.791140 0.000000 0.000000 
#    y 0.000000 1.815320 0.000000 
#    z 0.000000 0.000000 1.733950 
# 
# From -- ./inp_files/8893.got.cif
#   From: 2010.05.17/outbox.cif.g08.bks.cpg/sg61_5_cif.got.tgz:8893.got - 2010.06.03 15:17:17.
