data_PCOD9461048
_publ_section_title
;
Structure prediction by ZEFSAII (Michael W. Deem and Ramdas Pophale) SiO2 
 PCOD9461048
Probable space group: P B C A
;
_chemical_formula_sum "Si O2"
_cell_formula_units_Z 48
_cell_length_a 8.799936
_cell_length_b 16.104334
_cell_length_c 17.074749
_cell_angle_alpha 90.000000
_cell_angle_beta 90.000000
_cell_angle_gamma 90.000000
_cell_volume 2419.784057
_symmetry_space_group_name_H-M "P B C A"
_symmetry_group_IT_number 61
_symmetry_cell_setting 'orthorhombic'
loop_
_space_group_symop_operation_xyz
x,y,z
1/2-x,-y,1/2+z
1/2+x,1/2-y,-z
-x,1/2+y,1/2-z
-x,-y,-z
1/2+x,y,1/2-z
1/2-x,1/2+y,z
x,1/2-y,1/2+z
loop_
_atom_site_type_symbol
_atom_site_label
_atom_site_fract_x
_atom_site_fract_y
_atom_site_fract_z
Si Si1 0.061343 0.211099 0.705234
Si Si2 0.848901 0.914096 0.424779
Si Si3 0.023054 0.082062 0.409284
Si Si4 0.231722 0.507504 0.297893
Si Si5 0.567488 0.911086 0.324090
Si Si6 0.351350 0.322696 0.720502
O O1 0.060125 0.140010 0.639915
O O2 0.222119 0.256689 0.700183
O O3 0.020103 0.168367 0.788608
O O4 0.939144 0.284793 0.704747
O O5 0.671652 0.902873 0.401090
O O6 0.908499 0.886004 0.509353
O O7 0.892562 0.011890 0.421022
O O8 0.961642 0.153003 0.351305
O O9 0.156793 0.030800 0.367479
O O10 0.310839 0.439064 0.242452
O O11 0.218160 0.589773 0.245827
O O12 0.066222 0.479020 0.326442
#
# Coordination Sequence:
#
# PCOD9461048 Si02
#       6
#     8   8   8   8   8   8
#     4  12  22  38  66  96 126 171 224 274 332 397
#     4  11  24  43  65  92 134 174 216 277 336 394
#     4  11  24  43  64  94 134 175 218 277 336 397
#     4  12  20  39  68  92 124 173 229 269 311 405
#     4  12  20  39  69  97 124 173 232 271 318 401
#     4  12  22  38  66  97 126 173 220 275 332 398
#
# _framework density 19.836482
#
# number of rings (size 3 to 8) (size 9 to 14) (size 15 to 20)
#    0.000    0.333   10.000    0.000    0.000    0.667 
#    3.000    0.000    0.000    0.000    0.000    0.000 
#    0.000    0.000    0.000    0.000    0.000    0.000 
#
# Total GULP energy -267775.983328 kJ/mol
# GULP energy per Si atom -5578.666319 kJ/mol
# Density = 1.979133 g / cm^3
# Si number density = 19.836482 Si / 1000 Ang^3
#
#
#
# Elastic Constant Matrix: (Units=GPa)
#
#
# Indices 1 2 3 4 5 6 
#
# 1 93.5985 24.4315 30.1078 0.0000 0.0000 0.0000
# 2 24.4315 79.8362 23.1195 0.0000 0.0000 0.0000
# 3 30.1078 23.1195 64.2657 0.0000 0.0000 0.0000
# 4 0.0000 0.0000 0.0000 18.7017 0.0000 0.0000
# 5 0.0000 0.0000 0.0000 0.0000 31.0109 0.0000
# 6 0.0000 0.0000 0.0000 0.0000 0.0000 38.9766
#
#
#
# Elastic Compliance Matrix: (Units=1/GPa)
#
#
# Indices 1 2 3 4 5 6 
#
# 1 0.013003 -0.002473 -0.005202 0.000000 0.000000 0.000000
# 2 -0.002473 0.014452 -0.004041 0.000000 0.000000 0.000000
# 3 -0.005202 -0.004041 0.019451 0.000000 0.000000 0.000000
# 4 0.000000 0.000000 0.000000 0.053471 0.000000 0.000000
# 5 0.000000 0.000000 0.000000 0.000000 0.032247 0.000000
# 6 0.000000 0.000000 0.000000 0.000000 0.000000 0.025656
#
#
# Mechanical properties :
#
#
# Convention : Reuss Voigt Hill
#
# Bulk Modulus (GPa) = 42.59810 43.66868 43.13339
# Shear Modulus (GPa) = 26.38007 28.40728 27.39368
#
# Velocity S-wave (km/s) = 3.65070 3.78838 3.72018
# Velocity P-wave (km/s) = 6.26829 6.41856 6.34387
#
# Compressibility (1/GPa) = 0.02347523
#
# Stress axis : x y z
#
# Youngs Moduli (GPa) = 76.90701 69.19220 51.41061
#
# Poissons Ratio (x) = 0.17109 0.26744
# Poissons Ratio (y) = 0.19016 0.20774
# Poissons Ratio (z) = 0.40008 0.27960
#
# Static dielectric constant tensor:
#      x y z
#    x 1.752450 0.000000 0.000000 
#    y 0.000000 1.763260 0.000000 
#    z 0.000000 0.000000 1.695320 
# 
# From -- ./inp_files/2909.got.cif
#   From: 2010.05.17/outbox.cif.g08.bks.cpg/sg61_2_cif.got.tgz:2909.got - 2010.06.03 15:17:17.
