data_PCOD9461441
_publ_section_title
;
Structure prediction by ZEFSAII (Michael W. Deem and Ramdas Pophale) SiO2 
 PCOD9461441
Probable space group: P N M A
;
_chemical_formula_sum "Si O2"
_cell_formula_units_Z 48
_cell_length_a 13.798564
_cell_length_b 16.991702
_cell_length_c 7.276709
_cell_angle_alpha 90.000000
_cell_angle_beta 90.000000
_cell_angle_gamma 90.000000
_cell_volume 1706.105106
_symmetry_space_group_name_H-M "P N M A"
_symmetry_group_IT_number 62
_symmetry_cell_setting 'orthorhombic'
loop_
_space_group_symop_operation_xyz
x,y,z
1/2-x,-y,1/2+z
1/2+x,1/2-y,1/2-z
-x,1/2+y,-z
-x,-y,-z
1/2+x,y,1/2-z
1/2-x,1/2+y,1/2+z
x,1/2-y,z
loop_
_atom_site_type_symbol
_atom_site_label
_atom_site_fract_x
_atom_site_fract_y
_atom_site_fract_z
Si Si1 0.226961 0.666230 0.235651
Si Si2 0.245846 0.334076 0.303322
Si Si3 0.458138 0.835382 0.241372
Si Si4 0.293820 0.499062 0.687620
Si Si5 0.086248 0.501059 0.813201
Si Si6 0.542705 0.663678 0.831183
O O1 0.188418 0.750000 0.304521
O O2 0.217658 0.665905 0.013611
O O3 0.185215 0.582461 0.295641
O O4 0.341987 0.667469 0.268046
O O5 0.195063 0.250000 0.275179
O O6 0.189454 0.414372 0.269663
O O7 0.339549 0.335068 0.172844
O O8 0.493117 0.750000 0.314936
O O9 0.478442 0.922688 0.315828
O O10 0.490959 0.838201 0.028634
O O11 0.175470 0.493601 0.666616
O O12 0.351302 0.495472 0.498377
O O13 0.027668 0.580433 0.771133
O O14 0.518065 0.750000 0.748266
#
# Coordination Sequence:
#
# PCOD9461441 Si02
#       6
#     8   8   8   8   8   8
#     4   9  16  29  46  68  94 122 154 192 237 278
#     4   9  17  29  48  70  92 123 159 194 234 286
#     4   9  18  29  46  71  96 121 155 202 238 272
#     4  10  17  29  46  71  95 122 155 194 235 273
#     4  10  19  29  47  71  99 122 155 195 238 279
#     4   9  16  29  47  70  92 121 162 196 231 278
#
# _framework density 28.134257000000002
#
# number of rings (size 3 to 8) (size 9 to 14) (size 15 to 20)
#    0.000    2.667    3.333    0.500    0.000    0.667 
#    0.000    0.000    0.000    1.000    0.000    0.000 
#    0.000    0.000    0.000    0.000    0.000    0.000 
#
# Total GULP energy -268227.414723 kJ/mol
# GULP energy per Si atom -5588.071140 kJ/mol
# Density = 2.807022 g / cm^3
# Si number density = 28.134257 Si / 1000 Ang^3
#
#
#
# Elastic Constant Matrix: (Units=GPa)
#
#
# Indices 1 2 3 4 5 6 
#
# 1 141.0541 20.7137 14.5371 0.0000 0.0000 0.0000
# 2 20.7137 391.2450 53.5484 0.0000 0.0000 0.0000
# 3 14.5371 53.5484 91.3676 0.0000 0.0000 0.0000
# 4 0.0000 0.0000 0.0000 90.0487 0.0000 0.0000
# 5 0.0000 0.0000 0.0000 0.0000 40.1804 0.0000
# 6 0.0000 0.0000 0.0000 0.0000 0.0000 -28.0702
#
#
#
# Elastic Compliance Matrix: (Units=1/GPa)
#
#
# Indices 1 2 3 4 5 6 
#
# 1 0.007229 -0.000245 -0.001007 0.000000 0.000000 0.000000
# 2 -0.000245 0.002787 -0.001595 0.000000 0.000000 0.000000
# 3 -0.001007 -0.001595 0.012039 0.000000 0.000000 0.000000
# 4 0.000000 0.000000 0.000000 0.011105 0.000000 0.000000
# 5 0.000000 0.000000 0.000000 0.000000 0.024888 0.000000
# 6 0.000000 0.000000 0.000000 0.000000 0.000000 -0.035625
#
#
# Mechanical properties :
#
#
# Convention : Reuss Voigt Hill
#
# Bulk Modulus (GPa) = 61.11127 89.02945 75.07036
# Shear Modulus (GPa) = 148.94069 56.08962 102.51516
#
# Velocity S-wave (km/s) = 7.28383 4.46987 6.04293
# Velocity P-wave (km/s) = 9.61808 7.63890 8.68505
#
# Compressibility (1/GPa) = 0.01636359
#
# Stress axis : x y z
#
# Youngs Moduli (GPa) = 138.32800 358.78982 83.06019
#
# Poissons Ratio (x) = 0.08789 0.08361
# Poissons Ratio (y) = 0.03388 0.13244
# Poissons Ratio (z) = 0.13925 0.57209
#
# Static dielectric constant tensor:
#      x y z
#    x 2.139340 0.000000 0.000000 
#    y 0.000000 2.263420 0.000000 
#    z 0.000000 0.000000 2.133910 
# 
# From -- ./inp_files/8779.got.cif
#   From: 2010.05.17/outbox.cif.g08.bks.cpg/sg62_5_cif.got.tgz:8779.got - 2010.06.03 15:25:27.
