data_PCOD9461703
_publ_section_title
;
Structure prediction by ZEFSAII (Michael W. Deem and Ramdas Pophale) SiO2 
 PCOD9461703
Probable space group: P N M A
;
_chemical_formula_sum "Si O2"
_cell_formula_units_Z 56
_cell_length_a 15.405814
_cell_length_b 9.780011
_cell_length_c 21.651537
_cell_angle_alpha 90.000000
_cell_angle_beta 90.000000
_cell_angle_gamma 90.000000
_cell_volume 3262.216086
_symmetry_space_group_name_H-M "P N M A"
_symmetry_group_IT_number 62
_symmetry_cell_setting 'orthorhombic'
loop_
_space_group_symop_operation_xyz
x,y,z
1/2-x,-y,1/2+z
1/2+x,1/2-y,1/2-z
-x,1/2+y,-z
-x,-y,-z
1/2+x,y,1/2-z
1/2-x,1/2+y,1/2+z
x,1/2-y,z
loop_
_atom_site_type_symbol
_atom_site_label
_atom_site_fract_x
_atom_site_fract_y
_atom_site_fract_z
Si Si1 0.456389 0.595671 0.549633
Si Si2 0.252957 0.411932 0.193203
Si Si3 0.548282 0.413640 0.305971
Si Si4 0.914609 0.912455 0.275266
Si Si5 0.874684 0.594716 0.523950
Si Si6 0.249799 0.096588 0.046602
Si Si7 0.005833 0.597684 0.407182
O O1 0.500000 0.500000 0.500000
O O2 0.489227 0.750000 0.541884
O O3 0.468143 0.558071 0.621436
O O4 0.353209 0.596252 0.538915
O O5 0.268739 0.250000 0.205731
O O6 0.151043 0.439765 0.206631
O O7 0.322043 0.509723 0.226419
O O8 0.265568 0.431894 0.119210
O O9 0.534267 0.250000 0.295701
O O10 0.484025 0.507633 0.266847
O O11 0.907587 0.750000 0.260969
O O12 0.951889 0.924065 0.345020
O O13 0.853627 0.750000 0.540023
O O14 0.793985 0.510182 0.498439
O O15 0.940908 0.595681 0.465629
O O16 0.922598 0.516257 0.579191
O O17 0.283862 0.250000 0.034181
O O18 0.045084 0.750000 0.404444
#
# Coordination Sequence:
#
# PCOD9461703 Si02
#       7
#     8   8   8   8   8   8   8
#     4   9  19  36  57  80 104 132 170 216 263 311
#     4   9  18  34  56  77 101 139 181 219 261 315
#     4   9  20  38  57  80 108 139 179 220 261 318
#     4  11  21  34  54  81 110 140 176 221 271 315
#     4  10  18  29  47  74 103 134 172 211 249 298
#     4   9  17  31  52  76 103 135 171 213 262 310
#     4   9  19  32  45  69 107 139 166 206 252 303
#
# _framework density 17.166245
#
# number of rings (size 3 to 8) (size 9 to 14) (size 15 to 20)
#    0.000    2.571    1.429    2.571    0.000    3.429 
#    0.000    4.286    0.000    0.000    0.000    0.000 
#    0.000    0.000    0.000    0.000    0.000    0.000 
#
# Total GULP energy -312082.179981 kJ/mol
# GULP energy per Si atom -5572.896071 kJ/mol
# Density = 1.712717 g / cm^3
# Si number density = 17.166245 Si / 1000 Ang^3
#
#
#
# Elastic Constant Matrix: (Units=GPa)
#
#
# Indices 1 2 3 4 5 6 
#
# 1 82.5572 77.3623 45.6479 0.0000 0.0000 0.0000
# 2 77.3623 122.4185 58.9952 0.0000 0.0000 0.0000
# 3 45.6479 58.9952 45.1039 0.0000 0.0000 0.0000
# 4 0.0000 0.0000 0.0000 25.9529 0.0000 0.0000
# 5 0.0000 0.0000 0.0000 0.0000 31.5431 0.0000
# 6 0.0000 0.0000 0.0000 0.0000 0.0000 33.0601
#
#
#
# Elastic Compliance Matrix: (Units=1/GPa)
#
#
# Indices 1 2 3 4 5 6 
#
# 1 0.033932 -0.013239 -0.017026 0.000000 0.000000 0.000000
# 2 -0.013239 0.027263 -0.022261 0.000000 0.000000 0.000000
# 3 -0.017026 -0.022261 0.068519 0.000000 0.000000 0.000000
# 4 0.000000 0.000000 0.000000 0.038531 0.000000 0.000000
# 5 0.000000 0.000000 0.000000 0.000000 0.031703 0.000000
# 6 0.000000 0.000000 0.000000 0.000000 0.000000 0.030248
#
#
# Mechanical properties :
#
#
# Convention : Reuss Voigt Hill
#
# Bulk Modulus (GPa) = 40.54558 68.23227 54.38893
# Shear Modulus (GPa) = 14.55741 22.64949 18.60345
#
# Velocity S-wave (km/s) = 2.91525 3.63632 3.29557
# Velocity P-wave (km/s) = 5.91627 7.58055 6.79952
#
# Compressibility (1/GPa) = 0.02466360
#
# Stress axis : x y z
#
# Youngs Moduli (GPa) = 29.47040 36.68029 14.59448
#
# Poissons Ratio (x) = 0.48559 0.24848
# Poissons Ratio (y) = 0.39015 0.32488
# Poissons Ratio (z) = 0.50176 0.81653
#
# Static dielectric constant tensor:
#      x y z
#    x 1.572460 0.000000 0.000000 
#    y 0.000000 1.594360 0.000000 
#    z 0.000000 0.000000 1.562240 
# 
# From -- ./inp_files/27223.got.cif
#   From: 2010.05.17/outbox.cif.g08.bks.cpg/sg62_14_cif.got.tgz:27223.got - 2010.06.03 15:25:27.
