data_PCOD9461066
_publ_section_title
;
Structure prediction by ZEFSAII (Michael W. Deem and Ramdas Pophale) SiO2 
 PCOD9461066
Probable space group: P B C A
;
_chemical_formula_sum "Si O2"
_cell_formula_units_Z 48
_cell_length_a 12.007131
_cell_length_b 11.614271
_cell_length_c 17.775447
_cell_angle_alpha 90.000000
_cell_angle_beta 90.000000
_cell_angle_gamma 90.000000
_cell_volume 2478.858490
_symmetry_space_group_name_H-M "P B C A"
_symmetry_group_IT_number 61
_symmetry_cell_setting 'orthorhombic'
loop_
_space_group_symop_operation_xyz
x,y,z
1/2-x,-y,1/2+z
1/2+x,1/2-y,-z
-x,1/2+y,1/2-z
-x,-y,-z
1/2+x,y,1/2-z
1/2-x,1/2+y,z
x,1/2-y,1/2+z
loop_
_atom_site_type_symbol
_atom_site_label
_atom_site_fract_x
_atom_site_fract_y
_atom_site_fract_z
Si Si1 0.415257 0.327183 0.606173
Si Si2 0.539410 0.589480 0.827918
Si Si3 0.674154 0.414883 0.929035
Si Si4 0.921457 0.028722 0.655949
Si Si5 0.178325 0.988201 0.902852
Si Si6 0.042572 0.760636 0.937415
O O1 0.437438 0.224699 0.664677
O O2 0.288334 0.369593 0.605632
O O3 0.496022 0.433261 0.622675
O O4 0.440377 0.275508 0.523733
O O5 0.624240 0.521785 0.882665
O O6 0.555862 0.545135 0.743897
O O7 0.416521 0.558466 0.858240
O O8 0.578919 0.317466 0.928407
O O9 0.692760 0.454830 0.014896
O O10 0.794936 0.991117 0.639736
O O11 0.942342 0.149293 0.613911
O O12 0.130437 0.860043 0.915414
#
# Coordination Sequence:
#
# PCOD9461066 Si02
#       6
#     8   8   8   8   8   8
#     4  12  26  44  74 103 139 183 242 288 343 429
#     4  11  27  48  67 103 145 187 229 291 365 412
#     4  11  24  45  74  99 136 190 235 289 345 423
#     4  12  30  41  73 110 141 181 238 295 356 421
#     4  11  24  48  71  98 144 188 232 287 357 416
#     4  11  24  45  71 103 138 184 237 290 352 416
#
# _framework density 19.363751000000001
#
# number of rings (size 3 to 8) (size 9 to 14) (size 15 to 20)
#    0.000    0.667    5.000    1.500   14.000    0.000 
#    0.000    0.000    0.000    0.000    0.000    0.000 
#    0.000    0.000    0.000    0.000    0.000    0.000 
#
# Total GULP energy -268661.915756 kJ/mol
# GULP energy per Si atom -5597.123245 kJ/mol
# Density = 1.931968 g / cm^3
# Si number density = 19.363751 Si / 1000 Ang^3
#
#
#
# Elastic Constant Matrix: (Units=GPa)
#
#
# Indices 1 2 3 4 5 6 
#
# 1 99.0129 51.2490 2.0665 0.0000 0.0000 0.0000
# 2 51.2490 106.1321 8.8859 0.0000 0.0000 0.0000
# 3 2.0665 8.8859 52.7040 0.0000 0.0000 0.0000
# 4 0.0000 0.0000 0.0000 -94.8273 0.0000 0.0000
# 5 0.0000 0.0000 0.0000 0.0000 2.1551 0.0000
# 6 0.0000 0.0000 0.0000 0.0000 0.0000 10.1049
#
#
#
# Elastic Compliance Matrix: (Units=1/GPa)
#
#
# Indices 1 2 3 4 5 6 
#
# 1 0.013482 -0.006559 0.000577 0.000000 0.000000 0.000000
# 2 -0.006559 0.012748 -0.001892 0.000000 0.000000 0.000000
# 3 0.000577 -0.001892 0.019270 0.000000 0.000000 0.000000
# 4 0.000000 0.000000 0.000000 -0.010545 0.000000 0.000000
# 5 0.000000 0.000000 0.000000 0.000000 0.464006 0.000000
# 6 0.000000 0.000000 0.000000 0.000000 0.000000 0.098962
#
#
# Mechanical properties :
#
#
# Convention : Reuss Voigt Hill
#
# Bulk Modulus (GPa) = 33.60992 42.47241 38.04117
# Shear Modulus (GPa) = 8.01812 -3.47028 2.27392
#
# Velocity S-wave (km/s) = 2.03710 -1.34017 1.08484
# Velocity P-wave (km/s) = 4.78830 4.42571 4.61057
#
# Compressibility (1/GPa) = 0.02975312
#
# Stress axis : x y z
#
# Youngs Moduli (GPa) = 74.17063 78.44555 51.89340
#
# Poissons Ratio (x) = 0.51450 -0.02995
# Poissons Ratio (y) = 0.48646 0.09819
# Poissons Ratio (z) = -0.04281 0.14843
#
# Static dielectric constant tensor:
#      x y z
#    x 1.642400 0.000000 0.000000 
#    y 0.000000 1.656030 0.000000 
#    z 0.000000 0.000000 1.648990 
# 
# From -- ./inp_files/9173.got.cif
#   From: 2010.05.17/outbox.cif.g08.bks.cpg/sg61_5_cif.got.tgz:9173.got - 2010.06.03 15:17:17.
