data_PCOD9461270
_publ_section_title
;
Structure prediction by ZEFSAII (Michael W. Deem and Ramdas Pophale) SiO2 
 PCOD9461270
Probable space group: P B C A
;
_chemical_formula_sum "Si O2"
_cell_formula_units_Z 56
_cell_length_a 15.000000
_cell_length_b 21.000000
_cell_length_c 9.000000
_cell_angle_alpha 90.000000
_cell_angle_beta 90.000000
_cell_angle_gamma 90.000000
_cell_volume 2835.000000
_symmetry_space_group_name_H-M "P B C A"
_symmetry_group_IT_number 61
_symmetry_cell_setting 'orthorhombic'
loop_
_space_group_symop_operation_xyz
x,y,z
1/2-x,-y,1/2+z
1/2+x,1/2-y,-z
-x,1/2+y,1/2-z
-x,-y,-z
1/2+x,y,1/2-z
1/2-x,1/2+y,z
x,1/2-y,1/2+z
loop_
_atom_site_type_symbol
_atom_site_label
_atom_site_fract_x
_atom_site_fract_y
_atom_site_fract_z
Si Si1 0.410588 0.361935 0.354788
Si Si2 0.174369 0.828747 0.908338
Si Si3 0.925151 0.698227 0.672716
Si Si4 0.264405 0.272826 0.216751
Si Si5 0.427956 0.590357 0.069707
Si Si6 0.382761 0.448611 0.079108
Si Si7 0.988236 0.335605 0.821789
O O1 0.496191 0.333753 0.267970
O O2 0.328251 0.313943 0.326033
O O3 0.385295 0.423753 0.251378
O O4 0.438521 0.363152 0.529949
O O5 0.238145 0.799126 0.781684
O O6 0.081515 0.822167 0.815441
O O7 0.191658 0.785324 0.055421
O O8 0.178707 0.900087 0.979424
O O9 0.836230 0.702990 0.771380
O O10 0.903063 0.652302 0.531358
O O11 0.962316 0.769293 0.635508
O O12 0.369102 0.525085 0.068041
O O13 0.446502 0.614517 0.237986
O O14 0.520750 0.567324 0.993236
#
# Coordination Sequence:
#
# PCOD9461270 Si02
#       7
#     8   8   8   8   8   8   8
#     4  10  21  38  60  90 127 164 212 264 314 384
#     4  10  21  37  61  87 122 165 206 262 318 384
#     4  11  23  37  61  92 132 161 211 272 321 383
#     4  11  23  37  60  89 125 164 211 262 330 371
#     4   9  19  37  62  89 120 167 205 254 320 376
#     4   8  18  38  62  84 120 168 208 243 322 383
#     4  11  21  36  62  94 127 161 208 271 320 375
#
# _framework density 19.753086
#
# number of rings (size 3 to 8) (size 9 to 14) (size 15 to 20)
#    0.000    2.000    1.429    2.571    8.000    0.571 
#    0.000    0.000    6.286    6.857    0.000    0.000 
#    0.000    0.000    0.000    0.000    0.000    0.000 
#
# Total GULP energy -311944.904060 kJ/mol
# GULP energy per Si atom -5570.444715 kJ/mol
# Density = 1.970813 g / cm^3
# Si number density = 19.753086 Si / 1000 Ang^3
#
#
#
# Elastic Constant Matrix: (Units=GPa)
#
#
# Indices 1 2 3 4 5 6 
#
# 1 58.4331 4.3121 -0.2162 0.0000 0.0000 0.0000
# 2 4.3121 115.3923 37.4854 0.0000 0.0000 0.0000
# 3 -0.2162 37.4854 113.4056 0.0000 0.0000 0.0000
# 4 0.0000 0.0000 0.0000 31.7058 0.0000 0.0000
# 5 0.0000 0.0000 0.0000 0.0000 8.7674 0.0000
# 6 0.0000 0.0000 0.0000 0.0000 0.0000 8.7273
#
#
#
# Elastic Compliance Matrix: (Units=1/GPa)
#
#
# Indices 1 2 3 4 5 6 
#
# 1 0.017169 -0.000731 0.000274 0.000000 0.000000 0.000000
# 2 -0.000731 0.009740 -0.003221 0.000000 0.000000 0.000000
# 3 0.000274 -0.003221 0.009883 0.000000 0.000000 0.000000
# 4 0.000000 0.000000 0.000000 0.031540 0.000000 0.000000
# 5 0.000000 0.000000 0.000000 0.000000 0.114058 0.000000
# 6 0.000000 0.000000 0.000000 0.000000 0.000000 0.114583
#
#
# Mechanical properties :
#
#
# Convention : Reuss Voigt Hill
#
# Bulk Modulus (GPa) = 33.97101 41.15484 37.56292
# Shear Modulus (GPa) = 15.91652 26.21676 21.06664
#
# Velocity S-wave (km/s) = 2.84170 3.64706 3.26927
# Velocity P-wave (km/s) = 5.29170 6.21406 5.77134
#
# Compressibility (1/GPa) = 0.02943686
#
# Stress axis : x y z
#
# Youngs Moduli (GPa) = 58.24609 102.67294 101.18360
#
# Poissons Ratio (x) = 0.07502 -0.02775
# Poissons Ratio (y) = 0.04256 0.32589
# Poissons Ratio (z) = -0.01597 0.33069
#
# Static dielectric constant tensor:
#      x y z
#    x 1.730540 0.000000 0.000000 
#    y 0.000000 1.757830 0.000000 
#    z 0.000000 0.000000 1.711790 
# 
# From -- ./inp_files/3061.got.cif
#   From: 2010.05.17/outbox.ucp.g08.bks.cvg/sg61_2_cif.got.tgz:3061.got - 2010.06.11 16:28:26.
