data_PCOD9461959
_publ_section_title
;
Structure prediction by ZEFSAII (Michael W. Deem and Ramdas Pophale) SiO2 
 PCOD9461959
Probable space group: P N M A
;
_chemical_formula_sum "Si O2"
_cell_formula_units_Z 64
_cell_length_a 19.638793
_cell_length_b 8.507607
_cell_length_c 23.982238
_cell_angle_alpha 90.000000
_cell_angle_beta 90.000000
_cell_angle_gamma 90.000000
_cell_volume 4006.931528
_symmetry_space_group_name_H-M "P N M A"
_symmetry_group_IT_number 62
_symmetry_cell_setting 'orthorhombic'
loop_
_space_group_symop_operation_xyz
x,y,z
1/2-x,-y,1/2+z
1/2+x,1/2-y,1/2-z
-x,1/2+y,-z
-x,-y,-z
1/2+x,y,1/2-z
1/2-x,1/2+y,1/2+z
x,1/2-y,z
loop_
_atom_site_type_symbol
_atom_site_label
_atom_site_fract_x
_atom_site_fract_y
_atom_site_fract_z
Si Si1 0.844346 0.562734 0.728881
Si Si2 0.364785 0.558877 0.437179
Si Si3 0.858772 0.437274 0.278201
Si Si4 0.767284 0.064610 0.837004
Si Si5 0.718151 0.062201 0.669707
Si Si6 0.352068 0.561646 0.563759
Si Si7 0.991878 0.438688 0.883836
Si Si8 0.494470 0.559792 0.742424
O O1 0.840240 0.750000 0.722000
O O2 0.812715 0.519260 0.789258
O O3 0.795609 0.482557 0.683596
O O4 0.923110 0.513798 0.729473
O O5 0.365260 0.750000 0.438206
O O6 0.310243 0.511671 0.390268
O O7 0.349371 0.505941 0.499748
O O8 0.439795 0.510440 0.416287
O O9 0.854072 0.250000 0.285298
O O10 0.810274 0.518465 0.323382
O O11 0.826830 0.482612 0.218171
O O12 0.937709 0.484781 0.276102
O O13 0.776272 0.250000 0.830211
O O14 0.794630 0.010868 0.896596
O O15 0.709841 0.250000 0.674854
O O16 0.346003 0.750000 0.565133
O O17 0.424952 0.513813 0.589333
O O18 0.986408 0.250000 0.887069
O O19 0.997588 0.488172 0.819400
O O20 0.494414 0.750000 0.736686
#
# Coordination Sequence:
#
# PCOD9461959 Si02
#       8
#     8   8   8   8   8   8   8   8
#     4  10  19  32  49  71  98 128 159 198 242 291
#     4   9  20  34  49  69  97 132 168 205 245 285
#     4  10  19  32  50  72  95 127 162 198 244 293
#     4  11  21  33  48  71  96 126 163 205 246 287
#     4  10  18  32  49  70  96 126 161 202 243 288
#     4  11  21  35  50  67  96 134 170 205 242 287
#     4  11  20  32  48  70  99 132 169 205 239 280
#     4  10  20  32  49  72 100 132 164 195 239 294
#
# _framework density 15.972322999999999
#
# number of rings (size 3 to 8) (size 9 to 14) (size 15 to 20)
#    0.000    1.750    2.500    4.875    0.000    1.000 
#    0.000    4.375    0.000    0.000    0.000    0.875 
#    0.000    0.000    0.000    0.000    0.000    0.000 
#
# Total GULP energy -357221.263784 kJ/mol
# GULP energy per Si atom -5581.582247 kJ/mol
# Density = 1.593597 g / cm^3
# Si number density = 15.972323 Si / 1000 Ang^3
#
#
#
# Elastic Constant Matrix: (Units=GPa)
#
#
# Indices 1 2 3 4 5 6 
#
# 1 93.3161 -0.4251 32.8474 0.0000 0.0000 0.0000
# 2 -0.4251 13.1428 0.9824 0.0000 0.0000 0.0000
# 3 32.8474 0.9824 68.2926 0.0000 0.0000 0.0000
# 4 0.0000 0.0000 0.0000 18.1928 0.0000 0.0000
# 5 0.0000 0.0000 0.0000 0.0000 15.9983 0.0000
# 6 0.0000 0.0000 0.0000 0.0000 0.0000 5.6584
#
#
#
# Elastic Compliance Matrix: (Units=1/GPa)
#
#
# Indices 1 2 3 4 5 6 
#
# 1 0.012911 0.000883 -0.006222 0.000000 0.000000 0.000000
# 2 0.000883 0.076230 -0.001521 0.000000 0.000000 0.000000
# 3 -0.006222 -0.001521 0.017658 0.000000 0.000000 0.000000
# 4 0.000000 0.000000 0.000000 0.054967 0.000000 0.000000
# 5 0.000000 0.000000 0.000000 0.000000 0.062507 0.000000
# 6 0.000000 0.000000 0.000000 0.000000 0.000000 0.176727
#
#
# Mechanical properties :
#
#
# Convention : Reuss Voigt Hill
#
# Bulk Modulus (GPa) = 10.74389 26.84011 18.79200
# Shear Modulus (GPa) = 11.21715 17.39302 14.30508
#
# Velocity S-wave (km/s) = 2.65294 3.30350 2.99593
# Velocity P-wave (km/s) = 4.01563 5.60281 4.87426
#
# Compressibility (1/GPa) = 0.09307612
#
# Stress axis : x y z
#
# Youngs Moduli (GPa) = 77.45580 13.11824 56.63274
#
# Poissons Ratio (x) = -0.01158 0.35239
# Poissons Ratio (y) = -0.06837 0.08615
# Poissons Ratio (z) = 0.48196 0.01995
#
# Static dielectric constant tensor:
#      x y z
#    x 1.547220 0.000000 0.000000 
#    y 0.000000 1.543500 0.000000 
#    z 0.000000 0.000000 1.513570 
# 
# From -- ./inp_files/30050.got.cif
#   From: 2010.05.17/outbox.cif.g08.bks.cpg/sg62_16_cif.got.tgz:30050.got - 2010.06.03 15:25:27.
