data_PCOD9461840
_publ_section_title
;
Structure prediction by ZEFSAII (Michael W. Deem and Ramdas Pophale) SiO2 
 PCOD9461840
Probable space group: P N M A
;
_chemical_formula_sum "Si O2"
_cell_formula_units_Z 40
_cell_length_a 8.057228
_cell_length_b 8.407890
_cell_length_c 24.046412
_cell_angle_alpha 90.000000
_cell_angle_beta 90.000000
_cell_angle_gamma 90.000000
_cell_volume 1629.007029
_symmetry_space_group_name_H-M "P N M A"
_symmetry_group_IT_number 62
_symmetry_cell_setting 'orthorhombic'
loop_
_space_group_symop_operation_xyz
x,y,z
1/2-x,-y,1/2+z
1/2+x,1/2-y,1/2-z
-x,1/2+y,-z
-x,-y,-z
1/2+x,y,1/2-z
1/2-x,1/2+y,1/2+z
x,1/2-y,z
loop_
_atom_site_type_symbol
_atom_site_label
_atom_site_fract_x
_atom_site_fract_y
_atom_site_fract_z
Si Si1 0.855936 0.063283 0.435688
Si Si2 0.450590 0.563702 0.831519
Si Si3 0.460388 0.435626 0.626437
Si Si4 0.838485 0.438145 0.033842
Si Si5 0.856381 0.934567 0.236568
O O1 0.879995 0.250000 0.445618
O O2 0.997260 0.005595 0.392955
O O3 0.687522 0.037911 0.399337
O O4 0.815905 0.980553 0.494331
O O5 0.408445 0.750000 0.836096
O O6 0.307000 0.473703 0.798578
O O7 0.607127 0.540584 0.790055
O O8 0.421404 0.250000 0.616278
O O9 0.628121 0.479726 0.592740
O O10 0.497364 0.458369 0.691057
O O11 0.844794 0.250000 0.040934
O O12 0.000000 0.500000 0.000000
O O13 0.854091 0.750000 0.253690
#
# Coordination Sequence:
#
# PCOD9461840 Si02
#       5
#     8   8   8   8   8
#     4  10  20  35  56  83 113 147 185 228 275 327
#     4  11  24  40  60  84 113 148 187 232 282 335
#     4  10  20  35  56  83 113 147 185 228 275 327
#     4  10  18  30  53  82 111 146 184 226 272 324
#     4  11  24  40  60  84 113 148 187 232 282 335
#
# _framework density 24.554838
#
# number of rings (size 3 to 8) (size 9 to 14) (size 15 to 20)
#    0.000    1.600    0.000    7.800    0.000    9.600 
#    0.000    1.000    0.000    0.000    0.000    0.000 
#    0.000    0.000    0.000    0.000    0.000    0.000 
#
# Total GULP energy -223891.883011 kJ/mol
# GULP energy per Si atom -5597.297075 kJ/mol
# Density = 2.449895 g / cm^3
# Si number density = 24.554838 Si / 1000 Ang^3
#
#
#
# Elastic Constant Matrix: (Units=GPa)
#
#
# Indices 1 2 3 4 5 6 
#
# 1 81.2759 -10.4971 -0.0594 0.0000 0.0000 0.0000
# 2 -10.4971 56.7751 20.7150 0.0000 0.0000 0.0000
# 3 -0.0594 20.7150 128.8618 0.0000 0.0000 0.0000
# 4 0.0000 0.0000 0.0000 26.3845 0.0000 0.0000
# 5 0.0000 0.0000 0.0000 0.0000 39.1821 0.0000
# 6 0.0000 0.0000 0.0000 0.0000 0.0000 23.4810
#
#
#
# Elastic Compliance Matrix: (Units=1/GPa)
#
#
# Indices 1 2 3 4 5 6 
#
# 1 0.012623 0.002477 -0.000392 0.000000 0.000000 0.000000
# 2 0.002477 0.019197 -0.003085 0.000000 0.000000 0.000000
# 3 -0.000392 -0.003085 0.008256 0.000000 0.000000 0.000000
# 4 0.000000 0.000000 0.000000 0.037901 0.000000 0.000000
# 5 0.000000 0.000000 0.000000 0.000000 0.025522 0.000000
# 6 0.000000 0.000000 0.000000 0.000000 0.000000 0.042588
#
#
# Mechanical properties :
#
#
# Convention : Reuss Voigt Hill
#
# Bulk Modulus (GPa) = 26.26328 31.91445 29.08886
# Shear Modulus (GPa) = 31.09859 34.92647 33.01253
#
# Velocity S-wave (km/s) = 3.56265 3.77555 3.67064
# Velocity P-wave (km/s) = 5.25759 5.65966 5.46233
#
# Compressibility (1/GPa) = 0.03807598
#
# Stress axis : x y z
#
# Youngs Moduli (GPa) = 79.21793 52.09186 121.12451
#
# Poissons Ratio (x) = -0.12904 0.04753
# Poissons Ratio (y) = -0.19623 0.37365
# Poissons Ratio (z) = 0.03108 0.16069
#
# Static dielectric constant tensor:
#      x y z
#    x 2.033670 0.000000 0.000000 
#    y 0.000000 1.809890 0.000000 
#    z 0.000000 0.000000 1.884990 
# 
# From -- ./inp_files/30668.got.cif
#   From: 2010.05.17/outbox.cif.g08.bks.cpg/sg62_16_cif.got.tgz:30668.got - 2010.06.03 15:25:27.
