data_PCOD9461217
_publ_section_title
;
Structure prediction by ZEFSAII (Michael W. Deem and Ramdas Pophale) SiO2 
 PCOD9461217
Probable space group: P B C A
;
_chemical_formula_sum "Si O2"
_cell_formula_units_Z 48
_cell_length_a 11.096201
_cell_length_b 21.286668
_cell_length_c 7.439859
_cell_angle_alpha 90.000000
_cell_angle_beta 90.000000
_cell_angle_gamma 90.000000
_cell_volume 1757.303227
_symmetry_space_group_name_H-M "P B C A"
_symmetry_group_IT_number 61
_symmetry_cell_setting 'orthorhombic'
loop_
_space_group_symop_operation_xyz
x,y,z
1/2-x,-y,1/2+z
1/2+x,1/2-y,-z
-x,1/2+y,1/2-z
-x,-y,-z
1/2+x,y,1/2-z
1/2-x,1/2+y,z
x,1/2-y,1/2+z
loop_
_atom_site_type_symbol
_atom_site_label
_atom_site_fract_x
_atom_site_fract_y
_atom_site_fract_z
Si Si1 0.380527 0.189560 0.990684
Si Si2 0.254384 0.586159 0.770700
Si Si3 0.185679 0.139238 0.425233
Si Si4 0.545695 0.628141 0.136864
Si Si5 0.616462 0.236301 0.456899
Si Si6 0.374845 0.534149 0.125877
O O1 0.321655 0.143991 0.846091
O O2 0.487981 0.229543 0.896504
O O3 0.436018 0.147889 0.154032
O O4 0.261591 0.224670 0.073426
O O5 0.348644 0.612562 0.621845
O O6 0.168420 0.532918 0.688884
O O7 0.314553 0.552750 0.940036
O O8 0.328232 0.144469 0.447649
O O9 0.138703 0.210226 0.385523
O O10 0.166211 0.086381 0.276485
O O11 0.441328 0.667177 0.033010
O O12 0.514537 0.554546 0.123280
#
# Coordination Sequence:
#
# PCOD9461217 Si02
#       6
#     8   8   8   8   8   8
#     4  12  28  49  83 122 171 217 278 344 420 507
#     4  12  28  51  82 121 163 226 283 345 420 501
#     4  12  27  49  80 120 162 219 275 343 426 500
#     4  12  26  50  81 117 169 218 275 354 417 507
#     4  12  27  49  84 122 168 221 270 348 428 502
#     4  12  26  54  80 117 168 218 286 348 414 503
#
# _framework density 27.314579999999999
#
# number of rings (size 3 to 8) (size 9 to 14) (size 15 to 20)
#    0.000    0.000    8.333    0.000    4.667    2.667 
#    3.000    0.000    0.000    0.000    0.000    0.000 
#    0.000    0.000    0.000    0.000    0.000    0.000 
#
# Total GULP energy -267858.870788 kJ/mol
# GULP energy per Si atom -5580.393141 kJ/mol
# Density = 2.725241 g / cm^3
# Si number density = 27.314580 Si / 1000 Ang^3
#
#
#
# Elastic Constant Matrix: (Units=GPa)
#
#
# Indices 1 2 3 4 5 6 
#
# 1 142.3088 45.6016 20.9812 0.0000 0.0000 0.0000
# 2 45.6016 138.0346 39.6589 0.0000 0.0000 0.0000
# 3 20.9812 39.6589 148.4257 0.0000 0.0000 0.0000
# 4 0.0000 0.0000 0.0000 -32.3204 0.0000 0.0000
# 5 0.0000 0.0000 0.0000 0.0000 34.8353 0.0000
# 6 0.0000 0.0000 0.0000 0.0000 0.0000 69.1902
#
#
#
# Elastic Compliance Matrix: (Units=1/GPa)
#
#
# Indices 1 2 3 4 5 6 
#
# 1 0.007887 -0.002475 -0.000454 0.000000 0.000000 0.000000
# 2 -0.002475 0.008624 -0.001954 0.000000 0.000000 0.000000
# 3 -0.000454 -0.001954 0.007324 0.000000 0.000000 0.000000
# 4 0.000000 0.000000 0.000000 -0.030940 0.000000 0.000000
# 5 0.000000 0.000000 0.000000 0.000000 0.028707 0.000000
# 6 0.000000 0.000000 0.000000 0.000000 0.000000 0.014453
#
#
# Mechanical properties :
#
#
# Convention : Reuss Voigt Hill
#
# Bulk Modulus (GPa) = 71.08219 71.25027 71.16623
# Shear Modulus (GPa) = 98.99154 35.84287 67.41720
#
# Velocity S-wave (km/s) = 6.02660 3.62639 4.97346
# Velocity P-wave (km/s) = 8.63172 6.60878 7.68709
#
# Compressibility (1/GPa) = 0.01406822
#
# Stress axis : x y z
#
# Youngs Moduli (GPa) = 126.79063 115.95800 136.54335
#
# Poissons Ratio (x) = 0.28703 0.06192
# Poissons Ratio (y) = 0.31384 0.26685
# Poissons Ratio (z) = 0.05750 0.22662
#
# Static dielectric constant tensor:
#      x y z
#    x 2.296590 0.000000 0.000000 
#    y 0.000000 2.098720 0.000000 
#    z 0.000000 0.000000 2.357950 
# 
# From -- ./inp_files/2320.got.cif
#   From: 2010.05.17/outbox.cif.g08.bks.cpg/sg61_2_cif.got.tgz:2320.got - 2010.06.03 15:17:17.
