data_PCOD9461164
_publ_section_title
;
Structure prediction by ZEFSAII (Michael W. Deem and Ramdas Pophale) SiO2 
 PCOD9461164
Probable space group: P B C A
;
_chemical_formula_sum "Si O2"
_cell_formula_units_Z 40
_cell_length_a 13.739615
_cell_length_b 5.363813
_cell_length_c 23.278082
_cell_angle_alpha 90.000000
_cell_angle_beta 90.000000
_cell_angle_gamma 90.000000
_cell_volume 1715.518421
_symmetry_space_group_name_H-M "P B C A"
_symmetry_group_IT_number 61
_symmetry_cell_setting 'orthorhombic'
loop_
_space_group_symop_operation_xyz
x,y,z
1/2-x,-y,1/2+z
1/2+x,1/2-y,-z
-x,1/2+y,1/2-z
-x,-y,-z
1/2+x,y,1/2-z
1/2-x,1/2+y,z
x,1/2-y,1/2+z
loop_
_atom_site_type_symbol
_atom_site_label
_atom_site_fract_x
_atom_site_fract_y
_atom_site_fract_z
Si Si1 0.489383 0.812963 0.215427
Si Si2 0.731865 0.227109 0.291130
Si Si3 0.303348 0.230769 0.469512
Si Si4 0.498555 0.735458 0.095003
Si Si5 0.631636 0.765849 0.905478
O O1 0.510658 0.594038 0.260851
O O2 0.380247 0.753948 0.194657
O O3 0.549050 0.774865 0.157481
O O4 0.758040 0.473495 0.257243
O O5 0.801158 0.226187 0.347695
O O6 0.250493 0.481585 0.449047
O O7 0.416085 0.227851 0.451452
O O8 0.301579 0.234760 0.538882
O O9 0.439632 0.474416 0.095399
O O10 0.430183 0.979443 0.087129
#
# Coordination Sequence:
#
# PCOD9461164 Si02
#       5
#     8   8   8   8   8
#     4  12  26  45  68 104 144 185 242 301 359 413
#     4  12  21  41  69 105 133 173 235 303 338 409
#     4  12  26  44  68 107 151 189 229 285 372 443
#     4  12  25  45  72 101 149 185 239 300 360 423
#     4  12  22  43  75 109 137 180 243 299 351 430
#
# _framework density 23.316566000000002
#
# number of rings (size 3 to 8) (size 9 to 14) (size 15 to 20)
#    0.000    0.000    4.000    7.200    0.000    0.000 
#    0.000    6.000    0.000    0.000    0.000    0.000 
#    0.000    0.000    0.000    0.000    0.000    0.000 
#
# Total GULP energy -223676.719363 kJ/mol
# GULP energy per Si atom -5591.917984 kJ/mol
# Density = 2.326350 g / cm^3
# Si number density = 23.316566 Si / 1000 Ang^3
#
#
#
# Elastic Constant Matrix: (Units=GPa)
#
#
# Indices 1 2 3 4 5 6 
#
# 1 104.3756 41.5386 4.4291 0.0000 0.0000 0.0000
# 2 41.5386 169.6086 11.6592 0.0000 0.0000 0.0000
# 3 4.4291 11.6592 41.8015 0.0000 0.0000 0.0000
# 4 0.0000 0.0000 0.0000 14.1522 0.0000 0.0000
# 5 0.0000 0.0000 0.0000 0.0000 24.5662 0.0000
# 6 0.0000 0.0000 0.0000 0.0000 0.0000 55.6445
#
#
#
# Elastic Compliance Matrix: (Units=1/GPa)
#
#
# Indices 1 2 3 4 5 6 
#
# 1 0.010622 -0.002573 -0.000408 0.000000 0.000000 0.000000
# 2 -0.002573 0.006635 -0.001578 0.000000 0.000000 0.000000
# 3 -0.000408 -0.001578 0.024406 0.000000 0.000000 0.000000
# 4 0.000000 0.000000 0.000000 0.070660 0.000000 0.000000
# 5 0.000000 0.000000 0.000000 0.000000 0.040706 0.000000
# 6 0.000000 0.000000 0.000000 0.000000 0.000000 0.017971
#
#
# Mechanical properties :
#
#
# Convention : Reuss Voigt Hill
#
# Bulk Modulus (GPa) = 30.72692 47.89329 39.31010
# Shear Modulus (GPa) = 26.18254 36.08318 31.13286
#
# Velocity S-wave (km/s) = 3.35463 3.93814 3.65804
# Velocity P-wave (km/s) = 5.31145 6.42368 5.89386
#
# Compressibility (1/GPa) = 0.03254475
#
# Stress axis : x y z
#
# Youngs Moduli (GPa) = 94.14204 150.72378 40.97377
#
# Poissons Ratio (x) = 0.38788 0.01670
# Poissons Ratio (y) = 0.24227 0.06465
# Poissons Ratio (z) = 0.03838 0.23782
#
# Static dielectric constant tensor:
#      x y z
#    x 1.908290 0.000000 0.000000 
#    y 0.000000 1.992920 0.000000 
#    z 0.000000 0.000000 1.894130 
# 
# From -- ./inp_files/11415.got.cif
#   From: 2010.05.17/outbox.cif.g08.bks.cpg/sg61_6_cif.got.tgz:11415.got - 2010.06.03 15:17:17.
