data_PCOD9461100
_publ_section_title
;
Structure prediction by ZEFSAII (Michael W. Deem and Ramdas Pophale) SiO2 
 PCOD9461100
Probable space group: P B C A
;
_chemical_formula_sum "Si O2"
_cell_formula_units_Z 40
_cell_length_a 10.174063
_cell_length_b 17.698105
_cell_length_c 9.551186
_cell_angle_alpha 90.000000
_cell_angle_beta 90.000000
_cell_angle_gamma 90.000000
_cell_volume 1719.802170
_symmetry_space_group_name_H-M "P B C A"
_symmetry_group_IT_number 61
_symmetry_cell_setting 'orthorhombic'
loop_
_space_group_symop_operation_xyz
x,y,z
1/2-x,-y,1/2+z
1/2+x,1/2-y,-z
-x,1/2+y,1/2-z
-x,-y,-z
1/2+x,y,1/2-z
1/2-x,1/2+y,z
x,1/2-y,1/2+z
loop_
_atom_site_type_symbol
_atom_site_label
_atom_site_fract_x
_atom_site_fract_y
_atom_site_fract_z
Si Si1 0.866369 0.848365 0.619997
Si Si2 0.320523 0.228540 0.957079
Si Si3 0.645584 0.073103 0.826840
Si Si4 0.860961 0.395797 0.816713
Si Si5 0.419555 0.346217 0.184105
O O1 0.818858 0.763211 0.591712
O O2 0.895568 0.886690 0.471530
O O3 0.740794 0.886133 0.691336
O O4 0.994667 0.862001 0.711814
O O5 0.307959 0.155287 0.055158
O O6 0.390603 0.293563 0.050164
O O7 0.399965 0.207379 0.819006
O O8 0.797433 0.095167 0.805819
O O9 0.553679 0.107733 0.705168
O O10 0.626977 0.984250 0.844929
#
# Coordination Sequence:
#
# PCOD9461100 Si02
#       5
#     8   8   8   8   8
#     4  11  26  46  71 108 142 194 248 300 374 441
#     4  11  25  43  74 103 139 188 242 300 362 433
#     4  11  26  47  72 106 147 196 242 308 373 446
#     4  12  25  46  76 102 152 190 248 307 373 435
#     4  11  25  46  72 104 145 189 245 299 371 437
#
# _framework density 23.258489000000001
#
# number of rings (size 3 to 8) (size 9 to 14) (size 15 to 20)
#    0.000    0.800    4.000    1.800    5.600    1.600 
#    3.600    5.000    0.000    0.000    0.000    0.000 
#    0.000    0.000    0.000    0.000    0.000    0.000 
#
# Total GULP energy -223962.947838 kJ/mol
# GULP energy per Si atom -5599.073696 kJ/mol
# Density = 2.320555 g / cm^3
# Si number density = 23.258489 Si / 1000 Ang^3
#
#
#
# Elastic Constant Matrix: (Units=GPa)
#
#
# Indices 1 2 3 4 5 6 
#
# 1 118.6093 30.3121 1.6220 0.0000 0.0000 0.0000
# 2 30.3121 146.1731 -3.0835 0.0000 0.0000 0.0000
# 3 1.6220 -3.0835 37.8835 0.0000 0.0000 0.0000
# 4 0.0000 0.0000 0.0000 20.6806 0.0000 0.0000
# 5 0.0000 0.0000 0.0000 0.0000 22.7902 0.0000
# 6 0.0000 0.0000 0.0000 0.0000 0.0000 -195.4123
#
#
#
# Elastic Compliance Matrix: (Units=1/GPa)
#
#
# Indices 1 2 3 4 5 6 
#
# 1 0.008914 -0.001860 -0.000533 0.000000 0.000000 0.000000
# 2 -0.001860 0.007241 0.000669 0.000000 0.000000 0.000000
# 3 -0.000533 0.000669 0.026474 0.000000 0.000000 0.000000
# 4 0.000000 0.000000 0.000000 0.048355 0.000000 0.000000
# 5 0.000000 0.000000 0.000000 0.000000 0.043879 0.000000
# 6 0.000000 0.000000 0.000000 0.000000 0.000000 -0.005117
#
#
# Mechanical properties :
#
#
# Convention : Reuss Voigt Hill
#
# Bulk Modulus (GPa) = 25.52247 40.04080 32.78163
# Shear Modulus (GPa) = 34.18756 -12.13396 11.02680
#
# Velocity S-wave (km/s) = 3.83808 -2.28655 2.17974
# Velocity P-wave (km/s) = 5.53520 3.20653 4.52329
#
# Compressibility (1/GPa) = 0.03918116
#
# Stress axis : x y z
#
# Youngs Moduli (GPa) = 112.18816 138.10328 37.77295
#
# Poissons Ratio (x) = 0.25683 0.02013
# Poissons Ratio (y) = 0.20863 -0.02527
# Poissons Ratio (z) = 0.05980 -0.09239
#
# Static dielectric constant tensor:
#      x y z
#    x 1.917220 0.000000 0.000000 
#    y 0.000000 1.858490 0.000000 
#    z 0.000000 0.000000 1.857290 
# 
# From -- ./inp_files/4803.got.cif
#   From: 2010.05.17/outbox.cif.g08.bks.cpg/sg61_3_cif.got.tgz:4803.got - 2010.06.03 15:17:17.
