data_PCOD9461550
_publ_section_title
;
Structure prediction by ZEFSAII (Michael W. Deem and Ramdas Pophale) SiO2 
 PCOD9461550
Probable space group: P N M A
;
_chemical_formula_sum "Si O2"
_cell_formula_units_Z 52
_cell_length_a 13.499647
_cell_length_b 8.263202
_cell_length_c 19.082957
_cell_angle_alpha 90.000000
_cell_angle_beta 90.000000
_cell_angle_gamma 90.000000
_cell_volume 2128.709771
_symmetry_space_group_name_H-M "P N M A"
_symmetry_group_IT_number 62
_symmetry_cell_setting 'orthorhombic'
loop_
_space_group_symop_operation_xyz
x,y,z
1/2-x,-y,1/2+z
1/2+x,1/2-y,1/2-z
-x,1/2+y,-z
-x,-y,-z
1/2+x,y,1/2-z
1/2-x,1/2+y,1/2+z
x,1/2-y,z
loop_
_atom_site_type_symbol
_atom_site_label
_atom_site_fract_x
_atom_site_fract_y
_atom_site_fract_z
Si Si1 0.521132 0.056571 0.388158
Si Si2 0.572165 0.920041 0.911396
Si Si3 0.394159 0.063480 0.256715
Si Si4 0.122618 0.250000 0.608239
Si Si5 0.760348 0.750000 0.262518
Si Si6 0.650509 0.556250 0.504792
Si Si7 0.844106 0.935959 0.590750
Si Si8 0.095231 0.750000 0.325244
O O1 0.523852 0.250000 0.391380
O O2 0.485630 0.021459 0.308637
O O3 0.433186 0.995974 0.439795
O O4 0.621349 0.001213 0.426873
O O5 0.616655 0.750000 0.935426
O O6 0.577578 0.925059 0.825765
O O7 0.458369 0.923758 0.933396
O O8 0.621351 0.085875 0.933326
O O9 0.361668 0.250000 0.275151
O O10 0.315969 0.915621 0.263443
O O11 0.216862 0.250000 0.656089
O O12 0.020726 0.250000 0.655150
O O13 0.643404 0.750000 0.250813
O O14 0.645436 0.750000 0.503421
O O15 0.754209 0.514759 0.540679
O O16 0.822615 0.750000 0.616385
O O17 0.857631 0.087420 0.642679
#
# Coordination Sequence:
#
# PCOD9461550 Si02
#       8
#     8   8   8   4   4   8   8   4
#     4   9  17  26  35  49  72 100 130 165 195 222
#     4   8  14  26  42  54  70  96 124 166 208 240
#     4   9  17  28  40  56  75  97 133 175 202 235
#     4   8  16  28  36  56  80  92 128 168 190 238
#     4  10  18  26  42  58  74 104 134 163 201 235
#     4   9  17  26  35  49  72 100 130 165 195 222
#     4   9  17  28  40  56  75  97 133 175 202 235
#     4  10  18  26  42  58  74 104 134 163 201 235
#
# _framework density 24.427942000000002
#
# number of rings (size 3 to 8) (size 9 to 14) (size 15 to 20)
#    0.000    3.077    0.000    0.923    2.154    1.846 
#    0.000    0.000    0.000    0.000    0.000    0.000 
#    0.000    0.000    0.000    0.000    0.000  153.846 
#
# Total GULP energy -289866.501456 kJ/mol
# GULP energy per Si atom -5574.355797 kJ/mol
# Density = 2.437234 g / cm^3
# Si number density = 24.427942 Si / 1000 Ang^3
#
#
#
# Elastic Constant Matrix: (Units=GPa)
#
#
# Indices 1 2 3 4 5 6 
#
# 1 72.6856 20.1354 23.5374 0.0000 0.0000 0.0000
# 2 20.1354 154.3216 3.8297 0.0000 0.0000 0.0000
# 3 23.5374 3.8297 64.1230 0.0000 0.0000 0.0000
# 4 0.0000 0.0000 0.0000 5.5476 0.0000 0.0000
# 5 0.0000 0.0000 0.0000 0.0000 39.5443 0.0000
# 6 0.0000 0.0000 0.0000 0.0000 0.0000 1.5461
#
#
#
# Elastic Compliance Matrix: (Units=1/GPa)
#
#
# Indices 1 2 3 4 5 6 
#
# 1 0.016189 -0.001968 -0.005825 0.000000 0.000000 0.000000
# 2 -0.001968 0.006729 0.000320 0.000000 0.000000 0.000000
# 3 -0.005825 0.000320 0.017714 0.000000 0.000000 0.000000
# 4 0.000000 0.000000 0.000000 0.180258 0.000000 0.000000
# 5 0.000000 0.000000 0.000000 0.000000 0.025288 0.000000
# 6 0.000000 0.000000 0.000000 0.000000 0.000000 0.646806
#
#
# Mechanical properties :
#
#
# Convention : Reuss Voigt Hill
#
# Bulk Modulus (GPa) = 38.92957 42.90389 40.91673
# Shear Modulus (GPa) = 5.45559 25.56943 15.51251
#
# Velocity S-wave (km/s) = 1.49606 3.23883 2.52272
# Velocity P-wave (km/s) = 4.35377 5.62034 5.02711
#
# Compressibility (1/GPa) = 0.02568741
#
# Stress axis : x y z
#
# Youngs Moduli (GPa) = 61.76929 148.61554 56.45233
#
# Poissons Ratio (x) = 0.29244 0.32884
# Poissons Ratio (y) = 0.12155 -0.01809
# Poissons Ratio (z) = 0.35981 -0.04762
#
# Static dielectric constant tensor:
#      x y z
#    x 1.921650 0.000000 0.000000 
#    y 0.000000 2.012690 0.000000 
#    z 0.000000 0.000000 1.986300 
# 
# From -- ./inp_files/29632.got.cif
#   From: 2010.05.17/outbox.cif.g08.bks.cpg/sg62_15_cif.got.tgz:29632.got - 2010.06.03 15:25:27.
