data_PCOD9461155
_publ_section_title
;
Structure prediction by ZEFSAII (Michael W. Deem and Ramdas Pophale) SiO2 
 PCOD9461155
Probable space group: P B C A
;
_chemical_formula_sum "Si O2"
_cell_formula_units_Z 36
_cell_length_a 19.905945
_cell_length_b 7.828177
_cell_length_c 8.673639
_cell_angle_alpha 90.000000
_cell_angle_beta 90.000000
_cell_angle_gamma 90.000000
_cell_volume 1351.589407
_symmetry_space_group_name_H-M "P B C A"
_symmetry_group_IT_number 61
_symmetry_cell_setting 'orthorhombic'
loop_
_space_group_symop_operation_xyz
x,y,z
1/2-x,-y,1/2+z
1/2+x,1/2-y,-z
-x,1/2+y,1/2-z
-x,-y,-z
1/2+x,y,1/2-z
1/2-x,1/2+y,z
x,1/2-y,1/2+z
loop_
_atom_site_type_symbol
_atom_site_label
_atom_site_fract_x
_atom_site_fract_y
_atom_site_fract_z
Si Si1 0.801847 0.126524 0.769699
Si Si2 0.516420 0.678721 0.304623
Si Si3 0.213497 0.322658 0.513878
Si Si4 0.000000 0.000000 0.000000
Si Si5 0.609785 0.010350 0.027339
O O1 0.736835 0.112067 0.653796
O O2 0.778803 0.274097 0.884415
O O3 0.819354 0.970193 0.883975
O O4 0.860421 0.129981 0.645452
O O5 0.518569 0.874711 0.355756
O O6 0.511711 0.657221 0.122437
O O7 0.448617 0.611918 0.386320
O O8 0.578922 0.572995 0.375090
O O9 0.167918 0.153780 0.500975
#
# Coordination Sequence:
#
# PCOD9461155 Si02
#       5
#     8   8   8   4   8
#     4  12  25  46  75 115 158 220 266 348 409 499
#     4  11  28  52  84 120 165 222 280 353 442 505
#     4  12  25  48  74 117 164 216 282 335 425 494
#     4  12  28  56  80 126 168 216 288 344 432 530
#     4  11  26  51  79 117 167 220 279 352 418 515
#
# _framework density 26.635306
#
# number of rings (size 3 to 8) (size 9 to 14) (size 15 to 20)
#    0.000    0.444    4.444    2.667    6.222    3.556 
#    4.000    0.000    0.000    0.000    0.000    0.000 
#    0.000    0.000    0.000    0.000    0.000    0.000 
#
# Total GULP energy -200845.838146 kJ/mol
# GULP energy per Si atom -5579.051060 kJ/mol
# Density = 2.657468 g / cm^3
# Si number density = 26.635306 Si / 1000 Ang^3
#
#
#
# Elastic Constant Matrix: (Units=GPa)
#
#
# Indices 1 2 3 4 5 6 
#
# 1 99.2456 14.9620 22.8664 0.0000 0.0000 0.0000
# 2 14.9620 86.6181 46.2743 0.0000 0.0000 0.0000
# 3 22.8664 46.2743 192.3894 0.0000 0.0000 0.0000
# 4 0.0000 0.0000 0.0000 71.4127 0.0000 0.0000
# 5 0.0000 0.0000 0.0000 0.0000 18.9560 0.0000
# 6 0.0000 0.0000 0.0000 0.0000 0.0000 39.2348
#
#
#
# Elastic Compliance Matrix: (Units=1/GPa)
#
#
# Indices 1 2 3 4 5 6 
#
# 1 0.010489 -0.001315 -0.000930 0.000000 0.000000 0.000000
# 2 -0.001315 0.013412 -0.003070 0.000000 0.000000 0.000000
# 3 -0.000930 -0.003070 0.006047 0.000000 0.000000 0.000000
# 4 0.000000 0.000000 0.000000 0.014003 0.000000 0.000000
# 5 0.000000 0.000000 0.000000 0.000000 0.052754 0.000000
# 6 0.000000 0.000000 0.000000 0.000000 0.000000 0.025488
#
#
# Mechanical properties :
#
#
# Convention : Reuss Voigt Hill
#
# Bulk Modulus (GPa) = 51.76590 60.71762 56.24176
# Shear Modulus (GPa) = 35.90397 45.53073 40.71735
#
# Velocity S-wave (km/s) = 3.67547 4.13899 3.91410
# Velocity P-wave (km/s) = 6.12286 6.75922 6.44889
#
# Compressibility (1/GPa) = 0.01931774
#
# Stress axis : x y z
#
# Youngs Moduli (GPa) = 95.34179 74.56049 165.37958
#
# Poissons Ratio (x) = 0.09802 0.15387
# Poissons Ratio (y) = 0.12535 0.50766
# Poissons Ratio (z) = 0.08871 0.22887
#
# Static dielectric constant tensor:
#      x y z
#    x 2.188680 0.000000 0.000000 
#    y 0.000000 1.991700 0.000000 
#    z 0.000000 0.000000 1.933890 
# 
# From -- ./inp_files/3784.got.cif
#   From: 2010.05.17/outbox.cif.g08.bks.cpg/sg61_2_cif.got.tgz:3784.got - 2010.06.03 15:17:17.
