data_PCOD9461158
_publ_section_title
;
Structure prediction by ZEFSAII (Michael W. Deem and Ramdas Pophale) SiO2 
 PCOD9461158
Probable space group: P B C A
;
_chemical_formula_sum "Si O2"
_cell_formula_units_Z 40
_cell_length_a 21.574224
_cell_length_b 7.780613
_cell_length_c 9.037148
_cell_angle_alpha 90.000000
_cell_angle_beta 90.000000
_cell_angle_gamma 90.000000
_cell_volume 1516.981878
_symmetry_space_group_name_H-M "P B C A"
_symmetry_group_IT_number 61
_symmetry_cell_setting 'orthorhombic'
loop_
_space_group_symop_operation_xyz
x,y,z
1/2-x,-y,1/2+z
1/2+x,1/2-y,-z
-x,1/2+y,1/2-z
-x,-y,-z
1/2+x,y,1/2-z
1/2-x,1/2+y,z
x,1/2-y,1/2+z
loop_
_atom_site_type_symbol
_atom_site_label
_atom_site_fract_x
_atom_site_fract_y
_atom_site_fract_z
Si Si1 0.416657 0.715282 0.968802
Si Si2 0.990001 0.400613 0.679185
Si Si3 0.075722 0.878598 0.520331
Si Si4 0.294067 0.309254 0.645692
Si Si5 0.216040 0.405546 0.361904
O O1 0.462769 0.583649 0.877566
O O2 0.348386 0.674235 0.911559
O O3 0.439250 0.642773 0.130989
O O4 0.412493 0.923162 0.978717
O O5 0.974730 0.393661 0.850160
O O6 0.951621 0.245278 0.603911
O O7 0.136319 0.786442 0.587926
O O8 0.260155 0.392559 0.503476
O O9 0.301391 0.409342 0.801088
O O10 0.249262 0.164383 0.712856
#
# Coordination Sequence:
#
# PCOD9461158 Si02
#       5
#     8   8   8   8   8
#     4  11  27  50  73 113 155 203 253 322 389 463
#     4  11  28  47  81 112 150 206 260 312 399 464
#     4  12  26  50  75 113 155 198 258 326 379 465
#     4  12  26  46  72 111 144 204 252 318 396 462
#     4  12  26  47  74 105 153 194 258 316 390 464
#
# _framework density 26.368144999999998
#
# number of rings (size 3 to 8) (size 9 to 14) (size 15 to 20)
#    0.000    0.400    2.000    5.400    8.400    1.600 
#    0.000    0.000    0.000    0.000    0.000    0.000 
#    0.000    0.000    0.000    0.000    0.000    0.000 
#
# Total GULP energy -223630.342829 kJ/mol
# GULP energy per Si atom -5590.758571 kJ/mol
# Density = 2.630813 g / cm^3
# Si number density = 26.368145 Si / 1000 Ang^3
#
#
#
# Elastic Constant Matrix: (Units=GPa)
#
#
# Indices 1 2 3 4 5 6 
#
# 1 125.7671 20.5501 14.9878 0.0000 0.0000 0.0000
# 2 20.5501 135.4602 35.9201 0.0000 0.0000 0.0000
# 3 14.9878 35.9201 113.7668 0.0000 0.0000 0.0000
# 4 0.0000 0.0000 0.0000 39.4774 0.0000 0.0000
# 5 0.0000 0.0000 0.0000 0.0000 27.3202 0.0000
# 6 0.0000 0.0000 0.0000 0.0000 0.0000 33.0814
#
#
#
# Elastic Compliance Matrix: (Units=1/GPa)
#
#
# Indices 1 2 3 4 5 6 
#
# 1 0.008212 -0.001047 -0.000751 0.000000 0.000000 0.000000
# 2 -0.001047 0.008190 -0.002448 0.000000 0.000000 0.000000
# 3 -0.000751 -0.002448 0.009662 0.000000 0.000000 0.000000
# 4 0.000000 0.000000 0.000000 0.025331 0.000000 0.000000
# 5 0.000000 0.000000 0.000000 0.000000 0.036603 0.000000
# 6 0.000000 0.000000 0.000000 0.000000 0.000000 0.030228
#
#
# Mechanical properties :
#
#
# Convention : Reuss Voigt Hill
#
# Bulk Modulus (GPa) = 56.90937 57.54557 57.22747
# Shear Modulus (GPa) = 37.71440 40.21153 38.96297
#
# Velocity S-wave (km/s) = 3.78604 3.90937 3.84820
# Velocity P-wave (km/s) = 6.38291 6.49991 6.44168
#
# Compressibility (1/GPa) = 0.01757180
#
# Stress axis : x y z
#
# Youngs Moduli (GPa) = 121.77669 122.09785 103.50005
#
# Poissons Ratio (x) = 0.12778 0.07777
# Poissons Ratio (y) = 0.12744 0.25337
# Poissons Ratio (z) = 0.09150 0.29890
#
# Static dielectric constant tensor:
#      x y z
#    x -2.375610 0.000000 0.000000 
#    y 0.000000 2.435020 0.000000 
#    z 0.000000 0.000000 2.125310 
# 
# From -- ./inp_files/4146.got.cif
#   From: 2010.05.17/outbox.cif.g08.bks.cpg/sg61_3_cif.got.tgz:4146.got - 2010.06.03 15:17:17.
