data_PCOD9461737
_publ_section_title
;
Structure prediction by ZEFSAII (Michael W. Deem and Ramdas Pophale) SiO2 
 PCOD9461737
Probable space group: P N M A
;
_chemical_formula_sum "Si O2"
_cell_formula_units_Z 64
_cell_length_a 24.070499
_cell_length_b 7.825572
_cell_length_c 15.969201
_cell_angle_alpha 90.000000
_cell_angle_beta 90.000000
_cell_angle_gamma 90.000000
_cell_volume 3008.045301
_symmetry_space_group_name_H-M "P N M A"
_symmetry_group_IT_number 62
_symmetry_cell_setting 'orthorhombic'
loop_
_space_group_symop_operation_xyz
x,y,z
1/2-x,-y,1/2+z
1/2+x,1/2-y,1/2-z
-x,1/2+y,-z
-x,-y,-z
1/2+x,y,1/2-z
1/2-x,1/2+y,1/2+z
x,1/2-y,z
loop_
_atom_site_type_symbol
_atom_site_label
_atom_site_fract_x
_atom_site_fract_y
_atom_site_fract_z
Si Si1 0.952630 0.542831 0.109852
Si Si2 0.958681 0.541164 0.294744
Si Si3 0.701429 0.449573 0.192249
Si Si4 0.695012 0.448167 0.373419
Si Si5 0.078166 0.951800 0.353867
Si Si6 0.776391 0.548044 0.514938
Si Si7 0.922010 0.449662 0.930934
Si Si8 0.397682 0.957528 0.037412
O O1 0.951023 0.750000 0.104819
O O2 0.936573 0.489351 0.203555
O O3 0.016817 0.487970 0.095142
O O4 0.918430 0.473635 0.031244
O O5 0.958750 0.750000 0.295553
O O6 0.924160 0.483660 0.375511
O O7 0.022805 0.488291 0.307145
O O8 0.716832 0.250000 0.198588
O O9 0.711804 0.526586 0.283728
O O10 0.635307 0.460622 0.173862
O O11 0.729495 0.525245 0.108808
O O12 0.710246 0.250000 0.373858
O O13 0.725766 0.526073 0.452710
O O14 0.629089 0.463205 0.385338
O O15 0.084860 0.750000 0.338121
O O16 0.071400 0.980759 0.453532
O O17 0.785135 0.750000 0.526567
O O18 0.833852 0.483883 0.473969
O O19 0.919221 0.250000 0.910064
O O20 0.399524 0.750000 0.037211
#
# Coordination Sequence:
#
# PCOD9461737 Si02
#       8
#     8   8   8   8   8   8   8   8
#     4   9  18  34  54  77 109 144 179 218 261 314
#     4   9  17  30  50  77 108 142 178 216 262 316
#     4   9  20  38  57  78 107 142 176 219 275 323
#     4  11  22  37  59  83 105 137 181 228 270 319
#     4  10  18  29  51  81 109 138 178 223 259 306
#     4   9  19  37  56  75 105 142 178 221 271 322
#     4  10  20  35  55  79 109 142 174 218 270 317
#     4   9  18  34  52  71 105 146 176 213 269 321
#
# _framework density 21.276274999999998
#
# number of rings (size 3 to 8) (size 9 to 14) (size 15 to 20)
#    0.000    2.500    0.000    3.000    0.000    4.500 
#    2.250    2.500    0.000    0.000    0.000    0.000 
#    0.000    0.000    0.000    0.000    0.000    0.000 
#
# Total GULP energy -357177.518258 kJ/mol
# GULP energy per Si atom -5580.898723 kJ/mol
# Density = 2.122785 g / cm^3
# Si number density = 21.276275 Si / 1000 Ang^3
#
#
#
# Elastic Constant Matrix: (Units=GPa)
#
#
# Indices 1 2 3 4 5 6 
#
# 1 18.8708 -2.8308 19.1537 0.0000 0.0000 0.0000
# 2 -2.8308 24.5745 -3.5541 0.0000 0.0000 0.0000
# 3 19.1537 -3.5541 146.1738 0.0000 0.0000 0.0000
# 4 0.0000 0.0000 0.0000 16.7406 0.0000 0.0000
# 5 0.0000 0.0000 0.0000 0.0000 17.7325 0.0000
# 6 0.0000 0.0000 0.0000 0.0000 0.0000 17.1482
#
#
#
# Elastic Compliance Matrix: (Units=1/GPa)
#
#
# Indices 1 2 3 4 5 6 
#
# 1 0.061986 0.005987 -0.007977 0.000000 0.000000 0.000000
# 2 0.005987 0.041414 0.000223 0.000000 0.000000 0.000000
# 3 -0.007977 0.000223 0.007892 0.000000 0.000000 0.000000
# 4 0.000000 0.000000 0.000000 0.059735 0.000000 0.000000
# 5 0.000000 0.000000 0.000000 0.000000 0.056394 0.000000
# 6 0.000000 0.000000 0.000000 0.000000 0.000000 0.058315
#
#
# Mechanical properties :
#
#
# Convention : Reuss Voigt Hill
#
# Bulk Modulus (GPa) = 9.28010 23.90630 16.59320
# Shear Modulus (GPa) = 15.37561 22.11430 18.74495
#
# Velocity S-wave (km/s) = 2.69116 3.22745 2.97143
# Velocity P-wave (km/s) = 3.74535 5.01489 4.42587
#
# Compressibility (1/GPa) = 0.10775748
#
# Stress axis : x y z
#
# Youngs Moduli (GPa) = 16.13259 24.14620 126.71377
#
# Poissons Ratio (x) = -0.14456 1.01076
# Poissons Ratio (y) = -0.09658 -0.02819
# Poissons Ratio (z) = 0.12869 -0.00537
#
# Static dielectric constant tensor:
#      x y z
#    x 1.734820 0.000000 0.000000 
#    y 0.000000 1.751970 0.000000 
#    z 0.000000 0.000000 1.821460 
# 
# From -- ./inp_files/20968.got.cif
#   From: 2010.05.17/outbox.cif.g08.bks.cpg/sg62_11_cif.got.tgz:20968.got - 2010.06.03 15:25:27.
