data_PCOD9461804
_publ_section_title
;
Structure prediction by ZEFSAII (Michael W. Deem and Ramdas Pophale) SiO2 
 PCOD9461804
Probable space group: P N M A
;
_chemical_formula_sum "Si O2"
_cell_formula_units_Z 40
_cell_length_a 16.200254
_cell_length_b 8.578953
_cell_length_c 16.130565
_cell_angle_alpha 90.000000
_cell_angle_beta 90.000000
_cell_angle_gamma 90.000000
_cell_volume 2241.845565
_symmetry_space_group_name_H-M "P N M A"
_symmetry_group_IT_number 62
_symmetry_cell_setting 'orthorhombic'
loop_
_space_group_symop_operation_xyz
x,y,z
1/2-x,-y,1/2+z
1/2+x,1/2-y,1/2-z
-x,1/2+y,-z
-x,-y,-z
1/2+x,y,1/2-z
1/2-x,1/2+y,1/2+z
x,1/2-y,z
loop_
_atom_site_type_symbol
_atom_site_label
_atom_site_fract_x
_atom_site_fract_y
_atom_site_fract_z
Si Si1 0.689025 0.062766 0.054395
Si Si2 0.059408 0.937288 0.311574
Si Si3 0.122734 0.938188 0.955538
Si Si4 0.065375 0.936188 0.567694
Si Si5 0.461401 0.437743 0.625566
O O1 0.683964 0.250000 0.052573
O O2 0.783949 0.014034 0.063909
O O3 0.631487 0.001980 0.129084
O O4 0.651444 0.998260 0.968120
O O5 0.060320 0.750000 0.317137
O O6 0.068402 0.987395 0.216286
O O7 0.971819 0.998161 0.347290
O O8 0.119660 0.750000 0.952979
O O9 0.095426 0.988639 0.048322
O O10 0.053318 0.003183 0.894269
O O11 0.064434 0.750000 0.568335
O O12 0.000000 0.000000 0.500000
O O13 0.462478 0.250000 0.625330
#
# Coordination Sequence:
#
# PCOD9461804 Si02
#       5
#     8   8   8   8   8
#     4  10  19  33  53  77 108 138 170 212 260 306
#     4  10  19  33  53  77 106 136 174 215 257 308
#     4   9  19  36  56  76 103 137 173 213 257 307
#     4  10  18  30  50  74 103 136 171 207 255 307
#     4   9  19  36  56  76 100 137 176 212 257 307
#
# _framework density 17.842441000000001
#
# number of rings (size 3 to 8) (size 9 to 14) (size 15 to 20)
#    0.000    2.400    0.000    5.400    0.000    3.200 
#    3.600    0.000    0.000    0.000    0.000    0.000 
#    0.000    0.000    0.000    0.000    0.000    0.000 
#
# Total GULP energy -222995.449342 kJ/mol
# GULP energy per Si atom -5574.886234 kJ/mol
# Density = 1.780183 g / cm^3
# Si number density = 17.842441 Si / 1000 Ang^3
#
#
#
# Elastic Constant Matrix: (Units=GPa)
#
#
# Indices 1 2 3 4 5 6 
#
# 1 119.7693 23.9350 50.1772 0.0000 0.0000 0.0000
# 2 23.9350 57.6004 23.8656 0.0000 0.0000 0.0000
# 3 50.1772 23.8656 101.0392 0.0000 0.0000 0.0000
# 4 0.0000 0.0000 0.0000 21.8838 0.0000 0.0000
# 5 0.0000 0.0000 0.0000 0.0000 11.8751 0.0000
# 6 0.0000 0.0000 0.0000 0.0000 0.0000 26.4046
#
#
#
# Elastic Compliance Matrix: (Units=1/GPa)
#
#
# Indices 1 2 3 4 5 6 
#
# 1 0.010865 -0.002526 -0.004799 0.000000 0.000000 0.000000
# 2 -0.002526 0.019832 -0.003430 0.000000 0.000000 0.000000
# 3 -0.004799 -0.003430 0.013090 0.000000 0.000000 0.000000
# 4 0.000000 0.000000 0.000000 0.045696 0.000000 0.000000
# 5 0.000000 0.000000 0.000000 0.000000 0.084210 0.000000
# 6 0.000000 0.000000 0.000000 0.000000 0.000000 0.037872
#
#
# Mechanical properties :
#
#
# Convention : Reuss Voigt Hill
#
# Bulk Modulus (GPa) = 44.88895 52.70716 48.79806
# Shear Modulus (GPa) = 20.79001 24.06144 22.42572
#
# Velocity S-wave (km/s) = 3.41721 3.67625 3.54909
# Velocity P-wave (km/s) = 6.38615 6.90103 6.64857
#
# Compressibility (1/GPa) = 0.02227720
#
# Stress axis : x y z
#
# Youngs Moduli (GPa) = 92.04101 50.42405 76.39189
#
# Poissons Ratio (x) = 0.12739 0.36659
# Poissons Ratio (y) = 0.23253 0.26200
# Poissons Ratio (z) = 0.44169 0.17294
#
# Static dielectric constant tensor:
#      x y z
#    x 1.591410 0.000000 0.000000 
#    y 0.000000 1.602200 0.000000 
#    z 0.000000 0.000000 1.599530 
# 
# From -- ./inp_files/18625.got.cif
#   From: 2010.05.17/outbox.cif.g08.bks.cpg/sg62_10_cif.got.tgz:18625.got - 2010.06.03 15:25:27.
