data_PCOD9461154
_publ_section_title
;
Structure prediction by ZEFSAII (Michael W. Deem and Ramdas Pophale) SiO2 
 PCOD9461154
Probable space group: P B C A
;
_chemical_formula_sum "Si O2"
_cell_formula_units_Z 40
_cell_length_a 17.885708
_cell_length_b 10.942589
_cell_length_c 8.250168
_cell_angle_alpha 90.000000
_cell_angle_beta 90.000000
_cell_angle_gamma 90.000000
_cell_volume 1614.689481
_symmetry_space_group_name_H-M "P B C A"
_symmetry_group_IT_number 61
_symmetry_cell_setting 'orthorhombic'
loop_
_space_group_symop_operation_xyz
x,y,z
1/2-x,-y,1/2+z
1/2+x,1/2-y,-z
-x,1/2+y,1/2-z
-x,-y,-z
1/2+x,y,1/2-z
1/2-x,1/2+y,z
x,1/2-y,1/2+z
loop_
_atom_site_type_symbol
_atom_site_label
_atom_site_fract_x
_atom_site_fract_y
_atom_site_fract_z
Si Si1 0.101026 0.883854 0.466367
Si Si2 0.786389 0.323087 0.540533
Si Si3 0.710572 0.013434 0.260992
Si Si4 0.633302 0.308113 0.001563
Si Si5 0.552218 0.407848 0.313027
O O1 0.137927 0.751539 0.484779
O O2 0.035852 0.884300 0.332128
O O3 0.168641 0.964090 0.396082
O O4 0.068017 0.955734 0.620453
O O5 0.772549 0.402870 0.380519
O O6 0.781781 0.411368 0.696677
O O7 0.714531 0.235881 0.563533
O O8 0.653840 0.101652 0.355561
O O9 0.586239 0.376769 0.138840
O O10 0.590014 0.190198 0.935374
#
# Coordination Sequence:
#
# PCOD9461154 Si02
#       5
#     8   8   8   8   8
#     4  11  27  51  76 114 154 205 260 324 389 476
#     4  12  27  48  78 111 153 202 261 326 385 468
#     4  12  27  47  75 113 149 200 265 318 391 456
#     4  12  25  49  77 106 157 201 249 326 385 468
#     4  11  26  51  76 112 162 200 259 318 400 469
#
# _framework density 24.772565
#
# number of rings (size 3 to 8) (size 9 to 14) (size 15 to 20)
#    0.000    0.400    4.000    2.400    5.600    2.400 
#    3.600    0.000    0.000    0.000    0.000    0.000 
#    0.000    0.000    0.000    0.000    0.000    0.000 
#
# Total GULP energy -224356.773800 kJ/mol
# GULP energy per Si atom -5608.919345 kJ/mol
# Density = 2.471618 g / cm^3
# Si number density = 24.772565 Si / 1000 Ang^3
#
#
#
# Elastic Constant Matrix: (Units=GPa)
#
#
# Indices 1 2 3 4 5 6 
#
# 1 97.2559 38.1935 -5.3830 0.0000 0.0000 0.0000
# 2 38.1935 110.9694 37.0105 0.0000 0.0000 0.0000
# 3 -5.3830 37.0105 74.9330 0.0000 0.0000 0.0000
# 4 0.0000 0.0000 0.0000 41.9948 0.0000 0.0000
# 5 0.0000 0.0000 0.0000 0.0000 28.8346 0.0000
# 6 0.0000 0.0000 0.0000 0.0000 0.0000 40.8819
#
#
#
# Elastic Compliance Matrix: (Units=1/GPa)
#
#
# Indices 1 2 3 4 5 6 
#
# 1 0.012680 -0.005589 0.003671 0.000000 0.000000 0.000000
# 2 -0.005589 0.013252 -0.006947 0.000000 0.000000 0.000000
# 3 0.003671 -0.006947 0.017040 0.000000 0.000000 0.000000
# 4 0.000000 0.000000 0.000000 0.023812 0.000000 0.000000
# 5 0.000000 0.000000 0.000000 0.000000 0.034681 0.000000
# 6 0.000000 0.000000 0.000000 0.000000 0.000000 0.024461
#
#
# Mechanical properties :
#
#
# Convention : Reuss Voigt Hill
#
# Bulk Modulus (GPa) = 39.61392 46.97781 43.29587
# Shear Modulus (GPa) = 32.87986 36.56475 34.72231
#
# Velocity S-wave (km/s) = 3.64712 3.84607 3.74791
# Velocity P-wave (km/s) = 5.81043 6.22316 6.02034
#
# Compressibility (1/GPa) = 0.02524365
#
# Stress axis : x y z
#
# Youngs Moduli (GPa) = 78.86386 75.46095 58.68510
#
# Poissons Ratio (x) = 0.42173 -0.21545
# Poissons Ratio (y) = 0.44074 0.40767
# Poissons Ratio (z) = -0.28953 0.52421
#
# Static dielectric constant tensor:
#      x y z
#    x 1.916270 0.000000 0.000000 
#    y 0.000000 2.022420 0.000000 
#    z 0.000000 0.000000 1.954390 
# 
# From -- ./inp_files/3311.got.cif
#   From: 2010.05.17/outbox.cif.g08.bks.cpg/sg61_2_cif.got.tgz:3311.got - 2010.06.03 15:17:17.
