data_PCOD9461561
_publ_section_title
;
Structure prediction by ZEFSAII (Michael W. Deem and Ramdas Pophale) SiO2 
 PCOD9461561
Probable space group: P N M A
;
_chemical_formula_sum "Si O2"
_cell_formula_units_Z 32
_cell_length_a 6.397351
_cell_length_b 23.473739
_cell_length_c 8.133844
_cell_angle_alpha 90.000000
_cell_angle_beta 90.000000
_cell_angle_gamma 90.000000
_cell_volume 1221.457301
_symmetry_space_group_name_H-M "P N M A"
_symmetry_group_IT_number 62
_symmetry_cell_setting 'orthorhombic'
loop_
_space_group_symop_operation_xyz
x,y,z
1/2-x,-y,1/2+z
1/2+x,1/2-y,1/2-z
-x,1/2+y,-z
-x,-y,-z
1/2+x,y,1/2-z
1/2-x,1/2+y,1/2+z
x,1/2-y,z
loop_
_atom_site_type_symbol
_atom_site_label
_atom_site_fract_x
_atom_site_fract_y
_atom_site_fract_z
Si Si1 0.842239 0.184511 0.496441
Si Si2 0.455092 0.132560 0.360079
Si Si3 0.302875 0.521980 0.602828
Si Si4 0.077886 0.085123 0.582194
O O1 0.886762 0.250000 0.526175
O O2 0.598481 0.170041 0.480490
O O3 0.911253 0.167086 0.307759
O O4 0.954502 0.142823 0.627318
O O5 0.263530 0.110545 0.469402
O O6 0.589091 0.075949 0.311012
O O7 0.500000 0.500000 0.500000
O O8 0.197482 0.465294 0.682003
O O9 0.111744 0.550863 0.505447
#
# Coordination Sequence:
#
# PCOD9461561 Si02
#       4
#     8   8   8   8
#     4  11  20  27  39  63  96 132 163 189 229 282
#     4  10  18  27  40  59  86 121 161 196 232 271
#     4   8  16  30  46  60  75 111 163 201 234 264
#     4   9  17  30  44  58  83 118 159 198 232 265
#
# _framework density 26.198212000000002
#
# number of rings (size 3 to 8) (size 9 to 14) (size 15 to 20)
#    0.000    2.500    2.500    0.750    0.000    1.000 
#    0.000    0.000    0.000    0.000    0.000    0.000 
#    0.000    0.000    0.000   38.250   25.000   51.000 
#
# Total GULP energy -178474.122126 kJ/mol
# GULP energy per Si atom -5577.316316 kJ/mol
# Density = 2.613858 g / cm^3
# Si number density = 26.198212 Si / 1000 Ang^3
#
#
#
# Elastic Constant Matrix: (Units=GPa)
#
#
# Indices 1 2 3 4 5 6 
#
# 1 143.0164 35.8863 27.6200 0.0000 0.0000 0.0000
# 2 35.8863 225.6382 23.5289 0.0000 0.0000 0.0000
# 3 27.6200 23.5289 51.9643 0.0000 0.0000 0.0000
# 4 0.0000 0.0000 0.0000 30.5206 0.0000 0.0000
# 5 0.0000 0.0000 0.0000 0.0000 18.5584 0.0000
# 6 0.0000 0.0000 0.0000 0.0000 0.0000 36.3612
#
#
#
# Elastic Compliance Matrix: (Units=1/GPa)
#
#
# Indices 1 2 3 4 5 6 
#
# 1 0.007950 -0.000865 -0.003834 0.000000 0.000000 0.000000
# 2 -0.000865 0.004746 -0.001689 0.000000 0.000000 0.000000
# 3 -0.003834 -0.001689 0.022047 0.000000 0.000000 0.000000
# 4 0.000000 0.000000 0.000000 0.032765 0.000000 0.000000
# 5 0.000000 0.000000 0.000000 0.000000 0.053884 0.000000
# 6 0.000000 0.000000 0.000000 0.000000 0.000000 0.027502
#
#
# Mechanical properties :
#
#
# Convention : Reuss Voigt Hill
#
# Bulk Modulus (GPa) = 45.52397 66.07660 55.80029
# Shear Modulus (GPa) = 29.58761 39.32695 34.45728
#
# Velocity S-wave (km/s) = 3.36426 3.87865 3.63058
# Velocity P-wave (km/s) = 5.70136 6.73313 6.23861
#
# Compressibility (1/GPa) = 0.02196645
#
# Stress axis : x y z
#
# Youngs Moduli (GPa) = 125.79316 210.72514 45.35838
#
# Poissons Ratio (x) = 0.18218 0.17390
# Poissons Ratio (y) = 0.10875 0.07662
# Poissons Ratio (z) = 0.48228 0.35596
#
# Static dielectric constant tensor:
#      x y z
#    x 2.155890 0.000000 0.000000 
#    y 0.000000 2.053380 0.000000 
#    z 0.000000 0.000000 2.121360 
# 
# From -- ./inp_files/21524.got.cif
#   From: 2010.05.17/outbox.cif.g08.bks.cpg/sg62_11_cif.got.tgz:21524.got - 2010.06.03 15:25:27.
