data_PCOD9461869
_publ_section_title
;
Structure prediction by ZEFSAII (Michael W. Deem and Ramdas Pophale) SiO2 
 PCOD9461869
Probable space group: P N M A
;
_chemical_formula_sum "Si O2"
_cell_formula_units_Z 64
_cell_length_a 20.850238
_cell_length_b 7.640801
_cell_length_c 20.489573
_cell_angle_alpha 90.000000
_cell_angle_beta 90.000000
_cell_angle_gamma 90.000000
_cell_volume 3264.245495
_symmetry_space_group_name_H-M "P N M A"
_symmetry_group_IT_number 62
_symmetry_cell_setting 'orthorhombic'
loop_
_space_group_symop_operation_xyz
x,y,z
1/2-x,-y,1/2+z
1/2+x,1/2-y,1/2-z
-x,1/2+y,-z
-x,-y,-z
1/2+x,y,1/2-z
1/2-x,1/2+y,1/2+z
x,1/2-y,z
loop_
_atom_site_type_symbol
_atom_site_label
_atom_site_fract_x
_atom_site_fract_y
_atom_site_fract_z
Si Si1 0.091581 0.544368 0.552769
Si Si2 0.087155 0.462098 0.944934
Si Si3 0.266948 0.547850 0.066380
Si Si4 0.453618 0.461354 0.909758
Si Si5 0.272798 0.546109 0.422279
Si Si6 0.831611 0.035440 0.824130
Si Si7 0.664031 0.535336 0.175577
Si Si8 0.450193 0.458770 0.593066
O O1 0.104126 0.750000 0.546522
O O2 0.157149 0.463691 0.578630
O O3 0.073893 0.476339 0.480028
O O4 0.027370 0.517685 0.594688
O O5 0.087730 0.250000 0.941457
O O6 0.155486 0.529505 0.920157
O O7 0.023122 0.526664 0.908405
O O8 0.078394 0.507963 0.021059
O O9 0.248650 0.750000 0.057702
O O10 0.224299 0.478501 0.126093
O O11 0.251595 0.461825 0.996812
O O12 0.453672 0.250000 0.911740
O O13 0.404791 0.518384 0.853729
O O14 0.278857 0.750000 0.404499
O O15 0.219461 0.472581 0.373621
O O16 0.831053 0.250000 0.823659
O O17 0.824460 0.979154 0.749582
O O18 0.899475 0.975832 0.854227
O O19 0.663893 0.750000 0.174540
O O20 0.454235 0.250000 0.601884
#
# Coordination Sequence:
#
# PCOD9461869 Si02
#       8
#     8   8   8   8   8   8   8   8
#     4  10  19  32  51  76 103 130 163 209 256 294
#     4   9  17  27  46  72  97 123 159 202 245 295
#     4  11  20  31  50  77 104 133 171 211 254 301
#     4   9  17  31  51  75  99 129 167 208 252 300
#     4  10  18  31  50  74 100 130 168 209 255 301
#     4   9  18  31  49  73 103 135 167 210 255 297
#     4   9  17  32  51  72 102 134 168 208 253 302
#     4   9  16  29  46  70  98 125 160 201 249 295
#
# _framework density 19.606368
#
# number of rings (size 3 to 8) (size 9 to 14) (size 15 to 20)
#    0.000    2.500    2.500    0.750    0.000    0.500 
#    0.000    1.250    0.000   10.500    0.000    3.500 
#    0.000    0.000    0.000    0.000    0.000    0.000 
#
# Total GULP energy -356984.645488 kJ/mol
# GULP energy per Si atom -5577.885086 kJ/mol
# Density = 1.956174 g / cm^3
# Si number density = 19.606368 Si / 1000 Ang^3
#
#
#
# Elastic Constant Matrix: (Units=GPa)
#
#
# Indices 1 2 3 4 5 6 
#
# 1 171.6026 -3.9487 85.8303 0.0000 0.0000 0.0000
# 2 -3.9487 34.3077 -3.7371 0.0000 0.0000 0.0000
# 3 85.8303 -3.7371 125.4654 0.0000 0.0000 0.0000
# 4 0.0000 0.0000 0.0000 11.0711 0.0000 0.0000
# 5 0.0000 0.0000 0.0000 0.0000 27.0052 0.0000
# 6 0.0000 0.0000 0.0000 0.0000 0.0000 11.5379
#
#
#
# Elastic Compliance Matrix: (Units=1/GPa)
#
#
# Indices 1 2 3 4 5 6 
#
# 1 0.008863 0.000361 -0.006052 0.000000 0.000000 0.000000
# 2 0.000361 0.029258 0.000625 0.000000 0.000000 0.000000
# 3 -0.006052 0.000625 0.012129 0.000000 0.000000 0.000000
# 4 0.000000 0.000000 0.000000 0.090325 0.000000 0.000000
# 5 0.000000 0.000000 0.000000 0.000000 0.037030 0.000000
# 6 0.000000 0.000000 0.000000 0.000000 0.000000 0.086671
#
#
# Mechanical properties :
#
#
# Convention : Reuss Voigt Hill
#
# Bulk Modulus (GPa) = 24.92772 54.18495 39.55633
# Shear Modulus (GPa) = 17.37429 26.80492 22.08960
#
# Velocity S-wave (km/s) = 2.98007 3.70152 3.36021
# Velocity P-wave (km/s) = 4.95810 6.77973 5.93917
#
# Compressibility (1/GPa) = 0.04011599
#
# Stress axis : x y z
#
# Youngs Moduli (GPa) = 112.82984 34.17925 82.44498
#
# Poissons Ratio (x) = -0.01233 0.49898
# Poissons Ratio (y) = -0.04071 -0.05150
# Poissons Ratio (z) = 0.68288 -0.02135
#
# Static dielectric constant tensor:
#      x y z
#    x 1.712010 0.000000 0.000000 
#    y 0.000000 1.743010 0.000000 
#    z 0.000000 0.000000 1.649170 
# 
# From -- ./inp_files/27879.got.cif
#   From: 2010.05.17/outbox.cif.g08.bks.cpg/sg62_14_cif.got.tgz:27879.got - 2010.06.03 15:25:27.
