data_PCOD9461558
_publ_section_title
;
Structure prediction by ZEFSAII (Michael W. Deem and Ramdas Pophale) SiO2 
 PCOD9461558
Probable space group: P N M A
;
_chemical_formula_sum "Si O2"
_cell_formula_units_Z 64
_cell_length_a 18.829310
_cell_length_b 9.042527
_cell_length_c 27.290619
_cell_angle_alpha 90.000000
_cell_angle_beta 90.000000
_cell_angle_gamma 90.000000
_cell_volume 4646.624801
_symmetry_space_group_name_H-M "P N M A"
_symmetry_group_IT_number 62
_symmetry_cell_setting 'orthorhombic'
loop_
_space_group_symop_operation_xyz
x,y,z
1/2-x,-y,1/2+z
1/2+x,1/2-y,1/2-z
-x,1/2+y,-z
-x,-y,-z
1/2+x,y,1/2-z
1/2-x,1/2+y,1/2+z
x,1/2-y,z
loop_
_atom_site_type_symbol
_atom_site_label
_atom_site_fract_x
_atom_site_fract_y
_atom_site_fract_z
Si Si1 0.912701 0.071884 0.740256
Si Si2 0.803808 0.079977 0.199339
Si Si3 0.423649 0.572454 0.944834
Si Si4 0.792638 0.920942 0.798178
Si Si5 0.075485 0.428031 0.556925
Si Si6 0.923372 0.572957 0.255537
Si Si7 0.668296 0.428200 0.851203
Si Si8 0.833178 0.929266 0.648261
O O1 0.908277 0.250000 0.738475
O O2 0.994748 0.026437 0.746044
O O3 0.863237 0.009461 0.783677
O O4 0.881308 0.004449 0.690002
O O5 0.822750 0.250000 0.189634
O O6 0.755370 0.075691 0.248604
O O7 0.748685 0.026400 0.157959
O O8 0.873973 0.990452 0.212564
O O9 0.432498 0.750000 0.943453
O O10 0.498827 0.498177 0.932154
O O11 0.364793 0.533185 0.904651
O O12 0.405616 0.531233 0.000922
O O13 0.807886 0.750000 0.809241
O O14 0.743012 0.996079 0.838818
O O15 0.068800 0.250000 0.559439
O O16 0.133033 0.472233 0.597428
O O17 0.921745 0.750000 0.253004
O O18 0.886591 0.531350 0.307364
O O19 0.676729 0.250000 0.850136
O O20 0.836165 0.750000 0.654789
#
# Coordination Sequence:
#
# PCOD9461558 Si02
#       8
#     8   8   8   8   8   8   8   8
#     4  10  18  27  40  58  79 103 130 160 194 231
#     4   8  15  26  38  52  72  98 127 158 188 223
#     4   9  17  28  41  57  80 108 136 169 203 232
#     4   9  17  28  40  56  77 101 130 161 193 231
#     4   9  17  28  41  58  80 106 137 170 201 233
#     4   9  17  26  37  55  77 100 127 158 190 227
#     4   9  16  27  41  56  77 105 135 164 194 229
#     4   9  17  28  40  56  78 105 136 164 193 230
#
# _framework density 13.773439
#
# number of rings (size 3 to 8) (size 9 to 14) (size 15 to 20)
#    0.000    3.000    0.000    2.250    0.000    6.000 
#    0.000    2.500    0.000    0.000    0.000    0.000 
#    0.000    1.000    0.000    2.000    0.000    2.625 
#
# Total GULP energy -356285.347909 kJ/mol
# GULP energy per Si atom -5566.958561 kJ/mol
# Density = 1.374209 g / cm^3
# Si number density = 13.773439 Si / 1000 Ang^3
#
#
#
# Elastic Constant Matrix: (Units=GPa)
#
#
# Indices 1 2 3 4 5 6 
#
# 1 99.9979 32.4032 48.1595 0.0000 0.0000 0.0000
# 2 32.4032 23.1001 21.3877 0.0000 0.0000 0.0000
# 3 48.1595 21.3877 74.7744 0.0000 0.0000 0.0000
# 4 0.0000 0.0000 0.0000 14.7586 0.0000 0.0000
# 5 0.0000 0.0000 0.0000 0.0000 27.4213 0.0000
# 6 0.0000 0.0000 0.0000 0.0000 0.0000 22.7086
#
#
#
# Elastic Compliance Matrix: (Units=1/GPa)
#
#
# Indices 1 2 3 4 5 6 
#
# 1 0.020599 -0.022594 -0.006804 0.000000 0.000000 0.000000
# 2 -0.022594 0.083667 -0.009379 0.000000 0.000000 0.000000
# 3 -0.006804 -0.009379 0.020439 0.000000 0.000000 0.000000
# 4 0.000000 0.000000 0.000000 0.067757 0.000000 0.000000
# 5 0.000000 0.000000 0.000000 0.000000 0.036468 0.000000
# 6 0.000000 0.000000 0.000000 0.000000 0.000000 0.044036
#
#
# Mechanical properties :
#
#
# Convention : Reuss Voigt Hill
#
# Bulk Modulus (GPa) = 21.20925 44.64147 32.92536
# Shear Modulus (GPa) = 13.65235 19.37252 16.51243
#
# Velocity S-wave (km/s) = 3.15176 3.75442 3.46621
# Velocity P-wave (km/s) = 5.35508 7.16072 6.32269
#
# Compressibility (1/GPa) = 0.04714924
#
# Stress axis : x y z
#
# Youngs Moduli (GPa) = 48.54701 11.95208 48.92715
#
# Poissons Ratio (x) = 0.27005 0.33291
# Poissons Ratio (y) = 1.09689 0.45889
# Poissons Ratio (z) = 0.33032 0.11210
#
# Static dielectric constant tensor:
#      x y z
#    x 1.444520 0.000000 0.000000 
#    y 0.000000 1.463920 0.000000 
#    z 0.000000 0.000000 1.451290 
# 
# From -- ./inp_files/31341.got.cif
#   From: 2010.05.17/outbox.cif.g08.bks.cpg/sg62_16_cif.got.tgz:31341.got - 2010.06.03 15:25:27.
