data_PCOD9461265
_publ_section_title
;
Structure prediction by ZEFSAII (Michael W. Deem and Ramdas Pophale) SiO2 
 PCOD9461265
Probable space group: P B C A
;
_chemical_formula_sum "Si O2"
_cell_formula_units_Z 64
_cell_length_a 15.000000
_cell_length_b 18.000000
_cell_length_c 12.000000
_cell_angle_alpha 90.000000
_cell_angle_beta 90.000000
_cell_angle_gamma 90.000000
_cell_volume 3240.000000
_symmetry_space_group_name_H-M "P B C A"
_symmetry_group_IT_number 61
_symmetry_cell_setting 'orthorhombic'
loop_
_space_group_symop_operation_xyz
x,y,z
1/2-x,-y,1/2+z
1/2+x,1/2-y,-z
-x,1/2+y,1/2-z
-x,-y,-z
1/2+x,y,1/2-z
1/2-x,1/2+y,z
x,1/2-y,1/2+z
loop_
_atom_site_type_symbol
_atom_site_label
_atom_site_fract_x
_atom_site_fract_y
_atom_site_fract_z
Si Si1 0.602354 0.857435 0.669785
Si Si2 0.962063 0.768063 0.678681
Si Si3 0.803473 0.870454 0.747937
Si Si4 0.203230 0.890103 0.539529
Si Si5 0.201336 0.538494 0.796465
Si Si6 0.390014 0.498905 0.705473
Si Si7 0.030927 0.623239 0.773208
Si Si8 0.074148 0.770648 0.478181
O O1 0.537811 0.812594 0.752650
O O2 0.705616 0.848910 0.703223
O O3 0.584590 0.944474 0.690851
O O4 0.587898 0.814992 0.554067
O O5 0.871393 0.805679 0.718196
O O6 0.975932 0.680058 0.696274
O O7 0.986465 0.781317 0.551272
O O8 0.788894 0.885143 0.879975
O O9 0.826799 0.951287 0.696173
O O10 0.216416 0.925392 0.418223
O O11 0.132253 0.943268 0.603844
O O12 0.160459 0.808056 0.533922
O O13 0.295769 0.537433 0.733686
O O14 0.122733 0.584072 0.735408
O O15 0.466366 0.558016 0.685717
O O16 0.060764 0.677781 0.871535
#
# Coordination Sequence:
#
# PCOD9461265 Si02
#       8
#     8   8   8   8   8   8   8   8
#     4   9  20  41  58  85 126 152 198 260 303 348
#     4  11  21  39  58  90 124 161 203 244 311 364
#     4  10  21  39  65  89 122 165 200 257 308 369
#     4   9  19  38  63  85 116 159 198 254 301 355
#     4   9  20  38  62  89 117 157 209 249 310 364
#     4  10  20  40  60  89 123 154 204 260 305 358
#     4  10  23  37  60  90 118 160 203 256 296 372
#     4  10  20  39  62  85 115 163 201 244 306 367
#
# _framework density 19.753086
#
# number of rings (size 3 to 8) (size 9 to 14) (size 15 to 20)
#    0.000    2.500    2.500    0.750    1.750    4.000 
#   18.000    0.625    0.000    0.000    0.000    0.000 
#    0.000    0.000    0.000    0.000    0.000    0.000 
#
# Total GULP energy -356349.096327 kJ/mol
# GULP energy per Si atom -5567.954630 kJ/mol
# Density = 1.970813 g / cm^3
# Si number density = 19.753086 Si / 1000 Ang^3
#
#
#
# Elastic Constant Matrix: (Units=GPa)
#
#
# Indices 1 2 3 4 5 6 
#
# 1 56.2099 20.8304 -7.7987 0.0000 0.0000 0.0000
# 2 20.8304 18.6258 -21.7958 0.0000 0.0000 0.0000
# 3 -7.7987 -21.7958 12.5086 0.0000 0.0000 0.0000
# 4 0.0000 0.0000 0.0000 21.9549 0.0000 0.0000
# 5 0.0000 0.0000 0.0000 0.0000 14.2872 0.0000
# 6 0.0000 0.0000 0.0000 0.0000 0.0000 38.3874
#
#
#
# Elastic Compliance Matrix: (Units=1/GPa)
#
#
# Indices 1 2 3 4 5 6 
#
# 1 0.018499 0.006922 0.023595 0.000000 0.000000 0.000000
# 2 0.006922 -0.049083 -0.081209 0.000000 0.000000 0.000000
# 3 0.023595 -0.081209 -0.046848 0.000000 0.000000 0.000000
# 4 0.000000 0.000000 0.000000 0.045548 0.000000 0.000000
# 5 0.000000 0.000000 0.000000 0.000000 0.069993 0.000000
# 6 0.000000 0.000000 0.000000 0.000000 0.000000 0.026050
#
#
# Mechanical properties :
#
#
# Convention : Reuss Voigt Hill
#
# Bulk Modulus (GPa) = -5.59232 7.75734 1.08251
# Shear Modulus (GPa) = 47.19746 21.33313 34.26530
#
# Velocity S-wave (km/s) = 4.89342 3.28989 4.16947
# Velocity P-wave (km/s) = 5.39353 4.28565 4.87119
#
# Compressibility (1/GPa) = -0.17881665
#
# Stress axis : x y z
#
# Youngs Moduli (GPa) = 54.05731 -20.37384 -21.34547
#
# Poissons Ratio (x) = 0.14103 0.50364
# Poissons Ratio (y) = -0.37418 -1.73345
# Poissons Ratio (z) = -1.27547 -1.65454
#
# Static dielectric constant tensor:
#      x y z
#    x 1.697960 0.000000 0.000000 
#    y 0.000000 1.719820 0.000000 
#    z 0.000000 0.000000 1.773290 
# 
# From -- ./inp_files/5981.got.cif
#   From: 2010.05.17/outbox.ucp.g08.bks.cvg/sg61_3_cif.got.tgz:5981.got - 2010.06.11 16:28:26.
