data_PCOD9461292
_publ_section_title
;
Structure prediction by ZEFSAII (Michael W. Deem and Ramdas Pophale) SiO2 
 PCOD9461292
Probable space group: P B C A
;
_chemical_formula_sum "Si O2"
_cell_formula_units_Z 40
_cell_length_a 9.000000
_cell_length_b 12.000000
_cell_length_c 18.000000
_cell_angle_alpha 90.000000
_cell_angle_beta 90.000000
_cell_angle_gamma 90.000000
_cell_volume 1944.000000
_symmetry_space_group_name_H-M "P B C A"
_symmetry_group_IT_number 61
_symmetry_cell_setting 'orthorhombic'
loop_
_space_group_symop_operation_xyz
x,y,z
1/2-x,-y,1/2+z
1/2+x,1/2-y,-z
-x,1/2+y,1/2-z
-x,-y,-z
1/2+x,y,1/2-z
1/2-x,1/2+y,z
x,1/2-y,1/2+z
loop_
_atom_site_type_symbol
_atom_site_label
_atom_site_fract_x
_atom_site_fract_y
_atom_site_fract_z
Si Si1 0.484823 0.656437 0.307311
Si Si2 0.138524 0.616547 0.350538
Si Si3 0.448062 0.301125 0.475490
Si Si4 0.515162 0.616210 0.895208
Si Si5 0.332834 0.004358 0.075080
O O1 0.311988 0.626491 0.325401
O O2 0.534172 0.636876 0.221942
O O3 0.511262 0.788129 0.329822
O O4 0.584754 0.570072 0.357074
O O5 0.109505 0.719950 0.408744
O O6 0.097963 0.490482 0.382278
O O7 0.499620 0.205240 0.535343
O O8 0.573988 0.392973 0.450856
O O9 0.334660 0.392249 0.514463
O O10 0.671709 0.548347 0.905464
#
# Coordination Sequence:
#
# PCOD9461292 Si02
#       5
#     8   8   8   8   8
#     4  11  29  48  72 112 147 198 248 303 370 449
#     4  12  28  46  76 105 151 194 247 302 372 439
#     4  10  26  44  78 108 146 190 245 306 365 442
#     4  11  27  48  77 108 149 195 248 307 377 434
#     4  10  25  48  75 106 151 187 250 306 365 436
#
# _framework density 20.576132000000001
#
# number of rings (size 3 to 8) (size 9 to 14) (size 15 to 20)
#    0.000    1.200    0.000    1.800   22.400    0.000 
#    0.000    0.000    0.000    0.000    0.000    0.000 
#    0.000    0.000    0.000    0.000    0.000    0.000 
#
# Total GULP energy -223235.149029 kJ/mol
# GULP energy per Si atom -5580.878726 kJ/mol
# Density = 2.052930 g / cm^3
# Si number density = 20.576132 Si / 1000 Ang^3
#
#
#
# Elastic Constant Matrix: (Units=GPa)
#
#
# Indices 1 2 3 4 5 6 
#
# 1 139.0424 65.0848 36.7115 0.0000 0.0000 0.0000
# 2 65.0848 234.3517 67.7706 0.0000 0.0000 0.0000
# 3 36.7115 67.7706 133.6663 0.0000 0.0000 0.0000
# 4 0.0000 0.0000 0.0000 54.9496 0.0000 0.0000
# 5 0.0000 0.0000 0.0000 0.0000 27.3017 0.0000
# 6 0.0000 0.0000 0.0000 0.0000 0.0000 49.3690
#
#
#
# Elastic Compliance Matrix: (Units=1/GPa)
#
#
# Indices 1 2 3 4 5 6 
#
# 1 0.008463 -0.001967 -0.001327 0.000000 0.000000 0.000000
# 2 -0.001967 0.005457 -0.002227 0.000000 0.000000 0.000000
# 3 -0.001327 -0.002227 0.008975 0.000000 0.000000 0.000000
# 4 0.000000 0.000000 0.000000 0.018199 0.000000 0.000000
# 5 0.000000 0.000000 0.000000 0.000000 0.036628 0.000000
# 6 0.000000 0.000000 0.000000 0.000000 0.000000 0.020256
#
#
# Mechanical properties :
#
#
# Convention : Reuss Voigt Hill
#
# Bulk Modulus (GPa) = 84.36069 94.02155 89.19112
# Shear Modulus (GPa) = 44.25977 48.82363 46.54170
#
# Velocity S-wave (km/s) = 4.64295 4.87645 4.76113
# Velocity P-wave (km/s) = 8.35649 8.80341 8.58286
#
# Compressibility (1/GPa) = 0.01185386
#
# Stress axis : x y z
#
# Youngs Moduli (GPa) = 118.16105 183.24470 111.42240
#
# Poissons Ratio (x) = 0.36036 0.14789
# Poissons Ratio (y) = 0.23237 0.24811
# Poissons Ratio (z) = 0.15684 0.40804
#
# Static dielectric constant tensor:
#      x y z
#    x 1.786800 0.000000 0.000000 
#    y 0.000000 1.688060 0.000000 
#    z 0.000000 0.000000 1.813540 
# 
# From -- ./inp_files/8818.got.cif
#   From: 2010.05.17/outbox.ucp.g08.bks.cvg/sg61_5_cif.got.tgz:8818.got - 2010.06.11 16:28:26.
