data_PCOD9461491
_publ_section_title
;
Structure prediction by ZEFSAII (Michael W. Deem and Ramdas Pophale) SiO2 
 PCOD9461491
Probable space group: P N M A
;
_chemical_formula_sum "Si O2"
_cell_formula_units_Z 64
_cell_length_a 16.746561
_cell_length_b 17.694765
_cell_length_c 10.882551
_cell_angle_alpha 90.000000
_cell_angle_beta 90.000000
_cell_angle_gamma 90.000000
_cell_volume 3224.787829
_symmetry_space_group_name_H-M "P N M A"
_symmetry_group_IT_number 62
_symmetry_cell_setting 'orthorhombic'
loop_
_space_group_symop_operation_xyz
x,y,z
1/2-x,-y,1/2+z
1/2+x,1/2-y,1/2-z
-x,1/2+y,-z
-x,-y,-z
1/2+x,y,1/2-z
1/2-x,1/2+y,1/2+z
x,1/2-y,z
loop_
_atom_site_type_symbol
_atom_site_label
_atom_site_fract_x
_atom_site_fract_y
_atom_site_fract_z
Si Si1 0.676898 0.584436 0.754945
Si Si2 0.999679 0.556357 0.807152
Si Si3 0.566325 0.970080 0.094754
Si Si4 0.759694 0.422846 0.505111
Si Si5 0.683289 0.916793 0.481510
Si Si6 0.466739 0.666104 0.199131
Si Si7 0.202755 0.097147 0.733742
Si Si8 0.504070 0.399144 0.556986
O O1 0.579783 0.590953 0.753001
O O2 0.704788 0.610240 0.619565
O O3 0.693776 0.494068 0.762375
O O4 0.719807 0.617431 0.875717
O O5 0.936856 0.529427 0.706706
O O6 0.027515 0.477987 0.875215
O O7 0.963859 0.604528 0.918764
O O8 0.654350 0.959133 0.043044
O O9 0.532526 0.890563 0.144892
O O10 0.500000 0.000000 0.000000
O O11 0.700869 0.493327 0.481295
O O12 0.726538 0.380683 0.626498
O O13 0.730816 0.883502 0.366860
O O14 0.590722 0.902021 0.460664
O O15 0.473991 0.750000 0.149504
O O16 0.379061 0.631423 0.182923
O O17 0.475521 0.664445 0.346655
#
# Coordination Sequence:
#
# PCOD9461491 Si02
#       8
#     8   8   8   8   8   8   8   8
#     4   9  15  29  46  80 113 136 175 231 295 338
#     4   9  15  26  50  80 106 137 173 229 290 327
#     4  11  18  33  57  86 117 145 194 248 292 347
#     4  10  19  28  50  84 118 144 178 243 307 342
#     4   9  18  30  50  78 113 145 181 238 300 349
#     4  11  23  38  56  80 116 161 199 240 288 353
#     4  10  17  32  47  75 111 146 188 228 283 341
#     4   9  17  31  52  76 107 144 188 232 276 349
#
# _framework density 19.846266
#
# number of rings (size 3 to 8) (size 9 to 14) (size 15 to 20)
#    0.000    2.250    3.750    2.250    1.750    0.000 
#    0.000    2.500    0.000    0.750    0.000    1.750 
#    0.000    0.000    0.000    0.000    0.000    0.000 
#
# Total GULP energy -356702.268354 kJ/mol
# GULP energy per Si atom -5573.472943 kJ/mol
# Density = 1.980109 g / cm^3
# Si number density = 19.846266 Si / 1000 Ang^3
#
#
#
# Elastic Constant Matrix: (Units=GPa)
#
#
# Indices 1 2 3 4 5 6 
#
# 1 54.4028 -4.4132 8.0190 0.0000 0.0000 0.0000
# 2 -4.4132 25.3991 -0.9807 0.0000 0.0000 0.0000
# 3 8.0190 -0.9807 96.3302 0.0000 0.0000 0.0000
# 4 0.0000 0.0000 0.0000 4.8974 0.0000 0.0000
# 5 0.0000 0.0000 0.0000 0.0000 38.0046 0.0000
# 6 0.0000 0.0000 0.0000 0.0000 0.0000 2.7134
#
#
#
# Elastic Compliance Matrix: (Units=1/GPa)
#
#
# Indices 1 2 3 4 5 6 
#
# 1 0.018869 0.003219 -0.001538 0.000000 0.000000 0.000000
# 2 0.003219 0.039936 0.000139 0.000000 0.000000 0.000000
# 3 -0.001538 0.000139 0.010510 0.000000 0.000000 0.000000
# 4 0.000000 0.000000 0.000000 0.204189 0.000000 0.000000
# 5 0.000000 0.000000 0.000000 0.000000 0.026313 0.000000
# 6 0.000000 0.000000 0.000000 0.000000 0.000000 0.368535
#
#
# Mechanical properties :
#
#
# Convention : Reuss Voigt Hill
#
# Bulk Modulus (GPa) = 13.70698 20.15359 16.93029
# Shear Modulus (GPa) = 7.25656 20.69022 13.97339
#
# Velocity S-wave (km/s) = 1.91424 3.23232 2.65633
# Velocity P-wave (km/s) = 3.43618 4.90993 4.23761
#
# Compressibility (1/GPa) = 0.07295553
#
# Stress axis : x y z
#
# Youngs Moduli (GPa) = 52.99627 25.03993 95.14379
#
# Poissons Ratio (x) = -0.08061 0.14633
# Poissons Ratio (y) = -0.17061 -0.01319
# Poissons Ratio (z) = 0.08151 -0.00347
#
# Static dielectric constant tensor:
#      x y z
#    x 1.711170 0.000000 0.000000 
#    y 0.000000 -0.544570 0.000000 
#    z 0.000000 0.000000 1.817830 
# 
# From -- ./inp_files/14428.got.cif
#   From: 2010.05.17/outbox.cif.g08.bks.cpg/sg62_8_cif.got.tgz:14428.got - 2010.06.03 15:25:27.
