data_PCOD9461757
_publ_section_title
;
Structure prediction by ZEFSAII (Michael W. Deem and Ramdas Pophale) SiO2 
 PCOD9461757
Probable space group: P N M A
;
_chemical_formula_sum "Si O2"
_cell_formula_units_Z 64
_cell_length_a 31.144612
_cell_length_b 8.971145
_cell_length_c 14.799340
_cell_angle_alpha 90.000000
_cell_angle_beta 90.000000
_cell_angle_gamma 90.000000
_cell_volume 4134.977481
_symmetry_space_group_name_H-M "P N M A"
_symmetry_group_IT_number 62
_symmetry_cell_setting 'orthorhombic'
loop_
_space_group_symop_operation_xyz
x,y,z
1/2-x,-y,1/2+z
1/2+x,1/2-y,1/2-z
-x,1/2+y,-z
-x,-y,-z
1/2+x,y,1/2-z
1/2-x,1/2+y,1/2+z
x,1/2-y,z
loop_
_atom_site_type_symbol
_atom_site_label
_atom_site_fract_x
_atom_site_fract_y
_atom_site_fract_z
Si Si1 0.223350 0.075986 0.514758
Si Si2 0.452278 0.429763 0.601938
Si Si3 0.209824 0.571734 0.706244
Si Si4 0.367864 0.074536 0.693306
Si Si5 0.362408 0.925740 0.326347
Si Si6 0.949958 0.570511 0.095042
Si Si7 0.296333 0.929900 0.814170
Si Si8 0.674160 0.580744 0.503573
O O1 0.211412 0.250000 0.527507
O O2 0.205013 0.021698 0.418780
O O3 0.274771 0.070455 0.503616
O O4 0.211383 0.986039 0.603921
O O5 0.449092 0.250000 0.594329
O O6 0.416677 0.476866 0.674899
O O7 0.501557 0.468765 0.624055
O O8 0.442604 0.497630 0.503243
O O9 0.209679 0.750000 0.708373
O O10 0.167765 0.510554 0.756277
O O11 0.253014 0.521019 0.760562
O O12 0.368033 0.250000 0.717068
O O13 0.345627 0.060341 0.595074
O O14 0.338387 0.987782 0.763449
O O15 0.360348 0.750000 0.308163
O O16 0.412272 0.972406 0.335922
O O17 0.343235 0.963647 0.424929
O O18 0.947954 0.750000 0.084368
O O19 0.295641 0.750000 0.813934
O O20 0.663343 0.750000 0.534693
#
# Coordination Sequence:
#
# PCOD9461757 Si02
#       8
#     8   8   8   8   8   8   8   8
#     4  10  20  36  50  66  96 130 162 201 240 278
#     4   9  17  30  47  68  97 130 160 196 240 284
#     4  11  22  35  50  71  96 127 165 201 239 285
#     4  10  19  30  48  71  96 130 165 196 236 283
#     4  11  21  31  47  71  98 132 167 200 238 284
#     4   9  18  30  45  69  98 127 162 198 236 286
#     4  10  21  34  49  69  97 128 161 199 239 283
#     4  10  18  30  47  69  99 131 164 199 235 280
#
# _framework density 15.477714000000001
#
# number of rings (size 3 to 8) (size 9 to 14) (size 15 to 20)
#    0.000    2.000    3.750    0.750    0.000    3.000 
#    0.000    0.000    0.000    0.000    0.000    0.875 
#    0.000    0.000    0.000    0.000    0.000    0.000 
#
# Total GULP energy -356849.812703 kJ/mol
# GULP energy per Si atom -5575.778323 kJ/mol
# Density = 1.544249 g / cm^3
# Si number density = 15.477714 Si / 1000 Ang^3
#
#
#
# Elastic Constant Matrix: (Units=GPa)
#
#
# Indices 1 2 3 4 5 6 
#
# 1 105.3921 26.1842 53.1469 0.0000 0.0000 0.0000
# 2 26.1842 23.2721 29.6778 0.0000 0.0000 0.0000
# 3 53.1469 29.6778 88.4867 0.0000 0.0000 0.0000
# 4 0.0000 0.0000 0.0000 27.3708 0.0000 0.0000
# 5 0.0000 0.0000 0.0000 0.0000 22.0885 0.0000
# 6 0.0000 0.0000 0.0000 0.0000 0.0000 18.0128
#
#
#
# Elastic Compliance Matrix: (Units=1/GPa)
#
#
# Indices 1 2 3 4 5 6 
#
# 1 0.014657 -0.009200 -0.005718 0.000000 0.000000 0.000000
# 2 -0.009200 0.080858 -0.021594 0.000000 0.000000 0.000000
# 3 -0.005718 -0.021594 0.021978 0.000000 0.000000 0.000000
# 4 0.000000 0.000000 0.000000 0.036535 0.000000 0.000000
# 5 0.000000 0.000000 0.000000 0.000000 0.045273 0.000000
# 6 0.000000 0.000000 0.000000 0.000000 0.000000 0.055516
#
#
# Mechanical properties :
#
#
# Convention : Reuss Voigt Hill
#
# Bulk Modulus (GPa) = 22.48676 48.35207 35.41942
# Shear Modulus (GPa) = 14.59157 20.70389 17.64773
#
# Velocity S-wave (km/s) = 3.07375 3.66137 3.38035
# Velocity P-wave (km/s) = 5.21126 7.01297 6.17815
#
# Compressibility (1/GPa) = 0.04447061
#
# Stress axis : x y z
#
# Youngs Moduli (GPa) = 68.22448 12.36734 45.50024
#
# Poissons Ratio (x) = 0.11377 0.26017
# Poissons Ratio (y) = 0.62764 0.98252
# Poissons Ratio (z) = 0.39011 0.26706
#
# Static dielectric constant tensor:
#      x y z
#    x 1.539930 0.000000 0.000000 
#    y 0.000000 1.526320 0.000000 
#    z 0.000000 0.000000 1.490530 
# 
# From -- ./inp_files/21228.got.cif
#   From: 2010.05.17/outbox.cif.g08.bks.cpg/sg62_11_cif.got.tgz:21228.got - 2010.06.03 15:25:27.
