data_PCOD9461414
_publ_section_title
;
Structure prediction by ZEFSAII (Michael W. Deem and Ramdas Pophale) SiO2 
 PCOD9461414
Probable space group: P N M A
;
_chemical_formula_sum "Si O2"
_cell_formula_units_Z 64
_cell_length_a 10.888938
_cell_length_b 14.350102
_cell_length_c 16.062154
_cell_angle_alpha 90.000000
_cell_angle_beta 90.000000
_cell_angle_gamma 90.000000
_cell_volume 2509.829956
_symmetry_space_group_name_H-M "P N M A"
_symmetry_group_IT_number 62
_symmetry_cell_setting 'orthorhombic'
loop_
_space_group_symop_operation_xyz
x,y,z
1/2-x,-y,1/2+z
1/2+x,1/2-y,1/2-z
-x,1/2+y,-z
-x,-y,-z
1/2+x,y,1/2-z
1/2-x,1/2+y,1/2+z
x,1/2-y,z
loop_
_atom_site_type_symbol
_atom_site_label
_atom_site_fract_x
_atom_site_fract_y
_atom_site_fract_z
Si Si1 0.682842 0.354291 0.798083
Si Si2 0.310564 0.354204 0.880678
Si Si3 0.424748 0.550698 0.875214
Si Si4 0.101447 0.141303 0.018747
Si Si5 0.685322 0.858807 0.868023
Si Si6 0.009758 0.494538 0.787783
Si Si7 0.811015 0.144665 0.166169
Si Si8 0.885450 0.360127 0.915085
O O1 0.628324 0.250000 0.795973
O O2 0.774328 0.356605 0.717332
O O3 0.593795 0.437483 0.776900
O O4 0.743953 0.369055 0.888500
O O5 0.361131 0.250000 0.897775
O O6 0.391963 0.444906 0.901427
O O7 0.185703 0.362691 0.935026
O O8 0.558503 0.591557 0.896211
O O9 0.423056 0.550046 0.773925
O O10 0.307220 0.616954 0.889085
O O11 0.088602 0.250000 0.042295
O O12 0.192179 0.099263 0.088596
O O13 0.964582 0.109221 0.994471
O O14 0.673944 0.750000 0.893598
O O15 0.699647 0.857259 0.768063
O O16 0.088079 0.564846 0.842076
O O17 0.947330 0.418086 0.842508
O O18 0.847093 0.250000 0.144963
O O19 0.910351 0.250000 0.905828
#
# Coordination Sequence:
#
# PCOD9461414 Si02
#       8
#     8   8   8   8   8   8   8   8
#     4  10  18  28  45  77 110 134 165 202 242 297
#     4  10  18  29  48  79 110 135 166 203 249 309
#     4  11  20  32  53  73 102 133 168 214 265 305
#     4   9  17  31  49  72 105 140 173 206 244 304
#     4   9  20  35  52  75 101 132 175 219 258 301
#     4  11  18  30  47  73 104 131 161 207 253 301
#     4  10  20  34  50  70  95 124 170 224 263 295
#     4  10  17  27  49  77 107 139 166 196 244 298
#
# _framework density 25.499735999999999
#
# number of rings (size 3 to 8) (size 9 to 14) (size 15 to 20)
#    0.000    2.000    3.750    0.750    0.000    1.500 
#    0.000    0.000    0.000    6.750    0.000    0.000 
#    0.000   16.000    0.000    0.000    0.000    0.000 
#
# Total GULP energy -357407.916049 kJ/mol
# GULP energy per Si atom -5584.498688 kJ/mol
# Density = 2.544170 g / cm^3
# Si number density = 25.499736 Si / 1000 Ang^3
#
#
#
# Elastic Constant Matrix: (Units=GPa)
#
#
# Indices 1 2 3 4 5 6 
#
# 1 58.5760 52.8781 20.1324 0.0000 0.0000 0.0000
# 2 52.8781 121.7397 6.6616 0.0000 0.0000 0.0000
# 3 20.1324 6.6616 88.9357 0.0000 0.0000 0.0000
# 4 0.0000 0.0000 0.0000 12.2608 0.0000 0.0000
# 5 0.0000 0.0000 0.0000 0.0000 38.1743 0.0000
# 6 0.0000 0.0000 0.0000 0.0000 0.0000 -149.3302
#
#
#
# Elastic Compliance Matrix: (Units=1/GPa)
#
#
# Indices 1 2 3 4 5 6 
#
# 1 0.031005 -0.013137 -0.006035 0.000000 0.000000 0.000000
# 2 -0.013137 0.013814 0.001939 0.000000 0.000000 0.000000
# 3 -0.006035 0.001939 0.012465 0.000000 0.000000 0.000000
# 4 0.000000 0.000000 0.000000 0.081561 0.000000 0.000000
# 5 0.000000 0.000000 0.000000 0.000000 0.026196 0.000000
# 6 0.000000 0.000000 0.000000 0.000000 0.000000 -0.006697
#
#
# Mechanical properties :
#
#
# Convention : Reuss Voigt Hill
#
# Bulk Modulus (GPa) = 43.82277 47.62174 45.72226
# Shear Modulus (GPa) = 24.94822 -7.14039 8.90392
#
# Velocity S-wave (km/s) = 3.13129 -1.67519 1.87065
# Velocity P-wave (km/s) = 5.50420 3.86966 4.75765
#
# Compressibility (1/GPa) = 0.02281918
#
# Stress axis : x y z
#
# Youngs Moduli (GPa) = 32.25292 72.38917 80.22538
#
# Poissons Ratio (x) = 0.95097 0.48413
# Poissons Ratio (y) = 0.42370 -0.15556
# Poissons Ratio (z) = 0.19463 -0.14037
#
# Static dielectric constant tensor:
#      x y z
#    x 2.074450 0.000000 0.000000 
#    y 0.000000 1.988890 0.000000 
#    z 0.000000 0.000000 2.102560 
# 
# From -- ./inp_files/23231.got.cif
#   From: 2010.05.17/outbox.cif.g08.bks.cpg/sg62_12_cif.got.tgz:23231.got - 2010.06.03 15:25:27.
