data_PCOD9461252
_publ_section_title
;
Structure prediction by ZEFSAII (Michael W. Deem and Ramdas Pophale) SiO2 
 PCOD9461252
Probable space group: P B C A
;
_chemical_formula_sum "Si O2"
_cell_formula_units_Z 56
_cell_length_a 9.000000
_cell_length_b 21.000000
_cell_length_c 15.000000
_cell_angle_alpha 90.000000
_cell_angle_beta 90.000000
_cell_angle_gamma 90.000000
_cell_volume 2835.000000
_symmetry_space_group_name_H-M "P B C A"
_symmetry_group_IT_number 61
_symmetry_cell_setting 'orthorhombic'
loop_
_space_group_symop_operation_xyz
x,y,z
1/2-x,-y,1/2+z
1/2+x,1/2-y,-z
-x,1/2+y,1/2-z
-x,-y,-z
1/2+x,y,1/2-z
1/2-x,1/2+y,z
x,1/2-y,1/2+z
loop_
_atom_site_type_symbol
_atom_site_label
_atom_site_fract_x
_atom_site_fract_y
_atom_site_fract_z
Si Si1 0.865671 0.911283 0.972248
Si Si2 0.095574 0.623773 0.745451
Si Si3 0.838150 0.117692 0.315011
Si Si4 0.662595 0.471866 0.273921
Si Si5 0.690438 0.533522 0.075943
Si Si6 0.347431 0.689527 0.867249
Si Si7 0.335373 0.840508 0.861607
O O1 0.784488 0.876667 0.891135
O O2 0.027175 0.936626 0.942099
O O3 0.868468 0.858126 0.049415
O O4 0.783699 0.976188 0.005802
O O5 0.198091 0.571140 0.694285
O O6 0.207624 0.661288 0.810679
O O7 0.974810 0.575648 0.787491
O O8 0.997221 0.674480 0.690187
O O9 0.769378 0.144700 0.223713
O O10 0.992992 0.150688 0.335799
O O11 0.864112 0.041314 0.313392
O O12 0.688598 0.493730 0.169931
O O13 0.794272 0.596953 0.077331
O O14 0.321490 0.765067 0.887707
#
# Coordination Sequence:
#
# PCOD9461252 Si02
#       7
#     8   8   8   8   8   8   8
#     4  11  23  40  65  98 127 164 213 279 330 365
#     4  10  19  36  60  89 119 165 210 256 308 385
#     4  11  23  38  69  91 126 162 217 263 319 380
#     4  10  18  36  63  93 116 161 211 264 310 384
#     4  10  21  41  65  91 129 165 212 268 330 375
#     4  11  24  41  64  90 131 170 217 259 325 393
#     4  11  24  44  62  92 128 178 212 253 322 409
#
# _framework density 19.753086
#
# number of rings (size 3 to 8) (size 9 to 14) (size 15 to 20)
#    0.000    1.429    2.857    5.143    2.000    1.714 
#    0.000    0.000    0.000    0.000    0.000    0.000 
#    0.000    0.000    0.000    0.000    0.000    0.000 
#
# Total GULP energy -312127.103934 kJ/mol
# GULP energy per Si atom -5573.698285 kJ/mol
# Density = 1.970813 g / cm^3
# Si number density = 19.753086 Si / 1000 Ang^3
#
#
#
# Elastic Constant Matrix: (Units=GPa)
#
#
# Indices 1 2 3 4 5 6 
#
# 1 57.7494 36.8329 -23.9981 0.0000 0.0000 0.0000
# 2 36.8329 138.0566 20.6917 0.0000 0.0000 0.0000
# 3 -23.9981 20.6917 9.6943 0.0000 0.0000 0.0000
# 4 0.0000 0.0000 0.0000 27.1470 0.0000 0.0000
# 5 0.0000 0.0000 0.0000 0.0000 17.3656 0.0000
# 6 0.0000 0.0000 0.0000 0.0000 0.0000 37.5741
#
#
#
# Elastic Compliance Matrix: (Units=1/GPa)
#
#
# Indices 1 2 3 4 5 6 
#
# 1 -0.011871 0.011133 -0.053149 0.000000 0.000000 0.000000
# 2 0.011133 0.000210 0.027112 0.000000 0.000000 0.000000
# 3 -0.053149 0.027112 -0.086286 0.000000 0.000000 0.000000
# 4 0.000000 0.000000 0.000000 0.036836 0.000000 0.000000
# 5 0.000000 0.000000 0.000000 0.000000 0.057585 0.000000
# 6 0.000000 0.000000 0.000000 0.000000 0.000000 0.026614
#
#
# Mechanical properties :
#
#
# Convention : Reuss Voigt Hill
#
# Bulk Modulus (GPa) = -7.82748 30.28368 11.22810
# Shear Modulus (GPa) = 484.93230 27.88227 256.40728
#
# Velocity S-wave (km/s) = 15.68534 3.76112 11.40561
# Velocity P-wave (km/s) = 18.00191 5.85028 13.38459
#
# Compressibility (1/GPa) = -0.12775508
#
# Stress axis : x y z
#
# Youngs Moduli (GPa) = -84.23854 4771.05548 -11.58936
#
# Poissons Ratio (x) = -53.11644 -0.61597
# Poissons Ratio (y) = 0.93783 0.31422
# Poissons Ratio (z) = -4.47721 -129.35470
#
# Static dielectric constant tensor:
#      x y z
#    x 1.720220 0.000000 0.000000 
#    y 0.000000 1.672080 0.000000 
#    z 0.000000 0.000000 1.754250 
# 
# From -- ./inp_files/7155.got.cif
#   From: 2010.05.17/outbox.ucp.g08.bks.cvg/sg61_4_cif.got.tgz:7155.got - 2010.06.11 16:28:26.
