data_PCOD9461975
_publ_section_title
;
Structure prediction by ZEFSAII (Michael W. Deem and Ramdas Pophale) SiO2 
 PCOD9461975
Probable space group: P N M A
;
_chemical_formula_sum "Si O2"
_cell_formula_units_Z 64
_cell_length_a 24.003082
_cell_length_b 8.572568
_cell_length_c 19.608699
_cell_angle_alpha 90.000000
_cell_angle_beta 90.000000
_cell_angle_gamma 90.000000
_cell_volume 4034.843808
_symmetry_space_group_name_H-M "P N M A"
_symmetry_group_IT_number 62
_symmetry_cell_setting 'orthorhombic'
loop_
_space_group_symop_operation_xyz
x,y,z
1/2-x,-y,1/2+z
1/2+x,1/2-y,1/2-z
-x,1/2+y,-z
-x,-y,-z
1/2+x,y,1/2-z
1/2-x,1/2+y,1/2+z
x,1/2-y,z
loop_
_atom_site_type_symbol
_atom_site_label
_atom_site_fract_x
_atom_site_fract_y
_atom_site_fract_z
Si Si1 0.379619 0.062513 0.995782
Si Si2 0.831035 0.936515 0.277623
Si Si3 0.564847 0.060950 0.867328
Si Si4 0.438097 0.439746 0.854214
Si Si5 0.746250 0.436419 0.003497
Si Si6 0.726742 0.434667 0.361936
Si Si7 0.764292 0.436328 0.157226
Si Si8 0.659900 0.936808 0.241268
O O1 0.374917 0.250000 0.996208
O O2 0.414528 0.007310 0.060960
O O3 0.318002 0.990923 0.998841
O O4 0.410163 0.013355 0.925946
O O5 0.829368 0.750000 0.270822
O O6 0.889926 0.983239 0.310041
O O7 0.782260 0.987041 0.329952
O O8 0.814844 0.012437 0.205687
O O9 0.565520 0.250000 0.872581
O O10 0.502078 0.009619 0.850923
O O11 0.438052 0.250000 0.853595
O O12 0.397901 0.489616 0.792671
O O13 0.748111 0.250000 0.996263
O O14 0.777515 0.512709 0.939832
O O15 0.769520 0.479296 0.078058
O O16 0.733416 0.250000 0.357365
O O17 0.676569 0.488501 0.313202
O O18 0.756970 0.250000 0.161945
O O19 0.709375 0.516206 0.189166
O O20 0.659816 0.750000 0.248196
#
# Coordination Sequence:
#
# PCOD9461975 Si02
#       8
#     8   8   8   8   8   8   8   8
#     4  11  20  31  47  70  98 131 169 205 237 278
#     4  10  19  31  49  70  96 129 163 198 241 288
#     4  10  20  34  49  68  98 135 170 202 236 282
#     4   9  19  33  49  70  97 132 171 204 237 281
#     4  11  21  33  49  71  97 130 163 197 246 297
#     4  11  21  32  49  71  98 125 159 203 245 291
#     4  10  20  32  49  70  96 124 159 203 246 291
#     4  10  18  32  51  70  96 128 163 200 242 289
#
# _framework density 15.861829
#
# number of rings (size 3 to 8) (size 9 to 14) (size 15 to 20)
#    0.000    1.750    2.500    4.875    0.000    2.000 
#    0.000    1.875    0.000    0.000    0.000    0.875 
#    0.000    0.000    0.000    0.000    0.000    0.000 
#
# Total GULP energy -357237.646425 kJ/mol
# GULP energy per Si atom -5581.838225 kJ/mol
# Density = 1.582573 g / cm^3
# Si number density = 15.861829 Si / 1000 Ang^3
#
#
#
# Elastic Constant Matrix: (Units=GPa)
#
#
# Indices 1 2 3 4 5 6 
#
# 1 69.1496 1.1754 39.5652 0.0000 0.0000 0.0000
# 2 1.1754 15.2874 9.5664 0.0000 0.0000 0.0000
# 3 39.5652 9.5664 104.1552 0.0000 0.0000 0.0000
# 4 0.0000 0.0000 0.0000 25.5120 0.0000 0.0000
# 5 0.0000 0.0000 0.0000 0.0000 19.9863 0.0000
# 6 0.0000 0.0000 0.0000 0.0000 0.0000 -24.1050
#
#
#
# Elastic Compliance Matrix: (Units=1/GPa)
#
#
# Indices 1 2 3 4 5 6 
#
# 1 0.018622 0.003177 -0.007366 0.000000 0.000000 0.000000
# 2 0.003177 0.069945 -0.007631 0.000000 0.000000 0.000000
# 3 -0.007366 -0.007631 0.013100 0.000000 0.000000 0.000000
# 4 0.000000 0.000000 0.000000 0.039197 0.000000 0.000000
# 5 0.000000 0.000000 0.000000 0.000000 0.050034 0.000000
# 6 0.000000 0.000000 0.000000 0.000000 0.000000 -0.041485
#
#
# Mechanical properties :
#
#
# Convention : Reuss Voigt Hill
#
# Bulk Modulus (GPa) = 12.81599 32.13401 22.47500
# Shear Modulus (GPa) = 25.11796 13.49767 19.30781
#
# Velocity S-wave (km/s) = 3.98370 2.92027 3.49270
# Velocity P-wave (km/s) = 5.40898 5.62791 5.51953
#
# Compressibility (1/GPa) = 0.07802751
#
# Stress axis : x y z
#
# Youngs Moduli (GPa) = 53.70051 14.29702 76.33624
#
# Poissons Ratio (x) = -0.04543 0.56227
# Poissons Ratio (y) = -0.17063 0.58254
# Poissons Ratio (z) = 0.39554 0.10910
#
# Static dielectric constant tensor:
#      x y z
#    x 1.515350 0.000000 0.000000 
#    y 0.000000 1.536620 0.000000 
#    z 0.000000 0.000000 1.534520 
# 
# From -- ./inp_files/24976.got.cif
#   From: 2010.05.17/outbox.cif.g08.bks.cpg/sg62_13_cif.got.tgz:24976.got - 2010.06.03 15:25:27.
