data_PCOD9461986
_publ_section_title
;
Structure prediction by ZEFSAII (Michael W. Deem and Ramdas Pophale) SiO2 
 PCOD9461986
Probable space group: P N M A
;
_chemical_formula_sum "Si O2"
_cell_formula_units_Z 48
_cell_length_a 11.683436
_cell_length_b 13.718967
_cell_length_c 12.374171
_cell_angle_alpha 90.000000
_cell_angle_beta 90.000000
_cell_angle_gamma 90.000000
_cell_volume 1983.389952
_symmetry_space_group_name_H-M "P N M A"
_symmetry_group_IT_number 62
_symmetry_cell_setting 'orthorhombic'
loop_
_space_group_symop_operation_xyz
x,y,z
1/2-x,-y,1/2+z
1/2+x,1/2-y,1/2-z
-x,1/2+y,-z
-x,-y,-z
1/2+x,y,1/2-z
1/2-x,1/2+y,1/2+z
x,1/2-y,z
loop_
_atom_site_type_symbol
_atom_site_label
_atom_site_fract_x
_atom_site_fract_y
_atom_site_fract_z
Si Si1 0.360495 0.363928 0.363788
Si Si2 0.815808 0.483952 0.341745
Si Si3 0.895354 0.859284 0.656424
Si Si4 0.161599 0.861052 0.252971
Si Si5 0.926437 0.517858 0.873873
Si Si6 0.984472 0.640357 0.433973
O O1 0.391309 0.250000 0.374728
O O2 0.349629 0.396099 0.237554
O O3 0.228630 0.375629 0.400630
O O4 0.457281 0.433557 0.417641
O O5 0.767780 0.567105 0.258094
O O6 0.703049 0.460512 0.414554
O O7 0.909532 0.547781 0.401530
O O8 0.889437 0.750000 0.701890
O O9 0.988703 0.861408 0.562648
O O10 0.915981 0.930615 0.754665
O O11 0.189366 0.750000 0.229325
O O12 0.101710 0.867417 0.368848
O O13 0.074146 0.904696 0.161927
O O14 0.938095 0.750000 0.406754
#
# Coordination Sequence:
#
# PCOD9461986 Si02
#       6
#     8   8   8   8   8   8
#     4  10  18  33  50  71  99 132 170 205 241 295
#     4   9  17  32  47  75  96 131 162 202 247 289
#     4   9  19  32  51  76  99 129 166 204 249 292
#     4   9  18  30  49  75 101 128 165 200 245 296
#     4   9  18  31  50  70  98 126 170 196 246 281
#     4  10  18  32  52  75 102 130 162 205 249 296
#
# _framework density 24.200991999999999
#
# number of rings (size 3 to 8) (size 9 to 14) (size 15 to 20)
#    1.000    1.667    1.667    1.000    0.000    1.333 
#    0.000    0.833    0.000    0.000    0.000    0.000 
#    0.000    0.000    0.000    0.000    0.000    0.000 
#
# Total GULP energy -267529.914783 kJ/mol
# GULP energy per Si atom -5573.539891 kJ/mol
# Density = 2.414591 g / cm^3
# Si number density = 24.200992 Si / 1000 Ang^3
#
#
#
# Elastic Constant Matrix: (Units=GPa)
#
#
# Indices 1 2 3 4 5 6 
#
# 1 49.9445 -1.9912 -5.1491 0.0000 0.0000 0.0000
# 2 -1.9912 93.8113 -2.4154 0.0000 0.0000 0.0000
# 3 -5.1491 -2.4154 31.2752 0.0000 0.0000 0.0000
# 4 0.0000 0.0000 0.0000 13.9133 0.0000 0.0000
# 5 0.0000 0.0000 0.0000 0.0000 32.1638 0.0000
# 6 0.0000 0.0000 0.0000 0.0000 0.0000 35.4286
#
#
#
# Elastic Compliance Matrix: (Units=1/GPa)
#
#
# Indices 1 2 3 4 5 6 
#
# 1 0.020393 0.000520 0.003398 0.000000 0.000000 0.000000
# 2 0.000520 0.010694 0.000912 0.000000 0.000000 0.000000
# 3 0.003398 0.000912 0.032604 0.000000 0.000000 0.000000
# 4 0.000000 0.000000 0.000000 0.071874 0.000000 0.000000
# 5 0.000000 0.000000 0.000000 0.000000 0.031091 0.000000
# 6 0.000000 0.000000 0.000000 0.000000 0.000000 0.028226
#
#
# Mechanical properties :
#
#
# Convention : Reuss Voigt Hill
#
# Bulk Modulus (GPa) = 13.63312 17.32440 15.47876
# Shear Modulus (GPa) = 23.84668 28.60693 26.22680
#
# Velocity S-wave (km/s) = 3.14245 3.44183 3.29554
# Velocity P-wave (km/s) = 4.33730 4.79260 4.57062
#
# Compressibility (1/GPa) = 0.07335076
#
# Stress axis : x y z
#
# Youngs Moduli (GPa) = 49.03577 93.50853 30.67105
#
# Poissons Ratio (x) = -0.04866 -0.10421
# Poissons Ratio (y) = -0.02552 -0.02796
# Poissons Ratio (z) = -0.16661 -0.08524
#
# Static dielectric constant tensor:
#      x y z
#    x 2.134590 0.000000 0.000000 
#    y 0.000000 1.949590 0.000000 
#    z 0.000000 0.000000 1.972160 
# 
# From -- ./inp_files/26713.got.cif
#   From: 2010.05.17/outbox.cif.g08.bks.cpg/sg62_14_cif.got.tgz:26713.got - 2010.06.03 15:25:27.
