data_PCOD9461841
_publ_section_title
;
Structure prediction by ZEFSAII (Michael W. Deem and Ramdas Pophale) SiO2 
 PCOD9461841
Probable space group: P N M A
;
_chemical_formula_sum "Si O2"
_cell_formula_units_Z 64
_cell_length_a 9.432755
_cell_length_b 14.249003
_cell_length_c 22.526151
_cell_angle_alpha 90.000000
_cell_angle_beta 90.000000
_cell_angle_gamma 90.000000
_cell_volume 3027.680358
_symmetry_space_group_name_H-M "P N M A"
_symmetry_group_IT_number 62
_symmetry_cell_setting 'orthorhombic'
loop_
_space_group_symop_operation_xyz
x,y,z
1/2-x,-y,1/2+z
1/2+x,1/2-y,1/2-z
-x,1/2+y,-z
-x,-y,-z
1/2+x,y,1/2-z
1/2-x,1/2+y,1/2+z
x,1/2-y,z
loop_
_atom_site_type_symbol
_atom_site_label
_atom_site_fract_x
_atom_site_fract_y
_atom_site_fract_z
Si Si1 0.715796 0.146260 0.860725
Si Si2 0.973698 0.640371 0.243535
Si Si3 0.091551 0.925337 0.538120
Si Si4 0.922627 0.148226 0.581792
Si Si5 0.408868 0.359564 0.460635
Si Si6 0.113153 0.986435 0.075433
Si Si7 0.223378 0.958986 0.317833
Si Si8 0.356394 0.858395 0.876659
O O1 0.769375 0.250000 0.874847
O O2 0.635152 0.146549 0.799005
O O3 0.587821 0.125250 0.906686
O O4 0.838281 0.070784 0.866925
O O5 0.004431 0.750000 0.226146
O O6 0.878694 0.580019 0.197804
O O7 0.109979 0.587880 0.271963
O O8 0.107778 0.848015 0.487209
O O9 0.005290 0.893163 0.595821
O O10 0.245891 0.961280 0.553466
O O11 0.000000 0.000000 0.500000
O O12 0.901069 0.250000 0.610531
O O13 0.822968 0.078141 0.617080
O O14 0.454397 0.250000 0.460872
O O15 0.496947 0.432855 0.420276
O O16 0.420407 0.407451 0.525477
O O17 0.251665 0.361341 0.432847
O O18 0.199219 0.070393 0.325919
O O19 0.364379 0.750000 0.857201
#
# Coordination Sequence:
#
# PCOD9461841 Si02
#       8
#     8   8   8   8   8   8   8   8
#     4   9  17  31  52  78 104 139 184 228 280 337
#     4  10  21  37  60  87 114 143 181 239 305 359
#     4  12  18  33  58  91 118 151 203 249 290 342
#     4  10  18  30  53  83 117 151 187 236 291 352
#     4  10  22  37  52  77 117 158 189 227 286 350
#     4  11  20  33  55  82 115 151 188 237 286 344
#     4  11  21  39  60  85 116 151 196 245 302 365
#     4  11  23  41  62  84 117 163 204 243 294 356
#
# _framework density 21.138294999999999
#
# number of rings (size 3 to 8) (size 9 to 14) (size 15 to 20)
#    0.000    1.500    3.750    3.375    0.000    4.000 
#    0.000    0.625    0.000    6.750    0.000    0.000 
#    0.000    0.000    0.000    0.000    0.000    0.000 
#
# Total GULP energy -357185.237383 kJ/mol
# GULP energy per Si atom -5581.019334 kJ/mol
# Density = 2.109018 g / cm^3
# Si number density = 21.138295 Si / 1000 Ang^3
#
#
#
# Elastic Constant Matrix: (Units=GPa)
#
#
# Indices 1 2 3 4 5 6 
#
# 1 62.2964 25.3952 12.5115 0.0000 0.0000 0.0000
# 2 25.3952 133.6094 16.9819 0.0000 0.0000 0.0000
# 3 12.5115 16.9819 42.8936 0.0000 0.0000 0.0000
# 4 0.0000 0.0000 0.0000 22.8917 0.0000 0.0000
# 5 0.0000 0.0000 0.0000 0.0000 27.7543 0.0000
# 6 0.0000 0.0000 0.0000 0.0000 0.0000 23.2441
#
#
#
# Elastic Compliance Matrix: (Units=1/GPa)
#
#
# Indices 1 2 3 4 5 6 
#
# 1 0.018066 -0.002910 -0.004117 0.000000 0.000000 0.000000
# 2 -0.002910 0.008350 -0.002457 0.000000 0.000000 0.000000
# 3 -0.004117 -0.002457 0.025487 0.000000 0.000000 0.000000
# 4 0.000000 0.000000 0.000000 0.043684 0.000000 0.000000
# 5 0.000000 0.000000 0.000000 0.000000 0.036031 0.000000
# 6 0.000000 0.000000 0.000000 0.000000 0.000000 0.043022
#
#
# Mechanical properties :
#
#
# Convention : Reuss Voigt Hill
#
# Bulk Modulus (GPa) = 30.36413 38.73076 34.54744
# Shear Modulus (GPa) = 24.43962 27.03873 25.73918
#
# Velocity S-wave (km/s) = 3.40395 3.58038 3.49328
# Velocity P-wave (km/s) = 5.46304 5.95437 5.71399
#
# Compressibility (1/GPa) = 0.03293360
#
# Stress axis : x y z
#
# Youngs Moduli (GPa) = 55.35375 119.76104 39.23548
#
# Poissons Ratio (x) = 0.34856 0.16154
# Poissons Ratio (y) = 0.16110 0.09640
# Poissons Ratio (z) = 0.22791 0.29424
#
# Static dielectric constant tensor:
#      x y z
#    x 1.788370 0.000000 0.000000 
#    y 0.000000 1.815180 0.000000 
#    z 0.000000 0.000000 1.830790 
# 
# From -- ./inp_files/28986.got.cif
#   From: 2010.05.17/outbox.cif.g08.bks.cpg/sg62_15_cif.got.tgz:28986.got - 2010.06.03 15:25:27.
