data_PCOD9461422
_publ_section_title
;
Structure prediction by ZEFSAII (Michael W. Deem and Ramdas Pophale) SiO2 
 PCOD9461422
Probable space group: P N M A
;
_chemical_formula_sum "Si O2"
_cell_formula_units_Z 40
_cell_length_a 7.843715
_cell_length_b 13.779072
_cell_length_c 23.917558
_cell_angle_alpha 90.000000
_cell_angle_beta 90.000000
_cell_angle_gamma 90.000000
_cell_volume 2584.988471
_symmetry_space_group_name_H-M "P N M A"
_symmetry_group_IT_number 62
_symmetry_cell_setting 'orthorhombic'
loop_
_space_group_symop_operation_xyz
x,y,z
1/2-x,-y,1/2+z
1/2+x,1/2-y,1/2-z
-x,1/2+y,-z
-x,-y,-z
1/2+x,y,1/2-z
1/2-x,1/2+y,1/2+z
x,1/2-y,z
loop_
_atom_site_type_symbol
_atom_site_label
_atom_site_fract_x
_atom_site_fract_y
_atom_site_fract_z
Si Si1 0.871768 0.362593 0.501293
Si Si2 0.959392 0.866078 0.923518
Si Si3 0.677433 0.136143 0.306234
Si Si4 0.917308 0.864296 0.683560
Si Si5 0.316343 0.550172 0.932854
O O1 0.872543 0.250000 0.517721
O O2 0.711693 0.379039 0.459625
O O3 0.850749 0.438773 0.551411
O O4 0.044410 0.388638 0.467947
O O5 0.992499 0.750000 0.921564
O O6 0.922224 0.902065 0.860206
O O7 0.124452 0.918753 0.947741
O O8 0.629443 0.250000 0.302481
O O9 0.639334 0.097741 0.244404
O O10 0.877998 0.131311 0.318420
O O11 0.866655 0.750000 0.678018
O O12 0.843021 0.922856 0.631785
#
# Coordination Sequence:
#
# PCOD9461422 Si02
#       5
#     8   8   8   8   8
#     4  10  21  35  48  69  99 128 163 201 234 277
#     4  10  18  31  49  72 101 127 154 194 239 286
#     4   9  17  27  44  70 101 127 150 188 240 293
#     4  10  17  28  44  70 101 126 154 190 236 289
#     4  11  20  31  51  71  95 131 163 192 236 283
#
# _framework density 15.473957
#
# number of rings (size 3 to 8) (size 9 to 14) (size 15 to 20)
#    0.000    2.000    2.000    3.600    0.000    3.200 
#    0.000    0.000    0.000    0.000    0.000    5.600 
#    0.000    0.000    0.000    0.000    0.000    0.000 
#
# Total GULP energy -223040.272514 kJ/mol
# GULP energy per Si atom -5576.006813 kJ/mol
# Density = 1.543874 g / cm^3
# Si number density = 15.473957 Si / 1000 Ang^3
#
#
#
# Elastic Constant Matrix: (Units=GPa)
#
#
# Indices 1 2 3 4 5 6 
#
# 1 69.7123 29.4572 29.6779 0.0000 0.0000 0.0000
# 2 29.4572 72.9328 43.4722 0.0000 0.0000 0.0000
# 3 29.6779 43.4722 63.8212 0.0000 0.0000 0.0000
# 4 0.0000 0.0000 0.0000 19.1303 0.0000 0.0000
# 5 0.0000 0.0000 0.0000 0.0000 22.4778 0.0000
# 6 0.0000 0.0000 0.0000 0.0000 0.0000 12.5512
#
#
#
# Elastic Compliance Matrix: (Units=1/GPa)
#
#
# Indices 1 2 3 4 5 6 
#
# 1 0.018539 -0.003955 -0.005927 0.000000 0.000000 0.000000
# 2 -0.003955 0.023927 -0.014459 0.000000 0.000000 0.000000
# 3 -0.005927 -0.014459 0.028274 0.000000 0.000000 0.000000
# 4 0.000000 0.000000 0.000000 0.052273 0.000000 0.000000
# 5 0.000000 0.000000 0.000000 0.000000 0.044488 0.000000
# 6 0.000000 0.000000 0.000000 0.000000 0.000000 0.079674
#
#
# Mechanical properties :
#
#
# Convention : Reuss Voigt Hill
#
# Bulk Modulus (GPa) = 45.33501 45.74231 45.53866
# Shear Modulus (GPa) = 16.49026 17.75578 17.12302
#
# Velocity S-wave (km/s) = 3.26801 3.39110 3.33012
# Velocity P-wave (km/s) = 6.60311 6.70505 6.65428
#
# Compressibility (1/GPa) = 0.02205801
#
# Stress axis : x y z
#
# Youngs Moduli (GPa) = 53.93997 41.79387 35.36865
#
# Poissons Ratio (x) = 0.16530 0.20963
# Poissons Ratio (y) = 0.21333 0.51139
# Poissons Ratio (z) = 0.31970 0.60429
#
# Static dielectric constant tensor:
#      x y z
#    x 1.540900 0.000000 0.000000 
#    y 0.000000 1.488340 0.000000 
#    z 0.000000 0.000000 1.530600 
# 
# From -- ./inp_files/22311.got.cif
#   From: 2010.05.17/outbox.cif.g08.bks.cpg/sg62_12_cif.got.tgz:22311.got - 2010.06.03 15:25:27.
