data_PCOD9461886
_publ_section_title
;
Structure prediction by ZEFSAII (Michael W. Deem and Ramdas Pophale) SiO2 
 PCOD9461886
Probable space group: P N M A
;
_chemical_formula_sum "Si O2"
_cell_formula_units_Z 64
_cell_length_a 20.587096
_cell_length_b 7.474328
_cell_length_c 16.756849
_cell_angle_alpha 90.000000
_cell_angle_beta 90.000000
_cell_angle_gamma 90.000000
_cell_volume 2578.455248
_symmetry_space_group_name_H-M "P N M A"
_symmetry_group_IT_number 62
_symmetry_cell_setting 'orthorhombic'
loop_
_space_group_symop_operation_xyz
x,y,z
1/2-x,-y,1/2+z
1/2+x,1/2-y,1/2-z
-x,1/2+y,-z
-x,-y,-z
1/2+x,y,1/2-z
1/2-x,1/2+y,1/2+z
x,1/2-y,z
loop_
_atom_site_type_symbol
_atom_site_label
_atom_site_fract_x
_atom_site_fract_y
_atom_site_fract_z
Si Si1 0.110190 0.963064 0.204368
Si Si2 0.637031 0.464525 0.126419
Si Si3 0.893030 0.963056 0.280364
Si Si4 0.520348 0.030523 0.631720
Si Si5 0.637246 0.469134 0.949139
Si Si6 0.724189 0.951897 0.387881
Si Si7 0.872564 0.954101 0.021745
Si Si8 0.281859 0.036697 0.331916
O O1 0.114825 0.750000 0.193612
O O2 0.181075 0.040546 0.181874
O O3 0.053102 0.027335 0.146593
O O4 0.093659 0.991464 0.296978
O O5 0.639948 0.250000 0.122112
O O6 0.709399 0.530141 0.150370
O O7 0.618793 0.529733 0.037982
O O8 0.901445 0.750000 0.281604
O O9 0.940093 0.030518 0.210757
O O10 0.902470 0.027648 0.370872
O O11 0.818977 0.999846 0.251170
O O12 0.522061 0.250000 0.629716
O O13 0.559434 0.968959 0.553780
O O14 0.636187 0.250000 0.950954
O O15 0.711266 0.527511 0.928542
O O16 0.741879 0.750000 0.363565
O O17 0.669634 0.944728 0.457071
O O18 0.880333 0.750000 0.995177
O O19 0.828750 0.953994 0.101592
O O20 0.281597 0.250000 0.343255
#
# Coordination Sequence:
#
# PCOD9461886 Si02
#       8
#     8   8   8   8   8   8   8   8
#     4  10  21  36  54  74 102 140 179 214 255 309
#     4  10  20  34  51  72 104 135 168 215 264 309
#     4   9  17  32  56  77  99 136 180 213 249 308
#     4   8  17  34  52  75 104 135 176 221 252 290
#     4   9  17  32  52  75 102 134 169 208 259 316
#     4  10  19  33  52  76 106 136 169 210 262 315
#     4  10  19  32  53  78 105 137 172 208 253 307
#     4  10  18  31  51  75 107 135 162 209 265 308
#
# _framework density 24.821062999999999
#
# number of rings (size 3 to 8) (size 9 to 14) (size 15 to 20)
#    0.000    2.500    1.250    2.250    0.000    3.000 
#    0.000    5.000    0.000    0.000    0.000    0.000 
#    0.000    0.000    0.000    0.000    0.000    0.000 
#
# Total GULP energy -357470.890227 kJ/mol
# GULP energy per Si atom -5585.482660 kJ/mol
# Density = 2.476457 g / cm^3
# Si number density = 24.821063 Si / 1000 Ang^3
#
#
#
# Elastic Constant Matrix: (Units=GPa)
#
#
# Indices 1 2 3 4 5 6 
#
# 1 29.9971 -1.8068 -24.4046 0.0000 0.0000 0.0000
# 2 -1.8068 88.6618 6.1912 0.0000 0.0000 0.0000
# 3 -24.4046 6.1912 99.2591 0.0000 0.0000 0.0000
# 4 0.0000 0.0000 0.0000 19.3611 0.0000 0.0000
# 5 0.0000 0.0000 0.0000 0.0000 34.0387 0.0000
# 6 0.0000 0.0000 0.0000 0.0000 0.0000 5.3176
#
#
#
# Elastic Compliance Matrix: (Units=1/GPa)
#
#
# Indices 1 2 3 4 5 6 
#
# 1 0.041674 0.000134 0.010238 0.000000 0.000000 0.000000
# 2 0.000134 0.011329 -0.000674 0.000000 0.000000 0.000000
# 3 0.010238 -0.000674 0.012634 0.000000 0.000000 0.000000
# 4 0.000000 0.000000 0.000000 0.051650 0.000000 0.000000
# 5 0.000000 0.000000 0.000000 0.000000 0.029378 0.000000
# 6 0.000000 0.000000 0.000000 0.000000 0.000000 0.188054
#
#
# Mechanical properties :
#
#
# Convention : Reuss Voigt Hill
#
# Bulk Modulus (GPa) = 11.76008 19.76420 15.76214
# Shear Modulus (GPa) = 14.54902 27.60603 21.07753
#
# Velocity S-wave (km/s) = 2.42369 3.33859 2.91723
# Velocity P-wave (km/s) = 3.54692 4.77928 4.20845
#
# Compressibility (1/GPa) = 0.08503341
#
# Stress axis : x y z
#
# Youngs Moduli (GPa) = 23.99588 88.27229 79.15269
#
# Poissons Ratio (x) = -0.01186 -0.81035
# Poissons Ratio (y) = -0.00322 0.05332
# Poissons Ratio (z) = -0.24567 0.05946
#
# Static dielectric constant tensor:
#      x y z
#    x 1.978380 0.000000 0.000000 
#    y 0.000000 1.943430 0.000000 
#    z 0.000000 0.000000 2.021270 
# 
# From -- ./inp_files/20858.got.cif
#   From: 2010.05.17/outbox.cif.g08.bks.cpg/sg62_11_cif.got.tgz:20858.got - 2010.06.03 15:25:27.
