data_PCOD9461784
_publ_section_title
;
Structure prediction by ZEFSAII (Michael W. Deem and Ramdas Pophale) SiO2 
 PCOD9461784
Probable space group: P N M A
;
_chemical_formula_sum "Si O2"
_cell_formula_units_Z 56
_cell_length_a 22.051900
_cell_length_b 11.471877
_cell_length_c 12.482128
_cell_angle_alpha 90.000000
_cell_angle_beta 90.000000
_cell_angle_gamma 90.000000
_cell_volume 3157.687356
_symmetry_space_group_name_H-M "P N M A"
_symmetry_group_IT_number 62
_symmetry_cell_setting 'orthorhombic'
loop_
_space_group_symop_operation_xyz
x,y,z
1/2-x,-y,1/2+z
1/2+x,1/2-y,1/2-z
-x,1/2+y,-z
-x,-y,-z
1/2+x,y,1/2-z
1/2-x,1/2+y,1/2+z
x,1/2-y,z
loop_
_atom_site_type_symbol
_atom_site_label
_atom_site_fract_x
_atom_site_fract_y
_atom_site_fract_z
Si Si1 0.827496 0.613301 0.996928
Si Si2 0.336129 0.463530 0.711119
Si Si3 0.773166 0.548221 0.591095
Si Si4 0.171178 0.877176 0.746313
Si Si5 0.793083 0.877496 0.357298
Si Si6 0.037229 0.621443 0.129281
Si Si7 0.069884 0.957618 0.895118
O O1 0.829214 0.750000 0.004086
O O2 0.832198 0.568914 0.874774
O O3 0.766139 0.560872 0.047060
O O4 0.883174 0.554970 0.060462
O O5 0.326639 0.507635 0.831242
O O6 0.276877 0.387105 0.681871
O O7 0.399127 0.400565 0.687979
O O8 0.725406 0.616204 0.666342
O O9 0.792931 0.616402 0.485893
O O10 0.175955 0.750000 0.690407
O O11 0.177512 0.000395 0.683141
O O12 0.108258 0.884399 0.810826
O O13 0.817238 0.750000 0.321484
O O14 0.013864 0.750000 0.154216
O O15 0.988349 0.521819 0.153013
O O16 0.050187 0.611657 0.001515
#
# Coordination Sequence:
#
# PCOD9461784 Si02
#       7
#     8   8   8   8   8   8   8
#     4   9  17  29  45  68  98 129 164 205 244 289
#     4   9  19  31  46  73 102 132 164 199 246 300
#     4   9  19  31  48  72 100 131 164 202 249 298
#     4  10  20  35  54  74 101 136 169 203 248 300
#     4  10  20  33  51  76 103 132 168 206 245 294
#     4  10  18  30  49  72 101 132 164 204 249 297
#     4   9  19  31  47  72  98 130 168 203 246 296
#
# _framework density 17.734497999999999
#
# number of rings (size 3 to 8) (size 9 to 14) (size 15 to 20)
#    0.000    2.571    0.000    2.571    0.000   12.000 
#    0.000    0.714    0.000    0.857    0.000    0.000 
#    0.000    0.000    0.000    0.000    0.000    0.000 
#
# Total GULP energy -312083.247292 kJ/mol
# GULP energy per Si atom -5572.915130 kJ/mol
# Density = 1.769413 g / cm^3
# Si number density = 17.734498 Si / 1000 Ang^3
#
#
#
# Elastic Constant Matrix: (Units=GPa)
#
#
# Indices 1 2 3 4 5 6 
#
# 1 47.1988 9.2583 9.2685 0.0000 0.0000 0.0000
# 2 9.2583 135.4858 21.7732 0.0000 0.0000 0.0000
# 3 9.2685 21.7732 57.6752 0.0000 0.0000 0.0000
# 4 0.0000 0.0000 0.0000 2.6802 0.0000 0.0000
# 5 0.0000 0.0000 0.0000 0.0000 24.2349 0.0000
# 6 0.0000 0.0000 0.0000 0.0000 0.0000 4.2448
#
#
#
# Elastic Compliance Matrix: (Units=1/GPa)
#
#
# Indices 1 2 3 4 5 6 
#
# 1 0.022003 -0.000996 -0.003160 0.000000 0.000000 0.000000
# 2 -0.000996 0.007903 -0.002823 0.000000 0.000000 0.000000
# 3 -0.003160 -0.002823 0.018912 0.000000 0.000000 0.000000
# 4 0.000000 0.000000 0.000000 0.373108 0.000000 0.000000
# 5 0.000000 0.000000 0.000000 0.000000 0.041263 0.000000
# 6 0.000000 0.000000 0.000000 0.000000 0.000000 0.235581
#
#
# Mechanical properties :
#
#
# Convention : Reuss Voigt Hill
#
# Bulk Modulus (GPa) = 28.68662 35.66222 32.17442
# Shear Modulus (GPa) = 6.90277 19.56931 13.23604
#
# Velocity S-wave (km/s) = 1.97503 3.32544 2.73489
# Velocity P-wave (km/s) = 4.62728 5.90740 5.30608
#
# Compressibility (1/GPa) = 0.03485946
#
# Stress axis : x y z
#
# Youngs Moduli (GPa) = 45.44871 126.54047 52.87609
#
# Poissons Ratio (x) = 0.12600 0.16709
# Poissons Ratio (y) = 0.04525 0.14929
# Poissons Ratio (z) = 0.14362 0.35727
#
# Static dielectric constant tensor:
#      x y z
#    x 1.595970 0.000000 0.000000 
#    y 0.000000 1.645590 0.000000 
#    z 0.000000 0.000000 1.616070 
# 
# From -- ./inp_files/15241.got.cif
#   From: 2010.05.17/outbox.cif.g08.bks.cpg/sg62_8_cif.got.tgz:15241.got - 2010.06.03 15:25:27.
