data_PCOD9461636
_publ_section_title
;
Structure prediction by ZEFSAII (Michael W. Deem and Ramdas Pophale) SiO2 
 PCOD9461636
Probable space group: P N M A
;
_chemical_formula_sum "Si O2"
_cell_formula_units_Z 40
_cell_length_a 12.920604
_cell_length_b 17.303627
_cell_length_c 7.211723
_cell_angle_alpha 90.000000
_cell_angle_beta 90.000000
_cell_angle_gamma 90.000000
_cell_volume 1612.348798
_symmetry_space_group_name_H-M "P N M A"
_symmetry_group_IT_number 62
_symmetry_cell_setting 'orthorhombic'
loop_
_space_group_symop_operation_xyz
x,y,z
1/2-x,-y,1/2+z
1/2+x,1/2-y,1/2-z
-x,1/2+y,-z
-x,-y,-z
1/2+x,y,1/2-z
1/2-x,1/2+y,1/2+z
x,1/2-y,z
loop_
_atom_site_type_symbol
_atom_site_label
_atom_site_fract_x
_atom_site_fract_y
_atom_site_fract_z
Si Si1 0.148340 0.660802 0.434838
Si Si2 0.460057 0.052922 0.328740
Si Si3 0.126991 0.158872 0.039600
Si Si4 0.572265 0.102134 0.869312
Si Si5 0.711433 0.839681 0.497435
O O1 0.138593 0.750000 0.489758
O O2 0.253901 0.630899 0.528718
O O3 0.170581 0.657733 0.214613
O O4 0.037617 0.622459 0.459681
O O5 0.556978 0.110994 0.320256
O O6 0.363209 0.105577 0.385788
O O7 0.500000 0.000000 0.500000
O O8 0.428466 0.988475 0.179846
O O9 0.124439 0.250000 0.079084
O O10 0.082344 0.146467 0.830249
O O11 0.672467 0.128875 0.981633
O O12 0.709132 0.750000 0.557734
#
# Coordination Sequence:
#
# PCOD9461636 Si02
#       5
#     8   8   8   8   8
#     4   9  15  25  44  69  97 126 162 209 257 302
#     4  10  18  29  46  73 108 134 170 219 272 316
#     4   9  16  26  44  70  97 126 166 210 255 308
#     4  10  18  28  46  73 107 135 171 222 270 312
#     4  10  18  29  49  75 102 135 178 222 264 316
#
# _framework density 24.808530000000001
#
# number of rings (size 3 to 8) (size 9 to 14) (size 15 to 20)
#    0.000    2.400    4.000    3.600    0.000    0.000 
#    0.000    0.000    0.000   13.200    0.000   19.600 
#    0.000    0.000    0.000    0.000    0.000    0.000 
#
# Total GULP energy -223978.573792 kJ/mol
# GULP energy per Si atom -5599.464345 kJ/mol
# Density = 2.475206 g / cm^3
# Si number density = 24.808530 Si / 1000 Ang^3
#
#
#
# Elastic Constant Matrix: (Units=GPa)
#
#
# Indices 1 2 3 4 5 6 
#
# 1 234.6153 115.2447 40.1057 0.0000 0.0000 0.0000
# 2 115.2447 155.2870 40.5845 0.0000 0.0000 0.0000
# 3 40.1057 40.5845 60.5253 0.0000 0.0000 0.0000
# 4 0.0000 0.0000 0.0000 20.7818 0.0000 0.0000
# 5 0.0000 0.0000 0.0000 0.0000 35.5372 0.0000
# 6 0.0000 0.0000 0.0000 0.0000 0.0000 33.5008
#
#
#
# Elastic Compliance Matrix: (Units=1/GPa)
#
#
# Indices 1 2 3 4 5 6 
#
# 1 0.006799 -0.004690 -0.001360 0.000000 0.000000 0.000000
# 2 -0.004690 0.011043 -0.004297 0.000000 0.000000 0.000000
# 3 -0.001360 -0.004297 0.020305 0.000000 0.000000 0.000000
# 4 0.000000 0.000000 0.000000 0.048119 0.000000 0.000000
# 5 0.000000 0.000000 0.000000 0.000000 0.028140 0.000000
# 6 0.000000 0.000000 0.000000 0.000000 0.000000 0.029850
#
#
# Mechanical properties :
#
#
# Convention : Reuss Voigt Hill
#
# Bulk Modulus (GPa) = 57.30019 93.58858 75.44438
# Shear Modulus (GPa) = 29.27956 34.93014 32.10485
#
# Velocity S-wave (km/s) = 3.43916 3.75639 3.60127
# Velocity P-wave (km/s) = 6.23839 7.52464 6.91150
#
# Compressibility (1/GPa) = 0.01745195
#
# Stress axis : x y z
#
# Youngs Moduli (GPa) = 147.08977 90.55133 49.24952
#
# Poissons Ratio (x) = 0.42469 0.06698
# Poissons Ratio (y) = 0.68986 0.21164
# Poissons Ratio (z) = 0.20005 0.38913
#
# Static dielectric constant tensor:
#      x y z
#    x 1.911350 0.000000 0.000000 
#    y 0.000000 1.890630 0.000000 
#    z 0.000000 0.000000 2.203520 
# 
# From -- ./inp_files/5019.got.cif
#   From: 2010.05.17/outbox.cif.g08.bks.cpg/sg62_3_cif.got.tgz:5019.got - 2010.06.03 15:25:27.
