data_PCOD9461919
_publ_section_title
;
Structure prediction by ZEFSAII (Michael W. Deem and Ramdas Pophale) SiO2 
 PCOD9461919
Probable space group: P N M A
;
_chemical_formula_sum "Si O2"
_cell_formula_units_Z 64
_cell_length_a 29.321902
_cell_length_b 8.106956
_cell_length_c 11.476077
_cell_angle_alpha 90.000000
_cell_angle_beta 90.000000
_cell_angle_gamma 90.000000
_cell_volume 2727.993978
_symmetry_space_group_name_H-M "P N M A"
_symmetry_group_IT_number 62
_symmetry_cell_setting 'orthorhombic'
loop_
_space_group_symop_operation_xyz
x,y,z
1/2-x,-y,1/2+z
1/2+x,1/2-y,1/2-z
-x,1/2+y,-z
-x,-y,-z
1/2+x,y,1/2-z
1/2-x,1/2+y,1/2+z
x,1/2-y,z
loop_
_atom_site_type_symbol
_atom_site_label
_atom_site_fract_x
_atom_site_fract_y
_atom_site_fract_z
Si Si1 0.068689 0.048398 0.412443
Si Si2 0.929140 0.548443 0.327822
Si Si3 0.011585 0.943298 0.188772
Si Si4 0.173106 0.931069 0.916267
Si Si5 0.843965 0.938664 0.707521
Si Si6 0.094671 0.065058 0.054996
Si Si7 0.173329 0.435668 0.679481
Si Si8 0.269612 0.944626 0.628076
O O1 0.067191 0.250000 0.399204
O O2 0.053471 0.005781 0.542670
O O3 0.121470 0.993371 0.389453
O O4 0.038731 0.968911 0.310942
O O5 0.928529 0.750000 0.320492
O O6 0.877175 0.490465 0.326565
O O7 0.961634 0.490956 0.223180
O O8 0.008907 0.750000 0.162232
O O9 0.043151 0.024996 0.090902
O O10 0.180249 0.750000 0.865424
O O11 0.122309 0.949865 0.968133
O O12 0.206993 0.960487 0.022680
O O13 0.182093 0.063307 0.817592
O O14 0.835072 0.750000 0.672350
O O15 0.876014 0.939502 0.824188
O O16 0.795763 0.006169 0.753862
O O17 0.097163 0.250000 0.007665
O O18 0.172014 0.250000 0.632153
O O19 0.215988 0.528492 0.626107
O O20 0.280268 0.750000 0.618121
#
# Coordination Sequence:
#
# PCOD9461919 Si02
#       8
#     8   8   8   8   8   8   8   8
#     4   9  16  31  53  78 107 146 186 224 276 337
#     4   9  20  35  52  75 111 153 192 231 278 331
#     4  10  18  31  52  82 113 145 186 233 279 334
#     4  11  22  39  62  87 112 144 183 230 283 336
#     4   7  13  26  49  77 106 136 172 215 266 323
#     4   9  17  33  56  82 108 140 180 228 280 333
#     4  11  23  40  58  81 114 154 192 230 275 330
#     4  10  20  37  59  86 115 146 184 231 280 334
#
# _framework density 23.460462
#
# number of rings (size 3 to 8) (size 9 to 14) (size 15 to 20)
#    0.000    2.500    0.000    4.500    0.000    1.000 
#    0.000    8.125    0.000    0.000    0.000    0.000 
#    0.000    0.000    0.000    0.000    0.000    0.000 
#
# Total GULP energy -357288.041954 kJ/mol
# GULP energy per Si atom -5582.625656 kJ/mol
# Density = 2.340706 g / cm^3
# Si number density = 23.460462 Si / 1000 Ang^3
#
#
#
# Elastic Constant Matrix: (Units=GPa)
#
#
# Indices 1 2 3 4 5 6 
#
# 1 135.0344 5.0320 5.3435 0.0000 0.0000 0.0000
# 2 5.0320 48.0659 -2.9044 0.0000 0.0000 0.0000
# 3 5.3435 -2.9044 30.7701 0.0000 0.0000 0.0000
# 4 0.0000 0.0000 0.0000 13.9712 0.0000 0.0000
# 5 0.0000 0.0000 0.0000 0.0000 25.4561 0.0000
# 6 0.0000 0.0000 0.0000 0.0000 0.0000 18.5535
#
#
#
# Elastic Compliance Matrix: (Units=1/GPa)
#
#
# Indices 1 2 3 4 5 6 
#
# 1 0.007493 -0.000868 -0.001383 0.000000 0.000000 0.000000
# 2 -0.000868 0.021025 0.002135 0.000000 0.000000 0.000000
# 3 -0.001383 0.002135 0.032941 0.000000 0.000000 0.000000
# 4 0.000000 0.000000 0.000000 0.071576 0.000000 0.000000
# 5 0.000000 0.000000 0.000000 0.000000 0.039283 0.000000
# 6 0.000000 0.000000 0.000000 0.000000 0.000000 0.053898
#
#
# Mechanical properties :
#
#
# Convention : Reuss Voigt Hill
#
# Bulk Modulus (GPa) = 16.33282 25.42363 20.87822
# Shear Modulus (GPa) = 20.25473 25.35610 22.80542
#
# Velocity S-wave (km/s) = 2.94148 3.29112 3.12120
# Velocity P-wave (km/s) = 4.30272 5.03014 4.68058
#
# Compressibility (1/GPa) = 0.06122643
#
# Stress axis : x y z
#
# Youngs Moduli (GPa) = 133.46505 47.56324 30.35745
#
# Poissons Ratio (x) = 0.04128 0.04199
# Poissons Ratio (y) = 0.11584 -0.06482
# Poissons Ratio (z) = 0.18459 -0.10156
#
# Static dielectric constant tensor:
#      x y z
#    x 1.942550 0.000000 0.000000 
#    y 0.000000 1.858620 0.000000 
#    z 0.000000 0.000000 1.882760 
# 
# From -- ./inp_files/15820.got.cif
#   From: 2010.05.17/outbox.cif.g08.bks.cpg/sg62_8_cif.got.tgz:15820.got - 2010.06.03 15:25:27.
