data_PCOD9461623
_publ_section_title
;
Structure prediction by ZEFSAII (Michael W. Deem and Ramdas Pophale) SiO2 
 PCOD9461623
Probable space group: P N M A
;
_chemical_formula_sum "Si O2"
_cell_formula_units_Z 56
_cell_length_a 21.602263
_cell_length_b 9.854161
_cell_length_c 12.010748
_cell_angle_alpha 90.000000
_cell_angle_beta 90.000000
_cell_angle_gamma 90.000000
_cell_volume 2556.754081
_symmetry_space_group_name_H-M "P N M A"
_symmetry_group_IT_number 62
_symmetry_cell_setting 'orthorhombic'
loop_
_space_group_symop_operation_xyz
x,y,z
1/2-x,-y,1/2+z
1/2+x,1/2-y,1/2-z
-x,1/2+y,-z
-x,-y,-z
1/2+x,y,1/2-z
1/2-x,1/2+y,1/2+z
x,1/2-y,z
loop_
_atom_site_type_symbol
_atom_site_label
_atom_site_fract_x
_atom_site_fract_y
_atom_site_fract_z
Si Si1 0.182509 0.489963 0.657521
Si Si2 0.637437 0.587377 0.471729
Si Si3 0.589130 0.396071 0.023303
Si Si4 0.482519 0.404846 0.835078
Si Si5 0.751217 0.097225 0.534760
Si Si6 0.069586 0.588417 0.811814
Si Si7 0.312644 0.094854 0.753637
O O1 0.144504 0.408206 0.564815
O O2 0.213670 0.605450 0.582293
O O3 0.133112 0.543780 0.747309
O O4 0.242513 0.411856 0.702747
O O5 0.649696 0.750000 0.473293
O O6 0.693763 0.502087 0.522606
O O7 0.580734 0.565202 0.556202
O O8 0.640141 0.544480 0.341504
O O9 0.591670 0.250000 0.081753
O O10 0.575123 0.516398 0.110164
O O11 0.530831 0.395716 0.937897
O O12 0.470737 0.250000 0.797920
O O13 0.515784 0.496866 0.741714
O O14 0.731768 0.250000 0.566791
O O15 0.797247 0.033966 0.626526
O O16 0.059910 0.750000 0.792930
O O17 0.330128 0.250000 0.774890
#
# Coordination Sequence:
#
# PCOD9461623 Si02
#       7
#     8   8   8   8   8   8   8
#     4  10  18  28  45  68  94 121 152 188 228 269
#     4   9  18  31  45  63  88 122 156 190 227 270
#     4   9  17  29  45  65  91 122 152 181 222 274
#     4   9  18  29  44  66  92 119 148 184 225 272
#     4  10  19  30  45  66  90 121 156 193 226 265
#     4  10  18  29  45  66  92 122 152 185 225 272
#     4   9  17  30  45  63  91 123 157 189 224 267
#
# _framework density 21.90277
#
# number of rings (size 3 to 8) (size 9 to 14) (size 15 to 20)
#    0.000    2.571    1.429    1.286    0.000    5.714 
#    0.000    0.000    0.000    0.000    0.000    1.000 
#    0.000    0.000    0.000    0.000    0.000    0.000 
#
# Total GULP energy -311871.025512 kJ/mol
# GULP energy per Si atom -5569.125456 kJ/mol
# Density = 2.185292 g / cm^3
# Si number density = 21.902770 Si / 1000 Ang^3
#
#
#
# Elastic Constant Matrix: (Units=GPa)
#
#
# Indices 1 2 3 4 5 6 
#
# 1 51.6718 1.8746 -13.4683 0.0000 0.0000 0.0000
# 2 1.8746 76.8448 3.8585 0.0000 0.0000 0.0000
# 3 -13.4683 3.8585 77.0150 0.0000 0.0000 0.0000
# 4 0.0000 0.0000 0.0000 7.5351 0.0000 0.0000
# 5 0.0000 0.0000 0.0000 0.0000 28.4794 0.0000
# 6 0.0000 0.0000 0.0000 0.0000 0.0000 6.7857
#
#
#
# Elastic Compliance Matrix: (Units=1/GPa)
#
#
# Indices 1 2 3 4 5 6 
#
# 1 0.020312 -0.000676 0.003586 0.000000 0.000000 0.000000
# 2 -0.000676 0.013069 -0.000773 0.000000 0.000000 0.000000
# 3 0.003586 -0.000773 0.013650 0.000000 0.000000 0.000000
# 4 0.000000 0.000000 0.000000 0.132712 0.000000 0.000000
# 5 0.000000 0.000000 0.000000 0.000000 0.035113 0.000000
# 6 0.000000 0.000000 0.000000 0.000000 0.000000 0.147368
#
#
# Mechanical properties :
#
#
# Convention : Reuss Voigt Hill
#
# Bulk Modulus (GPa) = 19.49087 21.11791 20.30439
# Shear Modulus (GPa) = 13.33152 22.77783 18.05467
#
# Velocity S-wave (km/s) = 2.46980 3.22833 2.87419
# Velocity P-wave (km/s) = 4.12933 4.85373 4.50611
#
# Compressibility (1/GPa) = 0.05130608
#
# Stress axis : x y z
#
# Youngs Moduli (GPa) = 49.23170 76.51968 73.25834
#
# Poissons Ratio (x) = 0.05169 -0.26270
# Poissons Ratio (y) = 0.03326 0.05662
# Poissons Ratio (z) = -0.17654 0.05914
#
# Static dielectric constant tensor:
#      x y z
#    x 1.824220 0.000000 0.000000 
#    y 0.000000 1.791120 0.000000 
#    z 0.000000 0.000000 1.853710 
# 
# From -- ./inp_files/14782.got.cif
#   From: 2010.05.17/outbox.cif.g08.bks.cpg/sg62_8_cif.got.tgz:14782.got - 2010.06.03 15:25:27.
