data_PCOD9461241
_publ_section_title
;
Structure prediction by ZEFSAII (Michael W. Deem and Ramdas Pophale) SiO2 
 PCOD9461241
Probable space group: P B C A
;
_chemical_formula_sum "Si O2"
_cell_formula_units_Z 48
_cell_length_a 20.023617
_cell_length_b 5.635520
_cell_length_c 15.515105
_cell_angle_alpha 90.000000
_cell_angle_beta 90.000000
_cell_angle_gamma 90.000000
_cell_volume 1750.778659
_symmetry_space_group_name_H-M "P B C A"
_symmetry_group_IT_number 61
_symmetry_cell_setting 'orthorhombic'
loop_
_space_group_symop_operation_xyz
x,y,z
1/2-x,-y,1/2+z
1/2+x,1/2-y,-z
-x,1/2+y,1/2-z
-x,-y,-z
1/2+x,y,1/2-z
1/2-x,1/2+y,z
x,1/2-y,1/2+z
loop_
_atom_site_type_symbol
_atom_site_label
_atom_site_fract_x
_atom_site_fract_y
_atom_site_fract_z
Si Si1 0.101222 0.140138 0.030476
Si Si2 0.917167 0.515750 0.201660
Si Si3 0.566156 0.972821 0.728439
Si Si4 0.730936 0.175517 0.568825
Si Si5 0.041200 0.732290 0.948163
Si Si6 0.770365 0.703185 0.371228
O O1 0.151066 0.195733 0.107688
O O2 0.036825 0.310636 0.033988
O O3 0.153385 0.142820 0.951915
O O4 0.072716 0.872670 0.027326
O O5 0.896532 0.777348 0.227397
O O6 0.911475 0.450895 0.100952
O O7 0.998530 0.515946 0.215439
O O8 0.894991 0.272244 0.248522
O O9 0.539385 0.928506 0.630723
O O10 0.744713 0.430495 0.610479
O O11 0.761761 0.196824 0.470220
O O12 0.749155 0.453670 0.330912
#
# Coordination Sequence:
#
# PCOD9461241 Si02
#       6
#     8   8   8   8   8   8
#     4   9  16  30  40  70  94 115 130 176 224 263
#     4   8  15  30  43  54  80 118 151 171 189 249
#     4   8  15  30  43  54  80 118 151 171 189 249
#     4   8  15  30  44  54  79 116 151 170 189 248
#     4   9  18  28  42  68  96 113 132 174 226 261
#     4   8  15  30  44  54  79 116 151 170 189 248
#
# _framework density 27.416370000000001
#
# number of rings (size 3 to 8) (size 9 to 14) (size 15 to 20)
#    2.000    1.667    0.000    0.000    0.000    0.000 
#   12.000    1.667    0.000    0.000    0.000    0.000 
#    0.000   32.000    0.000    0.000    0.000    0.000 
#
# Total GULP energy -267496.127403 kJ/mol
# GULP energy per Si atom -5572.835988 kJ/mol
# Density = 2.735397 g / cm^3
# Si number density = 27.416370 Si / 1000 Ang^3
#
#
#
# Elastic Constant Matrix: (Units=GPa)
#
#
# Indices 1 2 3 4 5 6 
#
# 1 117.1653 42.7677 1.7698 0.0000 0.0000 0.0000
# 2 42.7677 246.6161 -0.7407 0.0000 0.0000 0.0000
# 3 1.7698 -0.7407 41.6438 0.0000 0.0000 0.0000
# 4 0.0000 0.0000 0.0000 2.1320 0.0000 0.0000
# 5 0.0000 0.0000 0.0000 0.0000 5.5022 0.0000
# 6 0.0000 0.0000 0.0000 0.0000 0.0000 28.3325
#
#
#
# Elastic Compliance Matrix: (Units=1/GPa)
#
#
# Indices 1 2 3 4 5 6 
#
# 1 0.009119 -0.001583 -0.000416 0.000000 0.000000 0.000000
# 2 -0.001583 0.004330 0.000144 0.000000 0.000000 0.000000
# 3 -0.000416 0.000144 0.024033 0.000000 0.000000 0.000000
# 4 0.000000 0.000000 0.000000 0.469038 0.000000 0.000000
# 5 0.000000 0.000000 0.000000 0.000000 0.181747 0.000000
# 6 0.000000 0.000000 0.000000 0.000000 0.000000 0.035295
#
#
# Mechanical properties :
#
#
# Convention : Reuss Voigt Hill
#
# Bulk Modulus (GPa) = 29.60856 54.77987 42.19422
# Shear Modulus (GPa) = 6.77022 31.30189 19.03605
#
# Velocity S-wave (km/s) = 1.57314 3.38260 2.63788
# Velocity P-wave (km/s) = 3.75802 5.93971 4.97005
#
# Compressibility (1/GPa) = 0.03377402
#
# Stress axis : x y z
#
# Youngs Moduli (GPa) = 109.66211 230.95880 41.60871
#
# Poissons Ratio (x) = 0.36552 0.01730
# Poissons Ratio (y) = 0.17356 -0.00600
# Poissons Ratio (z) = 0.04559 -0.03332
#
# Static dielectric constant tensor:
#      x y z
#    x 2.133150 0.000000 0.000000 
#    y 0.000000 2.303770 0.000000 
#    z 0.000000 0.000000 2.197720 
# 
# From -- ./inp_files/10577.got.cif
#   From: 2010.05.17/outbox.cif.g08.bks.cpg/sg61_6_cif.got.tgz:10577.got - 2010.06.03 15:17:17.
