data_PCOD9461150
_publ_section_title
;
Structure prediction by ZEFSAII (Michael W. Deem and Ramdas Pophale) SiO2 
 PCOD9461150
Probable space group: P B C A
;
_chemical_formula_sum "Si O2"
_cell_formula_units_Z 36
_cell_length_a 9.754985
_cell_length_b 10.553120
_cell_length_c 12.551987
_cell_angle_alpha 90.000000
_cell_angle_beta 90.000000
_cell_angle_gamma 90.000000
_cell_volume 1292.170920
_symmetry_space_group_name_H-M "P B C A"
_symmetry_group_IT_number 61
_symmetry_cell_setting 'orthorhombic'
loop_
_space_group_symop_operation_xyz
x,y,z
1/2-x,-y,1/2+z
1/2+x,1/2-y,-z
-x,1/2+y,1/2-z
-x,-y,-z
1/2+x,y,1/2-z
1/2-x,1/2+y,z
x,1/2-y,1/2+z
loop_
_atom_site_type_symbol
_atom_site_label
_atom_site_fract_x
_atom_site_fract_y
_atom_site_fract_z
Si Si1 0.291011 0.404813 0.939839
Si Si2 0.581107 0.127928 0.436660
Si Si3 0.539496 0.930779 0.246940
Si Si4 0.000000 0.000000 0.500000
Si Si5 0.792391 0.743142 0.756499
O O1 0.429947 0.323756 0.972595
O O2 0.140499 0.410698 0.991140
O O3 0.259485 0.352098 0.822266
O O4 0.344479 0.545350 0.973704
O O5 0.695117 0.209663 0.377284
O O6 0.538210 0.036870 0.337249
O O7 0.502248 0.981190 0.130623
O O8 0.440768 0.812292 0.272194
O O9 0.690055 0.872696 0.245620
#
# Coordination Sequence:
#
# PCOD9461150 Si02
#       5
#     8   8   8   4   8
#     4  11  26  48  80 114 161 215 272 339 426 490
#     4  11  26  54  74 117 172 209 273 356 411 504
#     4  12  27  48  80 112 169 210 276 343 417 495
#     4  12  26  48  76 118 158 222 264 348 418 490
#     4  12  26  50  79 121 156 224 276 337 416 514
#
# _framework density 27.860091000000001
#
# number of rings (size 3 to 8) (size 9 to 14) (size 15 to 20)
#    0.000    0.444    4.444    2.667    6.222    1.778 
#   12.000    0.000    0.000    0.000    0.000    0.000 
#    0.000    0.000    0.000    0.000    0.000    0.000 
#
# Total GULP energy -200523.600987 kJ/mol
# GULP energy per Si atom -5570.100027 kJ/mol
# Density = 2.779668 g / cm^3
# Si number density = 27.860091 Si / 1000 Ang^3
#
#
#
# Elastic Constant Matrix: (Units=GPa)
#
#
# Indices 1 2 3 4 5 6 
#
# 1 120.7134 36.0126 48.7372 0.0000 0.0000 0.0000
# 2 36.0126 63.9559 78.2641 0.0000 0.0000 0.0000
# 3 48.7372 78.2641 171.2369 0.0000 0.0000 0.0000
# 4 0.0000 0.0000 0.0000 37.8172 0.0000 0.0000
# 5 0.0000 0.0000 0.0000 0.0000 56.7131 0.0000
# 6 0.0000 0.0000 0.0000 0.0000 0.0000 39.0666
#
#
#
# Elastic Compliance Matrix: (Units=1/GPa)
#
#
# Indices 1 2 3 4 5 6 
#
# 1 0.009985 -0.004867 -0.000618 0.000000 0.000000 0.000000
# 2 -0.004867 0.037852 -0.015915 0.000000 0.000000 0.000000
# 3 -0.000618 -0.015915 0.013290 0.000000 0.000000 0.000000
# 4 0.000000 0.000000 0.000000 0.026443 0.000000 0.000000
# 5 0.000000 0.000000 0.000000 0.000000 0.017633 0.000000
# 6 0.000000 0.000000 0.000000 0.000000 0.000000 0.025597
#
#
# Mechanical properties :
#
#
# Convention : Reuss Voigt Hill
#
# Bulk Modulus (GPa) = 54.56180 75.77045 65.16612
# Shear Modulus (GPa) = 27.82294 39.57886 33.70090
#
# Velocity S-wave (km/s) = 3.16360 3.77321 3.48177
# Velocity P-wave (km/s) = 5.74205 6.79990 6.29324
#
# Compressibility (1/GPa) = 0.01832784
#
# Stress axis : x y z
#
# Youngs Moduli (GPa) = 100.14654 26.41890 75.24658
#
# Poissons Ratio (x) = 0.12857 0.04648
# Poissons Ratio (y) = 0.48739 1.19755
# Poissons Ratio (z) = 0.06186 0.42046
#
# Static dielectric constant tensor:
#      x y z
#    x 2.323370 0.000000 0.000000 
#    y 0.000000 2.333250 0.000000 
#    z 0.000000 0.000000 2.100110 
# 
# From -- ./inp_files/6935.got.cif
#   From: 2010.05.17/outbox.cif.g08.bks.cpg/sg61_4_cif.got.tgz:6935.got - 2010.06.03 15:17:17.
