data_PCOD9461907
_publ_section_title
;
Structure prediction by ZEFSAII (Michael W. Deem and Ramdas Pophale) SiO2 
 PCOD9461907
Probable space group: P N M A
;
_chemical_formula_sum "Si O2"
_cell_formula_units_Z 64
_cell_length_a 17.408646
_cell_length_b 7.537357
_cell_length_c 21.277620
_cell_angle_alpha 90.000000
_cell_angle_beta 90.000000
_cell_angle_gamma 90.000000
_cell_volume 2791.946734
_symmetry_space_group_name_H-M "P N M A"
_symmetry_group_IT_number 62
_symmetry_cell_setting 'orthorhombic'
loop_
_space_group_symop_operation_xyz
x,y,z
1/2-x,-y,1/2+z
1/2+x,1/2-y,1/2-z
-x,1/2+y,-z
-x,-y,-z
1/2+x,y,1/2-z
1/2-x,1/2+y,1/2+z
x,1/2-y,z
loop_
_atom_site_type_symbol
_atom_site_label
_atom_site_fract_x
_atom_site_fract_y
_atom_site_fract_z
Si Si1 0.674508 0.047121 0.268591
Si Si2 0.611570 0.548961 0.136526
Si Si3 0.272253 0.531957 0.396447
Si Si4 0.053187 0.460248 0.666167
Si Si5 0.548753 0.958108 0.369672
Si Si6 0.158995 0.463668 0.026317
Si Si7 0.784311 0.036127 0.372237
Si Si8 0.396114 0.534166 0.303160
O O1 0.688458 0.250000 0.249680
O O2 0.747953 0.971537 0.306006
O O3 0.642453 0.947138 0.208396
O O4 0.608574 0.047957 0.322131
O O5 0.602299 0.750000 0.112423
O O6 0.684349 0.469094 0.100276
O O7 0.527067 0.465351 0.140247
O O8 0.269891 0.750000 0.395924
O O9 0.321903 0.476428 0.456421
O O10 0.315771 0.475510 0.332999
O O11 0.039631 0.250000 0.674973
O O12 0.127366 0.484548 0.622788
O O13 0.077908 0.531793 0.734764
O O14 0.553243 0.750000 0.355225
O O15 0.463251 0.014799 0.352372
O O16 0.580035 0.984025 0.439842
O O17 0.160021 0.250000 0.025554
O O18 0.228248 0.524528 0.072252
O O19 0.779900 0.250000 0.370409
O O20 0.392848 0.750000 0.299971
#
# Coordination Sequence:
#
# PCOD9461907 Si02
#       8
#     8   8   8   8   8   8   8   8
#     4  10  19  32  51  76 106 138 170 207 260 319
#     4  10  19  33  54  78 103 135 174 215 262 312
#     4   9  18  33  54  74 100 142 179 212 259 311
#     4  10  19  32  51  79 107 129 167 217 260 312
#     4  10  18  31  52  77 106 136 168 214 258 303
#     4   9  19  36  53  73 102 137 183 220 250 309
#     4   9  19  33  49  71  99 133 173 213 255 304
#     4   9  17  30  49  78 108 130 164 212 258 308
#
# _framework density 22.923075000000001
#
# number of rings (size 3 to 8) (size 9 to 14) (size 15 to 20)
#    0.000    2.500    1.250    2.250    0.000    4.500 
#    0.000    1.250    0.000    2.250    0.000    0.000 
#    0.000    0.000    0.000    0.000    0.000    0.000 
#
# Total GULP energy -357357.309356 kJ/mol
# GULP energy per Si atom -5583.707959 kJ/mol
# Density = 2.287090 g / cm^3
# Si number density = 22.923075 Si / 1000 Ang^3
#
#
#
# Elastic Constant Matrix: (Units=GPa)
#
#
# Indices 1 2 3 4 5 6 
#
# 1 114.1885 2.5528 -11.1389 0.0000 0.0000 0.0000
# 2 2.5528 64.8305 -0.1426 0.0000 0.0000 0.0000
# 3 -11.1389 -0.1426 35.9329 0.0000 0.0000 0.0000
# 4 0.0000 0.0000 0.0000 9.4772 0.0000 0.0000
# 5 0.0000 0.0000 0.0000 0.0000 24.6572 0.0000
# 6 0.0000 0.0000 0.0000 0.0000 0.0000 5.6419
#
#
#
# Elastic Compliance Matrix: (Units=1/GPa)
#
#
# Indices 1 2 3 4 5 6 
#
# 1 0.009038 -0.000350 0.002800 0.000000 0.000000 0.000000
# 2 -0.000350 0.015438 -0.000047 0.000000 0.000000 0.000000
# 3 0.002800 -0.000047 0.028698 0.000000 0.000000 0.000000
# 4 0.000000 0.000000 0.000000 0.105516 0.000000 0.000000
# 5 0.000000 0.000000 0.000000 0.000000 0.040556 0.000000
# 6 0.000000 0.000000 0.000000 0.000000 0.000000 0.177245
#
#
# Mechanical properties :
#
#
# Convention : Reuss Voigt Hill
#
# Bulk Modulus (GPa) = 17.24684 21.94385 19.59534
# Shear Modulus (GPa) = 12.78735 22.86731 17.82733
#
# Velocity S-wave (km/s) = 2.36442 3.16186 2.79176
# Velocity P-wave (km/s) = 3.87222 4.78784 4.35416
#
# Compressibility (1/GPa) = 0.05798164
#
# Stress axis : x y z
#
# Youngs Moduli (GPa) = 110.63851 64.77313 34.84612
#
# Poissons Ratio (x) = 0.02265 -0.09758
# Poissons Ratio (y) = 0.03869 0.00164
# Poissons Ratio (z) = -0.30984 0.00306
#
# Static dielectric constant tensor:
#      x y z
#    x 1.877310 0.000000 0.000000 
#    y 0.000000 1.863750 0.000000 
#    z 0.000000 0.000000 1.837480 
# 
# From -- ./inp_files/29730.got.cif
#   From: 2010.05.17/outbox.cif.g08.bks.cpg/sg62_15_cif.got.tgz:29730.got - 2010.06.03 15:25:27.
