data_PCOD9461203
_publ_section_title
;
Structure prediction by ZEFSAII (Michael W. Deem and Ramdas Pophale) SiO2 
 PCOD9461203
Probable space group: P B C A
;
_chemical_formula_sum "Si O2"
_cell_formula_units_Z 32
_cell_length_a 17.397434
_cell_length_b 8.348571
_cell_length_c 9.342258
_cell_angle_alpha 90.000000
_cell_angle_beta 90.000000
_cell_angle_gamma 90.000000
_cell_volume 1356.904239
_symmetry_space_group_name_H-M "P B C A"
_symmetry_group_IT_number 61
_symmetry_cell_setting 'orthorhombic'
loop_
_space_group_symop_operation_xyz
x,y,z
1/2-x,-y,1/2+z
1/2+x,1/2-y,-z
-x,1/2+y,1/2-z
-x,-y,-z
1/2+x,y,1/2-z
1/2-x,1/2+y,z
x,1/2-y,1/2+z
loop_
_atom_site_type_symbol
_atom_site_label
_atom_site_fract_x
_atom_site_fract_y
_atom_site_fract_z
Si Si1 0.825829 0.090072 0.677485
Si Si2 0.789882 0.401777 0.499726
Si Si3 0.565455 0.066082 0.605335
Si Si4 0.018184 0.070150 0.345903
O O1 0.822736 0.243197 0.574511
O O2 0.782962 0.116422 0.828993
O O3 0.786656 0.950742 0.583436
O O4 0.911912 0.036632 0.713893
O O5 0.851763 0.541328 0.534744
O O6 0.545961 0.248077 0.644213
O O7 0.500000 0.000000 0.500000
O O8 0.555624 0.957746 0.746781
O O9 0.000000 0.000000 0.500000
#
# Coordination Sequence:
#
# PCOD9461203 Si02
#       4
#     8   8   8   8
#     4  12  27  48  73 108 143 196 242 303 366 441
#     4  12  27  47  75 103 150 189 248 298 371 437
#     4  12  25  48  70 107 144 190 242 299 360 434
#     4  12  27  44  76 105 147 191 244 298 363 432
#
# _framework density 23.583093000000002
#
# number of rings (size 3 to 8) (size 9 to 14) (size 15 to 20)
#    0.000    0.000    2.500    7.500    7.000    0.000 
#    0.000    0.000    0.000    0.000    0.000    0.000 
#    0.000    0.000    0.000    0.000    0.000    0.000 
#
# Total GULP energy -179369.408217 kJ/mol
# GULP energy per Si atom -5605.294007 kJ/mol
# Density = 2.352942 g / cm^3
# Si number density = 23.583093 Si / 1000 Ang^3
#
#
#
# Elastic Constant Matrix: (Units=GPa)
#
#
# Indices 1 2 3 4 5 6 
#
# 1 40.5800 -17.6814 -6.1325 0.0000 0.0000 0.0000
# 2 -17.6814 130.0173 3.7716 0.0000 0.0000 0.0000
# 3 -6.1325 3.7716 152.8750 0.0000 0.0000 0.0000
# 4 0.0000 0.0000 0.0000 28.0091 0.0000 0.0000
# 5 0.0000 0.0000 0.0000 0.0000 41.4592 0.0000
# 6 0.0000 0.0000 0.0000 0.0000 0.0000 36.0898
#
#
#
# Elastic Compliance Matrix: (Units=1/GPa)
#
#
# Indices 1 2 3 4 5 6 
#
# 1 0.026337 0.003554 0.000969 0.000000 0.000000 0.000000
# 2 0.003554 0.008176 -0.000059 0.000000 0.000000 0.000000
# 3 0.000969 -0.000059 0.006582 0.000000 0.000000 0.000000
# 4 0.000000 0.000000 0.000000 0.035703 0.000000 0.000000
# 5 0.000000 0.000000 0.000000 0.000000 0.024120 0.000000
# 6 0.000000 0.000000 0.000000 0.000000 0.000000 0.027709
#
#
# Mechanical properties :
#
#
# Convention : Reuss Voigt Hill
#
# Bulk Modulus (GPa) = 19.99125 31.48752 25.73939
# Shear Modulus (GPa) = 36.66381 44.01259 40.33820
#
# Velocity S-wave (km/s) = 3.94720 4.32473 4.14027
# Velocity P-wave (km/s) = 5.41010 6.19019 5.81325
#
# Compressibility (1/GPa) = 0.05002189
#
# Stress axis : x y z
#
# Youngs Moduli (GPa) = 37.96873 122.30531 151.93836
#
# Poissons Ratio (x) = -0.43462 -0.14721
# Poissons Ratio (y) = -0.13493 0.00899
# Poissons Ratio (z) = -0.03679 0.00724
#
# Static dielectric constant tensor:
#      x y z
#    x 1.879900 0.000000 0.000000 
#    y 0.000000 1.561190 0.000000 
#    z 0.000000 0.000000 1.871520 
# 
# From -- ./inp_files/1653.got.cif
#   From: 2010.05.17/outbox.cif.g08.bks.cpg/sg61_1_cif.got.tgz:1653.got - 2010.06.03 15:17:17.
