data_PCOD9461547
_publ_section_title
;
Structure prediction by ZEFSAII (Michael W. Deem and Ramdas Pophale) SiO2 
 PCOD9461547
Probable space group: P N M A
;
_chemical_formula_sum "Si O2"
_cell_formula_units_Z 64
_cell_length_a 29.353686
_cell_length_b 7.493634
_cell_length_c 14.391874
_cell_angle_alpha 90.000000
_cell_angle_beta 90.000000
_cell_angle_gamma 90.000000
_cell_volume 3165.719782
_symmetry_space_group_name_H-M "P N M A"
_symmetry_group_IT_number 62
_symmetry_cell_setting 'orthorhombic'
loop_
_space_group_symop_operation_xyz
x,y,z
1/2-x,-y,1/2+z
1/2+x,1/2-y,1/2-z
-x,1/2+y,-z
-x,-y,-z
1/2+x,y,1/2-z
1/2-x,1/2+y,1/2+z
x,1/2-y,z
loop_
_atom_site_type_symbol
_atom_site_label
_atom_site_fract_x
_atom_site_fract_y
_atom_site_fract_z
Si Si1 0.057858 0.032593 0.081842
Si Si2 0.347578 0.968006 0.672307
Si Si3 0.346082 0.949013 0.071404
Si Si4 0.224860 0.545376 0.837817
Si Si5 0.539597 0.957417 0.631901
Si Si6 0.129417 0.959162 0.778014
Si Si7 0.748144 0.045438 0.380044
Si Si8 0.178046 0.469953 0.380347
O O1 0.057057 0.250000 0.079874
O O2 0.104693 0.975706 0.129308
O O3 0.011827 0.969549 0.133593
O O4 0.054431 0.969596 0.975782
O O5 0.345932 0.750000 0.671243
O O6 0.303121 0.026069 0.613431
O O7 0.341310 0.022236 0.779782
O O8 0.365081 0.750000 0.070967
O O9 0.363077 0.033629 0.167059
O O10 0.291062 0.943157 0.080148
O O11 0.351457 0.029672 0.968876
O O12 0.220273 0.750000 0.870937
O O13 0.174328 0.463912 0.830057
O O14 0.241629 0.551989 0.730635
O O15 0.269216 0.466516 0.887322
O O16 0.535540 0.750000 0.659510
O O17 0.581114 0.036944 0.690925
O O18 0.129114 0.750000 0.803264
O O19 0.749794 0.250000 0.413241
O O20 0.178955 0.250000 0.381873
#
# Coordination Sequence:
#
# PCOD9461547 Si02
#       8
#     8   8   8   8   8   8   8   8
#     4   9  17  30  49  71  90 110 143 187 228 266
#     4   8  14  27  47  66  86 116 150 179 212 262
#     4  10  18  26  41  66  91 114 145 186 221 248
#     4   7  11  22  39  55  73 104 143 172 196 239
#     4   9  18  31  47  68  91 115 144 180 227 276
#     4   9  17  30  46  61  84 121 154 176 211 268
#     4   8  14  26  42  58  81 115 147 172 207 257
#     4   8  14  24  39  61  86 112 144 178 210 248
#
# _framework density 20.216570000000001
#
# number of rings (size 3 to 8) (size 9 to 14) (size 15 to 20)
#    0.000    3.500    0.000    2.625    0.000    1.500 
#    0.000    1.875    0.000   17.250    0.000    0.000 
#    0.000    0.000    0.000    0.000    0.000    0.125 
#
# Total GULP energy -356325.362195 kJ/mol
# GULP energy per Si atom -5567.583784 kJ/mol
# Density = 2.017056 g / cm^3
# Si number density = 20.216570 Si / 1000 Ang^3
#
#
#
# Elastic Constant Matrix: (Units=GPa)
#
#
# Indices 1 2 3 4 5 6 
#
# 1 113.7406 1.2322 10.8208 0.0000 0.0000 0.0000
# 2 1.2322 53.6617 -7.0960 0.0000 0.0000 0.0000
# 3 10.8208 -7.0960 29.1146 0.0000 0.0000 0.0000
# 4 0.0000 0.0000 0.0000 11.6750 0.0000 0.0000
# 5 0.0000 0.0000 0.0000 0.0000 28.1383 0.0000
# 6 0.0000 0.0000 0.0000 0.0000 0.0000 5.0348
#
#
#
# Elastic Compliance Matrix: (Units=1/GPa)
#
#
# Indices 1 2 3 4 5 6 
#
# 1 0.009138 -0.000681 -0.003562 0.000000 0.000000 0.000000
# 2 -0.000681 0.019307 0.004959 0.000000 0.000000 0.000000
# 3 -0.003562 0.004959 0.036880 0.000000 0.000000 0.000000
# 4 0.000000 0.000000 0.000000 0.085653 0.000000 0.000000
# 5 0.000000 0.000000 0.000000 0.000000 0.035539 0.000000
# 6 0.000000 0.000000 0.000000 0.000000 0.000000 0.198616
#
#
# Mechanical properties :
#
#
# Convention : Reuss Voigt Hill
#
# Bulk Modulus (GPa) = 14.98013 22.93678 18.95845
# Shear Modulus (GPa) = 12.31671 21.74028 17.02850
#
# Velocity S-wave (km/s) = 2.47095 3.28284 2.90540
# Velocity P-wave (km/s) = 3.94547 5.07342 4.54457
#
# Compressibility (1/GPa) = 0.06675511
#
# Stress axis : x y z
#
# Youngs Moduli (GPa) = 109.43056 51.79574 27.11533
#
# Poissons Ratio (x) = 0.03527 0.09659
# Poissons Ratio (y) = 0.07451 -0.13445
# Poissons Ratio (z) = 0.38982 -0.25683
#
# Static dielectric constant tensor:
#      x y z
#    x 1.741410 0.000000 0.000000 
#    y 0.000000 2.039970 0.000000 
#    z 0.000000 0.000000 1.728420 
# 
# From -- ./inp_files/21265.got.cif
#   From: 2010.05.17/outbox.cif.g08.bks.cpg/sg62_11_cif.got.tgz:21265.got - 2010.06.03 15:25:27.
