data_PCOD9461239
_publ_section_title
;
Structure prediction by ZEFSAII (Michael W. Deem and Ramdas Pophale) SiO2 
 PCOD9461239
Probable space group: P B C A
;
_chemical_formula_sum "Si O2"
_cell_formula_units_Z 48
_cell_length_a 14.861365
_cell_length_b 7.635026
_cell_length_c 19.124532
_cell_angle_alpha 90.000000
_cell_angle_beta 90.000000
_cell_angle_gamma 90.000000
_cell_volume 2170.001516
_symmetry_space_group_name_H-M "P B C A"
_symmetry_group_IT_number 61
_symmetry_cell_setting 'orthorhombic'
loop_
_space_group_symop_operation_xyz
x,y,z
1/2-x,-y,1/2+z
1/2+x,1/2-y,-z
-x,1/2+y,1/2-z
-x,-y,-z
1/2+x,y,1/2-z
1/2-x,1/2+y,z
x,1/2-y,1/2+z
loop_
_atom_site_type_symbol
_atom_site_label
_atom_site_fract_x
_atom_site_fract_y
_atom_site_fract_z
Si Si1 0.365128 0.431266 0.956411
Si Si2 0.023706 0.219644 0.463717
Si Si3 0.104407 0.135227 0.600743
Si Si4 0.449101 0.341012 0.822038
Si Si5 0.281571 0.505362 0.092604
Si Si6 0.564190 0.700263 0.829913
O O1 0.402352 0.628396 0.950549
O O2 0.367596 0.353416 0.878440
O O3 0.442164 0.320904 0.997133
O O4 0.283665 0.440821 0.011178
O O5 0.067970 0.097461 0.522465
O O6 0.986434 0.175521 0.386886
O O7 0.167439 0.310172 0.595067
O O8 0.180578 0.996414 0.621144
O O9 0.022655 0.201575 0.648696
O O10 0.499339 0.529019 0.821317
O O11 0.422372 0.287703 0.744629
O O12 0.345532 0.379664 0.137478
#
# Coordination Sequence:
#
# PCOD9461239 Si02
#       6
#     8   8   8   8   8   8
#     4   7  12  26  46  63  81 111 148 179 211 257
#     4   7  12  26  46  63  81 111 148 179 211 257
#     4   9  17  30  48  68  89 116 151 189 228 268
#     4   9  17  30  48  68  91 120 152 185 224 271
#     4   9  17  30  48  68  89 116 151 189 228 268
#     4   9  17  30  48  68  91 120 152 185 224 271
#
# _framework density 22.119800999999999
#
# number of rings (size 3 to 8) (size 9 to 14) (size 15 to 20)
#    0.000    3.667    0.000    4.000    0.000    1.333 
#    0.000    3.333    0.000   14.000    0.000    0.000 
#    0.000    0.000    0.000    0.000    0.000    0.000 
#
# Total GULP energy -267688.229762 kJ/mol
# GULP energy per Si atom -5576.838120 kJ/mol
# Density = 2.206946 g / cm^3
# Si number density = 22.119801 Si / 1000 Ang^3
#
#
#
# Elastic Constant Matrix: (Units=GPa)
#
#
# Indices 1 2 3 4 5 6 
#
# 1 45.1089 1.3242 18.3024 0.0000 0.0000 0.0000
# 2 1.3242 58.6695 19.6039 0.0000 0.0000 0.0000
# 3 18.3024 19.6039 167.9816 0.0000 0.0000 0.0000
# 4 0.0000 0.0000 0.0000 38.2514 0.0000 0.0000
# 5 0.0000 0.0000 0.0000 0.0000 15.8101 0.0000
# 6 0.0000 0.0000 0.0000 0.0000 0.0000 28.4790
#
#
#
# Elastic Compliance Matrix: (Units=1/GPa)
#
#
# Indices 1 2 3 4 5 6 
#
# 1 0.023200 0.000334 -0.002567 0.000000 0.000000 0.000000
# 2 0.000334 0.017741 -0.002107 0.000000 0.000000 0.000000
# 3 -0.002567 -0.002107 0.006479 0.000000 0.000000 0.000000
# 4 0.000000 0.000000 0.000000 0.026143 0.000000 0.000000
# 5 0.000000 0.000000 0.000000 0.000000 0.063251 0.000000
# 6 0.000000 0.000000 0.000000 0.000000 0.000000 0.035114
#
#
# Mechanical properties :
#
#
# Convention : Reuss Voigt Hill
#
# Bulk Modulus (GPa) = 25.81263 38.91343 32.36303
# Shear Modulus (GPa) = 25.83719 32.01008 28.92363
#
# Velocity S-wave (km/s) = 3.42139 3.80823 3.61998
# Velocity P-wave (km/s) = 5.22520 6.08006 5.66877
#
# Compressibility (1/GPa) = 0.03874072
#
# Stress axis : x y z
#
# Youngs Moduli (GPa) = 43.10307 56.36637 154.35519
#
# Poissons Ratio (x) = -0.01883 0.39619
# Poissons Ratio (y) = -0.01440 0.32520
# Poissons Ratio (z) = 0.11063 0.11875
#
# Static dielectric constant tensor:
#      x y z
#    x 1.807690 0.000000 0.000000 
#    y 0.000000 1.961740 0.000000 
#    z 0.000000 0.000000 1.808250 
# 
# From -- ./inp_files/3505.got.cif
#   From: 2010.05.17/outbox.cif.g08.bks.cpg/sg61_2_cif.got.tgz:3505.got - 2010.06.03 15:17:17.
