data_PCOD9461077
_publ_section_title
;
Structure prediction by ZEFSAII (Michael W. Deem and Ramdas Pophale) SiO2 
 PCOD9461077
Probable space group: P B C A
;
_chemical_formula_sum "Si O2"
_cell_formula_units_Z 32
_cell_length_a 5.963874
_cell_length_b 18.641407
_cell_length_c 10.213147
_cell_angle_alpha 90.000000
_cell_angle_beta 90.000000
_cell_angle_gamma 90.000000
_cell_volume 1135.446644
_symmetry_space_group_name_H-M "P B C A"
_symmetry_group_IT_number 61
_symmetry_cell_setting 'orthorhombic'
loop_
_space_group_symop_operation_xyz
x,y,z
1/2-x,-y,1/2+z
1/2+x,1/2-y,-z
-x,1/2+y,1/2-z
-x,-y,-z
1/2+x,y,1/2-z
1/2-x,1/2+y,z
x,1/2-y,1/2+z
loop_
_atom_site_type_symbol
_atom_site_label
_atom_site_fract_x
_atom_site_fract_y
_atom_site_fract_z
Si Si1 0.568927 0.423278 0.839303
Si Si2 0.487162 0.703272 0.812407
Si Si3 0.951258 0.345585 0.934872
Si Si4 0.706771 0.568732 0.914383
O O1 0.693307 0.364478 0.928022
O O2 0.523481 0.381448 0.705407
O O3 0.723725 0.494680 0.836172
O O4 0.369880 0.447865 0.935766
O O5 0.231210 0.717746 0.761228
O O6 0.502833 0.762055 0.928306
O O7 0.528823 0.620029 0.844494
O O8 0.072306 0.384649 0.054938
#
# Coordination Sequence:
#
# PCOD9461077 Si02
#       4
#     8   8   8   8
#     4  11  24  47  71 108 146 198 252 315 382 444
#     4  12  29  49  75 114 154 200 251 312 376 451
#     4  12  24  47  74 103 156 198 244 322 380 448
#     4  11  28  43  79 106 145 201 259 305 379 459
#
# _framework density 28.182744
#
# number of rings (size 3 to 8) (size 9 to 14) (size 15 to 20)
#    0.000    0.500    5.000    0.750   10.500    0.000 
#    0.000    0.000    0.000    0.000    0.000    0.000 
#    0.000    0.000    0.000    0.000    0.000    0.000 
#
# Total GULP energy -178741.279093 kJ/mol
# GULP energy per Si atom -5585.664972 kJ/mol
# Density = 2.811860 g / cm^3
# Si number density = 28.182744 Si / 1000 Ang^3
#
#
#
# Elastic Constant Matrix: (Units=GPa)
#
#
# Indices 1 2 3 4 5 6 
#
# 1 103.7829 12.1903 44.4436 0.0000 0.0000 0.0000
# 2 12.1903 194.0546 30.5769 0.0000 0.0000 0.0000
# 3 44.4436 30.5769 114.4406 0.0000 0.0000 0.0000
# 4 0.0000 0.0000 0.0000 55.9850 0.0000 0.0000
# 5 0.0000 0.0000 0.0000 0.0000 60.4533 0.0000
# 6 0.0000 0.0000 0.0000 0.0000 0.0000 39.7228
#
#
#
# Elastic Compliance Matrix: (Units=1/GPa)
#
#
# Indices 1 2 3 4 5 6 
#
# 1 0.011558 -0.000020 -0.004483 0.000000 0.000000 0.000000
# 2 -0.000020 0.005380 -0.001430 0.000000 0.000000 0.000000
# 3 -0.004483 -0.001430 0.010861 0.000000 0.000000 0.000000
# 4 0.000000 0.000000 0.000000 0.017862 0.000000 0.000000
# 5 0.000000 0.000000 0.000000 0.000000 0.016542 0.000000
# 6 0.000000 0.000000 0.000000 0.000000 0.000000 0.025174
#
#
# Mechanical properties :
#
#
# Convention : Reuss Voigt Hill
#
# Bulk Modulus (GPa) = 62.76125 65.18886 63.97506
# Shear Modulus (GPa) = 47.82256 52.90336 50.36296
#
# Velocity S-wave (km/s) = 4.12378 4.33731 4.23189
# Velocity P-wave (km/s) = 6.70760 6.94723 6.82847
#
# Compressibility (1/GPa) = 0.01593340
#
# Stress axis : x y z
#
# Youngs Moduli (GPa) = 86.52244 185.88368 92.07028
#
# Poissons Ratio (x) = 0.00365 0.41277
# Poissons Ratio (y) = 0.00170 0.13164
# Poissons Ratio (z) = 0.38790 0.26577
#
# Static dielectric constant tensor:
#      x y z
#    x 2.421770 0.000000 0.000000 
#    y 0.000000 2.075570 0.000000 
#    z 0.000000 0.000000 2.254640 
# 
# From -- ./inp_files/667.got.cif
#   From: 2010.05.17/outbox.cif.g08.bks.cpg/sg61_1_cif.got.tgz:667.got - 2010.06.03 15:17:17.
