data_PCOD9461939
_publ_section_title
;
Structure prediction by ZEFSAII (Michael W. Deem and Ramdas Pophale) SiO2 
 PCOD9461939
Probable space group: P N M A
;
_chemical_formula_sum "Si O2"
_cell_formula_units_Z 56
_cell_length_a 19.764528
_cell_length_b 8.835076
_cell_length_c 16.442108
_cell_angle_alpha 90.000000
_cell_angle_beta 90.000000
_cell_angle_gamma 90.000000
_cell_volume 2871.139100
_symmetry_space_group_name_H-M "P N M A"
_symmetry_group_IT_number 62
_symmetry_cell_setting 'orthorhombic'
loop_
_space_group_symop_operation_xyz
x,y,z
1/2-x,-y,1/2+z
1/2+x,1/2-y,1/2-z
-x,1/2+y,-z
-x,-y,-z
1/2+x,y,1/2-z
1/2-x,1/2+y,1/2+z
x,1/2-y,z
loop_
_atom_site_type_symbol
_atom_site_label
_atom_site_fract_x
_atom_site_fract_y
_atom_site_fract_z
Si Si1 0.462988 0.079264 0.629776
Si Si2 0.741180 0.428611 0.319862
Si Si3 0.392174 0.569785 0.780404
Si Si4 0.615073 0.070291 0.790937
Si Si5 0.489881 0.431307 0.910248
Si Si6 0.324824 0.422444 0.531328
Si Si7 0.403112 0.070416 0.384204
O O1 0.474278 0.250000 0.660573
O O2 0.400188 0.083758 0.569018
O O3 0.441339 0.976384 0.705849
O O4 0.530032 0.017349 0.588633
O O5 0.753721 0.250000 0.308712
O O6 0.682714 0.474726 0.254069
O O7 0.809545 0.523131 0.315347
O O8 0.713062 0.463308 0.409947
O O9 0.391750 0.750000 0.791127
O O10 0.424588 0.494085 0.860516
O O11 0.611682 0.250000 0.776493
O O12 0.556857 0.032388 0.856394
O O13 0.603656 0.979109 0.708300
O O14 0.484367 0.250000 0.915881
O O15 0.500000 0.500000 0.000000
O O16 0.296934 0.250000 0.535822
O O17 0.337596 0.468396 0.438439
O O18 0.412489 0.250000 0.391643
#
# Coordination Sequence:
#
# PCOD9461939 Si02
#       7
#     8   8   8   8   8   8   8
#     4  10  18  31  54  84 119 154 190 234 287 346
#     4  10  22  40  63  90 120 160 205 251 309 369
#     4  10  20  37  62  90 120 156 200 249 302 365
#     4  11  24  42  63  88 121 161 203 253 311 366
#     4  11  24  42  66  94 122 159 208 261 315 372
#     4   9  20  36  55  83 119 158 196 239 292 353
#     4  11  21  34  56  86 119 156 196 239 294 353
#
# _framework density 19.504453999999999
#
# number of rings (size 3 to 8) (size 9 to 14) (size 15 to 20)
#    0.000    1.714    1.429    3.000    0.000    5.143 
#    2.571    0.000    0.000    0.000    0.000    0.000 
#    0.000    0.000    0.000    0.000    0.000    0.000 
#
# Total GULP energy -312479.114028 kJ/mol
# GULP energy per Si atom -5579.984179 kJ/mol
# Density = 1.946006 g / cm^3
# Si number density = 19.504454 Si / 1000 Ang^3
#
#
#
# Elastic Constant Matrix: (Units=GPa)
#
#
# Indices 1 2 3 4 5 6 
#
# 1 69.9467 21.8727 16.5425 0.0000 0.0000 0.0000
# 2 21.8727 48.7613 24.7980 0.0000 0.0000 0.0000
# 3 16.5425 24.7980 101.8079 0.0000 0.0000 0.0000
# 4 0.0000 0.0000 0.0000 31.0219 0.0000 0.0000
# 5 0.0000 0.0000 0.0000 0.0000 8.8846 0.0000
# 6 0.0000 0.0000 0.0000 0.0000 0.0000 30.6231
#
#
#
# Elastic Compliance Matrix: (Units=1/GPa)
#
#
# Indices 1 2 3 4 5 6 
#
# 1 0.016721 -0.006984 -0.001016 0.000000 0.000000 0.000000
# 2 -0.006984 0.026325 -0.005277 0.000000 0.000000 0.000000
# 3 -0.001016 -0.005277 0.011273 0.000000 0.000000 0.000000
# 4 0.000000 0.000000 0.000000 0.032235 0.000000 0.000000
# 5 0.000000 0.000000 0.000000 0.000000 0.112554 0.000000
# 6 0.000000 0.000000 0.000000 0.000000 0.000000 0.032655
#
#
# Mechanical properties :
#
#
# Convention : Reuss Voigt Hill
#
# Bulk Modulus (GPa) = 36.01726 38.54914 37.28320
# Shear Modulus (GPa) = 18.68663 24.59278 21.63971
#
# Velocity S-wave (km/s) = 3.09863 3.55474 3.33449
# Velocity P-wave (km/s) = 5.59538 6.05437 5.82939
#
# Compressibility (1/GPa) = 0.02776447
#
# Stress axis : x y z
#
# Youngs Moduli (GPa) = 59.80607 37.98741 88.70840
#
# Poissons Ratio (x) = 0.26529 0.09011
# Poissons Ratio (y) = 0.41767 0.46814
# Poissons Ratio (z) = 0.06075 0.20047
#
# Static dielectric constant tensor:
#      x y z
#    x 1.719180 0.000000 0.000000 
#    y 0.000000 1.654100 0.000000 
#    z 0.000000 0.000000 1.734440 
# 
# From -- ./inp_files/20365.got.cif
#   From: 2010.05.17/outbox.cif.g08.bks.cpg/sg62_11_cif.got.tgz:20365.got - 2010.06.03 15:25:27.
