data_PCOD9461236
_publ_section_title
;
Structure prediction by ZEFSAII (Michael W. Deem and Ramdas Pophale) SiO2 
 PCOD9461236
Probable space group: P B C A
;
_chemical_formula_sum "Si O2"
_cell_formula_units_Z 36
_cell_length_a 13.187593
_cell_length_b 7.739717
_cell_length_c 13.302042
_cell_angle_alpha 90.000000
_cell_angle_beta 90.000000
_cell_angle_gamma 90.000000
_cell_volume 1357.715985
_symmetry_space_group_name_H-M "P B C A"
_symmetry_group_IT_number 61
_symmetry_cell_setting 'orthorhombic'
loop_
_space_group_symop_operation_xyz
x,y,z
1/2-x,-y,1/2+z
1/2+x,1/2-y,-z
-x,1/2+y,1/2-z
-x,-y,-z
1/2+x,y,1/2-z
1/2-x,1/2+y,z
x,1/2-y,1/2+z
loop_
_atom_site_type_symbol
_atom_site_label
_atom_site_fract_x
_atom_site_fract_y
_atom_site_fract_z
Si Si1 0.316940 0.271072 0.504784
Si Si2 0.529332 0.263856 0.800923
Si Si3 0.500000 0.000000 0.500000
Si Si4 0.170598 0.424060 0.867856
Si Si5 0.344469 0.079630 0.212427
O O1 0.366702 0.422999 0.438772
O O2 0.292287 0.345306 0.613964
O O3 0.395955 0.116099 0.512016
O O4 0.216664 0.213858 0.446129
O O5 0.589839 0.340219 0.705069
O O6 0.414142 0.269622 0.759569
O O7 0.583120 0.080127 0.816662
O O8 0.528678 0.388258 0.896675
O O9 0.264237 0.477311 0.796024
#
# Coordination Sequence:
#
# PCOD9461236 Si02
#       5
#     8   8   4   8   8
#     4  12  30  51  87 121 168 227 290 349 435 510
#     4  12  28  52  85 121 174 223 284 356 443 507
#     4  12  28  52  86 122 164 224 288 352 428 522
#     4  12  29  55  80 128 171 229 285 356 430 520
#     4  12  29  52  84 124 173 226 284 362 425 527
#
# _framework density 26.515117
#
# number of rings (size 3 to 8) (size 9 to 14) (size 15 to 20)
#    0.000    0.000    4.444    2.667    9.333    5.333 
#    0.000    0.000    0.000    0.000    0.000    0.000 
#    0.000    0.000    0.000    0.000    0.000    0.000 
#
# Total GULP energy -201221.690917 kJ/mol
# GULP energy per Si atom -5589.491414 kJ/mol
# Density = 2.645477 g / cm^3
# Si number density = 26.515117 Si / 1000 Ang^3
#
#
#
# Elastic Constant Matrix: (Units=GPa)
#
#
# Indices 1 2 3 4 5 6 
#
# 1 78.6429 26.4356 36.9475 0.0000 0.0000 0.0000
# 2 26.4356 83.7157 69.0193 0.0000 0.0000 0.0000
# 3 36.9475 69.0193 197.2524 0.0000 0.0000 0.0000
# 4 0.0000 0.0000 0.0000 62.5973 0.0000 0.0000
# 5 0.0000 0.0000 0.0000 0.0000 53.2422 0.0000
# 6 0.0000 0.0000 0.0000 0.0000 0.0000 31.5759
#
#
#
# Elastic Compliance Matrix: (Units=1/GPa)
#
#
# Indices 1 2 3 4 5 6 
#
# 1 0.014565 -0.003303 -0.001572 0.000000 0.000000 0.000000
# 2 -0.003303 0.017537 -0.005518 0.000000 0.000000 0.000000
# 3 -0.001572 -0.005518 0.007295 0.000000 0.000000 0.000000
# 4 0.000000 0.000000 0.000000 0.015975 0.000000 0.000000
# 5 0.000000 0.000000 0.000000 0.000000 0.018782 0.000000
# 6 0.000000 0.000000 0.000000 0.000000 0.000000 0.031670
#
#
# Mechanical properties :
#
#
# Convention : Reuss Voigt Hill
#
# Bulk Modulus (GPa) = 53.73211 69.37954 61.55582
# Shear Modulus (GPa) = 37.64690 44.63034 41.13862
#
# Velocity S-wave (km/s) = 3.77215 4.10714 3.94320
# Velocity P-wave (km/s) = 6.26744 6.97956 6.63307
#
# Compressibility (1/GPa) = 0.01861085
#
# Stress axis : x y z
#
# Youngs Moduli (GPa) = 68.65921 57.02176 137.08325
#
# Poissons Ratio (x) = 0.18833 0.21556
# Poissons Ratio (y) = 0.22677 0.75638
# Poissons Ratio (z) = 0.10796 0.31463
#
# Static dielectric constant tensor:
#      x y z
#    x 2.094980 0.000000 0.000000 
#    y 0.000000 2.102940 0.000000 
#    z 0.000000 0.000000 2.019860 
# 
# From -- ./inp_files/5527.got.cif
#   From: 2010.05.17/outbox.cif.g08.bks.cpg/sg61_3_cif.got.tgz:5527.got - 2010.06.03 15:17:17.
