data_PCOD9461829
_publ_section_title
;
Structure prediction by ZEFSAII (Michael W. Deem and Ramdas Pophale) SiO2 
 PCOD9461829
Probable space group: P N M A
;
_chemical_formula_sum "Si O2"
_cell_formula_units_Z 56
_cell_length_a 21.726321
_cell_length_b 7.547044
_cell_length_c 15.105674
_cell_angle_alpha 90.000000
_cell_angle_beta 90.000000
_cell_angle_gamma 90.000000
_cell_volume 2476.869821
_symmetry_space_group_name_H-M "P N M A"
_symmetry_group_IT_number 62
_symmetry_cell_setting 'orthorhombic'
loop_
_space_group_symop_operation_xyz
x,y,z
1/2-x,-y,1/2+z
1/2+x,1/2-y,1/2-z
-x,1/2+y,-z
-x,-y,-z
1/2+x,y,1/2-z
1/2-x,1/2+y,1/2+z
x,1/2-y,z
loop_
_atom_site_type_symbol
_atom_site_label
_atom_site_fract_x
_atom_site_fract_y
_atom_site_fract_z
Si Si1 0.422854 0.452001 0.897997
Si Si2 0.335621 0.962891 0.389197
Si Si3 0.062767 0.960030 0.591847
Si Si4 0.908253 0.031951 0.794122
Si Si5 0.524835 0.037846 0.598061
Si Si6 0.295620 0.038466 0.583648
Si Si7 0.317358 0.536292 0.197002
O O1 0.399904 0.250000 0.902114
O O2 0.497208 0.453700 0.887451
O O3 0.397627 0.529743 0.806538
O O4 0.413154 0.529245 0.996061
O O5 0.338681 0.750000 0.384742
O O6 0.405935 0.031377 0.393328
O O7 0.306324 0.025081 0.297296
O O8 0.301462 0.004469 0.479908
O O9 0.050935 0.750000 0.582145
O O10 0.114543 0.988596 0.664569
O O11 0.908872 0.250000 0.792314
O O12 0.855567 0.974322 0.862465
O O13 0.974388 0.972853 0.831706
O O14 0.527726 0.250000 0.608745
O O15 0.500000 0.000000 0.500000
O O16 0.295742 0.250000 0.594647
O O17 0.233856 0.968428 0.629146
O O18 0.314469 0.750000 0.196623
#
# Coordination Sequence:
#
# PCOD9461829 Si02
#       7
#     8   8   8   8   8   8   8
#     4   9  18  34  57  81 110 144 178 222 277 335
#     4  10  21  37  57  81 110 146 184 224 278 337
#     4  10  20  34  55  84 111 141 183 231 274 316
#     4   9  17  32  54  79 107 141 180 219 268 330
#     4  10  18  30  52  79 107 139 173 218 273 324
#     4  10  21  37  57  80 106 141 185 229 269 316
#     4  10  22  39  58  78 108 152 191 222 268 334
#
# _framework density 22.609182000000001
#
# number of rings (size 3 to 8) (size 9 to 14) (size 15 to 20)
#    0.000    2.286    1.429    1.286    0.000    5.143 
#    0.000    5.714    0.000    0.000    0.000    0.000 
#    0.000    0.000    0.000    0.000    0.000    0.000 
#
# Total GULP energy -312822.988278 kJ/mol
# GULP energy per Si atom -5586.124791 kJ/mol
# Density = 2.255772 g / cm^3
# Si number density = 22.609182 Si / 1000 Ang^3
#
#
#
# Elastic Constant Matrix: (Units=GPa)
#
#
# Indices 1 2 3 4 5 6 
#
# 1 46.2343 -2.5201 21.1000 0.0000 0.0000 0.0000
# 2 -2.5201 60.5394 -5.5008 0.0000 0.0000 0.0000
# 3 21.1000 -5.5008 147.0503 0.0000 0.0000 0.0000
# 4 0.0000 0.0000 0.0000 18.3441 0.0000 0.0000
# 5 0.0000 0.0000 0.0000 0.0000 22.2301 0.0000
# 6 0.0000 0.0000 0.0000 0.0000 0.0000 5.5340
#
#
#
# Elastic Compliance Matrix: (Units=1/GPa)
#
#
# Indices 1 2 3 4 5 6 
#
# 1 0.023171 0.000665 -0.003300 0.000000 0.000000 0.000000
# 2 0.000665 0.016594 0.000525 0.000000 0.000000 0.000000
# 3 -0.003300 0.000525 0.007294 0.000000 0.000000 0.000000
# 4 0.000000 0.000000 0.000000 0.054513 0.000000 0.000000
# 5 0.000000 0.000000 0.000000 0.000000 0.044984 0.000000
# 6 0.000000 0.000000 0.000000 0.000000 0.000000 0.180701
#
#
# Mechanical properties :
#
#
# Convention : Reuss Voigt Hill
#
# Bulk Modulus (GPa) = 23.34346 31.10915 27.22630
# Shear Modulus (GPa) = 14.46105 25.27130 19.86618
#
# Velocity S-wave (km/s) = 2.53179 3.34690 2.96747
# Velocity P-wave (km/s) = 4.34670 5.35957 4.87949
#
# Compressibility (1/GPa) = 0.04283855
#
# Stress axis : x y z
#
# Youngs Moduli (GPa) = 43.15701 60.26432 137.10751
#
# Poissons Ratio (x) = -0.04006 0.45245
# Poissons Ratio (y) = -0.02869 -0.07203
# Poissons Ratio (z) = 0.14242 -0.03166
#
# Static dielectric constant tensor:
#      x y z
#    x 1.801430 0.000000 0.000000 
#    y 0.000000 1.869550 0.000000 
#    z 0.000000 0.000000 1.843370 
# 
# From -- ./inp_files/20326.got.cif
#   From: 2010.05.17/outbox.cif.g08.bks.cpg/sg62_11_cif.got.tgz:20326.got - 2010.06.03 15:25:27.
