data_PCOD9461231
_publ_section_title
;
Structure prediction by ZEFSAII (Michael W. Deem and Ramdas Pophale) SiO2 
 PCOD9461231
Probable space group: P B C A
;
_chemical_formula_sum "Si O2"
_cell_formula_units_Z 24
_cell_length_a 10.131706
_cell_length_b 9.471805
_cell_length_c 10.405952
_cell_angle_alpha 90.000000
_cell_angle_beta 90.000000
_cell_angle_gamma 90.000000
_cell_volume 998.612840
_symmetry_space_group_name_H-M "P B C A"
_symmetry_group_IT_number 61
_symmetry_cell_setting 'orthorhombic'
loop_
_space_group_symop_operation_xyz
x,y,z
1/2-x,-y,1/2+z
1/2+x,1/2-y,-z
-x,1/2+y,1/2-z
-x,-y,-z
1/2+x,y,1/2-z
1/2-x,1/2+y,z
x,1/2-y,1/2+z
loop_
_atom_site_type_symbol
_atom_site_label
_atom_site_fract_x
_atom_site_fract_y
_atom_site_fract_z
Si Si1 0.904794 0.462376 0.616199
Si Si2 0.443803 0.782629 0.209721
Si Si3 0.124191 0.402458 0.958670
O O1 0.952026 0.562289 0.731127
O O2 0.755802 0.488179 0.573325
O O3 0.000000 0.500000 0.500000
O O4 0.927954 0.299662 0.656811
O O5 0.399575 0.689906 0.331376
O O6 0.353109 0.801778 0.083377
O O7 0.000000 0.500000 0.000000
#
# Coordination Sequence:
#
# PCOD9461231 Si02
#       3
#     8   8   8
#     4  12  30  50  83 118 164 213 276 340 412 490
#     4  12  28  50  82 117 164 213 270 335 414 487
#     4  12  30  50  81 121 163 210 275 336 415 487
#
# _framework density 24.033339000000002
#
# number of rings (size 3 to 8) (size 9 to 14) (size 15 to 20)
#    0.000    0.000    6.667    0.000   14.000    0.000 
#    0.000    0.000    0.000    0.000    0.000    0.000 
#    0.000    0.000    0.000    0.000    0.000    0.000 
#
# Total GULP energy -134169.544776 kJ/mol
# GULP energy per Si atom -5590.397699 kJ/mol
# Density = 2.397864 g / cm^3
# Si number density = 24.033339 Si / 1000 Ang^3
#
#
#
# Elastic Constant Matrix: (Units=GPa)
#
#
# Indices 1 2 3 4 5 6 
#
# 1 91.4417 54.3839 46.4876 0.0000 0.0000 0.0000
# 2 54.3839 121.2732 46.9052 0.0000 0.0000 0.0000
# 3 46.4876 46.9052 206.3776 0.0000 0.0000 0.0000
# 4 0.0000 0.0000 0.0000 64.4812 0.0000 0.0000
# 5 0.0000 0.0000 0.0000 0.0000 4.9376 0.0000
# 6 0.0000 0.0000 0.0000 0.0000 0.0000 33.6632
#
#
#
# Elastic Compliance Matrix: (Units=1/GPa)
#
#
# Indices 1 2 3 4 5 6 
#
# 1 0.015720 -0.006227 -0.002126 0.000000 0.000000 0.000000
# 2 -0.006227 0.011508 -0.001213 0.000000 0.000000 0.000000
# 3 -0.002126 -0.001213 0.005600 0.000000 0.000000 0.000000
# 4 0.000000 0.000000 0.000000 0.015508 0.000000 0.000000
# 5 0.000000 0.000000 0.000000 0.000000 0.202527 0.000000
# 6 0.000000 0.000000 0.000000 0.000000 0.000000 0.029706
#
#
# Mechanical properties :
#
#
# Convention : Reuss Voigt Hill
#
# Bulk Modulus (GPa) = 73.01342 79.40511 76.20927
# Shear Modulus (GPa) = 16.43298 38.70411 27.56855
#
# Velocity S-wave (km/s) = 2.61771 4.01738 3.39055
# Velocity P-wave (km/s) = 6.29147 7.39124 6.86342
#
# Compressibility (1/GPa) = 0.01369611
#
# Stress axis : x y z
#
# Youngs Moduli (GPa) = 63.61189 86.89974 178.57387
#
# Poissons Ratio (x) = 0.54117 0.37960
# Poissons Ratio (y) = 0.39614 0.21655
# Poissons Ratio (z) = 0.13522 0.10538
#
# Static dielectric constant tensor:
#      x y z
#    x 1.816860 0.000000 0.000000 
#    y 0.000000 2.249810 0.000000 
#    z 0.000000 0.000000 1.936350 
# 
# From -- ./inp_files/1918.got.cif
#   From: 2010.05.17/outbox.cif.g08.bks.cpg/sg61_1_cif.got.tgz:1918.got - 2010.06.03 15:17:17.
