data_PCOD9461452
_publ_section_title
;
Structure prediction by ZEFSAII (Michael W. Deem and Ramdas Pophale) SiO2 
 PCOD9461452
Probable space group: P N M A
;
_chemical_formula_sum "Si O2"
_cell_formula_units_Z 64
_cell_length_a 14.187180
_cell_length_b 14.330236
_cell_length_c 17.017082
_cell_angle_alpha 90.000000
_cell_angle_beta 90.000000
_cell_angle_gamma 90.000000
_cell_volume 3459.668706
_symmetry_space_group_name_H-M "P N M A"
_symmetry_group_IT_number 62
_symmetry_cell_setting 'orthorhombic'
loop_
_space_group_symop_operation_xyz
x,y,z
1/2-x,-y,1/2+z
1/2+x,1/2-y,1/2-z
-x,1/2+y,-z
-x,-y,-z
1/2+x,y,1/2-z
1/2-x,1/2+y,1/2+z
x,1/2-y,z
loop_
_atom_site_type_symbol
_atom_site_label
_atom_site_fract_x
_atom_site_fract_y
_atom_site_fract_z
Si Si1 0.567028 0.858937 0.126572
Si Si2 0.572029 0.452888 0.197765
Si Si3 0.292210 0.641619 0.368241
Si Si4 0.994699 0.143152 0.457071
Si Si5 0.294121 0.039298 0.282546
Si Si6 0.535427 0.637547 0.653604
Si Si7 0.885220 0.862879 0.970754
Si Si8 0.701714 0.642614 0.873616
O O1 0.548422 0.750000 0.145804
O O2 0.680471 0.864801 0.109908
O O3 0.549295 0.936512 0.192830
O O4 0.507179 0.884845 0.048473
O O5 0.545705 0.412974 0.111758
O O6 0.683714 0.440181 0.208231
O O7 0.519467 0.402072 0.269558
O O8 0.311036 0.750000 0.350469
O O9 0.308422 0.569917 0.297986
O O10 0.357236 0.609662 0.441240
O O11 0.028695 0.250000 0.453132
O O12 0.884740 0.143350 0.433097
O O13 0.359936 0.096553 0.342049
O O14 0.322247 0.074766 0.197062
O O15 0.536250 0.750000 0.658461
O O16 0.479262 0.608042 0.574865
O O17 0.886478 0.750000 0.973082
O O18 0.797118 0.888008 0.915504
O O19 0.713477 0.750000 0.844637
#
# Coordination Sequence:
#
# PCOD9461452 Si02
#       8
#     8   8   8   8   8   8   8   8
#     4   9  18  33  52  76 104 135 174 213 251 299
#     4  11  21  32  50  78 108 135 168 211 265 307
#     4   9  18  35  56  76  99 135 178 213 245 290
#     4  10  18  30  52  78 105 137 168 208 255 311
#     4  11  22  33  50  80 107 132 167 216 258 299
#     4  11  22  34  51  77 106 136 169 210 261 312
#     4   9  17  32  54  76 101 135 172 208 248 300
#     4  10  17  29  52  79 105 132 167 210 254 302
#
# _framework density 18.498881999999998
#
# number of rings (size 3 to 8) (size 9 to 14) (size 15 to 20)
#    0.000    2.000    3.750    1.125    0.000    2.000 
#    0.000    0.625    0.000    0.000    0.000    3.500 
#    0.000    0.000    0.000    0.000    0.000    0.000 
#
# Total GULP energy -356710.234324 kJ/mol
# GULP energy per Si atom -5573.597411 kJ/mol
# Density = 1.845678 g / cm^3
# Si number density = 18.498882 Si / 1000 Ang^3
#
#
#
# Elastic Constant Matrix: (Units=GPa)
#
#
# Indices 1 2 3 4 5 6 
#
# 1 37.6253 2.3858 -7.3637 0.0000 0.0000 0.0000
# 2 2.3858 73.9591 31.7294 0.0000 0.0000 0.0000
# 3 -7.3637 31.7294 34.5052 0.0000 0.0000 0.0000
# 4 0.0000 0.0000 0.0000 9.2420 0.0000 0.0000
# 5 0.0000 0.0000 0.0000 0.0000 10.9559 0.0000
# 6 0.0000 0.0000 0.0000 0.0000 0.0000 19.6018
#
#
#
# Elastic Compliance Matrix: (Units=1/GPa)
#
#
# Indices 1 2 3 4 5 6 
#
# 1 0.029256 -0.005982 0.011744 0.000000 0.000000 0.000000
# 2 -0.005982 0.023554 -0.022935 0.000000 0.000000 0.000000
# 3 0.011744 -0.022935 0.052578 0.000000 0.000000 0.000000
# 4 0.000000 0.000000 0.000000 0.108202 0.000000 0.000000
# 5 0.000000 0.000000 0.000000 0.000000 0.091275 0.000000
# 6 0.000000 0.000000 0.000000 0.000000 0.000000 0.051016
#
#
# Mechanical properties :
#
#
# Convention : Reuss Voigt Hill
#
# Bulk Modulus (GPa) = 14.07648 22.17696 18.12672
# Shear Modulus (GPa) = 12.08004 15.91583 13.99794
#
# Velocity S-wave (km/s) = 2.55819 2.93638 2.75379
# Velocity P-wave (km/s) = 4.04372 4.84879 4.46444
#
# Compressibility (1/GPa) = 0.07104051
#
# Stress axis : x y z
#
# Youngs Moduli (GPa) = 34.18139 42.45651 19.01945
#
# Poissons Ratio (x) = 0.25398 -0.22337
# Poissons Ratio (y) = 0.20448 0.43622
# Poissons Ratio (z) = -0.40144 0.97376
#
# Static dielectric constant tensor:
#      x y z
#    x 1.649600 0.000000 0.000000 
#    y 0.000000 1.651700 0.000000 
#    z 0.000000 0.000000 1.641070 
# 
# From -- ./inp_files/24038.got.cif
#   From: 2010.05.17/outbox.cif.g08.bks.cpg/sg62_13_cif.got.tgz:24038.got - 2010.06.03 15:25:27.
