data_PCOD9461040
_publ_section_title
;
Structure prediction by ZEFSAII (Michael W. Deem and Ramdas Pophale) SiO2 
 PCOD9461040
Probable space group: P B C A
;
_chemical_formula_sum "Si O2"
_cell_formula_units_Z 48
_cell_length_a 9.739907
_cell_length_b 24.497507
_cell_length_c 7.812628
_cell_angle_alpha 90.000000
_cell_angle_beta 90.000000
_cell_angle_gamma 90.000000
_cell_volume 1864.119916
_symmetry_space_group_name_H-M "P B C A"
_symmetry_group_IT_number 61
_symmetry_cell_setting 'orthorhombic'
loop_
_space_group_symop_operation_xyz
x,y,z
1/2-x,-y,1/2+z
1/2+x,1/2-y,-z
-x,1/2+y,1/2-z
-x,-y,-z
1/2+x,y,1/2-z
1/2-x,1/2+y,z
x,1/2-y,1/2+z
loop_
_atom_site_type_symbol
_atom_site_label
_atom_site_fract_x
_atom_site_fract_y
_atom_site_fract_z
Si Si1 0.081237 0.501430 0.772544
Si Si2 0.100972 0.667155 0.271935
Si Si3 0.979755 0.113607 0.584216
Si Si4 0.666242 0.944714 0.581471
Si Si5 0.227205 0.168342 0.731599
Si Si6 0.151635 0.277086 0.585621
O O1 0.063768 0.550654 0.906406
O O2 0.147594 0.529366 0.604241
O O3 0.183577 0.455935 0.844080
O O4 0.939873 0.476768 0.704358
O O5 0.123681 0.618461 0.406345
O O6 0.245299 0.689139 0.205493
O O7 0.001870 0.714141 0.344340
O O8 0.032967 0.640087 0.102475
O O9 0.873269 0.147317 0.704229
O O10 0.128831 0.120296 0.667644
O O11 0.210891 0.216047 0.591846
O O12 0.161287 0.196963 0.899025
#
# Coordination Sequence:
#
# PCOD9461040 Si02
#       6
#     8   8   8   8   8   8
#     4  11  24  41  62  90 123 159 202 250 300 358
#     4  11  24  41  63  91 122 159 202 248 301 358
#     4  11  24  41  63  91 122 159 202 248 301 358
#     4  11  24  41  62  90 123 159 202 250 300 358
#     4  11  24  41  62  90 122 157 200 247 297 356
#     4  11  24  41  62  90 122 157 200 247 297 356
#
# _framework density 25.749417000000001
#
# number of rings (size 3 to 8) (size 9 to 14) (size 15 to 20)
#    0.000    1.000    0.000    6.000    0.000   18.667 
#    0.000    0.000    0.000    0.000    0.000    0.000 
#    0.000    0.000    0.000    0.000    0.000    0.000 
#
# Total GULP energy -269617.806269 kJ/mol
# GULP energy per Si atom -5617.037631 kJ/mol
# Density = 2.569081 g / cm^3
# Si number density = 25.749417 Si / 1000 Ang^3
#
#
#
# Elastic Constant Matrix: (Units=GPa)
#
#
# Indices 1 2 3 4 5 6 
#
# 1 110.3463 9.9281 21.7764 0.0000 0.0000 0.0000
# 2 9.9281 110.4302 2.5675 0.0000 0.0000 0.0000
# 3 21.7764 2.5675 113.2564 0.0000 0.0000 0.0000
# 4 0.0000 0.0000 0.0000 44.9956 0.0000 0.0000
# 5 0.0000 0.0000 0.0000 0.0000 33.6221 0.0000
# 6 0.0000 0.0000 0.0000 0.0000 0.0000 47.2854
#
#
#
# Elastic Compliance Matrix: (Units=1/GPa)
#
#
# Indices 1 2 3 4 5 6 
#
# 1 0.009492 -0.000811 -0.001807 0.000000 0.000000 0.000000
# 2 -0.000811 0.009130 -0.000051 0.000000 0.000000 0.000000
# 3 -0.001807 -0.000051 0.009178 0.000000 0.000000 0.000000
# 4 0.000000 0.000000 0.000000 0.022224 0.000000 0.000000
# 5 0.000000 0.000000 0.000000 0.000000 0.029742 0.000000
# 6 0.000000 0.000000 0.000000 0.000000 0.000000 0.021148
#
#
# Mechanical properties :
#
#
# Convention : Reuss Voigt Hill
#
# Bulk Modulus (GPa) = 44.52037 44.73076 44.62557
# Shear Modulus (GPa) = 43.96000 45.16466 44.56233
#
# Velocity S-wave (km/s) = 4.13634 4.19263 4.16458
# Velocity P-wave (km/s) = 6.33560 6.39115 6.36343
#
# Compressibility (1/GPa) = 0.02246163
#
# Stress axis : x y z
#
# Youngs Moduli (GPa) = 105.35279 109.53352 108.95548
#
# Poissons Ratio (x) = 0.08887 0.19685
# Poissons Ratio (y) = 0.08548 0.00555
# Poissons Ratio (z) = 0.19034 0.00558
#
# Static dielectric constant tensor:
#      x y z
#    x 1.934680 0.000000 0.000000 
#    y 0.000000 1.994290 0.000000 
#    z 0.000000 0.000000 2.017280 
# 
# From -- ./inp_files/1881.got.cif
#   From: 2010.05.17/outbox.cif.g08.bks.cpg/sg61_1_cif.got.tgz:1881.got - 2010.06.03 15:17:17.
