data_PCOD9461348
_publ_section_title
;
Structure prediction by ZEFSAII (Michael W. Deem and Ramdas Pophale) SiO2 
 PCOD9461348
Probable space group: P N M A
;
_chemical_formula_sum "Si O2"
_cell_formula_units_Z 56
_cell_length_a 8.133740
_cell_length_b 17.417834
_cell_length_c 15.892259
_cell_angle_alpha 90.000000
_cell_angle_beta 90.000000
_cell_angle_gamma 90.000000
_cell_volume 2251.490233
_symmetry_space_group_name_H-M "P N M A"
_symmetry_group_IT_number 62
_symmetry_cell_setting 'orthorhombic'
loop_
_space_group_symop_operation_xyz
x,y,z
1/2-x,-y,1/2+z
1/2+x,1/2-y,1/2-z
-x,1/2+y,-z
-x,-y,-z
1/2+x,y,1/2-z
1/2-x,1/2+y,1/2+z
x,1/2-y,z
loop_
_atom_site_type_symbol
_atom_site_label
_atom_site_fract_x
_atom_site_fract_y
_atom_site_fract_z
Si Si1 0.290547 0.163431 0.058343
Si Si2 0.193181 0.093172 0.718364
Si Si3 0.989863 0.891694 0.124606
Si Si4 0.614225 0.164146 0.175042
Si Si5 0.491285 0.921497 0.054706
Si Si6 0.896874 0.549473 0.819668
Si Si7 0.174691 0.841399 0.974496
O O1 0.224511 0.250000 0.053682
O O2 0.465003 0.168387 0.108857
O O3 0.185203 0.104458 0.112097
O O4 0.349548 0.127196 0.970572
O O5 0.145638 0.129609 0.806722
O O6 0.341091 0.136130 0.671027
O O7 0.039174 0.079512 0.654748
O O8 0.264196 0.007092 0.724357
O O9 0.014827 0.865735 0.028694
O O10 0.995103 0.985210 0.131931
O O11 0.641109 0.250000 0.210744
O O12 0.554433 0.105425 0.244789
O O13 0.780701 0.141643 0.123492
O O14 0.323906 0.883437 0.021208
O O15 0.500000 0.000000 0.000000
O O16 0.190084 0.750000 0.980679
#
# Coordination Sequence:
#
# PCOD9461348 Si02
#       7
#     8   8   8   8   8   8   8
#     4  10  18  29  47  74 103 134 169 211 260 307
#     4   9  19  31  52  75 104 128 172 208 260 299
#     4   9  19  34  51  77 102 134 173 216 256 304
#     4   9  18  30  49  73 101 136 171 209 254 312
#     4  10  16  29  49  75  99 129 168 220 257 294
#     4  10  18  29  48  74 106 129 163 212 259 304
#     4   9  18  33  51  73 101 139 180 213 256 313
#
# _framework density 24.872416000000001
#
# number of rings (size 3 to 8) (size 9 to 14) (size 15 to 20)
#    0.857    1.714    1.429    2.571    2.000    0.000 
#    0.000    4.286    0.000    1.714    0.000    4.000 
#    0.000    0.000    0.000    0.000    0.000    0.000 
#
# Total GULP energy -312380.912802 kJ/mol
# GULP energy per Si atom -5578.230586 kJ/mol
# Density = 2.481580 g / cm^3
# Si number density = 24.872416 Si / 1000 Ang^3
#
#
#
# Elastic Constant Matrix: (Units=GPa)
#
#
# Indices 1 2 3 4 5 6 
#
# 1 47.5179 -3.0364 25.3096 0.0000 0.0000 0.0000
# 2 -3.0364 53.1284 20.0120 0.0000 0.0000 0.0000
# 3 25.3096 20.0120 102.9082 0.0000 0.0000 0.0000
# 4 0.0000 0.0000 0.0000 24.0426 0.0000 0.0000
# 5 0.0000 0.0000 0.0000 0.0000 45.0086 0.0000
# 6 0.0000 0.0000 0.0000 0.0000 0.0000 23.0114
#
#
#
# Elastic Compliance Matrix: (Units=1/GPa)
#
#
# Indices 1 2 3 4 5 6 
#
# 1 0.024996 0.004040 -0.006933 0.000000 0.000000 0.000000
# 2 0.004040 0.020963 -0.005070 0.000000 0.000000 0.000000
# 3 -0.006933 -0.005070 0.012409 0.000000 0.000000 0.000000
# 4 0.000000 0.000000 0.000000 0.041593 0.000000 0.000000
# 5 0.000000 0.000000 0.000000 0.000000 0.022218 0.000000
# 6 0.000000 0.000000 0.000000 0.000000 0.000000 0.043457
#
#
# Mechanical properties :
#
#
# Convention : Reuss Voigt Hill
#
# Bulk Modulus (GPa) = 23.56230 32.01387 27.78809
# Shear Modulus (GPa) = 25.54822 29.16380 27.35601
#
# Velocity S-wave (km/s) = 3.20843 3.42795 3.32000
# Velocity P-wave (km/s) = 4.81863 5.34480 5.08852
#
# Compressibility (1/GPa) = 0.04244068
#
# Stress axis : x y z
#
# Youngs Moduli (GPa) = 40.00693 47.70300 80.58968
#
# Poissons Ratio (x) = -0.19272 0.55874
# Poissons Ratio (y) = -0.16163 0.40861
# Poissons Ratio (z) = 0.27737 0.24186
#
# Static dielectric constant tensor:
#      x y z
#    x 2.089590 0.000000 0.000000 
#    y 0.000000 1.933670 0.000000 
#    z 0.000000 0.000000 2.023100 
# 
# From -- ./inp_files/19216.got.cif
#   From: 2010.05.17/outbox.cif.g08.bks.cpg/sg62_10_cif.got.tgz:19216.got - 2010.06.03 15:25:27.
