data_PCOD9461629
_publ_section_title
;
Structure prediction by ZEFSAII (Michael W. Deem and Ramdas Pophale) SiO2 
 PCOD9461629
Probable space group: P N M A
;
_chemical_formula_sum "Si O2"
_cell_formula_units_Z 56
_cell_length_a 21.273704
_cell_length_b 9.105961
_cell_length_c 18.786616
_cell_angle_alpha 90.000000
_cell_angle_beta 90.000000
_cell_angle_gamma 90.000000
_cell_volume 3639.296641
_symmetry_space_group_name_H-M "P N M A"
_symmetry_group_IT_number 62
_symmetry_cell_setting 'orthorhombic'
loop_
_space_group_symop_operation_xyz
x,y,z
1/2-x,-y,1/2+z
1/2+x,1/2-y,1/2-z
-x,1/2+y,-z
-x,-y,-z
1/2+x,y,1/2-z
1/2-x,1/2+y,1/2+z
x,1/2-y,z
loop_
_atom_site_type_symbol
_atom_site_label
_atom_site_fract_x
_atom_site_fract_y
_atom_site_fract_z
Si Si1 0.621011 0.077476 0.148208
Si Si2 0.257089 0.075504 0.424490
Si Si3 0.253950 0.423593 0.074932
Si Si4 0.187422 0.423501 0.794650
Si Si5 0.302983 0.577531 0.720143
Si Si6 0.627626 0.426117 0.847984
Si Si7 0.003619 0.574930 0.423150
O O1 0.607006 0.250000 0.137114
O O2 0.686883 0.046429 0.107350
O O3 0.635555 0.053640 0.232044
O O4 0.564913 0.982334 0.117672
O O5 0.264069 0.250000 0.429022
O O6 0.261328 0.002494 0.501429
O O7 0.306936 0.009589 0.368482
O O8 0.262341 0.250000 0.063424
O O9 0.200335 0.443207 0.135683
O O10 0.317866 0.490489 0.108563
O O11 0.186497 0.250000 0.808188
O O12 0.250487 0.471024 0.752602
O O13 0.134339 0.460751 0.736145
O O14 0.284733 0.750000 0.733540
O O15 0.638313 0.250000 0.855456
O O16 0.559736 0.461333 0.879639
O O17 0.006390 0.750000 0.431526
O O18 0.000000 0.500000 0.500000
#
# Coordination Sequence:
#
# PCOD9461629 Si02
#       7
#     8   8   8   8   8   8   8
#     4   9  18  32  46  61  87 121 150 178 216 258
#     4  10  19  30  44  65  94 120 142 179 228 265
#     4  10  18  28  46  70  91 115 149 182 216 265
#     4   9  16  28  46  64  83 112 149 182 217 265
#     4   8  16  30  45  63  89 116 142 179 224 263
#     4   9  19  33  45  61  90 122 148 182 225 259
#     4  11  22  33  45  64  90 120 153 184 214 251
#
# _framework density 15.387587999999999
#
# number of rings (size 3 to 8) (size 9 to 14) (size 15 to 20)
#    0.000    2.571    0.000    3.429    0.000    8.571 
#    0.000    0.000    0.000    0.000    0.000    1.000 
#    0.000    0.000    0.000    0.000    0.000    0.000 
#
# Total GULP energy -311931.654235 kJ/mol
# GULP energy per Si atom -5570.208111 kJ/mol
# Density = 1.535257 g / cm^3
# Si number density = 15.387588 Si / 1000 Ang^3
#
#
#
# Elastic Constant Matrix: (Units=GPa)
#
#
# Indices 1 2 3 4 5 6 
#
# 1 65.1374 41.0780 56.6948 0.0000 0.0000 0.0000
# 2 41.0780 57.8412 68.0965 0.0000 0.0000 0.0000
# 3 56.6948 68.0965 149.9425 0.0000 0.0000 0.0000
# 4 0.0000 0.0000 0.0000 29.0489 0.0000 0.0000
# 5 0.0000 0.0000 0.0000 0.0000 22.1917 0.0000
# 6 0.0000 0.0000 0.0000 0.0000 0.0000 20.0860
#
#
#
# Elastic Compliance Matrix: (Units=1/GPa)
#
#
# Indices 1 2 3 4 5 6 
#
# 1 0.028597 -0.016288 -0.003416 0.000000 0.000000 0.000000
# 2 -0.016288 0.046431 -0.014928 0.000000 0.000000 0.000000
# 3 -0.003416 -0.014928 0.014740 0.000000 0.000000 0.000000
# 4 0.000000 0.000000 0.000000 0.034425 0.000000 0.000000
# 5 0.000000 0.000000 0.000000 0.000000 0.045062 0.000000
# 6 0.000000 0.000000 0.000000 0.000000 0.000000 0.049786
#
#
# Mechanical properties :
#
#
# Convention : Reuss Voigt Hill
#
# Bulk Modulus (GPa) = 48.76860 67.18440 57.97650
# Shear Modulus (GPa) = 16.94126 21.40214 19.17170
#
# Velocity S-wave (km/s) = 3.32168 3.73348 3.53359
# Velocity P-wave (km/s) = 6.81716 7.89566 7.37615
#
# Compressibility (1/GPa) = 0.02050500
#
# Stress axis : x y z
#
# Youngs Moduli (GPa) = 34.96912 21.53748 67.84149
#
# Poissons Ratio (x) = 0.35080 0.23172
# Poissons Ratio (y) = 0.56957 1.01274
# Poissons Ratio (z) = 0.11944 0.32151
#
# Static dielectric constant tensor:
#      x y z
#    x 1.489180 0.000000 0.000000 
#    y 0.000000 1.515220 0.000000 
#    z 0.000000 0.000000 1.537320 
# 
# From -- ./inp_files/24554.got.cif
#   From: 2010.05.17/outbox.cif.g08.bks.cpg/sg62_13_cif.got.tgz:24554.got - 2010.06.03 15:25:27.
