data_PCOD9461726
_publ_section_title
;
Structure prediction by ZEFSAII (Michael W. Deem and Ramdas Pophale) SiO2 
 PCOD9461726
Probable space group: P N M A
;
_chemical_formula_sum "Si O2"
_cell_formula_units_Z 56
_cell_length_a 14.329483
_cell_length_b 8.196362
_cell_length_c 21.054140
_cell_angle_alpha 90.000000
_cell_angle_beta 90.000000
_cell_angle_gamma 90.000000
_cell_volume 2472.800952
_symmetry_space_group_name_H-M "P N M A"
_symmetry_group_IT_number 62
_symmetry_cell_setting 'orthorhombic'
loop_
_space_group_symop_operation_xyz
x,y,z
1/2-x,-y,1/2+z
1/2+x,1/2-y,1/2-z
-x,1/2+y,-z
-x,-y,-z
1/2+x,y,1/2-z
1/2-x,1/2+y,1/2+z
x,1/2-y,z
loop_
_atom_site_type_symbol
_atom_site_label
_atom_site_fract_x
_atom_site_fract_y
_atom_site_fract_z
Si Si1 0.643425 0.065032 0.666273
Si Si2 0.994452 0.442875 0.596804
Si Si3 0.335074 0.564403 0.664153
Si Si4 0.990978 0.943974 0.738951
Si Si5 0.790337 0.447231 0.568322
Si Si6 0.695336 0.056856 0.933670
Si Si7 0.024809 0.566112 0.068063
O O1 0.664551 0.250000 0.688507
O O2 0.732601 0.991782 0.629781
O O3 0.568698 0.075538 0.609285
O O4 0.585818 0.975127 0.721105
O O5 0.993876 0.250000 0.582598
O O6 0.090363 0.514425 0.569593
O O7 0.996287 0.467625 0.672233
O O8 0.896198 0.511090 0.572796
O O9 0.310708 0.750000 0.679617
O O10 0.399387 0.496104 0.721259
O O11 0.245571 0.479775 0.633393
O O12 0.406917 0.553187 0.605358
O O13 0.980805 0.750000 0.730406
O O14 0.788303 0.250000 0.573289
O O15 0.755376 0.491148 0.497650
O O16 0.690961 0.250000 0.940325
O O17 0.065634 0.750000 0.065808
O O18 0.000000 0.500000 0.000000
#
# Coordination Sequence:
#
# PCOD9461726 Si02
#       7
#     8   8   8   8   8   8   8
#     4   9  19  35  56  82 113 148 186 229 283 344
#     4  10  23  41  60  83 116 156 195 236 286 343
#     4  10  21  37  56  81 114 151 191 238 289 343
#     4  10  22  39  60  86 115 150 193 238 287 339
#     4  10  21  39  62  87 116 153 192 235 288 343
#     4  11  23  38  59  88 117 151 194 239 288 343
#     4  10  18  29  49  79 114 151 188 231 284 343
#
# _framework density 22.646384000000001
#
# number of rings (size 3 to 8) (size 9 to 14) (size 15 to 20)
#    0.000    2.000    0.000    3.000    0.000    6.857 
#    0.000    4.286    0.000    0.000    0.000    0.000 
#    0.000    0.000    0.000    0.000    0.000    0.000 
#
# Total GULP energy -312624.796794 kJ/mol
# GULP energy per Si atom -5582.585657 kJ/mol
# Density = 2.259484 g / cm^3
# Si number density = 22.646384 Si / 1000 Ang^3
#
#
#
# Elastic Constant Matrix: (Units=GPa)
#
#
# Indices 1 2 3 4 5 6 
#
# 1 88.6832 -2.3663 7.9065 0.0000 0.0000 0.0000
# 2 -2.3663 27.0747 -16.2776 0.0000 0.0000 0.0000
# 3 7.9065 -16.2776 73.0971 0.0000 0.0000 0.0000
# 4 0.0000 0.0000 0.0000 9.0385 0.0000 0.0000
# 5 0.0000 0.0000 0.0000 0.0000 28.7824 0.0000
# 6 0.0000 0.0000 0.0000 0.0000 0.0000 15.7586
#
#
#
# Elastic Compliance Matrix: (Units=1/GPa)
#
#
# Indices 1 2 3 4 5 6 
#
# 1 0.011388 0.000294 -0.001166 0.000000 0.000000 0.000000
# 2 0.000294 0.042652 0.009466 0.000000 0.000000 0.000000
# 3 -0.001166 0.009466 0.015915 0.000000 0.000000 0.000000
# 4 0.000000 0.000000 0.000000 0.110638 0.000000 0.000000
# 5 0.000000 0.000000 0.000000 0.000000 0.034743 0.000000
# 6 0.000000 0.000000 0.000000 0.000000 0.000000 0.063457
#
#
# Mechanical properties :
#
#
# Convention : Reuss Voigt Hill
#
# Bulk Modulus (GPa) = 11.47555 18.59780 15.03668
# Shear Modulus (GPa) = 17.20268 24.02205 20.61236
#
# Velocity S-wave (km/s) = 2.75911 3.26044 3.02020
# Velocity P-wave (km/s) = 3.90238 4.73329 4.33778
#
# Compressibility (1/GPa) = 0.08714176
#
# Stress axis : x y z
#
# Youngs Moduli (GPa) = 87.81230 23.44580 62.83571
#
# Poissons Ratio (x) = -0.00690 0.07328
# Poissons Ratio (y) = -0.02583 -0.59480
# Poissons Ratio (z) = 0.10241 -0.22194
#
# Static dielectric constant tensor:
#      x y z
#    x 1.931890 0.000000 0.000000 
#    y 0.000000 1.822040 0.000000 
#    z 0.000000 0.000000 1.812980 
# 
# From -- ./inp_files/27141.got.cif
#   From: 2010.05.17/outbox.cif.g08.bks.cpg/sg62_14_cif.got.tgz:27141.got - 2010.06.03 15:25:27.
