data_PCOD9461354
_publ_section_title
;
Structure prediction by ZEFSAII (Michael W. Deem and Ramdas Pophale) SiO2 
 PCOD9461354
Probable space group: P N M A
;
_chemical_formula_sum "Si O2"
_cell_formula_units_Z 60
_cell_length_a 7.640252
_cell_length_b 15.777976
_cell_length_c 19.107847
_cell_angle_alpha 90.000000
_cell_angle_beta 90.000000
_cell_angle_gamma 90.000000
_cell_volume 2303.407250
_symmetry_space_group_name_H-M "P N M A"
_symmetry_group_IT_number 62
_symmetry_cell_setting 'orthorhombic'
loop_
_space_group_symop_operation_xyz
x,y,z
1/2-x,-y,1/2+z
1/2+x,1/2-y,1/2-z
-x,1/2+y,-z
-x,-y,-z
1/2+x,y,1/2-z
1/2-x,1/2+y,1/2+z
x,1/2-y,z
loop_
_atom_site_type_symbol
_atom_site_label
_atom_site_fract_x
_atom_site_fract_y
_atom_site_fract_z
Si Si1 0.633505 0.544525 0.101360
Si Si2 0.200330 0.149618 0.259037
Si Si3 0.380203 0.851220 0.485779
Si Si4 0.368494 0.382273 0.396857
Si Si5 0.884789 0.153243 0.861642
Si Si6 0.933015 0.750000 0.568624
Si Si7 0.256550 0.848863 0.274289
Si Si8 0.896324 0.406904 0.365008
O O1 0.699647 0.609825 0.042841
O O2 0.788962 0.475508 0.100646
O O3 0.642311 0.593710 0.174649
O O4 0.452845 0.492424 0.095298
O O5 0.172472 0.250000 0.246672
O O6 0.361322 0.146595 0.315854
O O7 0.236812 0.098028 0.188938
O O8 0.051506 0.109512 0.307369
O O9 0.370192 0.750000 0.477160
O O10 0.450507 0.874894 0.561861
O O11 0.539102 0.882058 0.433672
O O12 0.223673 0.322774 0.434924
O O13 0.828455 0.250000 0.877742
O O14 0.745312 0.119389 0.805753
O O15 0.055655 0.151970 0.811420
O O16 0.077997 0.824255 0.587498
O O17 0.198354 0.750000 0.274850
#
# Coordination Sequence:
#
# PCOD9461354 Si02
#       8
#     8   8   8   8   8   4   8   8
#     4   9  19  28  42  68  95 124 157 193 244 286
#     4  10  16  30  47  70  95 128 157 192 243 295
#     4  10  17  30  48  71 100 131 160 205 247 286
#     4  10  17  29  47  72 101 124 159 201 241 285
#     4   8  16  27  47  69  92 118 158 194 244 290
#     4   8  14  28  40  64  88 124 142 184 236 274
#     4   9  16  30  45  66  96 124 154 200 244 295
#     4  10  18  28  46  68 100 124 156 198 239 288
#
# _framework density 26.048369999999998
#
# number of rings (size 3 to 8) (size 9 to 14) (size 15 to 20)
#    0.000    2.933    4.000    1.600    0.000    4.267 
#    0.000    0.000    0.000    0.000    0.000   13.067 
#    4.000    0.000    0.000    0.000    0.000    0.000 
#
# Total GULP energy -334067.120373 kJ/mol
# GULP energy per Si atom -5567.785340 kJ/mol
# Density = 2.598908 g / cm^3
# Si number density = 26.048370 Si / 1000 Ang^3
#
#
#
# Elastic Constant Matrix: (Units=GPa)
#
#
# Indices 1 2 3 4 5 6 
#
# 1 52.2526 10.2368 27.7296 0.0000 0.0000 0.0000
# 2 10.2368 104.6013 29.9852 0.0000 0.0000 0.0000
# 3 27.7296 29.9852 134.2305 0.0000 0.0000 0.0000
# 4 0.0000 0.0000 0.0000 21.4001 0.0000 0.0000
# 5 0.0000 0.0000 0.0000 0.0000 51.8004 0.0000
# 6 0.0000 0.0000 0.0000 0.0000 0.0000 -640.2501
#
#
#
# Elastic Compliance Matrix: (Units=1/GPa)
#
#
# Indices 1 2 3 4 5 6 
#
# 1 0.021572 -0.000891 -0.004257 0.000000 0.000000 0.000000
# 2 -0.000891 0.010251 -0.002106 0.000000 0.000000 0.000000
# 3 -0.004257 -0.002106 0.008800 0.000000 0.000000 0.000000
# 4 0.000000 0.000000 0.000000 0.046729 0.000000 0.000000
# 5 0.000000 0.000000 0.000000 0.000000 0.019305 0.000000
# 6 0.000000 0.000000 0.000000 0.000000 0.000000 -0.001562
#
#
# Mechanical properties :
#
#
# Convention : Reuss Voigt Hill
#
# Bulk Modulus (GPa) = 38.29296 47.44306 42.86801
# Shear Modulus (GPa) = 38.96909 -98.53440 -29.78266
#
# Velocity S-wave (km/s) = 3.87205 -6.15708 -3.38503
# Velocity P-wave (km/s) = 5.89262 5.68270 1.10223
#
# Compressibility (1/GPa) = 0.02611446
#
# Stress axis : x y z
#
# Youngs Moduli (GPa) = 46.35724 97.55177 113.63902
#
# Poissons Ratio (x) = 0.08689 0.48380
# Poissons Ratio (y) = 0.04129 0.23931
# Poissons Ratio (z) = 0.19736 0.20544
#
# Static dielectric constant tensor:
#      x y z
#    x 2.255170 0.000000 0.000000 
#    y 0.000000 2.003770 0.000000 
#    z 0.000000 0.000000 2.097570 
# 
# From -- ./inp_files/26749.got.cif
#   From: 2010.05.17/outbox.cif.g08.bks.cpg/sg62_14_cif.got.tgz:26749.got - 2010.06.03 15:25:27.
