data_PCOD9461646
_publ_section_title
;
Structure prediction by ZEFSAII (Michael W. Deem and Ramdas Pophale) SiO2 
 PCOD9461646
Probable space group: P N M A
;
_chemical_formula_sum "Si O2"
_cell_formula_units_Z 64
_cell_length_a 23.729123
_cell_length_b 8.181666
_cell_length_c 19.810943
_cell_angle_alpha 90.000000
_cell_angle_beta 90.000000
_cell_angle_gamma 90.000000
_cell_volume 3846.170941
_symmetry_space_group_name_H-M "P N M A"
_symmetry_group_IT_number 62
_symmetry_cell_setting 'orthorhombic'
loop_
_space_group_symop_operation_xyz
x,y,z
1/2-x,-y,1/2+z
1/2+x,1/2-y,1/2-z
-x,1/2+y,-z
-x,-y,-z
1/2+x,y,1/2-z
1/2-x,1/2+y,1/2+z
x,1/2-y,z
loop_
_atom_site_type_symbol
_atom_site_label
_atom_site_fract_x
_atom_site_fract_y
_atom_site_fract_z
Si Si1 0.557750 0.942387 0.633725
Si Si2 0.164419 0.550296 0.783347
Si Si3 0.068040 0.937651 0.131370
Si Si4 0.878857 0.558939 0.003729
Si Si5 0.272697 0.051206 0.153093
Si Si6 0.341984 0.552732 0.731526
Si Si7 0.750577 0.446734 0.494765
Si Si8 0.222704 0.053136 0.361318
O O1 0.548620 0.750000 0.645174
O O2 0.605173 0.003875 0.686206
O O3 0.497984 0.029205 0.638704
O O4 0.584633 0.967317 0.559755
O O5 0.164022 0.750000 0.784280
O O6 0.181017 0.497120 0.707804
O O7 0.216406 0.499206 0.831595
O O8 0.077638 0.750000 0.113300
O O9 0.102413 0.979587 0.198876
O O10 0.093508 0.041738 0.069758
O O11 0.877767 0.750000 0.022590
O O12 0.814502 0.496644 0.001001
O O13 0.274920 0.250000 0.152515
O O14 0.211445 0.009136 0.183943
O O15 0.275978 0.993245 0.076203
O O16 0.346545 0.750000 0.730759
O O17 0.324141 0.500432 0.806872
O O18 0.748559 0.250000 0.491150
O O19 0.782838 0.495360 0.562400
O O20 0.223154 0.250000 0.360672
#
# Coordination Sequence:
#
# PCOD9461646 Si02
#       8
#     8   8   8   8   8   8   8   8
#     4  11  21  34  51  70  94 128 168 206 241 282
#     4   8  15  28  48  70  91 120 159 199 234 280
#     4  12  24  35  48  68  96 130 167 206 241 284
#     4  11  21  34  48  68  99 134 168 199 234 280
#     4   8  14  28  48  70  94 122 156 193 239 285
#     4   9  17  33  52  69  93 127 162 199 240 282
#     4  10  18  28  48  73 100 130 156 191 236 285
#     4   9  17  30  50  72  97 125 158 197 237 286
#
# _framework density 16.639927
#
# number of rings (size 3 to 8) (size 9 to 14) (size 15 to 20)
#    0.000    2.250    2.500    3.750    0.000    1.000 
#    0.000    0.000    0.000    1.500    0.000    0.875 
#    0.000    0.000    0.000    0.000    0.000    0.000 
#
# Total GULP energy -356961.063557 kJ/mol
# GULP energy per Si atom -5577.516618 kJ/mol
# Density = 1.660205 g / cm^3
# Si number density = 16.639927 Si / 1000 Ang^3
#
#
#
# Elastic Constant Matrix: (Units=GPa)
#
#
# Indices 1 2 3 4 5 6 
#
# 1 56.8024 -2.1868 38.9431 0.0000 0.0000 0.0000
# 2 -2.1868 11.6425 -2.0493 0.0000 0.0000 0.0000
# 3 38.9431 -2.0493 129.5636 0.0000 0.0000 0.0000
# 4 0.0000 0.0000 0.0000 19.7451 0.0000 0.0000
# 5 0.0000 0.0000 0.0000 0.0000 18.7079 0.0000
# 6 0.0000 0.0000 0.0000 0.0000 0.0000 3.9869
#
#
#
# Elastic Compliance Matrix: (Units=1/GPa)
#
#
# Indices 1 2 3 4 5 6 
#
# 1 0.022279 0.003014 -0.006649 0.000000 0.000000 0.000000
# 2 0.003014 0.086540 0.000463 0.000000 0.000000 0.000000
# 3 -0.006649 0.000463 0.009724 0.000000 0.000000 0.000000
# 4 0.000000 0.000000 0.000000 0.050645 0.000000 0.000000
# 5 0.000000 0.000000 0.000000 0.000000 0.053453 0.000000
# 6 0.000000 0.000000 0.000000 0.000000 0.000000 0.250819
#
#
# Mechanical properties :
#
#
# Convention : Reuss Voigt Hill
#
# Bulk Modulus (GPa) = 8.91266 29.71361 19.31314
# Shear Modulus (GPa) = 9.66736 19.37476 14.52106
#
# Velocity S-wave (km/s) = 2.41295 3.41596 2.95729
# Velocity P-wave (km/s) = 3.62366 5.78394 4.82623
#
# Compressibility (1/GPa) = 0.11219996
#
# Stress axis : x y z
#
# Youngs Moduli (GPa) = 44.88464 11.55534 102.83840
#
# Poissons Ratio (x) = -0.03483 0.68376
# Poissons Ratio (y) = -0.13530 -0.04759
# Poissons Ratio (z) = 0.29843 -0.00535
#
# Static dielectric constant tensor:
#      x y z
#    x 1.539100 0.000000 0.000000 
#    y 0.000000 1.582990 0.000000 
#    z 0.000000 0.000000 1.574440 
# 
# From -- ./inp_files/24944.got.cif
#   From: 2010.05.17/outbox.cif.g08.bks.cpg/sg62_13_cif.got.tgz:24944.got - 2010.06.03 15:25:27.
