data_PCOD9461958
_publ_section_title
;
Structure prediction by ZEFSAII (Michael W. Deem and Ramdas Pophale) SiO2 
 PCOD9461958
Probable space group: P N M A
;
_chemical_formula_sum "Si O2"
_cell_formula_units_Z 40
_cell_length_a 7.466181
_cell_length_b 11.359474
_cell_length_c 19.358621
_cell_angle_alpha 90.000000
_cell_angle_beta 90.000000
_cell_angle_gamma 90.000000
_cell_volume 1641.841214
_symmetry_space_group_name_H-M "P N M A"
_symmetry_group_IT_number 62
_symmetry_cell_setting 'orthorhombic'
loop_
_space_group_symop_operation_xyz
x,y,z
1/2-x,-y,1/2+z
1/2+x,1/2-y,1/2-z
-x,1/2+y,-z
-x,-y,-z
1/2+x,y,1/2-z
1/2-x,1/2+y,1/2+z
x,1/2-y,z
loop_
_atom_site_type_symbol
_atom_site_label
_atom_site_fract_x
_atom_site_fract_y
_atom_site_fract_z
Si Si1 0.412507 0.615170 0.150689
Si Si2 0.324761 0.881130 0.303638
Si Si3 0.797617 0.750000 0.715094
Si Si4 0.933121 0.042434 0.072755
Si Si5 0.412560 0.750000 0.641860
Si Si6 0.463770 0.883114 0.898752
O O1 0.354720 0.750000 0.129716
O O2 0.622773 0.625760 0.169118
O O3 0.322361 0.579518 0.223777
O O4 0.416647 0.501236 0.099789
O O5 0.404450 0.750000 0.300933
O O6 0.426659 0.954776 0.361816
O O7 0.602380 0.750000 0.682509
O O8 0.776993 0.750000 0.796054
O O9 0.901805 0.639487 0.681652
O O10 0.729472 0.092268 0.066089
O O11 0.076288 0.138898 0.094804
O O12 0.000000 0.000000 0.000000
O O13 0.526914 0.750000 0.920543
#
# Coordination Sequence:
#
# PCOD9461958 Si02
#       6
#     8   8   4   8   4   8
#     4   9  16  29  44  69  95 124 157 202 249 297
#     4   9  18  29  47  69  97 124 158 194 249 295
#     4   8  16  28  50  70 104 116 170 206 266 286
#     4  10  19  29  46  68 103 128 164 195 247 299
#     4  10  18  32  48  80  96 134 158 218 252 302
#     4   8  16  30  45  67  94 125 161 204 250 290
#
# _framework density 24.36289
#
# number of rings (size 3 to 8) (size 9 to 14) (size 15 to 20)
#    0.600    2.400    1.000    1.200    1.400    0.000 
#    0.000    0.000    0.000    0.000    0.000   22.400 
#    0.000    0.000    0.000    0.000    0.000    0.000 
#
# Total GULP energy -223140.026043 kJ/mol
# GULP energy per Si atom -5578.500651 kJ/mol
# Density = 2.430744 g / cm^3
# Si number density = 24.362890 Si / 1000 Ang^3
#
#
#
# Elastic Constant Matrix: (Units=GPa)
#
#
# Indices 1 2 3 4 5 6 
#
# 1 54.0740 31.6623 19.3983 0.0000 0.0000 0.0000
# 2 31.6623 135.5436 32.1525 0.0000 0.0000 0.0000
# 3 19.3983 32.1525 70.2028 0.0000 0.0000 0.0000
# 4 0.0000 0.0000 0.0000 38.4086 0.0000 0.0000
# 5 0.0000 0.0000 0.0000 0.0000 17.5825 0.0000
# 6 0.0000 0.0000 0.0000 0.0000 0.0000 28.0497
#
#
#
# Elastic Compliance Matrix: (Units=1/GPa)
#
#
# Indices 1 2 3 4 5 6 
#
# 1 0.022513 -0.004244 -0.004277 0.000000 0.000000 0.000000
# 2 -0.004244 0.009077 -0.002984 0.000000 0.000000 0.000000
# 3 -0.004277 -0.002984 0.016793 0.000000 0.000000 0.000000
# 4 0.000000 0.000000 0.000000 0.026036 0.000000 0.000000
# 5 0.000000 0.000000 0.000000 0.000000 0.056875 0.000000
# 6 0.000000 0.000000 0.000000 0.000000 0.000000 0.035651
#
#
# Mechanical properties :
#
#
# Convention : Reuss Voigt Hill
#
# Bulk Modulus (GPa) = 39.41406 47.36072 43.38739
# Shear Modulus (GPa) = 25.20001 28.58199 26.89100
#
# Velocity S-wave (km/s) = 3.21964 3.42888 3.32591
# Velocity P-wave (km/s) = 5.48037 5.92944 5.70932
#
# Compressibility (1/GPa) = 0.02537166
#
# Stress axis : x y z
#
# Youngs Moduli (GPa) = 44.41950 110.16724 59.54841
#
# Poissons Ratio (x) = 0.46759 0.25467
# Poissons Ratio (y) = 0.18853 0.17772
# Poissons Ratio (z) = 0.18997 0.32879
#
# Static dielectric constant tensor:
#      x y z
#    x 1.991180 0.000000 0.000000 
#    y 0.000000 2.082620 0.000000 
#    z 0.000000 0.000000 -0.324540 
# 
# From -- ./inp_files/25790.got.cif
#   From: 2010.05.17/outbox.cif.g08.bks.cpg/sg62_13_cif.got.tgz:25790.got - 2010.06.03 15:25:27.
