data_PCOD9461052
_publ_section_title
;
Structure prediction by ZEFSAII (Michael W. Deem and Ramdas Pophale) SiO2 
 PCOD9461052
Probable space group: P B C A
;
_chemical_formula_sum "Si O2"
_cell_formula_units_Z 32
_cell_length_a 17.591305
_cell_length_b 8.431274
_cell_length_c 8.717553
_cell_angle_alpha 90.000000
_cell_angle_beta 90.000000
_cell_angle_gamma 90.000000
_cell_volume 1292.962289
_symmetry_space_group_name_H-M "P B C A"
_symmetry_group_IT_number 61
_symmetry_cell_setting 'orthorhombic'
loop_
_space_group_symop_operation_xyz
x,y,z
1/2-x,-y,1/2+z
1/2+x,1/2-y,-z
-x,1/2+y,1/2-z
-x,-y,-z
1/2+x,y,1/2-z
1/2-x,1/2+y,z
x,1/2-y,1/2+z
loop_
_atom_site_type_symbol
_atom_site_label
_atom_site_fract_x
_atom_site_fract_y
_atom_site_fract_z
Si Si1 0.684674 0.321899 0.831295
Si Si2 0.721097 0.612830 0.029364
Si Si3 0.525749 0.093426 0.225979
Si Si4 0.566944 0.778720 0.063727
O O1 0.686843 0.448264 0.970576
O O2 0.738787 0.381410 0.693814
O O3 0.716244 0.162419 0.904528
O O4 0.600280 0.305905 0.766845
O O5 0.654178 0.744015 0.026300
O O6 0.468138 0.118935 0.365486
O O7 0.556406 0.917885 0.189890
O O8 0.481450 0.159321 0.078834
#
# Coordination Sequence:
#
# PCOD9461052 Si02
#       4
#     8   8   8   8
#     4  12  25  43  69  98 135 177 225 276 339 404
#     4  12  26  46  69 101 138 178 225 282 337 405
#     4  11  24  43  67  98 133 179 225 279 341 404
#     4  11  25  44  67  97 136 174 225 282 339 403
#
# _framework density 24.749366999999999
#
# number of rings (size 3 to 8) (size 9 to 14) (size 15 to 20)
#    0.000    0.500    0.000    9.000    0.000   12.000 
#    0.000    0.000    0.000    0.000    0.000    0.000 
#    0.000    0.000    0.000    0.000    0.000    0.000 
#
# Total GULP energy -179458.673274 kJ/mol
# GULP energy per Si atom -5608.083540 kJ/mol
# Density = 2.469304 g / cm^3
# Si number density = 24.749367 Si / 1000 Ang^3
#
#
#
# Elastic Constant Matrix: (Units=GPa)
#
#
# Indices 1 2 3 4 5 6 
#
# 1 101.3155 4.0039 9.1184 0.0000 0.0000 0.0000
# 2 4.0039 34.9261 2.7423 0.0000 0.0000 0.0000
# 3 9.1184 2.7423 73.6322 0.0000 0.0000 0.0000
# 4 0.0000 0.0000 0.0000 39.2271 0.0000 0.0000
# 5 0.0000 0.0000 0.0000 0.0000 36.7336 0.0000
# 6 0.0000 0.0000 0.0000 0.0000 0.0000 25.6919
#
#
#
# Elastic Compliance Matrix: (Units=1/GPa)
#
#
# Indices 1 2 3 4 5 6 
#
# 1 0.010020 -0.001054 -0.001202 0.000000 0.000000 0.000000
# 2 -0.001054 0.028827 -0.000943 0.000000 0.000000 0.000000
# 3 -0.001202 -0.000943 0.013765 0.000000 0.000000 0.000000
# 4 0.000000 0.000000 0.000000 0.025493 0.000000 0.000000
# 5 0.000000 0.000000 0.000000 0.000000 0.027223 0.000000
# 6 0.000000 0.000000 0.000000 0.000000 0.000000 0.038923
#
#
# Mechanical properties :
#
#
# Convention : Reuss Voigt Hill
#
# Bulk Modulus (GPa) = 21.63859 26.84480 24.24169
# Shear Modulus (GPa) = 30.11094 33.26446 31.68770
#
# Velocity S-wave (km/s) = 3.49181 3.67011 3.58207
# Velocity P-wave (km/s) = 5.00191 5.36934 5.18888
#
# Compressibility (1/GPa) = 0.04621374
#
# Stress axis : x y z
#
# Youngs Moduli (GPa) = 99.80077 34.68999 72.64834
#
# Poissons Ratio (x) = 0.03658 0.08729
# Poissons Ratio (y) = 0.10522 0.06851
# Poissons Ratio (z) = 0.11992 0.03271
#
# Static dielectric constant tensor:
#      x y z
#    x 1.898540 0.000000 0.000000 
#    y 0.000000 2.024940 0.000000 
#    z 0.000000 0.000000 1.935190 
# 
# From -- ./inp_files/1672.got.cif
#   From: 2010.05.17/outbox.cif.g08.bks.cpg/sg61_1_cif.got.tgz:1672.got - 2010.06.03 15:17:17.
