data_PCOD9461520
_publ_section_title
;
Structure prediction by ZEFSAII (Michael W. Deem and Ramdas Pophale) SiO2 
 PCOD9461520
Probable space group: P N M A
;
_chemical_formula_sum "Si O2"
_cell_formula_units_Z 40
_cell_length_a 7.999954
_cell_length_b 25.752915
_cell_length_c 7.410895
_cell_angle_alpha 90.000000
_cell_angle_beta 90.000000
_cell_angle_gamma 90.000000
_cell_volume 1526.808413
_symmetry_space_group_name_H-M "P N M A"
_symmetry_group_IT_number 62
_symmetry_cell_setting 'orthorhombic'
loop_
_space_group_symop_operation_xyz
x,y,z
1/2-x,-y,1/2+z
1/2+x,1/2-y,1/2-z
-x,1/2+y,-z
-x,-y,-z
1/2+x,y,1/2-z
1/2-x,1/2+y,1/2+z
x,1/2-y,z
loop_
_atom_site_type_symbol
_atom_site_label
_atom_site_fract_x
_atom_site_fract_y
_atom_site_fract_z
Si Si1 0.436373 0.063440 0.653686
Si Si2 0.674863 0.307573 0.970435
Si Si3 0.880948 0.378172 0.458799
Si Si4 0.358932 0.009714 0.146224
Si Si5 0.563966 0.332077 0.555734
O O1 0.390018 0.096270 0.837607
O O2 0.522102 0.106955 0.538131
O O3 0.273856 0.033926 0.595376
O O4 0.563944 0.016797 0.679987
O O5 0.623144 0.250000 0.029070
O O6 0.562768 0.351689 0.067986
O O7 0.619872 0.314681 0.758302
O O8 0.877964 0.310153 0.984983
O O9 0.835537 0.428895 0.340952
O O10 0.741656 0.332372 0.450790
O O11 0.500000 0.000000 0.000000
#
# Coordination Sequence:
#
# PCOD9461520 Si02
#       5
#     8   8   8   8   8
#     4  10  17  35  49  76 114 144 180 214 264 326
#     4  11  21  32  51  76 108 144 179 224 278 324
#     4  10  21  35  51  77 113 142 184 220 259 327
#     4  10  20  33  53  77 109 151 181 218 266 322
#     4  11  18  31  50  73 110 145 175 215 264 331
#
# _framework density 26.198439
#
# number of rings (size 3 to 8) (size 9 to 14) (size 15 to 20)
#    0.000    1.600    6.000    3.000    0.000    1.600 
#    3.600    0.000    0.000    0.000    0.000    1.400 
#    0.000    0.000    0.000    0.000    0.000    0.000 
#
# Total GULP energy -223072.581671 kJ/mol
# GULP energy per Si atom -5576.814542 kJ/mol
# Density = 2.613881 g / cm^3
# Si number density = 26.198439 Si / 1000 Ang^3
#
#
#
# Elastic Constant Matrix: (Units=GPa)
#
#
# Indices 1 2 3 4 5 6 
#
# 1 148.2378 45.7981 9.0749 0.0000 0.0000 0.0000
# 2 45.7981 149.5729 11.4075 0.0000 0.0000 0.0000
# 3 9.0749 11.4075 32.7331 0.0000 0.0000 0.0000
# 4 0.0000 0.0000 0.0000 18.2161 0.0000 0.0000
# 5 0.0000 0.0000 0.0000 0.0000 31.9573 0.0000
# 6 0.0000 0.0000 0.0000 0.0000 0.0000 35.8567
#
#
#
# Elastic Compliance Matrix: (Units=1/GPa)
#
#
# Indices 1 2 3 4 5 6 
#
# 1 0.007505 -0.002198 -0.001315 0.000000 0.000000 0.000000
# 2 -0.002198 0.007512 -0.002009 0.000000 0.000000 0.000000
# 3 -0.001315 -0.002009 0.031615 0.000000 0.000000 0.000000
# 4 0.000000 0.000000 0.000000 0.054896 0.000000 0.000000
# 5 0.000000 0.000000 0.000000 0.000000 0.031292 0.000000
# 6 0.000000 0.000000 0.000000 0.000000 0.000000 0.027889
#
#
# Mechanical properties :
#
#
# Convention : Reuss Voigt Hill
#
# Bulk Modulus (GPa) = 28.09824 51.45607 39.77715
# Shear Modulus (GPa) = 27.23097 34.82357 31.02727
#
# Velocity S-wave (km/s) = 3.22749 3.64981 3.44512
# Velocity P-wave (km/s) = 4.96360 6.11923 5.57146
#
# Compressibility (1/GPa) = 0.03558942
#
# Stress axis : x y z
#
# Youngs Moduli (GPa) = 133.23684 133.12305 31.63096
#
# Poissons Ratio (x) = 0.29258 0.04159
# Poissons Ratio (y) = 0.29283 0.06353
# Poissons Ratio (z) = 0.17519 0.26738
#
# Static dielectric constant tensor:
#      x y z
#    x 2.078570 0.000000 0.000000 
#    y 0.000000 2.002350 0.000000 
#    z 0.000000 0.000000 2.306880 
# 
# From -- ./inp_files/11210.got.cif
#   From: 2010.05.17/outbox.cif.g08.bks.cpg/sg62_6_cif.got.tgz:11210.got - 2010.06.03 15:25:27.
