data_PCOD9461568
_publ_section_title
;
Structure prediction by ZEFSAII (Michael W. Deem and Ramdas Pophale) SiO2 
 PCOD9461568
Probable space group: P N M A
;
_chemical_formula_sum "Si O2"
_cell_formula_units_Z 64
_cell_length_a 26.840753
_cell_length_b 9.037033
_cell_length_c 18.997472
_cell_angle_alpha 90.000000
_cell_angle_beta 90.000000
_cell_angle_gamma 90.000000
_cell_volume 4608.041448
_symmetry_space_group_name_H-M "P N M A"
_symmetry_group_IT_number 62
_symmetry_cell_setting 'orthorhombic'
loop_
_space_group_symop_operation_xyz
x,y,z
1/2-x,-y,1/2+z
1/2+x,1/2-y,1/2-z
-x,1/2+y,-z
-x,-y,-z
1/2+x,y,1/2-z
1/2-x,1/2+y,1/2+z
x,1/2-y,z
loop_
_atom_site_type_symbol
_atom_site_label
_atom_site_fract_x
_atom_site_fract_y
_atom_site_fract_z
Si Si1 0.252748 0.430318 0.582236
Si Si2 0.198063 0.920155 0.298628
Si Si3 0.852899 0.426837 0.157667
Si Si4 0.696179 0.078772 0.784376
Si Si5 0.947806 0.926379 0.915659
Si Si6 0.354822 0.429537 0.660651
Si Si7 0.553908 0.426339 0.581929
Si Si8 0.749690 0.572386 0.578038
O O1 0.252103 0.250000 0.583151
O O2 0.210081 0.476575 0.637558
O O3 0.306947 0.472667 0.612855
O O4 0.245812 0.480221 0.502271
O O5 0.187111 0.750000 0.316513
O O6 0.250261 0.921337 0.255368
O O7 0.157984 0.973144 0.241162
O O8 0.208871 0.010472 0.368910
O O9 0.858172 0.250000 0.156142
O O10 0.840034 0.482984 0.236073
O O11 0.901367 0.503980 0.126162
O O12 0.804660 0.467456 0.109707
O O13 0.679338 0.250000 0.787091
O O14 0.950134 0.750000 0.905661
O O15 0.904087 0.997797 0.869965
O O16 0.937382 0.955078 0.998621
O O17 0.001120 0.999593 0.899626
O O18 0.358220 0.250000 0.658693
O O19 0.551449 0.250000 0.591993
O O20 0.752332 0.750000 0.578228
#
# Coordination Sequence:
#
# PCOD9461568 Si02
#       8
#     8   8   8   8   8   8   8   8
#     4   8  14  25  41  59  79 108 142 169 197 238
#     4   8  15  26  39  56  78 106 137 166 197 236
#     4  10  18  27  41  60  82 107 136 170 205 238
#     4   8  14  26  41  55  76 106 138 168 197 236
#     4  10  20  31  43  61  82 103 133 173 207 233
#     4   9  16  28  44  58  78 110 141 166 199 243
#     4  10  20  32  44  58  79 108 138 166 200 241
#     4   9  16  25  39  59  82 108 137 169 204 238
#
# _framework density 13.888764
#
# number of rings (size 3 to 8) (size 9 to 14) (size 15 to 20)
#    0.000    3.000    0.000    3.375    0.000    3.500 
#    0.000    3.125    0.000    0.000    0.000    0.000 
#    0.000    1.000    0.000    3.000    0.000    4.625 
#
# Total GULP energy -356369.599292 kJ/mol
# GULP energy per Si atom -5568.274989 kJ/mol
# Density = 1.385715 g / cm^3
# Si number density = 13.888764 Si / 1000 Ang^3
#
#
#
# Elastic Constant Matrix: (Units=GPa)
#
#
# Indices 1 2 3 4 5 6 
#
# 1 90.4400 41.5477 63.6445 0.0000 0.0000 0.0000
# 2 41.5477 34.7276 39.9928 0.0000 0.0000 0.0000
# 3 63.6445 39.9928 122.3979 0.0000 0.0000 0.0000
# 4 0.0000 0.0000 0.0000 20.4512 0.0000 0.0000
# 5 0.0000 0.0000 0.0000 0.0000 26.6716 0.0000
# 6 0.0000 0.0000 0.0000 0.0000 0.0000 21.1721
#
#
#
# Elastic Compliance Matrix: (Units=1/GPa)
#
#
# Indices 1 2 3 4 5 6 
#
# 1 0.026692 -0.025574 -0.005524 0.000000 0.000000 0.000000
# 2 -0.025574 0.070669 -0.009793 0.000000 0.000000 0.000000
# 3 -0.005524 -0.009793 0.014242 0.000000 0.000000 0.000000
# 4 0.000000 0.000000 0.000000 0.048897 0.000000 0.000000
# 5 0.000000 0.000000 0.000000 0.000000 0.037493 0.000000
# 6 0.000000 0.000000 0.000000 0.000000 0.000000 0.047232
#
#
# Mechanical properties :
#
#
# Convention : Reuss Voigt Hill
#
# Bulk Modulus (GPa) = 33.53064 59.77062 46.65063
# Shear Modulus (GPa) = 14.83913 20.48435 17.66174
#
# Velocity S-wave (km/s) = 3.27223 3.84459 3.56990
# Velocity P-wave (km/s) = 6.20252 7.92695 7.11716
#
# Compressibility (1/GPa) = 0.02982347
#
# Stress axis : x y z
#
# Youngs Moduli (GPa) = 37.46372 14.15043 70.21490
#
# Poissons Ratio (x) = 0.36188 0.38783
# Poissons Ratio (y) = 0.95808 0.68761
# Poissons Ratio (z) = 0.20693 0.13857
#
# Static dielectric constant tensor:
#      x y z
#    x 1.429510 0.000000 0.000000 
#    y 0.000000 1.462660 0.000000 
#    z 0.000000 0.000000 1.467690 
# 
# From -- ./inp_files/24911.got.cif
#   From: 2010.05.17/outbox.cif.g08.bks.cpg/sg62_13_cif.got.tgz:24911.got - 2010.06.03 15:25:27.
