data_PCOD9461617
_publ_section_title
;
Structure prediction by ZEFSAII (Michael W. Deem and Ramdas Pophale) SiO2 
 PCOD9461617
Probable space group: P N M A
;
_chemical_formula_sum "Si O2"
_cell_formula_units_Z 48
_cell_length_a 24.545704
_cell_length_b 7.592970
_cell_length_c 14.295254
_cell_angle_alpha 90.000000
_cell_angle_beta 90.000000
_cell_angle_gamma 90.000000
_cell_volume 2664.275021
_symmetry_space_group_name_H-M "P N M A"
_symmetry_group_IT_number 62
_symmetry_cell_setting 'orthorhombic'
loop_
_space_group_symop_operation_xyz
x,y,z
1/2-x,-y,1/2+z
1/2+x,1/2-y,1/2-z
-x,1/2+y,-z
-x,-y,-z
1/2+x,y,1/2-z
1/2-x,1/2+y,1/2+z
x,1/2-y,z
loop_
_atom_site_type_symbol
_atom_site_label
_atom_site_fract_x
_atom_site_fract_y
_atom_site_fract_z
Si Si1 0.660620 0.546011 0.271807
Si Si2 0.936659 0.036345 0.897656
Si Si3 0.559690 0.040524 0.612529
Si Si4 0.729258 0.965745 0.101986
Si Si5 0.765526 0.457593 0.390203
Si Si6 0.835455 0.537245 0.217223
O O1 0.647223 0.750000 0.253452
O O2 0.608750 0.469248 0.325629
O O3 0.682706 0.470828 0.173842
O O4 0.712647 0.540417 0.341017
O O5 0.936916 0.250000 0.894673
O O6 0.998060 0.971707 0.877122
O O7 0.923402 0.987518 0.004634
O O8 0.556534 0.250000 0.627960
O O9 0.606482 0.970727 0.680836
O O10 0.727895 0.750000 0.103519
O O11 0.787183 0.018951 0.146624
O O12 0.724483 0.023207 0.995068
O O13 0.753992 0.250000 0.395962
O O14 0.816035 0.484656 0.320328
O O15 0.836397 0.750000 0.214719
#
# Coordination Sequence:
#
# PCOD9461617 Si02
#       6
#     8   8   8   8   8   8
#     4   9  17  30  45  62  87 115 141 171 212 259
#     4   9  17  28  45  68  89 113 147 181 211 251
#     4   9  17  29  45  65  90 118 144 174 216 260
#     4   8  15  27  42  59  81 111 140 168 207 253
#     4  10  18  28  44  65  85 108 143 180 214 252
#     4   9  17  30  45  61  86 117 143 170 212 261
#
# _framework density 18.016158000000001
#
# number of rings (size 3 to 8) (size 9 to 14) (size 15 to 20)
#    0.000    3.000    0.000    2.500    0.000    2.667 
#    0.000    8.333    0.000    1.000    0.000    0.000 
#    0.000    0.000    0.000    0.000    0.000    0.167 
#
# Total GULP energy -267538.129801 kJ/mol
# GULP energy per Si atom -5573.711038 kJ/mol
# Density = 1.797515 g / cm^3
# Si number density = 18.016158 Si / 1000 Ang^3
#
#
#
# Elastic Constant Matrix: (Units=GPa)
#
#
# Indices 1 2 3 4 5 6 
#
# 1 80.3082 -3.7854 65.5255 0.0000 0.0000 0.0000
# 2 -3.7854 35.6580 -8.2975 0.0000 0.0000 0.0000
# 3 65.5255 -8.2975 152.6326 0.0000 0.0000 0.0000
# 4 0.0000 0.0000 0.0000 15.7138 0.0000 0.0000
# 5 0.0000 0.0000 0.0000 0.0000 29.4084 0.0000
# 6 0.0000 0.0000 0.0000 0.0000 0.0000 12.2379
#
#
#
# Elastic Compliance Matrix: (Units=1/GPa)
#
#
# Indices 1 2 3 4 5 6 
#
# 1 0.019166 0.000122 -0.008221 0.000000 0.000000 0.000000
# 2 0.000122 0.028404 0.001492 0.000000 0.000000 0.000000
# 3 -0.008221 0.001492 0.010162 0.000000 0.000000 0.000000
# 4 0.000000 0.000000 0.000000 0.063638 0.000000 0.000000
# 5 0.000000 0.000000 0.000000 0.000000 0.034004 0.000000
# 6 0.000000 0.000000 0.000000 0.000000 0.000000 0.081713
#
#
# Mechanical properties :
#
#
# Convention : Reuss Voigt Hill
#
# Bulk Modulus (GPa) = 22.46350 41.72043 32.09197
# Shear Modulus (GPa) = 18.85780 25.81576 22.33678
#
# Velocity S-wave (km/s) = 3.23881 3.78950 3.52493
# Velocity P-wave (km/s) = 5.14608 6.50804 5.86672
#
# Compressibility (1/GPa) = 0.04451665
#
# Stress axis : x y z
#
# Youngs Moduli (GPa) = 52.17660 35.20595 98.40400
#
# Poissons Ratio (x) = -0.00428 0.80900
# Poissons Ratio (y) = -0.00634 -0.14681
# Poissons Ratio (z) = 0.42896 -0.05252
#
# Static dielectric constant tensor:
#      x y z
#    x 1.626200 0.000000 0.000000 
#    y 0.000000 1.676850 0.000000 
#    z 0.000000 0.000000 1.605500 
# 
# From -- ./inp_files/15396.got.cif
#   From: 2010.05.17/outbox.cif.g08.bks.cpg/sg62_8_cif.got.tgz:15396.got - 2010.06.03 15:25:27.
