data_PCOD9461379
_publ_section_title
;
Structure prediction by ZEFSAII (Michael W. Deem and Ramdas Pophale) SiO2 
 PCOD9461379
Probable space group: P N M A
;
_chemical_formula_sum "Si O2"
_cell_formula_units_Z 56
_cell_length_a 21.475330
_cell_length_b 8.592712
_cell_length_c 19.083250
_cell_angle_alpha 90.000000
_cell_angle_beta 90.000000
_cell_angle_gamma 90.000000
_cell_volume 3521.457423
_symmetry_space_group_name_H-M "P N M A"
_symmetry_group_IT_number 62
_symmetry_cell_setting 'orthorhombic'
loop_
_space_group_symop_operation_xyz
x,y,z
1/2-x,-y,1/2+z
1/2+x,1/2-y,1/2-z
-x,1/2+y,-z
-x,-y,-z
1/2+x,y,1/2-z
1/2-x,1/2+y,1/2+z
x,1/2-y,z
loop_
_atom_site_type_symbol
_atom_site_label
_atom_site_fract_x
_atom_site_fract_y
_atom_site_fract_z
Si Si1 0.625525 0.438801 0.148908
Si Si2 0.254601 0.059834 0.425698
Si Si3 0.253362 0.564719 0.084604
Si Si4 0.178548 0.569843 0.793438
Si Si5 0.311735 0.570329 0.712659
Si Si6 0.621511 0.562381 0.845502
Si Si7 0.999277 0.435400 0.578865
O O1 0.622479 0.250000 0.148239
O O2 0.685916 0.483910 0.102524
O O3 0.639287 0.486927 0.229358
O O4 0.563183 0.507462 0.117128
O O5 0.256595 0.250000 0.422962
O O6 0.262702 0.012348 0.505921
O O7 0.305959 0.001507 0.369718
O O8 0.262476 0.750000 0.083684
O O9 0.201124 0.522135 0.141846
O O10 0.317932 0.488177 0.110111
O O11 0.159940 0.750000 0.803942
O O12 0.245848 0.570273 0.754635
O O13 0.132611 0.503179 0.734520
O O14 0.325521 0.750000 0.695387
O O15 0.619750 0.750000 0.843961
O O16 0.559563 0.497753 0.880235
O O17 0.000971 0.250000 0.576501
O O18 0.000000 0.500000 0.500000
#
# Coordination Sequence:
#
# PCOD9461379 Si02
#       7
#     8   8   8   8   8   8   8
#     4   9  17  32  50  65  87 122 160 191 222 264
#     4   8  14  25  43  67  91 115 144 181 224 266
#     4  10  17  25  43  70  97 121 147 185 230 272
#     4   7  12  25  44  63  83 111 147 182 217 262
#     4   8  15  28  45  63  87 120 153 185 223 271
#     4  10  19  32  48  64  87 121 158 191 224 266
#     4  12  24  35  47  66  93 122 153 187 223 267
#
# _framework density 15.902506000000001
#
# number of rings (size 3 to 8) (size 9 to 14) (size 15 to 20)
#    0.000    2.857    0.000    5.571    0.000    1.714 
#    0.000    0.714    0.000    8.571    0.000    1.000 
#    0.000    0.000    0.000    0.000    0.000    0.000 
#
# Total GULP energy -311806.516603 kJ/mol
# GULP energy per Si atom -5567.973511 kJ/mol
# Density = 1.586631 g / cm^3
# Si number density = 15.902506 Si / 1000 Ang^3
#
#
#
# Elastic Constant Matrix: (Units=GPa)
#
#
# Indices 1 2 3 4 5 6 
#
# 1 78.6322 24.9363 71.2495 0.0000 0.0000 0.0000
# 2 24.9363 42.4290 37.9901 0.0000 0.0000 0.0000
# 3 71.2495 37.9901 166.9721 0.0000 0.0000 0.0000
# 4 0.0000 0.0000 0.0000 22.3336 0.0000 0.0000
# 5 0.0000 0.0000 0.0000 0.0000 26.6911 0.0000
# 6 0.0000 0.0000 0.0000 0.0000 0.0000 20.1130
#
#
#
# Elastic Compliance Matrix: (Units=1/GPa)
#
#
# Indices 1 2 3 4 5 6 
#
# 1 0.021751 -0.005617 -0.008003 0.000000 0.000000 0.000000
# 2 -0.005617 0.031049 -0.004667 0.000000 0.000000 0.000000
# 3 -0.008003 -0.004667 0.010466 0.000000 0.000000 0.000000
# 4 0.000000 0.000000 0.000000 0.044776 0.000000 0.000000
# 5 0.000000 0.000000 0.000000 0.000000 0.037466 0.000000
# 6 0.000000 0.000000 0.000000 0.000000 0.000000 0.049719
#
#
# Mechanical properties :
#
#
# Convention : Reuss Voigt Hill
#
# Bulk Modulus (GPa) = 37.46720 61.82058 49.64389
# Shear Modulus (GPa) = 20.77282 24.08471 22.42877
#
# Velocity S-wave (km/s) = 3.61814 3.89591 3.75959
# Velocity P-wave (km/s) = 6.40830 7.69393 7.08036
#
# Compressibility (1/GPa) = 0.02669001
#
# Stress axis : x y z
#
# Youngs Moduli (GPa) = 45.97562 32.20682 95.54660
#
# Poissons Ratio (x) = 0.18092 0.76468
# Poissons Ratio (y) = 0.25826 0.44596
# Poissons Ratio (z) = 0.36795 0.15032
#
# Static dielectric constant tensor:
#      x y z
#    x 1.508300 0.000000 0.000000 
#    y 0.000000 1.553500 0.000000 
#    z 0.000000 0.000000 1.568320 
# 
# From -- ./inp_files/24631.got.cif
#   From: 2010.05.17/outbox.cif.g08.bks.cpg/sg62_13_cif.got.tgz:24631.got - 2010.06.03 15:25:27.
