data_PCOD9461246
_publ_section_title
;
Structure prediction by ZEFSAII (Michael W. Deem and Ramdas Pophale) SiO2 
 PCOD9461246
Probable space group: P B C A
;
_chemical_formula_sum "Si O2"
_cell_formula_units_Z 48
_cell_length_a 5.183847
_cell_length_b 21.897623
_cell_length_c 18.359549
_cell_angle_alpha 90.000000
_cell_angle_beta 90.000000
_cell_angle_gamma 90.000000
_cell_volume 2084.064510
_symmetry_space_group_name_H-M "P B C A"
_symmetry_group_IT_number 61
_symmetry_cell_setting 'orthorhombic'
loop_
_space_group_symop_operation_xyz
x,y,z
1/2-x,-y,1/2+z
1/2+x,1/2-y,-z
-x,1/2+y,1/2-z
-x,-y,-z
1/2+x,y,1/2-z
1/2-x,1/2+y,z
x,1/2-y,1/2+z
loop_
_atom_site_type_symbol
_atom_site_label
_atom_site_fract_x
_atom_site_fract_y
_atom_site_fract_z
Si Si1 0.579226 0.428295 0.082655
Si Si2 0.986733 0.063238 0.088438
Si Si3 0.123772 0.810938 0.939807
Si Si4 0.618941 0.680110 0.541710
Si Si5 0.150880 0.955479 0.707886
Si Si6 0.785821 0.898181 0.290668
O O1 0.633143 0.497422 0.110489
O O2 0.824692 0.384180 0.079811
O O3 0.364953 0.395308 0.132253
O O4 0.488805 0.435955 0.999266
O O5 0.868959 0.128630 0.109300
O O6 0.270286 0.060679 0.125168
O O7 0.137022 0.741770 0.910153
O O8 0.355607 0.818321 0.997176
O O9 0.852685 0.814073 0.983325
O O10 0.888702 0.932898 0.742630
O O11 0.162640 0.028859 0.714396
O O12 0.064344 0.874156 0.265124
#
# Coordination Sequence:
#
# PCOD9461246 Si02
#       6
#     8   8   8   8   8   8
#     4   9  18  32  53  80 104 128 168 218 253 285
#     4   9  18  32  53  80 104 128 168 218 253 285
#     4   9  18  32  49  71 101 134 164 200 252 306
#     4   9  18  32  49  71 101 134 164 200 252 306
#     4   9  18  32  48  68  99 136 165 194 246 308
#     4   9  18  32  48  68  99 136 165 194 246 308
#
# _framework density 23.031915000000001
#
# number of rings (size 3 to 8) (size 9 to 14) (size 15 to 20)
#    0.000    3.000    0.000    0.000    0.000    6.000 
#    0.000   10.000    0.000    2.000    0.000    0.000 
#    0.000    0.000    0.000    0.000    0.000    0.000 
#
# Total GULP energy -267461.882195 kJ/mol
# GULP energy per Si atom -5572.122546 kJ/mol
# Density = 2.297949 g / cm^3
# Si number density = 23.031915 Si / 1000 Ang^3
#
#
#
# Elastic Constant Matrix: (Units=GPa)
#
#
# Indices 1 2 3 4 5 6 
#
# 1 100.9245 -0.3712 8.5596 0.0000 0.0000 0.0000
# 2 -0.3712 127.1115 -38.5506 0.0000 0.0000 0.0000
# 3 8.5596 -38.5506 73.3562 0.0000 0.0000 0.0000
# 4 0.0000 0.0000 0.0000 8.4413 0.0000 0.0000
# 5 0.0000 0.0000 0.0000 0.0000 102.7476 0.0000
# 6 0.0000 0.0000 0.0000 0.0000 0.0000 42.5596
#
#
#
# Elastic Compliance Matrix: (Units=1/GPa)
#
#
# Indices 1 2 3 4 5 6 
#
# 1 0.010023 -0.000387 -0.001373 0.000000 0.000000 0.000000
# 2 -0.000387 0.009374 0.004971 0.000000 0.000000 0.000000
# 3 -0.001373 0.004971 0.016405 0.000000 0.000000 0.000000
# 4 0.000000 0.000000 0.000000 0.118465 0.000000 0.000000
# 5 0.000000 0.000000 0.000000 0.000000 0.009733 0.000000
# 6 0.000000 0.000000 0.000000 0.000000 0.000000 0.023496
#
#
# Mechanical properties :
#
#
# Convention : Reuss Voigt Hill
#
# Bulk Modulus (GPa) = 23.68312 26.74085 25.21198
# Shear Modulus (GPa) = 25.62152 52.86667 39.24410
#
# Velocity S-wave (km/s) = 3.33894 4.79620 4.13231
# Velocity P-wave (km/s) = 5.01694 6.50437 5.80847
#
# Compressibility (1/GPa) = 0.04222417
#
# Stress axis : x y z
#
# Youngs Moduli (GPa) = 99.76631 106.68168 60.95755
#
# Poissons Ratio (x) = 0.04130 0.08370
# Poissons Ratio (y) = 0.03862 -0.30304
# Poissons Ratio (z) = 0.13698 -0.53035
#
# Static dielectric constant tensor:
#      x y z
#    x 1.906100 0.000000 0.000000 
#    y 0.000000 1.944530 0.000000 
#    z 0.000000 0.000000 1.922450 
# 
# From -- ./inp_files/8748.got.cif
#   From: 2010.05.17/outbox.cif.g08.bks.cpg/sg61_5_cif.got.tgz:8748.got - 2010.06.03 15:17:17.
