data_PCOD9461044
_publ_section_title
;
Structure prediction by ZEFSAII (Michael W. Deem and Ramdas Pophale) SiO2 
 PCOD9461044
Probable space group: P B C A
;
_chemical_formula_sum "Si O2"
_cell_formula_units_Z 32
_cell_length_a 20.101445
_cell_length_b 4.863852
_cell_length_c 13.426182
_cell_angle_alpha 90.000000
_cell_angle_beta 90.000000
_cell_angle_gamma 90.000000
_cell_volume 1312.683902
_symmetry_space_group_name_H-M "P B C A"
_symmetry_group_IT_number 61
_symmetry_cell_setting 'orthorhombic'
loop_
_space_group_symop_operation_xyz
x,y,z
1/2-x,-y,1/2+z
1/2+x,1/2-y,-z
-x,1/2+y,1/2-z
-x,-y,-z
1/2+x,y,1/2-z
1/2-x,1/2+y,z
x,1/2-y,1/2+z
loop_
_atom_site_type_symbol
_atom_site_label
_atom_site_fract_x
_atom_site_fract_y
_atom_site_fract_z
Si Si1 0.893935 0.546553 0.459072
Si Si2 0.459578 0.447826 0.631473
Si Si3 0.206059 0.041814 0.216223
Si Si4 0.595704 0.738335 0.164090
O O1 0.915578 0.857498 0.439193
O O2 0.829978 0.492759 0.389666
O O3 0.884839 0.448606 0.570888
O O4 0.952635 0.358260 0.411025
O O5 0.428088 0.442509 0.741465
O O6 0.532519 0.571156 0.638028
O O7 0.271823 0.855621 0.224211
O O8 0.154969 0.933675 0.298709
#
# Coordination Sequence:
#
# PCOD9461044 Si02
#       4
#     8   8   8   8
#     4  11  25  43  68  97 134 174 215 272 334 394
#     4  11  24  42  67 105 133 161 219 274 329 409
#     4  11  25  43  62  93 130 170 226 269 304 381
#     4  11  24  44  71  97 135 177 211 271 343 386
#
# _framework density 24.37754
#
# number of rings (size 3 to 8) (size 9 to 14) (size 15 to 20)
#    0.000    1.000    0.000    7.500    0.000   12.000 
#    0.000    0.000    0.000    0.000    0.000    0.000 
#    0.000    0.000    0.000    0.000    0.000    0.000 
#
# Total GULP energy -179648.118020 kJ/mol
# GULP energy per Si atom -5614.003688 kJ/mol
# Density = 2.432206 g / cm^3
# Si number density = 24.377540 Si / 1000 Ang^3
#
#
#
# Elastic Constant Matrix: (Units=GPa)
#
#
# Indices 1 2 3 4 5 6 
#
# 1 90.8458 2.7722 18.5171 0.0000 0.0000 0.0000
# 2 2.7722 80.0983 5.6804 0.0000 0.0000 0.0000
# 3 18.5171 5.6804 135.7646 0.0000 0.0000 0.0000
# 4 0.0000 0.0000 0.0000 35.7889 0.0000 0.0000
# 5 0.0000 0.0000 0.0000 0.0000 13.1898 0.0000
# 6 0.0000 0.0000 0.0000 0.0000 0.0000 22.3231
#
#
#
# Elastic Compliance Matrix: (Units=1/GPa)
#
#
# Indices 1 2 3 4 5 6 
#
# 1 0.011329 -0.000283 -0.001533 0.000000 0.000000 0.000000
# 2 -0.000283 0.012529 -0.000486 0.000000 0.000000 0.000000
# 3 -0.001533 -0.000486 0.007595 0.000000 0.000000 0.000000
# 4 0.000000 0.000000 0.000000 0.027942 0.000000 0.000000
# 5 0.000000 0.000000 0.000000 0.000000 0.075816 0.000000
# 6 0.000000 0.000000 0.000000 0.000000 0.000000 0.044797
#
#
# Mechanical properties :
#
#
# Convention : Reuss Voigt Hill
#
# Bulk Modulus (GPa) = 37.24608 40.07199 38.65904
# Shear Modulus (GPa) = 25.83161 32.90962 29.37061
#
# Velocity S-wave (km/s) = 3.25875 3.67822 3.47482
# Velocity P-wave (km/s) = 5.42875 5.87476 5.65615
#
# Compressibility (1/GPa) = 0.02684846
#
# Stress axis : x y z
#
# Youngs Moduli (GPa) = 88.27028 79.81548 131.66328
#
# Poissons Ratio (x) = 0.02262 0.20188
# Poissons Ratio (y) = 0.02501 0.06393
# Poissons Ratio (z) = 0.13534 0.03876
#
# Static dielectric constant tensor:
#      x y z
#    x 1.909740 0.000000 0.000000 
#    y 0.000000 1.894270 0.000000 
#    z 0.000000 0.000000 1.934030 
# 
# From -- ./inp_files/8041.got.cif
#   From: 2010.05.17/outbox.cif.g08.bks.cpg/sg61_5_cif.got.tgz:8041.got - 2010.06.03 15:17:17.
