data_PCOD9461540
_publ_section_title
;
Structure prediction by ZEFSAII (Michael W. Deem and Ramdas Pophale) SiO2 
 PCOD9461540
Probable space group: P N M A
;
_chemical_formula_sum "Si O2"
_cell_formula_units_Z 56
_cell_length_a 5.268277
_cell_length_b 28.328734
_cell_length_c 24.016671
_cell_angle_alpha 90.000000
_cell_angle_beta 90.000000
_cell_angle_gamma 90.000000
_cell_volume 3584.334867
_symmetry_space_group_name_H-M "P N M A"
_symmetry_group_IT_number 62
_symmetry_cell_setting 'orthorhombic'
loop_
_space_group_symop_operation_xyz
x,y,z
1/2-x,-y,1/2+z
1/2+x,1/2-y,1/2-z
-x,1/2+y,-z
-x,-y,-z
1/2+x,y,1/2-z
1/2-x,1/2+y,1/2+z
x,1/2-y,z
loop_
_atom_site_type_symbol
_atom_site_label
_atom_site_fract_x
_atom_site_fract_y
_atom_site_fract_z
Si Si1 0.634465 0.484828 0.894503
Si Si2 0.612835 0.460217 0.541643
Si Si3 0.105725 0.045769 0.732934
Si Si4 0.679642 0.194061 0.214023
Si Si5 0.282167 0.379857 0.381691
Si Si6 0.218967 0.909190 0.563876
Si Si7 0.874958 0.058095 0.220306
O O1 0.367844 0.476587 0.926518
O O2 0.602184 0.472267 0.830019
O O3 0.710062 0.539480 0.905193
O O4 0.871155 0.453872 0.918015
O O5 0.500000 0.500000 0.500000
O O6 0.703616 0.419293 0.499782
O O7 0.357350 0.072771 0.748974
O O8 0.112938 0.998278 0.771792
O O9 0.413149 0.183663 0.244195
O O10 0.687078 0.250000 0.201814
O O11 0.719076 0.163306 0.158982
O O12 0.558927 0.378252 0.408856
O O13 0.295116 0.425073 0.340161
O O14 0.058238 0.387796 0.425746
O O15 0.652802 0.075557 0.261783
#
# Coordination Sequence:
#
# PCOD9461540 Si02
#       7
#     8   8   8   8   8   8   8
#     4  11  19  31  44  57  82 112 133 166 219 262
#     4  10  20  32  43  57  78 108 138 166 209 265
#     4  10  18  27  38  56  76  98 128 164 202 244
#     4  10  21  36  50  65  88 116 142 170 219 289
#     4  12  20  30  46  64  82 104 133 178 223 252
#     4  11  20  30  44  62  79 100 137 175 209 254
#     4  10  18  26  36  55  77  94 118 157 204 248
#
# _framework density 15.62354
#
# number of rings (size 3 to 8) (size 9 to 14) (size 15 to 20)
#    0.000    1.429    0.000   11.143    0.000    0.000 
#    0.000    0.000    0.000    0.000    0.000    0.000 
#    0.000    0.000    0.000    0.000    0.000    0.000 
#
# Total GULP energy -312468.169634 kJ/mol
# GULP energy per Si atom -5579.788743 kJ/mol
# Density = 1.558798 g / cm^3
# Si number density = 15.623540 Si / 1000 Ang^3
#
#
#
# Elastic Constant Matrix: (Units=GPa)
#
#
# Indices 1 2 3 4 5 6 
#
# 1 136.6101 8.7890 30.0325 0.0000 0.0000 0.0000
# 2 8.7890 19.2904 8.5571 0.0000 0.0000 0.0000
# 3 30.0325 8.5571 54.7064 0.0000 0.0000 0.0000
# 4 0.0000 0.0000 0.0000 13.8710 0.0000 0.0000
# 5 0.0000 0.0000 0.0000 0.0000 36.2450 0.0000
# 6 0.0000 0.0000 0.0000 0.0000 0.0000 12.0848
#
#
#
# Elastic Compliance Matrix: (Units=1/GPa)
#
#
# Indices 1 2 3 4 5 6 
#
# 1 0.008390 -0.001912 -0.004307 0.000000 0.000000 0.000000
# 2 -0.001912 0.056140 -0.007732 0.000000 0.000000 0.000000
# 3 -0.004307 -0.007732 0.021853 0.000000 0.000000 0.000000
# 4 0.000000 0.000000 0.000000 0.072093 0.000000 0.000000
# 5 0.000000 0.000000 0.000000 0.000000 0.027590 0.000000
# 6 0.000000 0.000000 0.000000 0.000000 0.000000 0.082749
#
#
# Mechanical properties :
#
#
# Convention : Reuss Voigt Hill
#
# Bulk Modulus (GPa) = 17.09927 33.92934 25.51431
# Shear Modulus (GPa) = 15.81231 23.32206 19.56718
#
# Velocity S-wave (km/s) = 3.18478 3.86781 3.54279
# Velocity P-wave (km/s) = 4.94894 6.45837 5.75337
#
# Compressibility (1/GPa) = 0.05848201
#
# Stress axis : x y z
#
# Youngs Moduli (GPa) = 119.19050 17.81260 45.76018
#
# Poissons Ratio (x) = 0.03406 0.19708
# Poissons Ratio (y) = 0.22791 0.35380
# Poissons Ratio (z) = 0.51333 0.13772
#
# Static dielectric constant tensor:
#      x y z
#    x 1.633900 0.000000 0.000000 
#    y 0.000000 1.499260 0.000000 
#    z 0.000000 0.000000 1.546080 
# 
# From -- ./inp_files/25444.got.cif
#   From: 2010.05.17/outbox.cif.g08.bks.cpg/sg62_13_cif.got.tgz:25444.got - 2010.06.03 15:25:27.
