data_PCOD9461135
_publ_section_title
;
Structure prediction by ZEFSAII (Michael W. Deem and Ramdas Pophale) SiO2 
 PCOD9461135
Probable space group: P B C A
;
_chemical_formula_sum "Si O2"
_cell_formula_units_Z 40
_cell_length_a 20.256073
_cell_length_b 6.639231
_cell_length_c 9.928434
_cell_angle_alpha 90.000000
_cell_angle_beta 90.000000
_cell_angle_gamma 90.000000
_cell_volume 1335.222943
_symmetry_space_group_name_H-M "P B C A"
_symmetry_group_IT_number 61
_symmetry_cell_setting 'orthorhombic'
loop_
_space_group_symop_operation_xyz
x,y,z
1/2-x,-y,1/2+z
1/2+x,1/2-y,-z
-x,1/2+y,1/2-z
-x,-y,-z
1/2+x,y,1/2-z
1/2-x,1/2+y,z
x,1/2-y,1/2+z
loop_
_atom_site_type_symbol
_atom_site_label
_atom_site_fract_x
_atom_site_fract_y
_atom_site_fract_z
Si Si1 0.410566 0.800902 0.559107
Si Si2 0.961177 0.960838 0.666219
Si Si3 0.093058 0.901202 0.827953
Si Si4 0.232912 0.153329 0.480789
Si Si5 0.260602 0.919855 0.272251
O O1 0.460270 0.663775 0.471683
O O2 0.423964 0.844000 0.712968
O O3 0.340922 0.699789 0.529030
O O4 0.414757 0.009082 0.476953
O O5 0.034633 0.967976 0.728077
O O6 0.918936 0.164395 0.658653
O O7 0.164487 0.983210 0.782341
O O8 0.270203 0.118983 0.624983
O O9 0.261552 0.396412 0.440236
O O10 0.226655 0.160850 0.305795
#
# Coordination Sequence:
#
# PCOD9461135 Si02
#       5
#     8   8   8   8   8
#     4  11  26  49  77 114 156 212 258 331 397 469
#     4  12  26  49  79 115 162 207 265 327 397 480
#     4  11  26  46  80 119 158 207 264 325 402 475
#     4  11  25  49  78 110 161 201 273 328 399 476
#     4  11  26  51  78 119 155 217 261 337 403 479
#
# _framework density 29.957545
#
# number of rings (size 3 to 8) (size 9 to 14) (size 15 to 20)
#    0.000    0.800    2.000    4.200    2.800    5.600 
#    3.600    0.000    0.000    0.000    0.000    0.000 
#    0.000    0.000    0.000    0.000    0.000    0.000 
#
# Total GULP energy -224152.998217 kJ/mol
# GULP energy per Si atom -5603.824955 kJ/mol
# Density = 2.988936 g / cm^3
# Si number density = 29.957545 Si / 1000 Ang^3
#
#
#
# Elastic Constant Matrix: (Units=GPa)
#
#
# Indices 1 2 3 4 5 6 
#
# 1 198.6774 58.5120 -13.5777 0.0000 0.0000 0.0000
# 2 58.5120 280.3245 92.0649 0.0000 0.0000 0.0000
# 3 -13.5777 92.0649 178.9419 0.0000 0.0000 0.0000
# 4 0.0000 0.0000 0.0000 90.8930 0.0000 0.0000
# 5 0.0000 0.0000 0.0000 0.0000 38.6683 0.0000
# 6 0.0000 0.0000 0.0000 0.0000 0.0000 61.0983
#
#
#
# Elastic Compliance Matrix: (Units=1/GPa)
#
#
# Indices 1 2 3 4 5 6 
#
# 1 0.005579 -0.001569 0.001230 0.000000 0.000000 0.000000
# 2 -0.001569 0.004734 -0.002554 0.000000 0.000000 0.000000
# 3 0.001230 -0.002554 0.006996 0.000000 0.000000 0.000000
# 4 0.000000 0.000000 0.000000 0.011002 0.000000 0.000000
# 5 0.000000 0.000000 0.000000 0.000000 0.025861 0.000000
# 6 0.000000 0.000000 0.000000 0.000000 0.000000 0.016367
#
#
# Mechanical properties :
#
#
# Convention : Reuss Voigt Hill
#
# Bulk Modulus (GPa) = 86.77841 103.54914 95.16377
# Shear Modulus (GPa) = 62.37078 72.86156 67.61617
#
# Velocity S-wave (km/s) = 4.56781 4.93704 4.75601
# Velocity P-wave (km/s) = 7.53989 8.19387 7.87367
#
# Compressibility (1/GPa) = 0.01152360
#
# Stress axis : x y z
#
# Youngs Moduli (GPa) = 179.23204 211.25235 142.93799
#
# Poissons Ratio (x) = 0.33139 -0.17587
# Poissons Ratio (y) = 0.28116 0.36513
# Poissons Ratio (z) = -0.22053 0.53964
#
# Static dielectric constant tensor:
#      x y z
#    x 2.246460 0.000000 0.000000 
#    y 0.000000 2.637020 0.000000 
#    z 0.000000 0.000000 2.226180 
# 
# From -- ./inp_files/4151.got.cif
#   From: 2010.05.17/outbox.cif.g08.bks.cpg/sg61_3_cif.got.tgz:4151.got - 2010.06.03 15:17:17.
