data_PCOD9461774
_publ_section_title
;
Structure prediction by ZEFSAII (Michael W. Deem and Ramdas Pophale) SiO2 
 PCOD9461774
Probable space group: P N M A
;
_chemical_formula_sum "Si O2"
_cell_formula_units_Z 48
_cell_length_a 8.773960
_cell_length_b 26.544136
_cell_length_c 11.629547
_cell_angle_alpha 90.000000
_cell_angle_beta 90.000000
_cell_angle_gamma 90.000000
_cell_volume 2708.488788
_symmetry_space_group_name_H-M "P N M A"
_symmetry_group_IT_number 62
_symmetry_cell_setting 'orthorhombic'
loop_
_space_group_symop_operation_xyz
x,y,z
1/2-x,-y,1/2+z
1/2+x,1/2-y,1/2-z
-x,1/2+y,-z
-x,-y,-z
1/2+x,y,1/2-z
1/2-x,1/2+y,1/2+z
x,1/2-y,z
loop_
_atom_site_type_symbol
_atom_site_label
_atom_site_fract_x
_atom_site_fract_y
_atom_site_fract_z
Si Si1 0.124815 0.139232 0.350907
Si Si2 0.758332 0.486946 0.761369
Si Si3 0.009235 0.049102 0.918784
Si Si4 0.144693 0.250000 0.341379
Si Si5 0.513680 0.861483 0.595453
Si Si6 0.492767 0.461396 0.103876
Si Si7 0.000441 0.750000 0.903176
O O1 0.083586 0.196591 0.386475
O O2 0.077882 0.133840 0.216138
O O3 0.306197 0.133121 0.371793
O O4 0.032294 0.096382 0.418850
O O5 0.644923 0.459005 0.673223
O O6 0.852010 0.450376 0.845875
O O7 0.665723 0.527755 0.834836
O O8 0.879183 0.518780 0.690371
O O9 0.026722 0.096245 0.002838
O O10 0.000000 0.000000 0.000000
O O11 0.325530 0.250000 0.358208
O O12 0.109591 0.250000 0.206455
O O13 0.484023 0.805487 0.543424
O O14 0.500000 0.500000 0.000000
#
# Coordination Sequence:
#
# PCOD9461774 Si02
#       7
#     8   8   8   4   8   8   4
#     4  10  18  30  48  74 101 129 162 197 243 298
#     4  10  22  34  47  72 100 126 164 202 242 291
#     4  11  21  35  52  72  99 132 164 203 249 294
#     4   8  16  28  44  68 100 126 154 200 244 288
#     4  10  19  32  52  74 102 131 161 200 245 294
#     4  11  20  32  49  71  99 130 161 197 240 292
#     4   8  16  30  48  72  96 128 162 194 242 294
#
# _framework density 17.722059000000002
#
# number of rings (size 3 to 8) (size 9 to 14) (size 15 to 20)
#    0.000    2.000    0.000    6.000    0.000    1.333 
#    0.000    0.000    0.000    1.000    0.000    4.667 
#    0.000    0.000    0.000    0.000    0.000    0.000 
#
# Total GULP energy -267667.091767 kJ/mol
# GULP energy per Si atom -5576.397745 kJ/mol
# Density = 1.768172 g / cm^3
# Si number density = 17.722059 Si / 1000 Ang^3
#
#
#
# Elastic Constant Matrix: (Units=GPa)
#
#
# Indices 1 2 3 4 5 6 
#
# 1 39.1045 6.2202 13.1140 0.0000 0.0000 0.0000
# 2 6.2202 143.8672 36.6357 0.0000 0.0000 0.0000
# 3 13.1140 36.6357 54.2128 0.0000 0.0000 0.0000
# 4 0.0000 0.0000 0.0000 28.6873 0.0000 0.0000
# 5 0.0000 0.0000 0.0000 0.0000 10.5834 0.0000
# 6 0.0000 0.0000 0.0000 0.0000 0.0000 19.1735
#
#
#
# Elastic Compliance Matrix: (Units=1/GPa)
#
#
# Indices 1 2 3 4 5 6 
#
# 1 0.027876 0.000618 -0.007161 0.000000 0.000000 0.000000
# 2 0.000618 0.008409 -0.005832 0.000000 0.000000 0.000000
# 3 -0.007161 -0.005832 0.024119 0.000000 0.000000 0.000000
# 4 0.000000 0.000000 0.000000 0.034859 0.000000 0.000000
# 5 0.000000 0.000000 0.000000 0.000000 0.094488 0.000000
# 6 0.000000 0.000000 0.000000 0.000000 0.000000 0.052155
#
#
# Mechanical properties :
#
#
# Convention : Reuss Voigt Hill
#
# Bulk Modulus (GPa) = 28.04705 38.79160 33.41933
# Shear Modulus (GPa) = 17.95069 23.76982 20.86025
#
# Velocity S-wave (km/s) = 3.18606 3.66629 3.43458
# Velocity P-wave (km/s) = 5.42172 6.31337 5.88446
#
# Compressibility (1/GPa) = 0.03565437
#
# Stress axis : x y z
#
# Youngs Moduli (GPa) = 35.87369 118.91541 41.46035
#
# Poissons Ratio (x) = -0.07353 0.29689
# Poissons Ratio (y) = -0.02218 0.24181
# Poissons Ratio (z) = 0.25689 0.69356
#
# Static dielectric constant tensor:
#      x y z
#    x 1.639870 0.000000 0.000000 
#    y 0.000000 1.658640 0.000000 
#    z 0.000000 0.000000 1.577440 
# 
# From -- ./inp_files/11334.got.cif
#   From: 2010.05.17/outbox.cif.g08.bks.cpg/sg62_6_cif.got.tgz:11334.got - 2010.06.03 15:25:27.
