data_PCOD9461792
_publ_section_title
;
Structure prediction by ZEFSAII (Michael W. Deem and Ramdas Pophale) SiO2 
 PCOD9461792
Probable space group: P N M A
;
_chemical_formula_sum "Si O2"
_cell_formula_units_Z 56
_cell_length_a 8.390075
_cell_length_b 18.265388
_cell_length_c 19.449439
_cell_angle_alpha 90.000000
_cell_angle_beta 90.000000
_cell_angle_gamma 90.000000
_cell_volume 2980.587146
_symmetry_space_group_name_H-M "P N M A"
_symmetry_group_IT_number 62
_symmetry_cell_setting 'orthorhombic'
loop_
_space_group_symop_operation_xyz
x,y,z
1/2-x,-y,1/2+z
1/2+x,1/2-y,1/2-z
-x,1/2+y,-z
-x,-y,-z
1/2+x,y,1/2-z
1/2-x,1/2+y,1/2+z
x,1/2-y,z
loop_
_atom_site_type_symbol
_atom_site_label
_atom_site_fract_x
_atom_site_fract_y
_atom_site_fract_z
Si Si1 0.162347 0.586574 0.112001
Si Si2 0.330863 0.394105 0.847915
Si Si3 0.346378 0.023963 0.041207
Si Si4 0.351926 0.487367 0.410446
Si Si5 0.709720 0.669372 0.998897
Si Si6 0.089001 0.666389 0.972258
Si Si7 0.851255 0.663008 0.276628
O O1 0.306442 0.528595 0.103054
O O2 0.202000 0.635600 0.177260
O O3 0.006409 0.534752 0.111044
O O4 0.161560 0.638769 0.044853
O O5 0.287666 0.479360 0.862243
O O6 0.327352 0.356327 0.923190
O O7 0.493107 0.374498 0.809237
O O8 0.191395 0.360320 0.800621
O O9 0.359955 0.109622 0.053037
O O10 0.500000 0.000000 0.000000
O O11 0.199301 0.012506 0.987542
O O12 0.376343 0.400072 0.418292
O O13 0.645117 0.750000 0.988656
O O14 0.899284 0.669464 0.986253
O O15 0.139713 0.750000 0.955083
O O16 0.869812 0.750000 0.280890
#
# Coordination Sequence:
#
# PCOD9461792 Si02
#       7
#     8   8   8   8   8   8   8
#     4  11  18  34  52  75 110 143 179 218 264 325
#     4  11  23  37  52  73 109 147 182 223 264 324
#     4  10  18  30  49  74 103 144 179 217 266 323
#     4  10  19  36  52  79 107 144 186 223 273 327
#     4  10  18  32  52  78 108 140 177 226 276 314
#     4  10  18  31  56  84 107 140 179 226 277 322
#     4  12  25  38  53  80 109 147 189 222 265 324
#
# _framework density 18.788246000000001
#
# number of rings (size 3 to 8) (size 9 to 14) (size 15 to 20)
#    0.000    1.429    4.286    5.143    0.000    0.000 
#    0.000    2.857    0.000    0.000    0.000    5.000 
#    0.000    0.000    0.000    0.000    0.000    0.000 
#
# Total GULP energy -312187.350438 kJ/mol
# GULP energy per Si atom -5574.774115 kJ/mol
# Density = 1.874548 g / cm^3
# Si number density = 18.788246 Si / 1000 Ang^3
#
#
#
# Elastic Constant Matrix: (Units=GPa)
#
#
# Indices 1 2 3 4 5 6 
#
# 1 54.0301 28.1641 10.4619 0.0000 0.0000 0.0000
# 2 28.1641 165.0628 30.3744 0.0000 0.0000 0.0000
# 3 10.4619 30.3744 37.8622 0.0000 0.0000 0.0000
# 4 0.0000 0.0000 0.0000 26.1710 0.0000 0.0000
# 5 0.0000 0.0000 0.0000 0.0000 27.6489 0.0000
# 6 0.0000 0.0000 0.0000 0.0000 0.0000 24.6913
#
#
#
# Elastic Compliance Matrix: (Units=1/GPa)
#
#
# Indices 1 2 3 4 5 6 
#
# 1 0.020678 -0.002906 -0.003383 0.000000 0.000000 0.000000
# 2 -0.002906 0.007516 -0.005227 0.000000 0.000000 0.000000
# 3 -0.003383 -0.005227 0.031539 0.000000 0.000000 0.000000
# 4 0.000000 0.000000 0.000000 0.038210 0.000000 0.000000
# 5 0.000000 0.000000 0.000000 0.000000 0.036168 0.000000
# 6 0.000000 0.000000 0.000000 0.000000 0.000000 0.040500
#
#
# Mechanical properties :
#
#
# Convention : Reuss Voigt Hill
#
# Bulk Modulus (GPa) = 27.24558 43.88399 35.56478
# Shear Modulus (GPa) = 23.82367 28.23254 26.02810
#
# Velocity S-wave (km/s) = 3.56477 3.88063 3.72605
# Velocity P-wave (km/s) = 5.61038 6.59446 6.12223
#
# Compressibility (1/GPa) = 0.03670320
#
# Stress axis : x y z
#
# Youngs Moduli (GPa) = 48.36098 133.05153 31.70655
#
# Poissons Ratio (x) = 0.38661 0.10725
# Poissons Ratio (y) = 0.14052 0.16572
# Poissons Ratio (z) = 0.16358 0.69541
#
# Static dielectric constant tensor:
#      x y z
#    x 1.740870 0.000000 0.000000 
#    y 0.000000 1.704090 0.000000 
#    z 0.000000 0.000000 1.638620 
# 
# From -- ./inp_files/26098.got.cif
#   From: 2010.05.17/outbox.cif.g08.bks.cpg/sg62_14_cif.got.tgz:26098.got - 2010.06.03 15:25:27.
