data_PCOD9461053
_publ_section_title
;
Structure prediction by ZEFSAII (Michael W. Deem and Ramdas Pophale) SiO2 
 PCOD9461053
Probable space group: P B C A
;
_chemical_formula_sum "Si O2"
_cell_formula_units_Z 48
_cell_length_a 8.353729
_cell_length_b 25.878766
_cell_length_c 8.830647
_cell_angle_alpha 90.000000
_cell_angle_beta 90.000000
_cell_angle_gamma 90.000000
_cell_volume 1909.046340
_symmetry_space_group_name_H-M "P B C A"
_symmetry_group_IT_number 61
_symmetry_cell_setting 'orthorhombic'
loop_
_space_group_symop_operation_xyz
x,y,z
1/2-x,-y,1/2+z
1/2+x,1/2-y,-z
-x,1/2+y,1/2-z
-x,-y,-z
1/2+x,y,1/2-z
1/2-x,1/2+y,z
x,1/2-y,1/2+z
loop_
_atom_site_type_symbol
_atom_site_label
_atom_site_fract_x
_atom_site_fract_y
_atom_site_fract_z
Si Si1 0.139169 0.538009 0.676898
Si Si2 0.549702 0.096362 0.902943
Si Si3 0.859794 0.132556 0.316539
Si Si4 0.941610 0.574284 0.403913
Si Si5 0.623813 0.731549 0.114354
Si Si6 0.685115 0.203343 0.826909
O O1 0.305629 0.555811 0.604651
O O2 0.103064 0.566919 0.833380
O O3 0.124654 0.476603 0.680030
O O4 0.993664 0.557381 0.570266
O O5 0.610650 0.146683 0.812972
O O6 0.498677 0.119761 0.063660
O O7 0.690443 0.118660 0.389435
O O8 0.867556 0.189465 0.248689
O O9 0.899674 0.094844 0.177559
O O10 0.743776 0.776460 0.169926
O O11 0.451801 0.757911 0.114779
O O12 0.678345 0.705738 0.957345
#
# Coordination Sequence:
#
# PCOD9461053 Si02
#       6
#     8   8   8   8   8   8
#     4  11  25  43  67 100 135 176 227 276 335 401
#     4  12  25  43  67  97 133 176 223 277 337 403
#     4  12  25  44  69  97 134 176 222 277 341 401
#     4  11  24  43  67  98 136 177 224 281 335 400
#     4  12  26  45  70 101 135 178 226 278 337 402
#     4  12  25  44  68  98 135 175 224 276 333 399
#
# _framework density 25.143445
#
# number of rings (size 3 to 8) (size 9 to 14) (size 15 to 20)
#    0.000    0.333    0.000   10.000    0.000    8.000 
#    0.000    0.000    0.000    0.000    0.000    0.000 
#    0.000    0.000    0.000    0.000    0.000    0.000 
#
# Total GULP energy -269288.411515 kJ/mol
# GULP energy per Si atom -5610.175240 kJ/mol
# Density = 2.508622 g / cm^3
# Si number density = 25.143445 Si / 1000 Ang^3
#
#
#
# Elastic Constant Matrix: (Units=GPa)
#
#
# Indices 1 2 3 4 5 6 
#
# 1 92.2148 -13.4508 -9.5370 0.0000 0.0000 0.0000
# 2 -13.4508 50.1213 7.4794 0.0000 0.0000 0.0000
# 3 -9.5370 7.4794 36.3527 0.0000 0.0000 0.0000
# 4 0.0000 0.0000 0.0000 17.8129 0.0000 0.0000
# 5 0.0000 0.0000 0.0000 0.0000 48.1022 0.0000
# 6 0.0000 0.0000 0.0000 0.0000 0.0000 34.5930
#
#
#
# Elastic Compliance Matrix: (Units=1/GPa)
#
#
# Indices 1 2 3 4 5 6 
#
# 1 0.011495 0.002718 0.002456 0.000000 0.000000 0.000000
# 2 0.002718 0.021226 -0.003654 0.000000 0.000000 0.000000
# 3 0.002456 -0.003654 0.028905 0.000000 0.000000 0.000000
# 4 0.000000 0.000000 0.000000 0.056139 0.000000 0.000000
# 5 0.000000 0.000000 0.000000 0.000000 0.020789 0.000000
# 6 0.000000 0.000000 0.000000 0.000000 0.000000 0.028908
#
#
# Mechanical properties :
#
#
# Convention : Reuss Voigt Hill
#
# Bulk Modulus (GPa) = 15.46390 16.40798 15.93594
# Shear Modulus (GPa) = 26.88522 33.04811 29.96666
#
# Velocity S-wave (km/s) = 3.27352 3.62937 3.45603
# Velocity P-wave (km/s) = 4.52234 4.90949 4.71988
#
# Compressibility (1/GPa) = 0.06466672
#
# Stress axis : x y z
#
# Youngs Moduli (GPa) = 86.99596 47.11126 34.59669
#
# Poissons Ratio (x) = -0.12806 -0.08498
# Poissons Ratio (y) = -0.23648 0.12642
# Poissons Ratio (z) = -0.21369 0.17215
#
# Static dielectric constant tensor:
#      x y z
#    x 1.961350 0.000000 0.000000 
#    y 0.000000 1.919540 0.000000 
#    z 0.000000 0.000000 2.006200 
# 
# From -- ./inp_files/1889.got.cif
#   From: 2010.05.17/outbox.cif.g08.bks.cpg/sg61_1_cif.got.tgz:1889.got - 2010.06.03 15:17:17.
