data_PCOD9461631
_publ_section_title
;
Structure prediction by ZEFSAII (Michael W. Deem and Ramdas Pophale) SiO2 
 PCOD9461631
Probable space group: P N M A
;
_chemical_formula_sum "Si O2"
_cell_formula_units_Z 48
_cell_length_a 6.974001
_cell_length_b 15.207015
_cell_length_c 19.113723
_cell_angle_alpha 90.000000
_cell_angle_beta 90.000000
_cell_angle_gamma 90.000000
_cell_volume 2027.081768
_symmetry_space_group_name_H-M "P N M A"
_symmetry_group_IT_number 62
_symmetry_cell_setting 'orthorhombic'
loop_
_space_group_symop_operation_xyz
x,y,z
1/2-x,-y,1/2+z
1/2+x,1/2-y,1/2-z
-x,1/2+y,-z
-x,-y,-z
1/2+x,y,1/2-z
1/2-x,1/2+y,1/2+z
x,1/2-y,z
loop_
_atom_site_type_symbol
_atom_site_label
_atom_site_fract_x
_atom_site_fract_y
_atom_site_fract_z
Si Si1 0.767330 0.021016 0.577077
Si Si2 0.812993 0.345026 0.854423
Si Si3 0.076688 0.900684 0.299632
Si Si4 0.076686 0.599316 0.700368
Si Si5 0.267331 0.478984 0.077077
Si Si6 0.812994 0.345026 0.145576
O O1 0.661325 0.929868 0.596332
O O2 1.000000 1.000000 0.574559
O O3 0.752501 0.084442 0.644582
O O4 0.717335 0.053407 0.500000
O O5 0.875239 0.250000 0.881411
O O6 0.881818 0.359595 0.774839
O O7 0.583723 0.347239 0.840715
O O8 0.838674 0.429868 0.903668
O O9 0.000001 1.000000 0.284166
O O10 0.247498 0.584442 0.644582
O O11 0.118181 0.640405 0.774839
O O12 0.916276 0.652761 0.659285
O O13 0.875240 0.250000 0.118588
#
# Coordination Sequence:
#
# PCOD9461631 Si02
#       6
#     8   8   8   8   8   8
#     4   8  15  28  45  65  89 116 147 181 218 263
#     4  10  18  28  46  70  93 115 146 190 230 263
#     4   9  17  30  47  66  89 121 154 181 219 271
#     4   9  17  30  47  66  89 121 154 181 219 271
#     4   8  15  28  45  65  89 116 147 181 218 263
#     4  10  18  28  46  70  93 115 146 190 230 263
#
# _framework density 23.679358000000001
#
# number of rings (size 3 to 8) (size 9 to 14) (size 15 to 20)
#    0.000    3.667    0.000    5.000    0.000    0.667 
#    0.000    0.000    0.000   12.000    0.000    0.000 
#    0.000    0.000    0.000    0.000    0.000    0.000 
#
# Total GULP energy -267658.436294 kJ/mol
# GULP energy per Si atom -5576.217423 kJ/mol
# Density = 2.362546 g / cm^3
# Si number density = 23.679358 Si / 1000 Ang^3
#
#
#
# Elastic Constant Matrix: (Units=GPa)
#
#
# Indices 1 2 3 4 5 6 
#
# 1 43.9309 -7.8838 17.2088 0.0000 0.0000 0.0000
# 2 -7.8838 92.4574 10.3559 0.0000 0.0000 0.0000
# 3 17.2088 10.3559 117.0304 0.0000 0.0000 0.0000
# 4 0.0000 0.0000 0.0000 0.9964 0.0000 0.0000
# 5 0.0000 0.0000 0.0000 0.0000 28.2787 0.0000
# 6 0.0000 0.0000 0.0000 0.0000 0.0000 11.6010
#
#
#
# Elastic Compliance Matrix: (Units=1/GPa)
#
#
# Indices 1 2 3 4 5 6 
#
# 1 0.024732 0.002541 -0.003862 0.000000 0.000000 0.000000
# 2 0.002541 0.011185 -0.001363 0.000000 0.000000 0.000000
# 3 -0.003862 -0.001363 0.009233 0.000000 0.000000 0.000000
# 4 0.000000 0.000000 0.000000 1.003622 0.000000 0.000000
# 5 0.000000 0.000000 0.000000 0.000000 0.035362 0.000000
# 6 0.000000 0.000000 0.000000 0.000000 0.000000 0.086199
#
#
# Mechanical properties :
#
#
# Convention : Reuss Voigt Hill
#
# Bulk Modulus (GPa) = 25.13641 32.53118 28.83379
# Shear Modulus (GPa) = 4.20535 23.75772 13.98154
#
# Velocity S-wave (km/s) = 1.33410 3.17094 2.43256
# Velocity P-wave (km/s) = 3.60714 5.21292 4.48252
#
# Compressibility (1/GPa) = 0.03978293
#
# Stress axis : x y z
#
# Youngs Moduli (GPa) = 40.43380 89.40370 108.30395
#
# Poissons Ratio (x) = -0.22721 0.41823
# Poissons Ratio (y) = -0.10276 0.14767
# Poissons Ratio (z) = 0.15614 0.12190
#
# Static dielectric constant tensor:
#      x y z
#    x 2.103510 0.000000 0.000000 
#    y 0.000000 1.901900 0.000000 
#    z 0.000000 0.000000 1.879420 
# 
# From -- ./inp_files/25866.got.cif
#   From: 2010.05.17/outbox.cif.g08.bks.cpg/sg62_13_cif.got.tgz:25866.got - 2010.06.03 15:25:27.
