data_PCOD9461275
_publ_section_title
;
Structure prediction by ZEFSAII (Michael W. Deem and Ramdas Pophale) SiO2 
 PCOD9461275
Probable space group: P B C A
;
_chemical_formula_sum "Si O2"
_cell_formula_units_Z 64
_cell_length_a 24.000000
_cell_length_b 9.000000
_cell_length_c 15.000000
_cell_angle_alpha 90.000000
_cell_angle_beta 90.000000
_cell_angle_gamma 90.000000
_cell_volume 3240.000000
_symmetry_space_group_name_H-M "P B C A"
_symmetry_group_IT_number 61
_symmetry_cell_setting 'orthorhombic'
loop_
_space_group_symop_operation_xyz
x,y,z
1/2-x,-y,1/2+z
1/2+x,1/2-y,-z
-x,1/2+y,1/2-z
-x,-y,-z
1/2+x,y,1/2-z
1/2-x,1/2+y,z
x,1/2-y,1/2+z
loop_
_atom_site_type_symbol
_atom_site_label
_atom_site_fract_x
_atom_site_fract_y
_atom_site_fract_z
Si Si1 0.678738 0.952855 0.149806
Si Si2 0.302360 0.495126 0.084930
Si Si3 0.927752 0.089056 0.911178
Si Si4 0.283061 0.537270 0.732842
Si Si5 0.120005 0.803244 0.734151
Si Si6 0.649867 0.265872 0.142804
Si Si7 0.757545 0.271044 0.013854
Si Si8 0.944538 0.014247 0.114729
O O1 0.649680 0.827392 0.209487
O O2 0.696092 0.879332 0.056401
O O3 0.739140 0.005982 0.188848
O O4 0.637302 0.092129 0.148792
O O5 0.368711 0.502499 0.100795
O O6 0.262841 0.424420 0.159790
O O7 0.288906 0.383682 0.003110
O O8 0.271829 0.650530 0.069716
O O9 0.911778 0.233910 0.851605
O O10 0.935015 0.096490 0.019064
O O11 0.989032 0.027216 0.879878
O O12 0.328334 0.411485 0.709010
O O13 0.322261 0.670108 0.767329
O O14 0.077954 0.888348 0.801936
O O15 0.702908 0.265193 0.076268
O O16 0.597861 0.370522 0.115415
#
# Coordination Sequence:
#
# PCOD9461275 Si02
#       8
#     8   8   8   8   8   8   8   8
#     4  11  21  36  60  92 130 163 208 267 333 401
#     4  12  22  37  61  94 126 162 214 268 330 395
#     4  11  23  42  67  94 126 176 225 270 325 394
#     4  10  22  36  59  93 132 160 204 270 334 400
#     4  11  23  42  69  97 130 174 220 275 340 399
#     4  10  21  40  58  89 124 172 207 257 331 390
#     4  11  22  35  58  91 126 163 206 261 334 396
#     4  10  24  46  69  89 130 180 228 272 324 396
#
# _framework density 19.753086
#
# number of rings (size 3 to 8) (size 9 to 14) (size 15 to 20)
#    0.000    1.250    3.750    3.000    3.500    1.000 
#    0.000    0.000    0.000    9.000    0.000    0.000 
#    0.000    0.000    0.000    0.000    0.000    0.000 
#
# Total GULP energy -356506.195023 kJ/mol
# GULP energy per Si atom -5570.409297 kJ/mol
# Density = 1.970813 g / cm^3
# Si number density = 19.753086 Si / 1000 Ang^3
#
#
#
# Elastic Constant Matrix: (Units=GPa)
#
#
# Indices 1 2 3 4 5 6 
#
# 1 148.9045 37.3365 35.1703 0.0000 0.0000 0.0000
# 2 37.3365 81.2512 16.5306 0.0000 0.0000 0.0000
# 3 35.1703 16.5306 61.0059 0.0000 0.0000 0.0000
# 4 0.0000 0.0000 0.0000 26.1670 0.0000 0.0000
# 5 0.0000 0.0000 0.0000 0.0000 38.2829 0.0000
# 6 0.0000 0.0000 0.0000 0.0000 0.0000 30.3714
#
#
#
# Elastic Compliance Matrix: (Units=1/GPa)
#
#
# Indices 1 2 3 4 5 6 
#
# 1 0.008435 -0.003055 -0.004035 0.000000 0.000000 0.000000
# 2 -0.003055 0.014132 -0.002068 0.000000 0.000000 0.000000
# 3 -0.004035 -0.002068 0.019278 0.000000 0.000000 0.000000
# 4 0.000000 0.000000 0.000000 0.038216 0.000000 0.000000
# 5 0.000000 0.000000 0.000000 0.000000 0.026121 0.000000
# 6 0.000000 0.000000 0.000000 0.000000 0.000000 0.032926
#
#
# Mechanical properties :
#
#
# Convention : Reuss Voigt Hill
#
# Bulk Modulus (GPa) = 42.50034 52.13740 47.31887
# Shear Modulus (GPa) = 30.25400 32.43921 31.34660
#
# Velocity S-wave (km/s) = 3.91782 4.05685 3.98794
# Velocity P-wave (km/s) = 6.48292 6.95671 6.72399
#
# Compressibility (1/GPa) = 0.02352922
#
# Stress axis : x y z
#
# Youngs Moduli (GPa) = 118.55717 70.76084 51.87159
#
# Poissons Ratio (x) = 0.21618 0.20930
# Poissons Ratio (y) = 0.36220 0.10728
# Poissons Ratio (z) = 0.47836 0.14634
#
# Static dielectric constant tensor:
#      x y z
#    x 1.638880 0.000000 0.000000 
#    y 0.000000 1.767310 0.000000 
#    z 0.000000 0.000000 1.860230 
# 
# From -- ./inp_files/8534.got.cif
#   From: 2010.05.17/outbox.ucp.g08.bks.cvg/sg61_5_cif.got.tgz:8534.got - 2010.06.11 16:28:26.
