data_PCOD9461326
_publ_section_title
;
Structure prediction by ZEFSAII (Michael W. Deem and Ramdas Pophale) SiO2 
 PCOD9461326
Probable space group: P N M A
;
_chemical_formula_sum "Si O2"
_cell_formula_units_Z 40
_cell_length_a 8.471603
_cell_length_b 19.161207
_cell_length_c 15.805331
_cell_angle_alpha 90.000000
_cell_angle_beta 90.000000
_cell_angle_gamma 90.000000
_cell_volume 2565.618352
_symmetry_space_group_name_H-M "P N M A"
_symmetry_group_IT_number 62
_symmetry_cell_setting 'orthorhombic'
loop_
_space_group_symop_operation_xyz
x,y,z
1/2-x,-y,1/2+z
1/2+x,1/2-y,1/2-z
-x,1/2+y,-z
-x,-y,-z
1/2+x,y,1/2-z
1/2-x,1/2+y,1/2+z
x,1/2-y,z
loop_
_atom_site_type_symbol
_atom_site_label
_atom_site_fract_x
_atom_site_fract_y
_atom_site_fract_z
Si Si1 0.281147 0.250000 0.281548
Si Si2 0.321376 0.099699 0.339750
Si Si3 0.106888 0.011565 0.213145
Si Si4 0.534352 0.395114 0.038321
Si Si5 0.091721 0.468157 0.629733
Si Si6 0.451119 0.250000 0.118878
O O1 0.358618 0.179190 0.316326
O O2 0.301213 0.250000 0.180683
O O3 0.102991 0.250000 0.317589
O O4 0.213386 0.068324 0.263696
O O5 0.475962 0.052098 0.341195
O O6 0.210234 0.098525 0.421798
O O7 0.227333 0.966064 0.158828
O O8 0.016312 0.969168 0.286576
O O9 0.436414 0.456816 0.084027
O O10 0.466393 0.320220 0.064462
O O11 0.542831 0.411281 0.939238
#
# Coordination Sequence:
#
# PCOD9461326 Si02
#       6
#     4   8   8   8   8   4
#     4  10  16  24  40  62  90 116 134 154 200 260
#     4   9  16  25  39  63  88 114 140 167 204 255
#     4   9  16  27  43  60  82 111 147 176 204 247
#     4   9  18  29  43  64  89 111 138 175 213 248
#     4   9  17  30  45  63  84 110 143 178 211 248
#     4  10  18  28  44  64  88 116 138 164 204 254
#
# _framework density 15.590783999999999
#
# number of rings (size 3 to 8) (size 9 to 14) (size 15 to 20)
#    0.000    2.800    0.000    4.800    0.000    0.800 
#    0.000    0.000    0.000    1.200    0.000    0.000 
#    0.000    0.000    0.000    0.000    0.000    0.100 
#
# Total GULP energy -222837.822805 kJ/mol
# GULP energy per Si atom -5570.945570 kJ/mol
# Density = 1.555530 g / cm^3
# Si number density = 15.590784 Si / 1000 Ang^3
#
#
#
# Elastic Constant Matrix: (Units=GPa)
#
#
# Indices 1 2 3 4 5 6 
#
# 1 48.2629 9.1994 16.6239 0.0000 0.0000 0.0000
# 2 9.1994 60.8732 30.6959 0.0000 0.0000 0.0000
# 3 16.6239 30.6959 60.8114 0.0000 0.0000 0.0000
# 4 0.0000 0.0000 0.0000 17.8436 0.0000 0.0000
# 5 0.0000 0.0000 0.0000 0.0000 13.1775 0.0000
# 6 0.0000 0.0000 0.0000 0.0000 0.0000 9.9559
#
#
#
# Elastic Compliance Matrix: (Units=1/GPa)
#
#
# Indices 1 2 3 4 5 6 
#
# 1 0.022881 -0.000407 -0.006049 0.000000 0.000000 0.000000
# 2 -0.000407 0.022044 -0.011016 0.000000 0.000000 0.000000
# 3 -0.006049 -0.011016 0.023658 0.000000 0.000000 0.000000
# 4 0.000000 0.000000 0.000000 0.056042 0.000000 0.000000
# 5 0.000000 0.000000 0.000000 0.000000 0.075887 0.000000
# 6 0.000000 0.000000 0.000000 0.000000 0.000000 0.100443
#
#
# Mechanical properties :
#
#
# Convention : Reuss Voigt Hill
#
# Bulk Modulus (GPa) = 29.72792 31.44291 30.58541
# Shear Modulus (GPa) = 14.40450 15.75730 15.08090
#
# Velocity S-wave (km/s) = 3.04289 3.18257 3.11351
# Velocity P-wave (km/s) = 5.60844 5.80658 5.70837
#
# Compressibility (1/GPa) = 0.03363842
#
# Stress axis : x y z
#
# Youngs Moduli (GPa) = 43.70407 45.36385 42.26820
#
# Poissons Ratio (x) = 0.01848 0.25569
# Poissons Ratio (y) = 0.01781 0.46562
# Poissons Ratio (z) = 0.26438 0.49972
#
# Static dielectric constant tensor:
#      x y z
#    x 1.539730 0.000000 0.000000 
#    y 0.000000 1.505330 0.000000 
#    z 0.000000 0.000000 1.518820 
# 
# From -- ./inp_files/16803.got.cif
#   From: 2010.05.17/outbox.cif.g08.bks.cpg/sg62_9_cif.got.tgz:16803.got - 2010.06.03 15:25:27.
