data_PCOD9461942
_publ_section_title
;
Structure prediction by ZEFSAII (Michael W. Deem and Ramdas Pophale) SiO2 
 PCOD9461942
Probable space group: P N M A
;
_chemical_formula_sum "Si O2"
_cell_formula_units_Z 56
_cell_length_a 18.542253
_cell_length_b 16.758100
_cell_length_c 8.403197
_cell_angle_alpha 90.000000
_cell_angle_beta 90.000000
_cell_angle_gamma 90.000000
_cell_volume 2611.150025
_symmetry_space_group_name_H-M "P N M A"
_symmetry_group_IT_number 62
_symmetry_cell_setting 'orthorhombic'
loop_
_space_group_symop_operation_xyz
x,y,z
1/2-x,-y,1/2+z
1/2+x,1/2-y,1/2-z
-x,1/2+y,-z
-x,-y,-z
1/2+x,y,1/2-z
1/2-x,1/2+y,1/2+z
x,1/2-y,z
loop_
_atom_site_type_symbol
_atom_site_label
_atom_site_fract_x
_atom_site_fract_y
_atom_site_fract_z
Si Si1 0.837037 0.508762 0.640158
Si Si2 0.895301 0.659535 0.043743
Si Si3 0.172620 0.661924 0.422467
Si Si4 0.518328 0.423000 0.298923
Si Si5 0.997361 0.163273 0.518741
Si Si6 0.771355 0.837674 0.778393
Si Si7 0.901028 0.958499 0.302907
O O1 0.808940 0.419274 0.671223
O O2 0.911561 0.526191 0.737948
O O3 0.783616 0.582392 0.677341
O O4 0.854931 0.511456 0.451668
O O5 0.909575 0.750000 0.095275
O O6 0.964757 0.615612 0.968760
O O7 0.839397 0.663402 0.898606
O O8 0.864810 0.601997 0.179720
O O9 0.195512 0.750000 0.359391
O O10 0.086406 0.661502 0.438838
O O11 0.204908 0.657178 0.600413
O O12 0.444703 0.472605 0.287668
O O13 0.509859 0.354363 0.166556
O O14 0.027476 0.250000 0.557182
O O15 0.037395 0.094792 0.613324
O O16 0.769531 0.750000 0.696518
#
# Coordination Sequence:
#
# PCOD9461942 Si02
#       7
#     8   8   8   8   8   8   8
#     4  10  19  35  59  80 106 144 184 230 273 321
#     4  10  21  34  50  75 108 145 178 224 276 322
#     4  10  19  35  56  81 109 141 182 227 273 332
#     4  10  18  34  51  76 110 139 178 216 272 333
#     4  10  18  31  55  80 105 140 182 226 274 327
#     4   9  21  38  56  77 107 146 189 225 269 331
#     4  11  19  32  53  83 111 136 181 230 274 323
#
# _framework density 21.446489
#
# number of rings (size 3 to 8) (size 9 to 14) (size 15 to 20)
#    0.000    2.000    2.857    2.143    0.000    5.143 
#    0.000    0.000    0.000    0.857    0.000    7.000 
#    0.000    0.000    0.000    0.000    0.000    0.000 
#
# Total GULP energy -312416.575672 kJ/mol
# GULP energy per Si atom -5578.867423 kJ/mol
# Density = 2.139768 g / cm^3
# Si number density = 21.446489 Si / 1000 Ang^3
#
#
#
# Elastic Constant Matrix: (Units=GPa)
#
#
# Indices 1 2 3 4 5 6 
#
# 1 15.3227 23.7704 -5.7727 0.0000 0.0000 0.0000
# 2 23.7704 172.7120 26.7436 0.0000 0.0000 0.0000
# 3 -5.7727 26.7436 26.8261 0.0000 0.0000 0.0000
# 4 0.0000 0.0000 0.0000 -173.1251 0.0000 0.0000
# 5 0.0000 0.0000 0.0000 0.0000 8.5645 0.0000
# 6 0.0000 0.0000 0.0000 0.0000 0.0000 18.2736
#
#
#
# Elastic Compliance Matrix: (Units=1/GPa)
#
#
# Indices 1 2 3 4 5 6 
#
# 1 0.123280 -0.024922 0.051374 0.000000 0.000000 0.000000
# 2 -0.024922 0.011885 -0.017212 0.000000 0.000000 0.000000
# 3 0.051374 -0.017212 0.065491 0.000000 0.000000 0.000000
# 4 0.000000 0.000000 0.000000 -0.005776 0.000000 0.000000
# 5 0.000000 0.000000 0.000000 0.000000 0.116761 0.000000
# 6 0.000000 0.000000 0.000000 0.000000 0.000000 0.054724
#
#
# Mechanical properties :
#
#
# Convention : Reuss Voigt Hill
#
# Bulk Modulus (GPa) = 4.56335 33.81594 19.18964
# Shear Modulus (GPa) = 11.87847 -17.91609 -3.01881
#
# Velocity S-wave (km/s) = 2.35599 -2.89344 -1.18771
# Velocity P-wave (km/s) = 3.08761 2.15387 2.66200
#
# Compressibility (1/GPa) = 0.21913731
#
# Stress axis : x y z
#
# Youngs Moduli (GPa) = 8.11161 84.13837 15.26923
#
# Poissons Ratio (x) = 2.09691 -0.78445
# Poissons Ratio (y) = 0.20216 0.26281
# Poissons Ratio (z) = -0.41673 1.44816
#
# Static dielectric constant tensor:
#      x y z
#    x 1.818070 0.000000 0.000000 
#    y 0.000000 1.851470 0.000000 
#    z 0.000000 0.000000 1.777500 
# 
# From -- ./inp_files/8749.got.cif
#   From: 2010.05.17/outbox.cif.g08.bks.cpg/sg62_5_cif.got.tgz:8749.got - 2010.06.03 15:25:27.
