data_PCOD9461943
_publ_section_title
;
Structure prediction by ZEFSAII (Michael W. Deem and Ramdas Pophale) SiO2 
 PCOD9461943
Probable space group: P N M A
;
_chemical_formula_sum "Si O2"
_cell_formula_units_Z 48
_cell_length_a 14.446400
_cell_length_b 7.493557
_cell_length_c 20.791652
_cell_angle_alpha 90.000000
_cell_angle_beta 90.000000
_cell_angle_gamma 90.000000
_cell_volume 2250.798662
_symmetry_space_group_name_H-M "P N M A"
_symmetry_group_IT_number 62
_symmetry_cell_setting 'orthorhombic'
loop_
_space_group_symop_operation_xyz
x,y,z
1/2-x,-y,1/2+z
1/2+x,1/2-y,1/2-z
-x,1/2+y,-z
-x,-y,-z
1/2+x,y,1/2-z
1/2-x,1/2+y,1/2+z
x,1/2-y,z
loop_
_atom_site_type_symbol
_atom_site_label
_atom_site_fract_x
_atom_site_fract_y
_atom_site_fract_z
Si Si1 0.025752 0.965368 0.118743
Si Si2 0.674393 0.958478 0.581802
Si Si3 0.365927 0.954538 0.158433
Si Si4 0.779241 0.030464 0.942753
Si Si5 0.746989 0.959307 0.716893
Si Si6 0.461151 0.033620 0.765676
O O1 0.024979 0.750000 0.118156
O O2 0.124144 0.023664 0.090531
O O3 0.016386 0.025354 0.192844
O O4 0.936607 0.027156 0.079295
O O5 0.699723 0.750000 0.583942
O O6 0.718425 0.030553 0.516467
O O7 0.707159 0.034950 0.650059
O O8 0.386210 0.750000 0.140314
O O9 0.307172 0.032754 0.099742
O O10 0.461901 0.033612 0.184335
O O11 0.298253 0.954008 0.220382
O O12 0.778861 0.250000 0.941854
O O13 0.723228 0.750000 0.721301
O O14 0.857124 0.980178 0.718069
O O15 0.465397 0.250000 0.765164
#
# Coordination Sequence:
#
# PCOD9461943 Si02
#       6
#     8   8   8   8   8   8
#     4  10  18  31  55  82 106 134 172 220 263 308
#     4  10  21  35  51  76 110 144 172 207 265 325
#     4  10  19  36  59  78 101 137 182 224 256 303
#     4   9  18  34  54  76 105 140 176 213 262 315
#     4  11  22  34  52  78 110 142 171 213 265 319
#     4  10  20  34  56  82 104 134 180 225 260 302
#
# _framework density 21.325763999999999
#
# number of rings (size 3 to 8) (size 9 to 14) (size 15 to 20)
#    0.000    2.000    3.333    1.000    0.000    2.000 
#    0.000    1.667    0.000    0.000    0.000    0.000 
#    0.000    0.000    0.000    0.000    0.000    0.000 
#
# Total GULP energy -268149.545770 kJ/mol
# GULP energy per Si atom -5586.448870 kJ/mol
# Density = 2.127723 g / cm^3
# Si number density = 21.325764 Si / 1000 Ang^3
#
#
#
# Elastic Constant Matrix: (Units=GPa)
#
#
# Indices 1 2 3 4 5 6 
#
# 1 61.8118 -15.1414 -15.8669 0.0000 0.0000 0.0000
# 2 -15.1414 61.5210 0.5795 0.0000 0.0000 0.0000
# 3 -15.8669 0.5795 49.7073 0.0000 0.0000 0.0000
# 4 0.0000 0.0000 0.0000 -1.6429 0.0000 0.0000
# 5 0.0000 0.0000 0.0000 0.0000 34.4360 0.0000
# 6 0.0000 0.0000 0.0000 0.0000 0.0000 36.8584
#
#
#
# Elastic Compliance Matrix: (Units=1/GPa)
#
#
# Indices 1 2 3 4 5 6 
#
# 1 0.018829 0.004578 0.005957 0.000000 0.000000 0.000000
# 2 0.004578 0.017369 0.001259 0.000000 0.000000 0.000000
# 3 0.005957 0.001259 0.022005 0.000000 0.000000 0.000000
# 4 0.000000 0.000000 0.000000 -0.608677 0.000000 0.000000
# 5 0.000000 0.000000 0.000000 0.000000 0.029039 0.000000
# 6 0.000000 0.000000 0.000000 0.000000 0.000000 0.027131
#
#
# Mechanical properties :
#
#
# Convention : Reuss Voigt Hill
#
# Bulk Modulus (GPa) = 12.22643 12.46471 12.34557
# Shear Modulus (GPa) = -10.19103 27.49489 8.65193
#
# Velocity S-wave (km/s) = -2.18840 3.59455 2.01639
# Velocity P-wave (km/s) = 0.79992 4.80472 3.35003
#
# Compressibility (1/GPa) = 0.08179004
#
# Stress axis : x y z
#
# Youngs Moduli (GPa) = 53.11052 57.57232 45.44508
#
# Poissons Ratio (x) = -0.26356 -0.27071
# Poissons Ratio (y) = -0.24314 -0.05721
# Poissons Ratio (z) = -0.31637 -0.07247
#
# Static dielectric constant tensor:
#      x y z
#    x 1.738850 0.000000 0.000000 
#    y 0.000000 1.823570 0.000000 
#    z 0.000000 0.000000 1.772860 
# 
# From -- ./inp_files/23694.got.cif
#   From: 2010.05.17/outbox.cif.g08.bks.cpg/sg62_12_cif.got.tgz:23694.got - 2010.06.03 15:25:27.
