data_PCOD9461494
_publ_section_title
;
Structure prediction by ZEFSAII (Michael W. Deem and Ramdas Pophale) SiO2 
 PCOD9461494
Probable space group: P N M A
;
_chemical_formula_sum "Si O2"
_cell_formula_units_Z 56
_cell_length_a 9.899327
_cell_length_b 14.914319
_cell_length_c 23.071355
_cell_angle_alpha 90.000000
_cell_angle_beta 90.000000
_cell_angle_gamma 90.000000
_cell_volume 3406.294553
_symmetry_space_group_name_H-M "P N M A"
_symmetry_group_IT_number 62
_symmetry_cell_setting 'orthorhombic'
loop_
_space_group_symop_operation_xyz
x,y,z
1/2-x,-y,1/2+z
1/2+x,1/2-y,1/2-z
-x,1/2+y,-z
-x,-y,-z
1/2+x,y,1/2-z
1/2-x,1/2+y,1/2+z
x,1/2-y,z
loop_
_atom_site_type_symbol
_atom_site_label
_atom_site_fract_x
_atom_site_fract_y
_atom_site_fract_z
Si Si1 0.768686 0.853946 0.070433
Si Si2 0.762363 0.965343 0.404193
Si Si3 0.238801 0.645471 0.974166
Si Si4 0.613995 0.141850 0.690729
Si Si5 0.314101 0.141264 0.709954
Si Si6 0.052446 0.492774 0.434516
Si Si7 0.944336 0.915698 0.964047
O O1 0.731642 0.750000 0.077834
O O2 0.865689 0.882532 0.123624
O O3 0.640436 0.918178 0.075409
O O4 0.845903 0.865773 0.009606
O O5 0.750016 0.903025 0.462441
O O6 0.737870 0.904118 0.348596
O O7 0.912631 0.007142 0.399728
O O8 0.649473 0.042812 0.413716
O O9 0.273070 0.750000 0.979294
O O10 0.344012 0.590698 0.933874
O O11 0.083755 0.636210 0.951607
O O12 0.616074 0.250000 0.691438
O O13 0.469949 0.114619 0.714997
O O14 0.731681 0.111917 0.733550
O O15 0.304971 0.250000 0.704944
O O16 0.000000 0.500000 0.500000
O O17 0.000000 0.000000 0.000000
#
# Coordination Sequence:
#
# PCOD9461494 Si02
#       7
#     8   8   8   8   8   8   8
#     4  11  20  32  52  73 104 144 172 208 258 304
#     4  10  20  33  49  71 106 141 166 214 254 298
#     4  10  19  32  51  73 101 138 172 207 260 310
#     4   9  20  33  48  73 101 136 181 212 242 301
#     4  10  20  34  50  72 103 141 179 211 248 302
#     4  10  20  34  46  74 104 134 173 213 250 307
#     4  10  17  32  50  71  99 135 170 215 248 301
#
# _framework density 16.440152999999999
#
# number of rings (size 3 to 8) (size 9 to 14) (size 15 to 20)
#    0.000    2.000    4.286    2.571    2.000    4.000 
#    0.000    0.000    0.000    0.000    0.000    0.000 
#    0.000    5.714    0.000    0.000    0.000    0.000 
#
# Total GULP energy -311823.351596 kJ/mol
# GULP energy per Si atom -5568.274136 kJ/mol
# Density = 1.640273 g / cm^3
# Si number density = 16.440153 Si / 1000 Ang^3
#
#
#
# Elastic Constant Matrix: (Units=GPa)
#
#
# Indices 1 2 3 4 5 6 
#
# 1 94.5858 25.5416 6.8356 0.0000 0.0000 0.0000
# 2 25.5416 65.4065 9.6781 0.0000 0.0000 0.0000
# 3 6.8356 9.6781 24.1417 0.0000 0.0000 0.0000
# 4 0.0000 0.0000 0.0000 21.3729 0.0000 0.0000
# 5 0.0000 0.0000 0.0000 0.0000 25.5558 0.0000
# 6 0.0000 0.0000 0.0000 0.0000 0.0000 19.2212
#
#
#
# Elastic Compliance Matrix: (Units=1/GPa)
#
#
# Indices 1 2 3 4 5 6 
#
# 1 0.011876 -0.004401 -0.001598 0.000000 0.000000 0.000000
# 2 -0.004401 0.017884 -0.005923 0.000000 0.000000 0.000000
# 3 -0.001598 -0.005923 0.044249 0.000000 0.000000 0.000000
# 4 0.000000 0.000000 0.000000 0.046788 0.000000 0.000000
# 5 0.000000 0.000000 0.000000 0.000000 0.039130 0.000000
# 6 0.000000 0.000000 0.000000 0.000000 0.000000 0.052026
#
#
# Mechanical properties :
#
#
# Convention : Reuss Voigt Hill
#
# Bulk Modulus (GPa) = 19.93464 29.80495 24.86979
# Shear Modulus (GPa) = 19.80032 22.70189 21.25110
#
# Velocity S-wave (km/s) = 3.47419 3.72005 3.59922
# Velocity P-wave (km/s) = 5.31463 6.05148 5.69498
#
# Compressibility (1/GPa) = 0.05016394
#
# Stress axis : x y z
#
# Youngs Moduli (GPa) = 84.20037 55.91533 22.59928
#
# Poissons Ratio (x) = 0.24610 0.03612
# Poissons Ratio (y) = 0.37059 0.13386
# Poissons Ratio (z) = 0.13458 0.33120
#
# Static dielectric constant tensor:
#      x y z
#    x 1.596680 0.000000 0.000000 
#    y 0.000000 1.542280 0.000000 
#    z 0.000000 0.000000 1.547240 
# 
# From -- ./inp_files/29036.got.cif
#   From: 2010.05.17/outbox.cif.g08.bks.cpg/sg62_15_cif.got.tgz:29036.got - 2010.06.03 15:25:27.
