data_PCOD9461486
_publ_section_title
;
Structure prediction by ZEFSAII (Michael W. Deem and Ramdas Pophale) SiO2 
 PCOD9461486
Probable space group: P N M A
;
_chemical_formula_sum "Si O2"
_cell_formula_units_Z 56
_cell_length_a 13.443530
_cell_length_b 14.169708
_cell_length_c 12.178501
_cell_angle_alpha 90.000000
_cell_angle_beta 90.000000
_cell_angle_gamma 90.000000
_cell_volume 2319.893550
_symmetry_space_group_name_H-M "P N M A"
_symmetry_group_IT_number 62
_symmetry_cell_setting 'orthorhombic'
loop_
_space_group_symop_operation_xyz
x,y,z
1/2-x,-y,1/2+z
1/2+x,1/2-y,1/2-z
-x,1/2+y,-z
-x,-y,-z
1/2+x,y,1/2-z
1/2-x,1/2+y,1/2+z
x,1/2-y,z
loop_
_atom_site_type_symbol
_atom_site_label
_atom_site_fract_x
_atom_site_fract_y
_atom_site_fract_z
Si Si1 0.085733 0.138590 0.573998
Si Si2 0.247441 0.558988 0.349423
Si Si3 0.545772 0.353718 0.681204
Si Si4 0.290440 0.446217 0.078313
Si Si5 0.711191 0.854588 0.693451
Si Si6 0.406989 0.996650 0.663689
Si Si7 0.047610 0.146375 0.329711
O O1 0.121478 0.250000 0.565192
O O2 0.025191 0.135470 0.687537
O O3 0.032835 0.118977 0.456814
O O4 0.164603 0.052371 0.586163
O O5 0.336980 0.628952 0.326788
O O6 0.186872 0.587890 0.456739
O O7 0.299468 0.455162 0.367829
O O8 0.171732 0.544788 0.249083
O O9 0.519961 0.250000 0.645527
O O10 0.478889 0.426166 0.615122
O O11 0.319826 0.380938 0.181097
O O12 0.169653 0.446057 0.083812
O O13 0.675122 0.750000 0.659221
O O14 0.832002 0.847573 0.685665
O O15 0.476651 0.928062 0.735903
O O16 0.007089 0.250000 0.310700
#
# Coordination Sequence:
#
# PCOD9461486 Si02
#       7
#     8   8   8   8   8   8   8
#     4  10  17  31  56  83 109 146 191 235 283 338
#     4  10  20  38  61  82 112 153 196 242 291 347
#     4  11  24  38  54  83 120 156 194 237 287 348
#     4  10  18  35  60  86 110 153 193 237 294 343
#     4   9  17  31  54  84 113 142 186 240 294 345
#     4  10  21  36  58  83 116 153 189 241 290 351
#     4   8  15  31  55  81 106 141 184 236 289 338
#
# _framework density 24.139039
#
# number of rings (size 3 to 8) (size 9 to 14) (size 15 to 20)
#    0.000    2.571    5.714    0.000    0.000    2.857 
#    0.000    0.714    0.000    0.000    0.000    0.000 
#    0.000    0.000    0.000    0.000    0.000    0.000 
#
# Total GULP energy -312211.615271 kJ/mol
# GULP energy per Si atom -5575.207416 kJ/mol
# Density = 2.408410 g / cm^3
# Si number density = 24.139039 Si / 1000 Ang^3
#
#
#
# Elastic Constant Matrix: (Units=GPa)
#
#
# Indices 1 2 3 4 5 6 
#
# 1 61.5750 10.7429 -4.5062 0.0000 0.0000 0.0000
# 2 10.7429 104.4826 -8.1635 0.0000 0.0000 0.0000
# 3 -4.5062 -8.1635 51.0522 0.0000 0.0000 0.0000
# 4 0.0000 0.0000 0.0000 20.6027 0.0000 0.0000
# 5 0.0000 0.0000 0.0000 0.0000 14.4848 0.0000
# 6 0.0000 0.0000 0.0000 0.0000 0.0000 29.0581
#
#
#
# Elastic Compliance Matrix: (Units=1/GPa)
#
#
# Indices 1 2 3 4 5 6 
#
# 1 0.016610 -0.001613 0.001208 0.000000 0.000000 0.000000
# 2 -0.001613 0.009849 0.001432 0.000000 0.000000 0.000000
# 3 0.001208 0.001432 0.019923 0.000000 0.000000 0.000000
# 4 0.000000 0.000000 0.000000 0.048537 0.000000 0.000000
# 5 0.000000 0.000000 0.000000 0.000000 0.069038 0.000000
# 6 0.000000 0.000000 0.000000 0.000000 0.000000 0.034414
#
#
# Mechanical properties :
#
#
# Convention : Reuss Voigt Hill
#
# Bulk Modulus (GPa) = 20.64547 23.69514 22.17031
# Shear Modulus (GPa) = 23.53352 27.43157 25.48255
#
# Velocity S-wave (km/s) = 3.12575 3.37471 3.25261
# Velocity P-wave (km/s) = 4.64741 5.00223 4.82808
#
# Compressibility (1/GPa) = 0.04843676
#
# Stress axis : x y z
#
# Youngs Moduli (GPa) = 60.20373 101.53530 50.19203
#
# Poissons Ratio (x) = 0.16383 -0.06064
# Poissons Ratio (y) = 0.09714 -0.07190
# Poissons Ratio (z) = -0.07273 -0.14544
#
# Static dielectric constant tensor:
#      x y z
#    x 1.969080 0.000000 0.000000 
#    y 0.000000 1.997940 0.000000 
#    z 0.000000 0.000000 1.933880 
# 
# From -- ./inp_files/19132.got.cif
#   From: 2010.05.17/outbox.cif.g08.bks.cpg/sg62_10_cif.got.tgz:19132.got - 2010.06.03 15:25:27.
