data_PCOD9461127
_publ_section_title
;
Structure prediction by ZEFSAII (Michael W. Deem and Ramdas Pophale) SiO2 
 PCOD9461127
Probable space group: P B C A
;
_chemical_formula_sum "Si O2"
_cell_formula_units_Z 40
_cell_length_a 10.515324
_cell_length_b 16.856231
_cell_length_c 9.901783
_cell_angle_alpha 90.000000
_cell_angle_beta 90.000000
_cell_angle_gamma 90.000000
_cell_volume 1755.078465
_symmetry_space_group_name_H-M "P B C A"
_symmetry_group_IT_number 61
_symmetry_cell_setting 'orthorhombic'
loop_
_space_group_symop_operation_xyz
x,y,z
1/2-x,-y,1/2+z
1/2+x,1/2-y,-z
-x,1/2+y,1/2-z
-x,-y,-z
1/2+x,y,1/2-z
1/2-x,1/2+y,z
x,1/2-y,1/2+z
loop_
_atom_site_type_symbol
_atom_site_label
_atom_site_fract_x
_atom_site_fract_y
_atom_site_fract_z
Si Si1 0.045583 0.591847 0.235563
Si Si2 0.304273 0.660987 0.869885
Si Si3 0.067295 0.888052 0.048318
Si Si4 0.806177 0.005416 0.751173
Si Si5 0.296765 0.266755 0.634496
O O1 0.028723 0.602744 0.395089
O O2 0.172554 0.537960 0.225392
O O3 0.086009 0.675537 0.171253
O O4 0.915092 0.550773 0.187020
O O5 0.446887 0.628952 0.856434
O O6 0.214866 0.586193 0.833684
O O7 0.272901 0.733367 0.768100
O O8 0.286499 0.687900 0.023921
O O9 0.141194 0.963622 0.105207
O O10 0.155122 0.811712 0.060704
#
# Coordination Sequence:
#
# PCOD9461127 Si02
#       5
#     8   8   8   8   8
#     4  12  25  47  73 107 146 196 242 302 365 435
#     4  11  25  48  72 107 148 191 243 301 362 435
#     4  11  25  48  72 103 151 192 243 300 365 433
#     4  11  26  45  73 105 145 192 239 302 363 425
#     4  11  26  44  72 109 140 194 241 300 360 438
#
# _framework density 22.791003
#
# number of rings (size 3 to 8) (size 9 to 14) (size 15 to 20)
#    0.000    0.800    4.000    1.800    8.400    0.800 
#    0.000    0.000    0.000    0.000    0.000    0.000 
#    0.000    0.000    0.000    0.000    0.000    0.000 
#
# Total GULP energy -223815.083009 kJ/mol
# GULP energy per Si atom -5595.377075 kJ/mol
# Density = 2.273913 g / cm^3
# Si number density = 22.791003 Si / 1000 Ang^3
#
#
#
# Elastic Constant Matrix: (Units=GPa)
#
#
# Indices 1 2 3 4 5 6 
#
# 1 60.6196 -22.4767 -7.2165 0.0000 0.0000 0.0000
# 2 -22.4767 40.5864 3.7618 0.0000 0.0000 0.0000
# 3 -7.2165 3.7618 65.2691 0.0000 0.0000 0.0000
# 4 0.0000 0.0000 0.0000 16.3203 0.0000 0.0000
# 5 0.0000 0.0000 0.0000 0.0000 18.7765 0.0000
# 6 0.0000 0.0000 0.0000 0.0000 0.0000 25.7973
#
#
#
# Elastic Compliance Matrix: (Units=1/GPa)
#
#
# Indices 1 2 3 4 5 6 
#
# 1 0.020935 0.011440 0.001655 0.000000 0.000000 0.000000
# 2 0.011440 0.031023 -0.000523 0.000000 0.000000 0.000000
# 3 0.001655 -0.000523 0.015534 0.000000 0.000000 0.000000
# 4 0.000000 0.000000 0.000000 0.061273 0.000000 0.000000
# 5 0.000000 0.000000 0.000000 0.000000 0.053258 0.000000
# 6 0.000000 0.000000 0.000000 0.000000 0.000000 0.038764
#
#
# Mechanical properties :
#
#
# Convention : Reuss Voigt Hill
#
# Bulk Modulus (GPa) = 10.79470 12.73471 11.76471
# Shear Modulus (GPa) = 22.07294 25.00591 23.53943
#
# Velocity S-wave (km/s) = 3.11544 3.31597 3.21727
# Velocity P-wave (km/s) = 4.20570 4.50118 4.35595
#
# Compressibility (1/GPa) = 0.09263807
#
# Stress axis : x y z
#
# Youngs Moduli (GPa) = 47.76622 32.23418 64.37339
#
# Poissons Ratio (x) = -0.36877 -0.10656
# Poissons Ratio (y) = -0.54647 0.03367
# Poissons Ratio (z) = -0.07907 0.01686
#
# Static dielectric constant tensor:
#      x y z
#    x 1.860610 0.000000 0.000000 
#    y 0.000000 1.871520 0.000000 
#    z 0.000000 0.000000 1.820810 
# 
# From -- ./inp_files/2124.got.cif
#   From: 2010.05.17/outbox.cif.g08.bks.cpg/sg61_2_cif.got.tgz:2124.got - 2010.06.03 15:17:17.
