data_PCOD9461283
_publ_section_title
;
Structure prediction by ZEFSAII (Michael W. Deem and Ramdas Pophale) SiO2 
 PCOD9461283
Probable space group: P B C A
;
_chemical_formula_sum "Si O2"
_cell_formula_units_Z 64
_cell_length_a 15.000000
_cell_length_b 12.000000
_cell_length_c 18.000000
_cell_angle_alpha 90.000000
_cell_angle_beta 90.000000
_cell_angle_gamma 90.000000
_cell_volume 3240.000000
_symmetry_space_group_name_H-M "P B C A"
_symmetry_group_IT_number 61
_symmetry_cell_setting 'orthorhombic'
loop_
_space_group_symop_operation_xyz
x,y,z
1/2-x,-y,1/2+z
1/2+x,1/2-y,-z
-x,1/2+y,1/2-z
-x,-y,-z
1/2+x,y,1/2-z
1/2-x,1/2+y,z
x,1/2-y,1/2+z
loop_
_atom_site_type_symbol
_atom_site_label
_atom_site_fract_x
_atom_site_fract_y
_atom_site_fract_z
Si Si1 0.875350 0.718497 0.564106
Si Si2 0.292689 0.955855 0.909386
Si Si3 0.493515 0.624083 0.812380
Si Si4 0.459789 0.274403 0.461562
Si Si5 0.285596 0.124860 0.032898
Si Si6 0.900561 0.408817 0.655859
Si Si7 0.025179 0.539019 0.851468
Si Si8 0.890948 0.161226 0.326546
O O1 0.825526 0.831038 0.584561
O O2 0.906427 0.672214 0.644904
O O3 0.807128 0.660826 0.505670
O O4 0.967114 0.730787 0.518633
O O5 0.191892 0.957826 0.878196
O O6 0.367853 0.017972 0.858805
O O7 0.298945 0.006281 0.992532
O O8 0.482771 0.496915 0.840808
O O9 0.497678 0.605531 0.723310
O O10 0.572592 0.711421 0.831144
O O11 0.366807 0.300564 0.501684
O O12 0.434653 0.189795 0.396200
O O13 0.496656 0.386277 0.422917
O O14 0.305469 0.134118 0.121000
O O15 0.878713 0.368009 0.739510
O O16 0.970184 0.423460 0.852648
#
# Coordination Sequence:
#
# PCOD9461283 Si02
#       8
#     8   8   8   8   8   8   8   8
#     4  12  23  41  66  95 133 173 215 274 327 390
#     4  11  22  42  68  97 126 174 220 270 327 391
#     4  11  22  42  65  94 129 172 215 266 330 387
#     4  11  22  41  67  96 127 174 221 268 329 391
#     4  11  23  42  66  98 129 171 224 270 329 391
#     4  11  24  42  67  95 137 170 217 273 329 392
#     4  10  22  41  70  93 125 172 218 264 327 394
#     4  11  22  45  64  95 133 169 218 271 324 394
#
# _framework density 19.753086
#
# number of rings (size 3 to 8) (size 9 to 14) (size 15 to 20)
#    0.000    1.000    6.250    0.750    0.000    2.500 
#    9.000    1.250    0.000    0.000    0.000    0.000 
#    0.000    0.000    0.000    0.000    0.000    0.000 
#
# Total GULP energy -356573.385233 kJ/mol
# GULP energy per Si atom -5571.459144 kJ/mol
# Density = 1.970813 g / cm^3
# Si number density = 19.753086 Si / 1000 Ang^3
#
#
#
# Elastic Constant Matrix: (Units=GPa)
#
#
# Indices 1 2 3 4 5 6 
#
# 1 65.8175 -2.1536 8.7274 0.0000 0.0000 0.0000
# 2 -2.1536 49.9809 24.1102 0.0000 0.0000 0.0000
# 3 8.7274 24.1102 86.3265 0.0000 0.0000 0.0000
# 4 0.0000 0.0000 0.0000 22.7706 0.0000 0.0000
# 5 0.0000 0.0000 0.0000 0.0000 35.6197 0.0000
# 6 0.0000 0.0000 0.0000 0.0000 0.0000 24.5565
#
#
#
# Elastic Compliance Matrix: (Units=1/GPa)
#
#
# Indices 1 2 3 4 5 6 
#
# 1 0.015516 0.001647 -0.002029 0.000000 0.000000 0.000000
# 2 0.001647 0.023298 -0.006673 0.000000 0.000000 0.000000
# 3 -0.002029 -0.006673 0.013653 0.000000 0.000000 0.000000
# 4 0.000000 0.000000 0.000000 0.043916 0.000000 0.000000
# 5 0.000000 0.000000 0.000000 0.000000 0.028074 0.000000
# 6 0.000000 0.000000 0.000000 0.000000 0.000000 0.040722
#
#
# Mechanical properties :
#
#
# Convention : Reuss Voigt Hill
#
# Bulk Modulus (GPa) = 26.07066 29.27698 27.67382
# Shear Modulus (GPa) = 26.03141 28.01876 27.02509
#
# Velocity S-wave (km/s) = 3.63415 3.77032 3.70286
# Velocity P-wave (km/s) = 5.55304 5.81441 5.68523
#
# Compressibility (1/GPa) = 0.03835729
#
# Stress axis : x y z
#
# Youngs Moduli (GPa) = 64.44781 42.92250 73.24481
#
# Poissons Ratio (x) = -0.07070 0.14859
# Poissons Ratio (y) = -0.10616 0.48879
# Poissons Ratio (z) = 0.13075 0.28644
#
# Static dielectric constant tensor:
#      x y z
#    x 1.677360 0.000000 0.000000 
#    y 0.000000 1.758070 0.000000 
#    z 0.000000 0.000000 1.698360 
# 
# From -- ./inp_files/9551.got.cif
#   From: 2010.05.17/outbox.ucp.g08.bks.cvg/sg61_5_cif.got.tgz:9551.got - 2010.06.11 16:28:26.
