data_PCOD9461832
_publ_section_title
;
Structure prediction by ZEFSAII (Michael W. Deem and Ramdas Pophale) SiO2 
 PCOD9461832
Probable space group: P N M A
;
_chemical_formula_sum "Si O2"
_cell_formula_units_Z 64
_cell_length_a 20.992613
_cell_length_b 7.615986
_cell_length_c 17.611084
_cell_angle_alpha 90.000000
_cell_angle_beta 90.000000
_cell_angle_gamma 90.000000
_cell_volume 2815.650366
_symmetry_space_group_name_H-M "P N M A"
_symmetry_group_IT_number 62
_symmetry_cell_setting 'orthorhombic'
loop_
_space_group_symop_operation_xyz
x,y,z
1/2-x,-y,1/2+z
1/2+x,1/2-y,1/2-z
-x,1/2+y,-z
-x,-y,-z
1/2+x,y,1/2-z
1/2-x,1/2+y,1/2+z
x,1/2-y,z
loop_
_atom_site_type_symbol
_atom_site_label
_atom_site_fract_x
_atom_site_fract_y
_atom_site_fract_z
Si Si1 0.829790 0.966311 0.558277
Si Si2 0.213932 0.037624 0.145585
Si Si3 0.371707 0.536620 0.778795
Si Si4 0.012858 0.455447 0.172146
Si Si5 0.596200 0.952561 0.463870
Si Si6 0.686509 0.545015 0.587525
Si Si7 0.379190 0.951065 0.266390
Si Si8 0.355883 0.549195 0.104770
O O1 0.828756 0.750000 0.556862
O O2 0.865879 0.021074 0.634718
O O3 0.755929 0.025873 0.565534
O O4 0.861125 0.027902 0.479646
O O5 0.217858 0.250000 0.139899
O O6 0.190867 0.990143 0.230115
O O7 0.157572 0.972284 0.091242
O O8 0.280279 0.956426 0.121424
O O9 0.374241 0.750000 0.778716
O O10 0.432288 0.477320 0.729589
O O11 0.003423 0.250000 0.186530
O O12 0.038689 0.471534 0.086092
O O13 0.946950 0.543338 0.192628
O O14 0.579350 0.750000 0.476696
O O15 0.626165 0.031267 0.540880
O O16 0.688266 0.750000 0.566130
O O17 0.671179 0.535254 0.676346
O O18 0.358896 0.750000 0.256471
O O19 0.384372 0.031154 0.181892
O O20 0.379287 0.750000 0.099527
#
# Coordination Sequence:
#
# PCOD9461832 Si02
#       8
#     8   8   8   8   8   8   8   8
#     4   9  16  32  56  82 110 138 176 220 271 329
#     4  10  18  30  52  81 112 143 178 218 269 326
#     4   8  16  30  53  80 102 135 180 225 263 313
#     4  10  21  38  57  79 108 145 192 232 273 325
#     4  10  19  34  57  84 112 144 180 221 273 326
#     4  10  20  35  58  84 112 145 179 221 275 337
#     4  11  24  38  54  78 110 148 187 232 280 325
#     4  10  20  35  54  78 109 145 182 224 277 331
#
# _framework density 22.730093
#
# number of rings (size 3 to 8) (size 9 to 14) (size 15 to 20)
#    0.000    2.250    1.250    3.000    0.000    3.500 
#    0.000    0.625    0.000    4.500    0.000    0.000 
#    0.000    0.000    0.000    0.000    0.000    0.000 
#
# Total GULP energy -357271.927009 kJ/mol
# GULP energy per Si atom -5582.373860 kJ/mol
# Density = 2.267836 g / cm^3
# Si number density = 22.730093 Si / 1000 Ang^3
#
#
#
# Elastic Constant Matrix: (Units=GPa)
#
#
# Indices 1 2 3 4 5 6 
#
# 1 41.0612 -5.0090 22.8508 0.0000 0.0000 0.0000
# 2 -5.0090 53.6906 4.5569 0.0000 0.0000 0.0000
# 3 22.8508 4.5569 167.6884 0.0000 0.0000 0.0000
# 4 0.0000 0.0000 0.0000 13.7273 0.0000 0.0000
# 5 0.0000 0.0000 0.0000 0.0000 25.2595 0.0000
# 6 0.0000 0.0000 0.0000 0.0000 0.0000 -6.8148
#
#
#
# Elastic Compliance Matrix: (Units=1/GPa)
#
#
# Indices 1 2 3 4 5 6 
#
# 1 0.026770 0.002814 -0.003724 0.000000 0.000000 0.000000
# 2 0.002814 0.018964 -0.000899 0.000000 0.000000 0.000000
# 3 -0.003724 -0.000899 0.006495 0.000000 0.000000 0.000000
# 4 0.000000 0.000000 0.000000 0.072848 0.000000 0.000000
# 5 0.000000 0.000000 0.000000 0.000000 0.039589 0.000000
# 6 0.000000 0.000000 0.000000 0.000000 0.000000 -0.146740
#
#
# Mechanical properties :
#
#
# Convention : Reuss Voigt Hill
#
# Bulk Modulus (GPa) = 20.57188 34.13752 27.35470
# Shear Modulus (GPa) = 132.45594 22.43716 77.44655
#
# Velocity S-wave (km/s) = 7.64198 3.14524 5.84348
# Velocity P-wave (km/s) = 9.32398 5.31426 7.58874
#
# Compressibility (1/GPa) = 0.04861005
#
# Stress axis : x y z
#
# Youngs Moduli (GPa) = 37.35556 52.73153 153.95552
#
# Poissons Ratio (x) = -0.14836 0.57339
# Poissons Ratio (y) = -0.10510 0.13837
# Poissons Ratio (z) = 0.13913 0.04739
#
# Static dielectric constant tensor:
#      x y z
#    x 1.817950 0.000000 0.000000 
#    y 0.000000 1.821770 0.000000 
#    z 0.000000 0.000000 1.904530 
# 
# From -- ./inp_files/20794.got.cif
#   From: 2010.05.17/outbox.cif.g08.bks.cpg/sg62_11_cif.got.tgz:20794.got - 2010.06.03 15:25:27.
