data_PCOD9461412
_publ_section_title
;
Structure prediction by ZEFSAII (Michael W. Deem and Ramdas Pophale) SiO2 
 PCOD9461412
Probable space group: P N M A
;
_chemical_formula_sum "Si O2"
_cell_formula_units_Z 64
_cell_length_a 20.161967
_cell_length_b 7.536274
_cell_length_c 20.017997
_cell_angle_alpha 90.000000
_cell_angle_beta 90.000000
_cell_angle_gamma 90.000000
_cell_volume 3041.656728
_symmetry_space_group_name_H-M "P N M A"
_symmetry_group_IT_number 62
_symmetry_cell_setting 'orthorhombic'
loop_
_space_group_symop_operation_xyz
x,y,z
1/2-x,-y,1/2+z
1/2+x,1/2-y,1/2-z
-x,1/2+y,-z
-x,-y,-z
1/2+x,y,1/2-z
1/2-x,1/2+y,1/2+z
x,1/2-y,z
loop_
_atom_site_type_symbol
_atom_site_label
_atom_site_fract_x
_atom_site_fract_y
_atom_site_fract_z
Si Si1 0.216661 0.961660 0.175380
Si Si2 0.894547 0.963314 0.006509
Si Si3 0.028332 0.447815 0.748906
Si Si4 0.249897 0.552634 0.030795
Si Si5 0.671037 0.038298 0.712101
Si Si6 0.219777 0.540060 0.386607
Si Si7 0.389057 0.031589 0.781026
Si Si8 0.004458 0.456853 0.109473
O O1 0.206058 0.750000 0.165195
O O2 0.275983 0.982099 0.228315
O O3 0.150160 0.026517 0.213302
O O4 0.239640 0.035889 0.103594
O O5 0.886144 0.750000 0.007522
O O6 0.824692 0.052067 0.997112
O O7 0.934905 0.017814 0.071596
O O8 0.940162 0.013296 0.943357
O O9 0.040301 0.250000 0.720806
O O10 0.100002 0.534607 0.763252
O O11 0.997565 0.436986 0.823036
O O12 0.965039 0.530057 0.711393
O O13 0.275948 0.750000 0.043019
O O14 0.288072 0.482064 0.965818
O O15 0.658452 0.250000 0.700994
O O16 0.711387 0.970373 0.647038
O O17 0.223267 0.750000 0.374115
O O18 0.158215 0.475246 0.342182
O O19 0.390878 0.250000 0.779853
O O20 0.014068 0.250000 0.124435
#
# Coordination Sequence:
#
# PCOD9461412 Si02
#       8
#     8   8   8   8   8   8   8   8
#     4   8  15  28  44  65  93 120 148 186 233 282
#     4  10  20  32  44  61  91 128 158 184 219 271
#     4  10  17  27  48  72  89 113 156 202 238 272
#     4  11  20  29  47  71  92 117 152 196 240 279
#     4   8  15  28  47  68  88 116 154 191 227 273
#     4   9  17  31  48  66  93 125 154 188 233 286
#     4   8  15  28  47  69  91 119 156 195 232 275
#     4  10  20  31  43  64  95 126 154 185 226 277
#
# _framework density 21.041163999999998
#
# number of rings (size 3 to 8) (size 9 to 14) (size 15 to 20)
#    0.000    2.750    0.000    4.125    0.000    3.500 
#    0.000    0.625    0.000    8.250    0.000    0.000 
#    0.000    0.000    0.000    0.000    0.000    0.125 
#
# Total GULP energy -356675.263222 kJ/mol
# GULP energy per Si atom -5573.050988 kJ/mol
# Density = 2.099327 g / cm^3
# Si number density = 21.041164 Si / 1000 Ang^3
#
#
#
# Elastic Constant Matrix: (Units=GPa)
#
#
# Indices 1 2 3 4 5 6 
#
# 1 56.5267 1.7490 -21.8787 0.0000 0.0000 0.0000
# 2 1.7490 50.6378 -2.4550 0.0000 0.0000 0.0000
# 3 -21.8787 -2.4550 59.4660 0.0000 0.0000 0.0000
# 4 0.0000 0.0000 0.0000 15.2350 0.0000 0.0000
# 5 0.0000 0.0000 0.0000 0.0000 13.4878 0.0000
# 6 0.0000 0.0000 0.0000 0.0000 0.0000 -260.2387
#
#
#
# Elastic Compliance Matrix: (Units=1/GPa)
#
#
# Indices 1 2 3 4 5 6 
#
# 1 0.020634 -0.000345 0.007578 0.000000 0.000000 0.000000
# 2 -0.000345 0.019793 0.000690 0.000000 0.000000 0.000000
# 3 0.007578 0.000690 0.019633 0.000000 0.000000 0.000000
# 4 0.000000 0.000000 0.000000 0.065638 0.000000 0.000000
# 5 0.000000 0.000000 0.000000 0.000000 0.074141 0.000000
# 6 0.000000 0.000000 0.000000 0.000000 0.000000 -0.003843
#
#
# Mechanical properties :
#
#
# Convention : Reuss Voigt Hill
#
# Bulk Modulus (GPa) = 13.17434 13.49567 13.33501
# Shear Modulus (GPa) = 24.33630 -33.68882 -4.67626
#
# Velocity S-wave (km/s) = 3.40458 -4.00570 -1.49240
# Velocity P-wave (km/s) = 4.66151 3.86864 1.83893
#
# Compressibility (1/GPa) = 0.07590513
#
# Stress axis : x y z
#
# Youngs Moduli (GPa) = 48.46295 50.52168 50.93532
#
# Poissons Ratio (x) = 0.01745 -0.38596
# Poissons Ratio (y) = 0.01674 -0.03515
# Poissons Ratio (z) = -0.36723 -0.03486
#
# Static dielectric constant tensor:
#      x y z
#    x 1.791750 0.000000 0.000000 
#    y 0.000000 1.841120 0.000000 
#    z 0.000000 0.000000 1.782980 
# 
# From -- ./inp_files/27898.got.cif
#   From: 2010.05.17/outbox.cif.g08.bks.cpg/sg62_14_cif.got.tgz:27898.got - 2010.06.03 15:25:27.
