data_PCOD9461138
_publ_section_title
;
Structure prediction by ZEFSAII (Michael W. Deem and Ramdas Pophale) SiO2 
 PCOD9461138
Probable space group: P B C A
;
_chemical_formula_sum "Si O2"
_cell_formula_units_Z 24
_cell_length_a 5.341795
_cell_length_b 10.278008
_cell_length_c 15.871609
_cell_angle_alpha 90.000000
_cell_angle_beta 90.000000
_cell_angle_gamma 90.000000
_cell_volume 871.399135
_symmetry_space_group_name_H-M "P B C A"
_symmetry_group_IT_number 61
_symmetry_cell_setting 'orthorhombic'
loop_
_space_group_symop_operation_xyz
x,y,z
1/2-x,-y,1/2+z
1/2+x,1/2-y,-z
-x,1/2+y,1/2-z
-x,-y,-z
1/2+x,y,1/2-z
1/2-x,1/2+y,z
x,1/2-y,1/2+z
loop_
_atom_site_type_symbol
_atom_site_label
_atom_site_fract_x
_atom_site_fract_y
_atom_site_fract_z
Si Si1 0.853026 0.693394 0.221599
Si Si2 0.727293 0.325324 0.015406
Si Si3 0.480063 0.471827 0.870755
O O1 0.619150 0.761552 0.267808
O O2 0.893500 0.565091 0.282438
O O3 0.748736 0.633599 0.135569
O O4 0.647183 0.394052 0.102923
O O5 0.009098 0.275845 0.010887
O O6 0.678499 0.435556 0.943167
#
# Coordination Sequence:
#
# PCOD9461138 Si02
#       3
#     8   8   8
#     4   8  18  34  66  80 108 160 186 236 300 318
#     4  11  26  37  60  90 118 157 192 231 298 350
#     4   9  22  42  62  81 126 146 196 247 280 342
#
# _framework density 27.541913999999998
#
# number of rings (size 3 to 8) (size 9 to 14) (size 15 to 20)
#    2.000    0.667    0.000    0.000    9.333    2.667 
#    0.000   10.000    0.000    0.000    0.000    0.000 
#    0.000    0.000    0.000    0.000    0.000    0.000 
#
# Total GULP energy -133866.613235 kJ/mol
# GULP energy per Si atom -5577.775551 kJ/mol
# Density = 2.747923 g / cm^3
# Si number density = 27.541914 Si / 1000 Ang^3
#
#
#
# Elastic Constant Matrix: (Units=GPa)
#
#
# Indices 1 2 3 4 5 6 
#
# 1 158.0271 9.9777 17.6375 0.0000 0.0000 0.0000
# 2 9.9777 63.8032 -21.2180 0.0000 0.0000 0.0000
# 3 17.6375 -21.2180 68.6850 0.0000 0.0000 0.0000
# 4 0.0000 0.0000 0.0000 20.1744 0.0000 0.0000
# 5 0.0000 0.0000 0.0000 0.0000 58.9627 0.0000
# 6 0.0000 0.0000 0.0000 0.0000 0.0000 27.5001
#
#
#
# Elastic Compliance Matrix: (Units=1/GPa)
#
#
# Indices 1 2 3 4 5 6 
#
# 1 0.006696 -0.001804 -0.002277 0.000000 0.000000 0.000000
# 2 -0.001804 0.017954 0.006010 0.000000 0.000000 0.000000
# 3 -0.002277 0.006010 0.017000 0.000000 0.000000 0.000000
# 4 0.000000 0.000000 0.000000 0.049568 0.000000 0.000000
# 5 0.000000 0.000000 0.000000 0.000000 0.016960 0.000000
# 6 0.000000 0.000000 0.000000 0.000000 0.000000 0.036363
#
#
# Mechanical properties :
#
#
# Convention : Reuss Voigt Hill
#
# Bulk Modulus (GPa) = 21.97459 33.70108 27.83784
# Shear Modulus (GPa) = 32.08138 40.26865 36.17502
#
# Velocity S-wave (km/s) = 3.41665 3.82787 3.62809
# Velocity P-wave (km/s) = 4.85392 5.63912 5.26119
#
# Compressibility (1/GPa) = 0.04550710
#
# Stress axis : x y z
#
# Youngs Moduli (GPa) = 149.34124 55.69830 58.82230
#
# Poissons Ratio (x) = 0.10050 0.13393
# Poissons Ratio (y) = 0.26946 -0.35350
# Poissons Ratio (z) = 0.34003 -0.33472
#
# Static dielectric constant tensor:
#      x y z
#    x 2.112400 0.000000 0.000000 
#    y 0.000000 2.208590 0.000000 
#    z 0.000000 0.000000 2.218400 
# 
# From -- ./inp_files/48.got.cif
#   From: 2010.05.17/outbox.cif.g08.bks.cpg/sg61_1_cif.got.tgz:48.got - 2010.06.03 15:17:17.
