data_PCOD9461461
_publ_section_title
;
Structure prediction by ZEFSAII (Michael W. Deem and Ramdas Pophale) SiO2 
 PCOD9461461
Probable space group: P N M A
;
_chemical_formula_sum "Si O2"
_cell_formula_units_Z 64
_cell_length_a 19.764970
_cell_length_b 8.612123
_cell_length_c 23.957089
_cell_angle_alpha 90.000000
_cell_angle_beta 90.000000
_cell_angle_gamma 90.000000
_cell_volume 4077.936226
_symmetry_space_group_name_H-M "P N M A"
_symmetry_group_IT_number 62
_symmetry_cell_setting 'orthorhombic'
loop_
_space_group_symop_operation_xyz
x,y,z
1/2-x,-y,1/2+z
1/2+x,1/2-y,1/2-z
-x,1/2+y,-z
-x,-y,-z
1/2+x,y,1/2-z
1/2-x,1/2+y,1/2+z
x,1/2-y,z
loop_
_atom_site_type_symbol
_atom_site_label
_atom_site_fract_x
_atom_site_fract_y
_atom_site_fract_z
Si Si1 0.364411 0.062120 0.561201
Si Si2 0.001897 0.062610 0.750291
Si Si3 0.355776 0.935942 0.437317
Si Si4 0.281591 0.437351 0.667416
Si Si5 0.730858 0.935931 0.659576
Si Si6 0.347583 0.937643 0.233316
Si Si7 0.639249 0.064467 0.226064
Si Si8 0.503949 0.438853 0.619869
O O1 0.364368 0.250000 0.557981
O O2 0.308692 0.013875 0.607119
O O3 0.437600 0.012862 0.585605
O O4 0.352155 0.995046 0.500303
O O5 0.998119 0.250000 0.749599
O O6 0.000205 0.012314 0.815494
O O7 0.074721 0.014978 0.725974
O O8 0.936381 0.997091 0.719657
O O9 0.355811 0.750000 0.436550
O O10 0.426747 0.990306 0.409417
O O11 0.295584 0.996566 0.398293
O O12 0.285328 0.250000 0.669315
O O13 0.205775 0.483775 0.685402
O O14 0.330929 0.500122 0.715644
O O15 0.727885 0.750000 0.657946
O O16 0.806376 0.983197 0.678875
O O17 0.681588 0.996359 0.708767
O O18 0.346486 0.750000 0.237766
O O19 0.638743 0.250000 0.228597
O O20 0.504371 0.250000 0.620398
#
# Coordination Sequence:
#
# PCOD9461461 Si02
#       8
#     8   8   8   8   8   8   8   8
#     4  10  19  32  47  65  94 129 163 193 231 277
#     4  10  17  30  49  70  96 126 158 191 231 282
#     4  11  21  33  48  67  93 126 167 203 231 270
#     4   9  17  31  50  69  92 126 160 194 237 281
#     4  10  20  33  47  67  95 125 156 196 241 281
#     4   9  17  30  50  72  94 122 158 196 235 281
#     4  10  20  31  46  70  97 122 156 196 236 282
#     4   9  17  30  45  66  95 126 160 194 223 266
#
# _framework density 15.694212
#
# number of rings (size 3 to 8) (size 9 to 14) (size 15 to 20)
#    0.000    2.250    2.500    1.500    0.000    2.500 
#    0.000    0.625    0.000    0.000    0.000    0.875 
#    0.000    0.000    0.000    0.000    0.000    0.000 
#
# Total GULP energy -356911.892487 kJ/mol
# GULP energy per Si atom -5576.748320 kJ/mol
# Density = 1.565849 g / cm^3
# Si number density = 15.694212 Si / 1000 Ang^3
#
#
#
# Elastic Constant Matrix: (Units=GPa)
#
#
# Indices 1 2 3 4 5 6 
#
# 1 142.9377 27.8967 62.1680 0.0000 0.0000 0.0000
# 2 27.8967 10.0090 20.2518 0.0000 0.0000 0.0000
# 3 62.1680 20.2518 85.6377 0.0000 0.0000 0.0000
# 4 0.0000 0.0000 0.0000 19.9170 0.0000 0.0000
# 5 0.0000 0.0000 0.0000 0.0000 21.9156 0.0000
# 6 0.0000 0.0000 0.0000 0.0000 0.0000 -5.7689
#
#
#
# Elastic Compliance Matrix: (Units=1/GPa)
#
#
# Indices 1 2 3 4 5 6 
#
# 1 0.015515 -0.039221 -0.001988 0.000000 0.000000 0.000000
# 2 -0.039221 0.290725 -0.040279 0.000000 0.000000 0.000000
# 3 -0.001988 -0.040279 0.022646 0.000000 0.000000 0.000000
# 4 0.000000 0.000000 0.000000 0.050208 0.000000 0.000000
# 5 0.000000 0.000000 0.000000 0.000000 0.045630 0.000000
# 6 0.000000 0.000000 0.000000 0.000000 0.000000 -0.173343
#
#
# Mechanical properties :
#
#
# Convention : Reuss Voigt Hill
#
# Bulk Modulus (GPa) = 6.02739 51.02417 28.52578
# Shear Modulus (GPa) = 10.64598 15.76395 13.20496
#
# Velocity S-wave (km/s) = 2.60732 3.17273 2.90382
# Velocity P-wave (km/s) = 3.59347 6.78260 5.42755
#
# Compressibility (1/GPa) = 0.16590928
#
# Stress axis : x y z
#
# Youngs Moduli (GPa) = 64.45168 3.43967 44.15855
#
# Poissons Ratio (x) = 0.13491 0.08780
# Poissons Ratio (y) = 2.52789 1.77866
# Poissons Ratio (z) = 0.12814 0.13855
#
# Static dielectric constant tensor:
#      x y z
#    x 1.543190 0.000000 0.000000 
#    y 0.000000 1.532340 0.000000 
#    z 0.000000 0.000000 1.495710 
# 
# From -- ./inp_files/27906.got.cif
#   From: 2010.05.17/outbox.cif.g08.bks.cpg/sg62_14_cif.got.tgz:27906.got - 2010.06.03 15:25:27.
