data_PCOD9461038
_publ_section_title
;
Structure prediction by ZEFSAII (Michael W. Deem and Ramdas Pophale) SiO2 
 PCOD9461038
Probable space group: P B C A
;
_chemical_formula_sum "Si O2"
_cell_formula_units_Z 40
_cell_length_a 8.089389
_cell_length_b 13.480678
_cell_length_c 14.455085
_cell_angle_alpha 90.000000
_cell_angle_beta 90.000000
_cell_angle_gamma 90.000000
_cell_volume 1576.333500
_symmetry_space_group_name_H-M "P B C A"
_symmetry_group_IT_number 61
_symmetry_cell_setting 'orthorhombic'
loop_
_space_group_symop_operation_xyz
x,y,z
1/2-x,-y,1/2+z
1/2+x,1/2-y,-z
-x,1/2+y,1/2-z
-x,-y,-z
1/2+x,y,1/2-z
1/2-x,1/2+y,z
x,1/2-y,1/2+z
loop_
_atom_site_type_symbol
_atom_site_label
_atom_site_fract_x
_atom_site_fract_y
_atom_site_fract_z
Si Si1 0.517778 0.848671 0.950495
Si Si2 0.166683 0.152625 0.930314
Si Si3 0.155179 0.119808 0.621328
Si Si4 0.655007 0.357482 0.871213
Si Si5 0.487867 0.033907 0.709169
O O1 0.649803 0.820725 0.033181
O O2 0.383334 0.905099 0.013472
O O3 0.425758 0.754960 0.906408
O O4 0.651846 0.890427 0.878655
O O5 0.143140 0.071837 0.851651
O O6 0.084937 0.116535 0.026866
O O7 0.155834 0.239139 0.634316
O O8 0.331944 0.082319 0.656314
O O9 0.018911 0.075930 0.690080
O O10 0.552953 0.417945 0.797162
#
# Coordination Sequence:
#
# PCOD9461038 Si02
#       5
#     8   8   8   8   8
#     4   9  18  39  63  92 121 169 217 258 325 372
#     4   9  17  37  63  90 124 167 211 262 310 388
#     4  11  24  40  63  96 130 170 212 275 326 383
#     4   9  22  39  66  91 126 169 218 260 328 387
#     4  12  22  40  62  92 134 165 214 269 329 384
#
# _framework density 25.375339
#
# number of rings (size 3 to 8) (size 9 to 14) (size 15 to 20)
#    1.200    0.800    2.000    1.800    0.000    2.400 
#    0.000    0.000    0.000    0.000    0.000    0.000 
#    0.000    0.000    0.000    0.000    0.000    0.000 
#
# Total GULP energy -223235.392133 kJ/mol
# GULP energy per Si atom -5580.884803 kJ/mol
# Density = 2.531758 g / cm^3
# Si number density = 25.375339 Si / 1000 Ang^3
#
#
#
# Elastic Constant Matrix: (Units=GPa)
#
#
# Indices 1 2 3 4 5 6 
#
# 1 87.9911 6.0990 3.0211 0.0000 0.0000 0.0000
# 2 6.0990 86.4866 21.4366 0.0000 0.0000 0.0000
# 3 3.0211 21.4366 66.8562 0.0000 0.0000 0.0000
# 4 0.0000 0.0000 0.0000 32.9533 0.0000 0.0000
# 5 0.0000 0.0000 0.0000 0.0000 42.0655 0.0000
# 6 0.0000 0.0000 0.0000 0.0000 0.0000 28.0425
#
#
#
# Elastic Compliance Matrix: (Units=1/GPa)
#
#
# Indices 1 2 3 4 5 6 
#
# 1 0.011425 -0.000736 -0.000280 0.000000 0.000000 0.000000
# 2 -0.000736 0.012608 -0.004009 0.000000 0.000000 0.000000
# 3 -0.000280 -0.004009 0.016256 0.000000 0.000000 0.000000
# 4 0.000000 0.000000 0.000000 0.030346 0.000000 0.000000
# 5 0.000000 0.000000 0.000000 0.000000 0.023772 0.000000
# 6 0.000000 0.000000 0.000000 0.000000 0.000000 0.035660
#
#
# Mechanical properties :
#
#
# Convention : Reuss Voigt Hill
#
# Bulk Modulus (GPa) = 33.07145 33.60527 33.33836
# Shear Modulus (GPa) = 33.28921 34.66407 33.97664
#
# Velocity S-wave (km/s) = 3.62591 3.70003 3.66315
# Velocity P-wave (km/s) = 5.53090 5.61477 5.57299
#
# Compressibility (1/GPa) = 0.03023756
#
# Stress axis : x y z
#
# Youngs Moduli (GPa) = 87.52399 79.31367 61.51693
#
# Poissons Ratio (x) = 0.05840 0.01724
# Poissons Ratio (y) = 0.06444 0.24664
# Poissons Ratio (z) = 0.02453 0.31800
#
# Static dielectric constant tensor:
#      x y z
#    x 2.062880 0.000000 0.000000 
#    y 0.000000 2.058440 0.000000 
#    z 0.000000 0.000000 2.023320 
# 
# From -- ./inp_files/6961.got.cif
#   From: 2010.05.17/outbox.cif.g08.bks.cpg/sg61_4_cif.got.tgz:6961.got - 2010.06.03 15:17:17.
