data_PCOD9461627
_publ_section_title
;
Structure prediction by ZEFSAII (Michael W. Deem and Ramdas Pophale) SiO2 
 PCOD9461627
Probable space group: P N M A
;
_chemical_formula_sum "Si O2"
_cell_formula_units_Z 64
_cell_length_a 21.300499
_cell_length_b 9.610022
_cell_length_c 14.963149
_cell_angle_alpha 90.000000
_cell_angle_beta 90.000000
_cell_angle_gamma 90.000000
_cell_volume 3062.930624
_symmetry_space_group_name_H-M "P N M A"
_symmetry_group_IT_number 62
_symmetry_cell_setting 'orthorhombic'
loop_
_space_group_symop_operation_xyz
x,y,z
1/2-x,-y,1/2+z
1/2+x,1/2-y,1/2-z
-x,1/2+y,-z
-x,-y,-z
1/2+x,y,1/2-z
1/2-x,1/2+y,1/2+z
x,1/2-y,z
loop_
_atom_site_type_symbol
_atom_site_label
_atom_site_fract_x
_atom_site_fract_y
_atom_site_fract_z
Si Si1 0.635949 0.593202 0.138601
Si Si2 0.492869 0.898526 0.080620
Si Si3 0.211723 0.918064 0.541385
Si Si4 0.690328 0.915688 0.564347
Si Si5 0.438197 0.084522 0.529920
Si Si6 0.811982 0.408379 0.255271
Si Si7 0.952462 0.101375 0.285614
Si Si8 0.407661 0.911316 0.704040
O O1 0.660159 0.750000 0.161681
O O2 0.561406 0.609669 0.123679
O O3 0.636154 0.480377 0.218873
O O4 0.663484 0.551637 0.041074
O O5 0.469820 0.750000 0.050992
O O6 0.448759 0.969310 0.151796
O O7 0.500000 0.000000 0.000000
O O8 0.217359 0.750000 0.542329
O O9 0.196266 0.962131 0.643651
O O10 0.273553 0.997240 0.510127
O O11 0.705074 0.750000 0.559669
O O12 0.616664 0.928308 0.543189
O O13 0.711687 0.972552 0.662233
O O14 0.451406 0.250000 0.543122
O O15 0.500000 0.000000 0.500000
O O16 0.410542 0.012276 0.618969
O O17 0.787260 0.250000 0.257927
O O18 0.886746 0.398005 0.236003
O O19 0.953588 0.250000 0.337346
O O20 0.018515 0.094838 0.234666
O O21 0.389447 0.750000 0.685999
#
# Coordination Sequence:
#
# PCOD9461627 Si02
#       8
#     8   8   8   8   8   8   8   8
#     4   9  19  35  53  78 115 155 193 237 291 344
#     4  10  18  28  45  72 108 147 186 230 280 332
#     4  10  21  38  61  86 113 151 199 246 291 343
#     4  10  23  42  62  86 116 150 190 237 290 348
#     4  11  23  40  63  90 121 155 193 242 301 363
#     4   9  18  37  62  82 108 150 193 235 287 344
#     4   9  17  32  54  79 108 144 189 236 284 341
#     4  10  20  34  57  89 122 158 200 245 295 355
#
# _framework density 20.895021
#
# number of rings (size 3 to 8) (size 9 to 14) (size 15 to 20)
#    0.000    2.250    0.000    2.625    0.000    7.500 
#    0.000    5.625    0.000    0.000    0.000    0.000 
#    0.000    0.000    0.000    0.000    0.000    0.000 
#
# Total GULP energy -356360.530336 kJ/mol
# GULP energy per Si atom -5568.133286 kJ/mol
# Density = 2.084746 g / cm^3
# Si number density = 20.895021 Si / 1000 Ang^3
#
#
#
# Elastic Constant Matrix: (Units=GPa)
#
#
# Indices 1 2 3 4 5 6 
#
# 1 54.6659 17.8994 29.4909 0.0000 0.0000 0.0000
# 2 17.8994 110.7274 68.4301 0.0000 0.0000 0.0000
# 3 29.4909 68.4301 146.5207 0.0000 0.0000 0.0000
# 4 0.0000 0.0000 0.0000 25.4090 0.0000 0.0000
# 5 0.0000 0.0000 0.0000 0.0000 18.2495 0.0000
# 6 0.0000 0.0000 0.0000 0.0000 0.0000 25.4834
#
#
#
# Elastic Compliance Matrix: (Units=1/GPa)
#
#
# Indices 1 2 3 4 5 6 
#
# 1 0.020613 -0.001080 -0.003645 0.000000 0.000000 0.000000
# 2 -0.001080 0.012752 -0.005738 0.000000 0.000000 0.000000
# 3 -0.003645 -0.005738 0.010239 0.000000 0.000000 0.000000
# 4 0.000000 0.000000 0.000000 0.039356 0.000000 0.000000
# 5 0.000000 0.000000 0.000000 0.000000 0.054796 0.000000
# 6 0.000000 0.000000 0.000000 0.000000 0.000000 0.039241
#
#
# Mechanical properties :
#
#
# Convention : Reuss Voigt Hill
#
# Bulk Modulus (GPa) = 44.09560 60.39497 52.24529
# Shear Modulus (GPa) = 24.33314 26.90128 25.61721
#
# Velocity S-wave (km/s) = 3.41624 3.59200 3.50522
# Velocity P-wave (km/s) = 6.05889 6.79485 6.43740
#
# Compressibility (1/GPa) = 0.02267800
#
# Stress axis : x y z
#
# Youngs Moduli (GPa) = 48.51404 78.41882 97.67050
#
# Poissons Ratio (x) = 0.08467 0.35596
# Poissons Ratio (y) = 0.05238 0.56046
# Poissons Ratio (z) = 0.17681 0.44999
#
# Static dielectric constant tensor:
#      x y z
#    x 1.761000 0.000000 0.000000 
#    y 0.000000 1.754830 0.000000 
#    z 0.000000 0.000000 1.745100 
# 
# From -- ./inp_files/20920.got.cif
#   From: 2010.05.17/outbox.cif.g08.bks.cpg/sg62_11_cif.got.tgz:20920.got - 2010.06.03 15:25:27.
