data_PCOD9461071
_publ_section_title
;
Structure prediction by ZEFSAII (Michael W. Deem and Ramdas Pophale) SiO2 
 PCOD9461071
Probable space group: P B C A
;
_chemical_formula_sum "Si O2"
_cell_formula_units_Z 44
_cell_length_a 7.532136
_cell_length_b 9.997810
_cell_length_c 22.981543
_cell_angle_alpha 90.000000
_cell_angle_beta 90.000000
_cell_angle_gamma 90.000000
_cell_volume 1730.621984
_symmetry_space_group_name_H-M "P B C A"
_symmetry_group_IT_number 61
_symmetry_cell_setting 'orthorhombic'
loop_
_space_group_symop_operation_xyz
x,y,z
1/2-x,-y,1/2+z
1/2+x,1/2-y,-z
-x,1/2+y,1/2-z
-x,-y,-z
1/2+x,y,1/2-z
1/2-x,1/2+y,z
x,1/2-y,1/2+z
loop_
_atom_site_type_symbol
_atom_site_label
_atom_site_fract_x
_atom_site_fract_y
_atom_site_fract_z
Si Si1 0.316887 0.567372 0.578052
Si Si2 0.862393 0.388729 0.810081
Si Si3 0.479711 0.824598 0.380092
Si Si4 0.500000 0.500000 0.000000
Si Si5 0.041217 0.613554 0.321804
Si Si6 0.358565 0.239194 0.934462
O O1 0.372690 0.501687 0.639950
O O2 0.183436 0.473668 0.541710
O O3 0.995468 0.872539 0.448915
O O4 0.176798 0.684532 0.593303
O O5 0.660570 0.340057 0.813872
O O6 0.887170 0.417340 0.742317
O O7 0.010786 0.282786 0.829376
O O8 0.344420 0.813027 0.434048
O O9 0.453378 0.970817 0.354122
O O10 0.394684 0.373686 0.969143
O O11 0.125453 0.721017 0.365645
#
# Coordination Sequence:
#
# PCOD9461071 Si02
#       6
#     8   8   8   4   8   8
#     4  11  26  49  72 113 150 200 262 331 384 485
#     4  11  24  45  75 111 160 201 255 323 398 480
#     4  11  25  47  72 109 156 202 259 319 398 467
#     4  12  26  52  74 110 156 200 280 322 394 472
#     4  11  25  44  72 115 154 200 261 314 400 483
#     4  12  27  47  76 109 151 203 261 330 397 469
#
# _framework density 25.424388
#
# number of rings (size 3 to 8) (size 9 to 14) (size 15 to 20)
#    0.000    0.727    5.455    1.091   10.182    1.455 
#    0.000    2.727    0.000    0.000    0.000    0.000 
#    0.000    0.000    0.000    0.000    0.000    0.000 
#
# Total GULP energy -245098.864286 kJ/mol
# GULP energy per Si atom -5570.428734 kJ/mol
# Density = 2.536652 g / cm^3
# Si number density = 25.424388 Si / 1000 Ang^3
#
#
#
# Elastic Constant Matrix: (Units=GPa)
#
#
# Indices 1 2 3 4 5 6 
#
# 1 104.2652 21.6477 26.0475 0.0000 0.0000 0.0000
# 2 21.6477 54.3760 44.5799 0.0000 0.0000 0.0000
# 3 26.0475 44.5799 150.7708 0.0000 0.0000 0.0000
# 4 0.0000 0.0000 0.0000 28.3096 0.0000 0.0000
# 5 0.0000 0.0000 0.0000 0.0000 48.2493 0.0000
# 6 0.0000 0.0000 0.0000 0.0000 0.0000 -4.5534
#
#
#
# Elastic Compliance Matrix: (Units=1/GPa)
#
#
# Indices 1 2 3 4 5 6 
#
# 1 0.010521 -0.003562 -0.000765 0.000000 0.000000 0.000000
# 2 -0.003562 0.025481 -0.006919 0.000000 0.000000 0.000000
# 3 -0.000765 -0.006919 0.008810 0.000000 0.000000 0.000000
# 4 0.000000 0.000000 0.000000 0.035324 0.000000 0.000000
# 5 0.000000 0.000000 0.000000 0.000000 0.020726 0.000000
# 6 0.000000 0.000000 0.000000 0.000000 0.000000 -0.219615
#
#
# Mechanical properties :
#
#
# Convention : Reuss Voigt Hill
#
# Bulk Modulus (GPa) = 44.79841 54.88469 49.84155
# Shear Modulus (GPa) = -56.29229 28.87689 -13.70770
#
# Velocity S-wave (km/s) = -4.71053 3.37381 -2.32449
# Velocity P-wave (km/s) = 3.45355 6.06721 3.52733
#
# Compressibility (1/GPa) = 0.02232222
#
# Stress axis : x y z
#
# Youngs Moduli (GPa) = 95.04396 39.24512 113.50195
#
# Poissons Ratio (x) = 0.13979 0.08677
# Poissons Ratio (y) = 0.33854 0.78530
# Poissons Ratio (z) = 0.07266 0.27153
#
# Static dielectric constant tensor:
#      x y z
#    x 2.040260 0.000000 0.000000 
#    y 0.000000 2.022890 0.000000 
#    z 0.000000 0.000000 2.109710 
# 
# From -- ./inp_files/10828.got.cif
#   From: 2010.05.17/outbox.cif.g08.bks.cpg/sg61_6_cif.got.tgz:10828.got - 2010.06.03 15:17:17.
