data_PCOD9461404
_publ_section_title
;
Structure prediction by ZEFSAII (Michael W. Deem and Ramdas Pophale) SiO2 
 PCOD9461404
Probable space group: P N M A
;
_chemical_formula_sum "Si O2"
_cell_formula_units_Z 64
_cell_length_a 17.130374
_cell_length_b 7.349348
_cell_length_c 22.249227
_cell_angle_alpha 90.000000
_cell_angle_beta 90.000000
_cell_angle_gamma 90.000000
_cell_volume 2801.112709
_symmetry_space_group_name_H-M "P N M A"
_symmetry_group_IT_number 62
_symmetry_cell_setting 'orthorhombic'
loop_
_space_group_symop_operation_xyz
x,y,z
1/2-x,-y,1/2+z
1/2+x,1/2-y,1/2-z
-x,1/2+y,-z
-x,-y,-z
1/2+x,y,1/2-z
1/2-x,1/2+y,1/2+z
x,1/2-y,z
loop_
_atom_site_type_symbol
_atom_site_label
_atom_site_fract_x
_atom_site_fract_y
_atom_site_fract_z
Si Si1 0.452034 0.472071 0.616717
Si Si2 0.415194 0.539263 0.938089
Si Si3 0.845611 0.973029 0.438530
Si Si4 0.286401 0.470594 0.842374
Si Si5 0.542819 0.454421 0.841826
Si Si6 0.627703 0.041525 0.615025
Si Si7 0.916975 0.027870 0.749651
Si Si8 0.673946 0.529361 0.480177
O O1 0.452622 0.250000 0.614080
O O2 0.541169 0.537820 0.613713
O O3 0.418107 0.524881 0.681355
O O4 0.396965 0.530559 0.562406
O O5 0.437851 0.750000 0.941734
O O6 0.333579 0.527387 0.901998
O O7 0.478393 0.445578 0.895534
O O8 0.399122 0.469136 0.004869
O O9 0.847731 0.750000 0.438096
O O10 0.882624 0.035899 0.375663
O O11 0.757126 0.026480 0.452501
O O12 0.284612 0.250000 0.842607
O O13 0.197714 0.537462 0.845046
O O14 0.340364 0.529336 0.786974
O O15 0.564815 0.250000 0.823063
O O16 0.494069 0.536276 0.786699
O O17 0.617554 0.250000 0.635423
O O18 0.660170 0.038947 0.547259
O O19 0.918905 0.250000 0.746953
O O20 0.674306 0.750000 0.483022
#
# Coordination Sequence:
#
# PCOD9461404 Si02
#       8
#     8   8   8   8   8   8   8   8
#     4   9  18  32  50  73 100 126 160 206 246 285
#     4  10  17  27  45  69  98 125 161 200 239 287
#     4   9  17  28  43  68  97 126 159 194 236 289
#     4   9  17  30  49  71  98 129 160 196 241 290
#     4   9  17  30  47  67  96 129 162 196 238 290
#     4  10  19  32  51  76  99 124 163 204 243 287
#     4   8  15  30  48  68  95 126 158 195 240 285
#     4  10  19  33  51  72 100 129 160 201 247 292
#
# _framework density 22.848064000000001
#
# number of rings (size 3 to 8) (size 9 to 14) (size 15 to 20)
#    0.000    2.750    1.250    1.875    0.000    0.000 
#    2.250    1.250    0.000    6.000    0.000    0.000 
#    0.000    0.000    0.000    0.000    0.000    0.000 
#
# Total GULP energy -357375.392717 kJ/mol
# GULP energy per Si atom -5583.990511 kJ/mol
# Density = 2.279606 g / cm^3
# Si number density = 22.848064 Si / 1000 Ang^3
#
#
#
# Elastic Constant Matrix: (Units=GPa)
#
#
# Indices 1 2 3 4 5 6 
#
# 1 88.4055 -2.9755 19.1667 0.0000 0.0000 0.0000
# 2 -2.9755 91.9007 -9.2051 0.0000 0.0000 0.0000
# 3 19.1667 -9.2051 41.0940 0.0000 0.0000 0.0000
# 4 0.0000 0.0000 0.0000 7.2596 0.0000 0.0000
# 5 0.0000 0.0000 0.0000 0.0000 20.0115 0.0000
# 6 0.0000 0.0000 0.0000 0.0000 0.0000 1.1788
#
#
#
# Elastic Compliance Matrix: (Units=1/GPa)
#
#
# Indices 1 2 3 4 5 6 
#
# 1 0.012587 -0.000185 -0.005912 0.000000 0.000000 0.000000
# 2 -0.000185 0.011134 0.002580 0.000000 0.000000 0.000000
# 3 -0.005912 0.002580 0.027670 0.000000 0.000000 0.000000
# 4 0.000000 0.000000 0.000000 0.137749 0.000000 0.000000
# 5 0.000000 0.000000 0.000000 0.000000 0.049971 0.000000
# 6 0.000000 0.000000 0.000000 0.000000 0.000000 0.848350
#
#
# Mechanical properties :
#
#
# Convention : Reuss Voigt Hill
#
# Bulk Modulus (GPa) = 22.54415 26.15247 24.34831
# Shear Modulus (GPa) = 4.50743 19.98423 12.24583
#
# Velocity S-wave (km/s) = 1.40608 2.96067 2.31761
# Velocity P-wave (km/s) = 3.53900 4.81233 4.22392
#
# Compressibility (1/GPa) = 0.04435741
#
# Stress axis : x y z
#
# Youngs Moduli (GPa) = 79.44661 89.81687 36.14039
#
# Poissons Ratio (x) = 0.01658 0.21367
# Poissons Ratio (y) = 0.01467 -0.09325
# Poissons Ratio (z) = 0.46970 -0.23174
#
# Static dielectric constant tensor:
#      x y z
#    x 1.859000 0.000000 0.000000 
#    y 0.000000 1.892530 0.000000 
#    z 0.000000 0.000000 1.798330 
# 
# From -- ./inp_files/30064.got.cif
#   From: 2010.05.17/outbox.cif.g08.bks.cpg/sg62_16_cif.got.tgz:30064.got - 2010.06.03 15:25:27.
