data_PCOD9461362
_publ_section_title
;
Structure prediction by ZEFSAII (Michael W. Deem and Ramdas Pophale) SiO2 
 PCOD9461362
Probable space group: P N M A
;
_chemical_formula_sum "Si O2"
_cell_formula_units_Z 40
_cell_length_a 12.654598
_cell_length_b 14.018455
_cell_length_c 9.294886
_cell_angle_alpha 90.000000
_cell_angle_beta 90.000000
_cell_angle_gamma 90.000000
_cell_volume 1648.893374
_symmetry_space_group_name_H-M "P N M A"
_symmetry_group_IT_number 62
_symmetry_cell_setting 'orthorhombic'
loop_
_space_group_symop_operation_xyz
x,y,z
1/2-x,-y,1/2+z
1/2+x,1/2-y,1/2-z
-x,1/2+y,-z
-x,-y,-z
1/2+x,y,1/2-z
1/2-x,1/2+y,1/2+z
x,1/2-y,z
loop_
_atom_site_type_symbol
_atom_site_label
_atom_site_fract_x
_atom_site_fract_y
_atom_site_fract_z
Si Si1 0.769490 0.250000 0.821378
Si Si2 0.019125 0.250000 0.047825
Si Si3 0.005978 0.959386 0.301455
Si Si4 0.679803 0.534408 0.975965
Si Si5 0.758461 0.250000 0.475417
Si Si6 0.035871 0.250000 0.696937
Si Si7 0.390635 0.420346 0.519398
O O1 0.759278 0.250000 0.650068
O O2 0.650183 0.250000 0.872280
O O3 0.825826 0.156774 0.881323
O O4 0.952415 0.154752 0.083700
O O5 0.033539 0.250000 0.871955
O O6 0.140625 0.250000 0.094249
O O7 0.103508 0.000022 0.392361
O O8 0.025893 0.965458 0.132238
O O9 0.014011 0.848597 0.346200
O O10 0.889248 0.993121 0.343461
O O11 0.691239 0.647064 0.942532
O O12 0.796883 0.494883 0.011682
#
# Coordination Sequence:
#
# PCOD9461362 Si02
#       7
#     4   4   8   8   4   4   8
#     4  10  16  33  59  83 112 141 186 250 283 313
#     4   8  20  33  58  85 107 145 189 249 299 323
#     4  10  20  34  55  90 117 153 194 240 289 350
#     4  11  22  34  58  85 120 157 191 239 296 345
#     4  11  21  38  54  83 118 152 191 238 287 339
#     4   9  15  32  59  83 113 136 186 247 285 327
#     4  10  19  36  58  88 117 147 195 243 290 341
#
# _framework density 24.258693999999998
#
# number of rings (size 3 to 8) (size 9 to 14) (size 15 to 20)
#    0.000    2.000    4.000    1.200    0.000    0.800 
#    0.000    1.000    0.000    0.000    0.000    0.000 
#    0.000    0.000    0.000    0.000    0.000    0.000 
#
# Total GULP energy -223168.774193 kJ/mol
# GULP energy per Si atom -5579.219355 kJ/mol
# Density = 2.420348 g / cm^3
# Si number density = 24.258694 Si / 1000 Ang^3
#
#
#
# Elastic Constant Matrix: (Units=GPa)
#
#
# Indices 1 2 3 4 5 6 
#
# 1 113.9235 26.8019 1.3882 0.0000 0.0000 0.0000
# 2 26.8019 130.9533 2.6842 0.0000 0.0000 0.0000
# 3 1.3882 2.6842 37.6165 0.0000 0.0000 0.0000
# 4 0.0000 0.0000 0.0000 14.6037 0.0000 0.0000
# 5 0.0000 0.0000 0.0000 0.0000 21.5574 0.0000
# 6 0.0000 0.0000 0.0000 0.0000 0.0000 33.6536
#
#
#
# Elastic Compliance Matrix: (Units=1/GPa)
#
#
# Indices 1 2 3 4 5 6 
#
# 1 0.009223 -0.001884 -0.000206 0.000000 0.000000 0.000000
# 2 -0.001884 0.008032 -0.000504 0.000000 0.000000 0.000000
# 3 -0.000206 -0.000504 0.026628 0.000000 0.000000 0.000000
# 4 0.000000 0.000000 0.000000 0.068476 0.000000 0.000000
# 5 0.000000 0.000000 0.000000 0.000000 0.046388 0.000000
# 6 0.000000 0.000000 0.000000 0.000000 0.000000 0.029714
#
#
# Mechanical properties :
#
#
# Convention : Reuss Voigt Hill
#
# Bulk Modulus (GPa) = 25.84187 38.24912 32.04550
# Shear Modulus (GPa) = 24.20761 30.73754 27.47258
#
# Velocity S-wave (km/s) = 3.16237 3.56346 3.36889
# Velocity P-wave (km/s) = 4.89999 5.72122 5.32646
#
# Compressibility (1/GPa) = 0.03869688
#
# Stress axis : x y z
#
# Youngs Moduli (GPa) = 108.41929 124.49999 37.55502
#
# Poissons Ratio (x) = 0.23450 0.00774
# Poissons Ratio (y) = 0.20421 0.01891
# Poissons Ratio (z) = 0.02233 0.06270
#
# Static dielectric constant tensor:
#      x y z
#    x 2.008430 0.000000 0.000000 
#    y 0.000000 1.978700 0.000000 
#    z 0.000000 0.000000 2.001170 
# 
# From -- ./inp_files/13134.got.cif
#   From: 2010.05.17/outbox.cif.g08.bks.cpg/sg62_7_cif.got.tgz:13134.got - 2010.06.03 15:25:27.
