data_PCOD9461485
_publ_section_title
;
Structure prediction by ZEFSAII (Michael W. Deem and Ramdas Pophale) SiO2 
 PCOD9461485
Probable space group: P N M A
;
_chemical_formula_sum "Si O2"
_cell_formula_units_Z 36
_cell_length_a 8.476185
_cell_length_b 10.811112
_cell_length_c 14.239703
_cell_angle_alpha 90.000000
_cell_angle_beta 90.000000
_cell_angle_gamma 90.000000
_cell_volume 1304.883455
_symmetry_space_group_name_H-M "P N M A"
_symmetry_group_IT_number 62
_symmetry_cell_setting 'orthorhombic'
loop_
_space_group_symop_operation_xyz
x,y,z
1/2-x,-y,1/2+z
1/2+x,1/2-y,1/2-z
-x,1/2+y,-z
-x,-y,-z
1/2+x,y,1/2-z
1/2-x,1/2+y,1/2+z
x,1/2-y,z
loop_
_atom_site_type_symbol
_atom_site_label
_atom_site_fract_x
_atom_site_fract_y
_atom_site_fract_z
Si Si1 0.355942 0.890494 0.424235
Si Si2 0.842960 0.075685 0.834000
Si Si3 0.555000 0.250000 0.799964
Si Si4 0.073635 0.882681 0.549070
Si Si5 0.190779 0.388411 0.308631
O O1 0.327755 0.750000 0.380100
O O2 0.543658 0.903901 0.423097
O O3 0.256085 0.888926 0.519124
O O4 0.288668 0.004829 0.363461
O O5 0.676664 0.142401 0.839984
O O6 0.941493 0.143350 0.750225
O O7 0.822790 0.937656 0.796290
O O8 0.024493 0.750000 0.503070
O O9 0.985686 0.881605 0.647939
O O10 0.000000 0.000000 0.500000
O O11 0.257823 0.250000 0.317091
#
# Coordination Sequence:
#
# PCOD9461485 Si02
#       5
#     8   8   4   8   8
#     4  10  17  31  56  78 101 130 175 220 254 292
#     4  11  18  33  52  78 103 131 172 215 258 297
#     4  10  20  32  52  80 102 128 174 224 252 294
#     4   8  16  29  47  74 102 132 164 212 254 300
#     4  10  20  32  48  78 111 139 163 205 265 316
#
# _framework density 27.58867
#
# number of rings (size 3 to 8) (size 9 to 14) (size 15 to 20)
#    0.000    2.222    4.444    0.000    1.556    0.889 
#    0.000    0.000    0.000    1.333    0.000    0.000 
#    0.000    0.000    0.000    0.000    0.000    0.000 
#
# Total GULP energy -200423.786085 kJ/mol
# GULP energy per Si atom -5567.327391 kJ/mol
# Density = 2.752588 g / cm^3
# Si number density = 27.588670 Si / 1000 Ang^3
#
#
#
# Elastic Constant Matrix: (Units=GPa)
#
#
# Indices 1 2 3 4 5 6 
#
# 1 109.7722 44.7725 40.1797 0.0000 0.0000 0.0000
# 2 44.7725 235.4681 67.6096 0.0000 0.0000 0.0000
# 3 40.1797 67.6096 79.5832 0.0000 0.0000 0.0000
# 4 0.0000 0.0000 0.0000 24.9559 0.0000 0.0000
# 5 0.0000 0.0000 0.0000 0.0000 55.0827 0.0000
# 6 0.0000 0.0000 0.0000 0.0000 0.0000 44.6318
#
#
#
# Elastic Compliance Matrix: (Units=1/GPa)
#
#
# Indices 1 2 3 4 5 6 
#
# 1 0.011255 -0.000673 -0.005111 0.000000 0.000000 0.000000
# 2 -0.000673 0.005657 -0.004467 0.000000 0.000000 0.000000
# 3 -0.005111 -0.004467 0.018940 0.000000 0.000000 0.000000
# 4 0.000000 0.000000 0.000000 0.040071 0.000000 0.000000
# 5 0.000000 0.000000 0.000000 0.000000 0.018155 0.000000
# 6 0.000000 0.000000 0.000000 0.000000 0.000000 0.022406
#
#
# Mechanical properties :
#
#
# Convention : Reuss Voigt Hill
#
# Bulk Modulus (GPa) = 65.13634 81.10523 73.12078
# Shear Modulus (GPa) = 35.18634 43.08486 39.13560
#
# Velocity S-wave (km/s) = 3.57514 3.95611 3.77044
# Velocity P-wave (km/s) = 6.37991 7.09433 6.74658
#
# Compressibility (1/GPa) = 0.01535241
#
# Stress axis : x y z
#
# Youngs Moduli (GPa) = 88.85070 176.76601 52.79727
#
# Poissons Ratio (x) = 0.11888 0.26985
# Poissons Ratio (y) = 0.05975 0.23582
# Poissons Ratio (z) = 0.45411 0.78953
#
# Static dielectric constant tensor:
#      x y z
#    x 2.188740 0.000000 0.000000 
#    y 0.000000 2.182130 0.000000 
#    z 0.000000 0.000000 2.438250 
# 
# From -- ./inp_files/25705.got.cif
#   From: 2010.05.17/outbox.cif.g08.bks.cpg/sg62_13_cif.got.tgz:25705.got - 2010.06.03 15:25:27.
