data_PCOD9461537
_publ_section_title
;
Structure prediction by ZEFSAII (Michael W. Deem and Ramdas Pophale) SiO2 
 PCOD9461537
Probable space group: P N M A
;
_chemical_formula_sum "Si O2"
_cell_formula_units_Z 56
_cell_length_a 7.884981
_cell_length_b 10.812566
_cell_length_c 29.608021
_cell_angle_alpha 90.000000
_cell_angle_beta 90.000000
_cell_angle_gamma 90.000000
_cell_volume 2524.287419
_symmetry_space_group_name_H-M "P N M A"
_symmetry_group_IT_number 62
_symmetry_cell_setting 'orthorhombic'
loop_
_space_group_symop_operation_xyz
x,y,z
1/2-x,-y,1/2+z
1/2+x,1/2-y,1/2-z
-x,1/2+y,-z
-x,-y,-z
1/2+x,y,1/2-z
1/2-x,1/2+y,1/2+z
x,1/2-y,z
loop_
_atom_site_type_symbol
_atom_site_label
_atom_site_fract_x
_atom_site_fract_y
_atom_site_fract_z
Si Si1 0.299000 0.750000 0.227723
Si Si2 0.558041 0.940847 0.693384
Si Si3 0.157328 0.750000 0.321068
Si Si4 0.883743 0.532345 0.647854
Si Si5 0.313922 0.469451 0.945601
Si Si6 0.519243 0.893465 0.394478
Si Si7 0.312670 0.890054 0.038954
Si Si8 0.793175 0.479475 0.292071
O O1 0.298620 0.750000 0.282119
O O2 0.489110 0.750000 0.209305
O O3 0.224738 0.877942 0.208679
O O4 0.740953 0.893888 0.675642
O O5 0.515911 0.025116 0.649376
O O6 0.368704 0.891467 0.702974
O O7 0.612266 0.978404 0.743991
O O8 0.152678 0.881275 0.346846
O O9 0.863022 0.562296 0.595332
O O10 0.067372 0.546124 0.669907
O O11 0.138749 0.408538 0.929127
O O12 0.487835 0.391586 0.949107
O O13 0.287706 0.529461 0.994309
O O14 0.531375 0.750000 0.381822
O O15 0.692622 0.931697 0.419850
O O16 0.259541 0.750000 0.029199
#
# Coordination Sequence:
#
# PCOD9461537 Si02
#       8
#     4   8   4   8   8   8   8   8
#     4  10  18  24  34  52  84 130 170 191 217 266
#     4  11  20  28  42  62  95 139 176 201 239 286
#     4  10  18  26  38  58  92 134 164 199 223 284
#     4  10  21  30  43  66  96 132 175 205 245 290
#     4  10  21  36  57  77 104 136 173 223 267 312
#     4  10  22  34  51  77 106 143 180 212 257 314
#     4  10  21  39  58  78 102 134 175 222 276 320
#     4  11  19  28  38  59  95 137 176 205 232 285
#
# _framework density 22.184477999999999
#
# number of rings (size 3 to 8) (size 9 to 14) (size 15 to 20)
#    0.000    1.714    2.857    2.571    7.000    0.000 
#    0.000    0.000    0.000    0.000    0.000    0.000 
#    0.000    4.571    0.000    0.000    0.000    1.429 
#
# Total GULP energy -311966.278672 kJ/mol
# GULP energy per Si atom -5570.826405 kJ/mol
# Density = 2.213398 g / cm^3
# Si number density = 22.184478 Si / 1000 Ang^3
#
#
#
# Elastic Constant Matrix: (Units=GPa)
#
#
# Indices 1 2 3 4 5 6 
#
# 1 120.1283 27.6050 33.9339 0.0000 0.0000 0.0000
# 2 27.6050 43.2935 17.9391 0.0000 0.0000 0.0000
# 3 33.9339 17.9391 90.7842 0.0000 0.0000 0.0000
# 4 0.0000 0.0000 0.0000 -3.9437 0.0000 0.0000
# 5 0.0000 0.0000 0.0000 0.0000 50.6971 0.0000
# 6 0.0000 0.0000 0.0000 0.0000 0.0000 -14.7505
#
#
#
# Elastic Compliance Matrix: (Units=1/GPa)
#
#
# Indices 1 2 3 4 5 6 
#
# 1 0.010367 -0.005451 -0.002798 0.000000 0.000000 0.000000
# 2 -0.005451 0.028024 -0.003500 0.000000 0.000000 0.000000
# 3 -0.002798 -0.003500 0.012753 0.000000 0.000000 0.000000
# 4 0.000000 0.000000 0.000000 -0.253567 0.000000 0.000000
# 5 0.000000 0.000000 0.000000 0.000000 0.019725 0.000000
# 6 0.000000 0.000000 0.000000 0.000000 0.000000 -0.067794
#
#
# Mechanical properties :
#
#
# Convention : Reuss Voigt Hill
#
# Bulk Modulus (GPa) = 36.17193 45.90691 41.03942
# Shear Modulus (GPa) = -22.95918 18.04910 -2.45504
#
# Velocity S-wave (km/s) = -3.22051 2.85545 -1.05311
# Velocity P-wave (km/s) = 1.58479 5.62224 4.13045
#
# Compressibility (1/GPa) = 0.02764575
#
# Stress axis : x y z
#
# Youngs Moduli (GPa) = 96.45540 35.68343 78.41516
#
# Poissons Ratio (x) = 0.19452 0.21941
# Poissons Ratio (y) = 0.52579 0.27446
# Poissons Ratio (z) = 0.26989 0.12489
#
# Static dielectric constant tensor:
#      x y z
#    x 1.872130 0.000000 0.000000 
#    y 0.000000 1.898280 0.000000 
#    z 0.000000 0.000000 1.810330 
# 
# From -- ./inp_files/30880.got.cif
#   From: 2010.05.17/outbox.cif.g08.bks.cpg/sg62_16_cif.got.tgz:30880.got - 2010.06.03 15:25:27.
