data_PCOD9461735
_publ_section_title
;
Structure prediction by ZEFSAII (Michael W. Deem and Ramdas Pophale) SiO2 
 PCOD9461735
Probable space group: P N M A
;
_chemical_formula_sum "Si O2"
_cell_formula_units_Z 56
_cell_length_a 20.073941
_cell_length_b 8.710224
_cell_length_c 16.576168
_cell_angle_alpha 90.000000
_cell_angle_beta 90.000000
_cell_angle_gamma 90.000000
_cell_volume 2898.318486
_symmetry_space_group_name_H-M "P N M A"
_symmetry_group_IT_number 62
_symmetry_cell_setting 'orthorhombic'
loop_
_space_group_symop_operation_xyz
x,y,z
1/2-x,-y,1/2+z
1/2+x,1/2-y,1/2-z
-x,1/2+y,-z
-x,-y,-z
1/2+x,y,1/2-z
1/2-x,1/2+y,1/2+z
x,1/2-y,z
loop_
_atom_site_type_symbol
_atom_site_label
_atom_site_fract_x
_atom_site_fract_y
_atom_site_fract_z
Si Si1 0.737140 0.933572 0.815843
Si Si2 0.325825 0.424363 0.024860
Si Si3 0.881639 0.069350 0.799652
Si Si4 0.957468 0.077303 0.367687
Si Si5 0.908797 0.068492 0.611380
Si Si6 0.007626 0.063876 0.909751
Si Si7 0.385330 0.931619 0.279952
O O1 0.727277 0.750000 0.817856
O O2 0.718245 0.998071 0.905199
O O3 0.813395 0.976474 0.805044
O O4 0.684991 0.995724 0.748862
O O5 0.300521 0.250000 0.012004
O O6 0.397625 0.419856 0.068743
O O7 0.344161 0.490151 0.937609
O O8 0.868518 0.250000 0.816204
O O9 0.902585 0.055707 0.706858
O O10 0.942269 0.019343 0.857318
O O11 0.965051 0.250000 0.335292
O O12 0.934997 0.968287 0.294596
O O13 0.024753 0.022472 0.408570
O O14 0.915909 0.250000 0.592517
O O15 0.009127 0.250000 0.912333
O O16 0.074585 0.015222 0.860236
O O17 0.000000 0.000000 0.000000
O O18 0.375316 0.750000 0.286986
#
# Coordination Sequence:
#
# PCOD9461735 Si02
#       7
#     8   8   8   8   8   8   8
#     4  10  21  38  58  85 117 150 192 241 296 349
#     4   8  17  32  51  77 108 143 181 224 274 333
#     4  10  21  39  59  82 114 153 195 238 288 352
#     4  10  18  29  50  83 116 140 174 222 274 327
#     4  10  18  33  55  77 108 145 184 224 272 338
#     4  10  22  40  62  89 116 150 201 249 298 354
#     4  10  19  37  61  84 111 151 195 233 285 351
#
# _framework density 19.321548
#
# number of rings (size 3 to 8) (size 9 to 14) (size 15 to 20)
#    0.000    2.286    1.429    2.571    0.000    2.286 
#    2.571    3.571    0.000    0.000    0.000    0.000 
#    0.000    0.000    0.000    0.000    0.000    0.000 
#
# Total GULP energy -311949.388749 kJ/mol
# GULP energy per Si atom -5570.524799 kJ/mol
# Density = 1.927757 g / cm^3
# Si number density = 19.321548 Si / 1000 Ang^3
#
#
#
# Elastic Constant Matrix: (Units=GPa)
#
#
# Indices 1 2 3 4 5 6 
#
# 1 78.7543 25.0555 21.5834 0.0000 0.0000 0.0000
# 2 25.0555 27.6672 16.0653 0.0000 0.0000 0.0000
# 3 21.5834 16.0653 100.4290 0.0000 0.0000 0.0000
# 4 0.0000 0.0000 0.0000 23.4771 0.0000 0.0000
# 5 0.0000 0.0000 0.0000 0.0000 8.5417 0.0000
# 6 0.0000 0.0000 0.0000 0.0000 0.0000 22.8964
#
#
#
# Elastic Compliance Matrix: (Units=1/GPa)
#
#
# Indices 1 2 3 4 5 6 
#
# 1 0.018011 -0.015503 -0.001391 0.000000 0.000000 0.000000
# 2 -0.015503 0.053190 -0.005177 0.000000 0.000000 0.000000
# 3 -0.001391 -0.005177 0.011084 0.000000 0.000000 0.000000
# 4 0.000000 0.000000 0.000000 0.042595 0.000000 0.000000
# 5 0.000000 0.000000 0.000000 0.000000 0.117072 0.000000
# 6 0.000000 0.000000 0.000000 0.000000 0.000000 0.043675
#
#
# Mechanical properties :
#
#
# Convention : Reuss Voigt Hill
#
# Bulk Modulus (GPa) = 26.21689 36.91767 31.56728
# Shear Modulus (GPa) = 14.59924 20.59281 17.59603
#
# Velocity S-wave (km/s) = 2.75179 3.26819 3.02105
# Velocity P-wave (km/s) = 4.86771 5.77840 5.34250
#
# Compressibility (1/GPa) = 0.03814335
#
# Stress axis : x y z
#
# Youngs Moduli (GPa) = 55.52077 18.80060 90.21778
#
# Poissons Ratio (x) = 0.29147 0.12547
# Poissons Ratio (y) = 0.86076 0.46703
# Poissons Ratio (z) = 0.07722 0.09733
#
# Static dielectric constant tensor:
#      x y z
#    x 1.688160 0.000000 0.000000 
#    y 0.000000 1.672300 0.000000 
#    z 0.000000 0.000000 1.724450 
# 
# From -- ./inp_files/20221.got.cif
#   From: 2010.05.17/outbox.cif.g08.bks.cpg/sg62_11_cif.got.tgz:20221.got - 2010.06.03 15:25:27.
