data_PCOD9461551
_publ_section_title
;
Structure prediction by ZEFSAII (Michael W. Deem and Ramdas Pophale) SiO2 
 PCOD9461551
Probable space group: P N M A
;
_chemical_formula_sum "Si O2"
_cell_formula_units_Z 52
_cell_length_a 13.581381
_cell_length_b 8.266214
_cell_length_c 19.135316
_cell_angle_alpha 90.000000
_cell_angle_beta 90.000000
_cell_angle_gamma 90.000000
_cell_volume 2148.256901
_symmetry_space_group_name_H-M "P N M A"
_symmetry_group_IT_number 62
_symmetry_cell_setting 'orthorhombic'
loop_
_space_group_symop_operation_xyz
x,y,z
1/2-x,-y,1/2+z
1/2+x,1/2-y,1/2-z
-x,1/2+y,-z
-x,-y,-z
1/2+x,y,1/2-z
1/2-x,1/2+y,1/2+z
x,1/2-y,z
loop_
_atom_site_type_symbol
_atom_site_label
_atom_site_fract_x
_atom_site_fract_y
_atom_site_fract_z
Si Si1 0.659474 0.566867 0.412207
Si Si2 0.115172 0.750000 0.889232
Si Si3 0.019785 0.441308 0.382138
Si Si4 0.728131 0.750000 0.741775
Si Si5 0.605248 0.250000 0.329454
Si Si6 0.642991 0.443782 0.992804
Si Si7 0.432341 0.580444 0.409525
Si Si8 0.400947 0.568326 0.241453
O O1 0.679803 0.750000 0.384117
O O2 0.651076 0.411570 0.362371
O O3 0.748349 0.528104 0.464105
O O4 0.544746 0.576983 0.433302
O O5 0.207721 0.750000 0.839888
O O6 0.011461 0.750000 0.844808
O O7 0.115819 0.586127 0.930730
O O8 0.022209 0.250000 0.369549
O O9 0.114468 0.495429 0.428207
O O10 0.992272 0.531699 0.310227
O O11 0.930659 0.476986 0.436605
O O12 0.844006 0.750000 0.754540
O O13 0.672499 0.585393 0.767480
O O14 0.625727 0.250000 0.991117
O O15 0.387339 0.750000 0.433270
O O16 0.428715 0.575326 0.324006
O O17 0.363145 0.750000 0.224514
#
# Coordination Sequence:
#
# PCOD9461551 Si02
#       8
#     8   4   8   4   4   8   8   8
#     4   9  17  29  41  56  76  98 135 181 206 237
#     4   8  16  28  38  56  80  96 128 170 200 240
#     4  10  18  27  37  53  78 106 136 171 204 234
#     4  10  18  28  42  58  78 104 136 173 201 239
#     4  10  18  26  42  60  74 104 138 163 205 245
#     4   9  18  28  38  52  75 106 137 172 206 233
#     4   8  15  27  42  55  71  97 129 171 210 246
#     4  10  18  28  41  57  76 102 137 176 209 243
#
# _framework density 24.205673000000001
#
# number of rings (size 3 to 8) (size 9 to 14) (size 15 to 20)
#    0.000    2.769    0.769    1.385    1.077    2.462 
#    0.000    0.000    0.000    0.000    0.000    0.000 
#    0.000    0.000    0.000    0.000    0.000  153.846 
#
# Total GULP energy -290131.863682 kJ/mol
# GULP energy per Si atom -5579.458917 kJ/mol
# Density = 2.415058 g / cm^3
# Si number density = 24.205673 Si / 1000 Ang^3
#
#
#
# Elastic Constant Matrix: (Units=GPa)
#
#
# Indices 1 2 3 4 5 6 
#
# 1 81.3028 24.1623 33.8970 0.0000 0.0000 0.0000
# 2 24.1623 162.5374 16.7263 0.0000 0.0000 0.0000
# 3 33.8970 16.7263 79.9272 0.0000 0.0000 0.0000
# 4 0.0000 0.0000 0.0000 22.7552 0.0000 0.0000
# 5 0.0000 0.0000 0.0000 0.0000 37.4526 0.0000
# 6 0.0000 0.0000 0.0000 0.0000 0.0000 -25.1977
#
#
#
# Elastic Compliance Matrix: (Units=1/GPa)
#
#
# Indices 1 2 3 4 5 6 
#
# 1 0.015362 -0.001649 -0.006170 0.000000 0.000000 0.000000
# 2 -0.001649 0.006465 -0.000654 0.000000 0.000000 0.000000
# 3 -0.006170 -0.000654 0.015265 0.000000 0.000000 0.000000
# 4 0.000000 0.000000 0.000000 0.043946 0.000000 0.000000
# 5 0.000000 0.000000 0.000000 0.000000 0.026700 0.000000
# 6 0.000000 0.000000 0.000000 0.000000 0.000000 -0.039686
#
#
# Mechanical properties :
#
#
# Convention : Reuss Voigt Hill
#
# Bulk Modulus (GPa) = 49.63529 52.59316 51.11423
# Shear Modulus (GPa) = 54.51830 23.60083 39.05956
#
# Velocity S-wave (km/s) = 4.75098 3.12591 4.02139
# Velocity P-wave (km/s) = 7.11660 5.89942 6.53640
#
# Compressibility (1/GPa) = 0.02014695
#
# Stress axis : x y z
#
# Youngs Moduli (GPa) = 65.09528 154.68399 65.50997
#
# Poissons Ratio (x) = 0.25503 0.40420
# Poissons Ratio (y) = 0.10733 0.04282
# Poissons Ratio (z) = 0.40164 0.10111
#
# Static dielectric constant tensor:
#      x y z
#    x 1.896060 0.000000 0.000000 
#    y 0.000000 2.045010 0.000000 
#    z 0.000000 0.000000 1.969290 
# 
# From -- ./inp_files/30016.got.cif
#   From: 2010.05.17/outbox.cif.g08.bks.cpg/sg62_16_cif.got.tgz:30016.got - 2010.06.03 15:25:27.
