data_PCOD9461267
_publ_section_title
;
Structure prediction by ZEFSAII (Michael W. Deem and Ramdas Pophale) SiO2 
 PCOD9461267
Probable space group: P B C A
;
_chemical_formula_sum "Si O2"
_cell_formula_units_Z 48
_cell_length_a 18.000000
_cell_length_b 9.000000
_cell_length_c 15.000000
_cell_angle_alpha 90.000000
_cell_angle_beta 90.000000
_cell_angle_gamma 90.000000
_cell_volume 2430.000000
_symmetry_space_group_name_H-M "P B C A"
_symmetry_group_IT_number 61
_symmetry_cell_setting 'orthorhombic'
loop_
_space_group_symop_operation_xyz
x,y,z
1/2-x,-y,1/2+z
1/2+x,1/2-y,-z
-x,1/2+y,1/2-z
-x,-y,-z
1/2+x,y,1/2-z
1/2-x,1/2+y,z
x,1/2-y,1/2+z
loop_
_atom_site_type_symbol
_atom_site_label
_atom_site_fract_x
_atom_site_fract_y
_atom_site_fract_z
Si Si1 0.667279 0.356504 0.673547
Si Si2 0.216659 0.050216 0.730920
Si Si3 0.488625 0.800934 0.324679
Si Si4 0.369839 0.935734 0.032351
Si Si5 0.418177 0.382435 0.805914
Si Si6 0.471235 0.221531 0.981321
O O1 0.701641 0.486936 0.737643
O O2 0.703574 0.205723 0.716390
O O3 0.579578 0.317154 0.683068
O O4 0.671179 0.387174 0.563368
O O5 0.183422 0.060184 0.624828
O O6 0.164471 0.929786 0.780514
O O7 0.553051 0.738207 0.263459
O O8 0.513270 0.807686 0.427159
O O9 0.462022 0.962348 0.294878
O O10 0.445272 0.835367 0.048465
O O11 0.412160 0.091154 0.008030
O O12 0.434325 0.317980 0.903560
#
# Coordination Sequence:
#
# PCOD9461267 Si02
#       6
#     8   8   8   8   8   8
#     4  10  25  41  66  90 138 174 217 271 323 395
#     4  11  24  45  63 100 129 178 221 268 330 403
#     4  10  22  40  63 101 128 174 216 274 329 388
#     4  10  22  43  67  98 131 171 218 272 342 386
#     4  11  22  38  68  97 133 166 226 269 328 391
#     4  10  20  39  69  96 131 167 212 282 327 391
#
# _framework density 19.753086
#
# number of rings (size 3 to 8) (size 9 to 14) (size 15 to 20)
#    0.000    1.667    1.667    2.500    7.000    1.333 
#    0.000    1.667    0.000    0.000    0.000    0.000 
#    0.000    0.000    0.000    0.000    0.000    0.000 
#
# Total GULP energy -267256.800630 kJ/mol
# GULP energy per Si atom -5567.850013 kJ/mol
# Density = 1.970813 g / cm^3
# Si number density = 19.753086 Si / 1000 Ang^3
#
#
#
# Elastic Constant Matrix: (Units=GPa)
#
#
# Indices 1 2 3 4 5 6 
#
# 1 38.6959 20.4189 33.6634 0.0000 0.0000 0.0000
# 2 20.4189 48.3702 25.0422 0.0000 0.0000 0.0000
# 3 33.6634 25.0422 132.1737 0.0000 0.0000 0.0000
# 4 0.0000 0.0000 0.0000 45.5794 0.0000 0.0000
# 5 0.0000 0.0000 0.0000 0.0000 33.0855 0.0000
# 6 0.0000 0.0000 0.0000 0.0000 0.0000 41.3443
#
#
#
# Elastic Compliance Matrix: (Units=1/GPa)
#
#
# Indices 1 2 3 4 5 6 
#
# 1 0.039058 -0.012571 -0.007566 0.000000 0.000000 0.000000
# 2 -0.012571 0.026968 -0.001908 0.000000 0.000000 0.000000
# 3 -0.007566 -0.001908 0.009854 0.000000 0.000000 0.000000
# 4 0.000000 0.000000 0.000000 0.021940 0.000000 0.000000
# 5 0.000000 0.000000 0.000000 0.000000 0.030225 0.000000
# 6 0.000000 0.000000 0.000000 0.000000 0.000000 0.024187
#
#
# Mechanical properties :
#
#
# Convention : Reuss Voigt Hill
#
# Bulk Modulus (GPa) = 31.45530 41.94321 36.69926
# Shear Modulus (GPa) = 24.16417 33.34285 28.75351
#
# Velocity S-wave (km/s) = 3.50138 4.11296 3.81943
# Velocity P-wave (km/s) = 5.68375 6.62081 6.17010
#
# Compressibility (1/GPa) = 0.03179114
#
# Stress axis : x y z
#
# Youngs Moduli (GPa) = 25.60313 37.08067 101.47898
#
# Poissons Ratio (x) = 0.46613 0.76778
# Poissons Ratio (y) = 0.32185 0.19361
# Poissons Ratio (z) = 0.19371 0.07075
#
# Static dielectric constant tensor:
#      x y z
#    x 1.738700 0.000000 0.000000 
#    y 0.000000 1.720480 0.000000 
#    z 0.000000 0.000000 1.709330 
# 
# From -- ./inp_files/8118.got.cif
#   From: 2010.05.17/outbox.ucp.g08.bks.cvg/sg61_5_cif.got.tgz:8118.got - 2010.06.11 16:28:26.
