data_PCOD9461140
_publ_section_title
;
Structure prediction by ZEFSAII (Michael W. Deem and Ramdas Pophale) SiO2 
 PCOD9461140
Probable space group: P B C A
;
_chemical_formula_sum "Si O2"
_cell_formula_units_Z 40
_cell_length_a 27.838649
_cell_length_b 11.334796
_cell_length_c 4.844044
_cell_angle_alpha 90.000000
_cell_angle_beta 90.000000
_cell_angle_gamma 90.000000
_cell_volume 1528.515837
_symmetry_space_group_name_H-M "P B C A"
_symmetry_group_IT_number 61
_symmetry_cell_setting 'orthorhombic'
loop_
_space_group_symop_operation_xyz
x,y,z
1/2-x,-y,1/2+z
1/2+x,1/2-y,-z
-x,1/2+y,1/2-z
-x,-y,-z
1/2+x,y,1/2-z
1/2-x,1/2+y,z
x,1/2-y,1/2+z
loop_
_atom_site_type_symbol
_atom_site_label
_atom_site_fract_x
_atom_site_fract_y
_atom_site_fract_z
Si Si1 0.251522 0.076825 0.645313
Si Si2 0.350602 0.824446 0.313679
Si Si3 0.857451 0.325818 0.346065
Si Si4 0.502583 0.668389 0.253388
Si Si5 0.079795 0.006795 0.488660
O O1 0.204409 0.141548 0.753810
O O2 0.301486 0.142578 0.687362
O O3 0.245961 0.042607 0.326450
O O4 0.358999 0.792141 0.629133
O O5 0.384861 0.924727 0.195294
O O6 0.866835 0.289157 0.658525
O O7 0.889400 0.429667 0.225142
O O8 0.505248 0.786903 0.440483
O O9 0.544459 0.579870 0.342982
O O10 0.453984 0.600403 0.330706
#
# Coordination Sequence:
#
# PCOD9461140 Si02
#       5
#     8   8   8   8   8
#     4  12  24  46  70 100 146 196 236 292 350 412
#     4  12  26  44  70 104 142 188 237 288 350 415
#     4  12  26  44  70 104 142 188 237 288 350 415
#     4  11  26  49  74 106 140 183 233 294 366 426
#     4  11  26  46  76 104 144 184 236 301 348 430
#
# _framework density 26.169174999999999
#
# number of rings (size 3 to 8) (size 9 to 14) (size 15 to 20)
#    0.000    0.400    2.000    6.000    0.000    6.400 
#    0.000    0.000    0.000    0.000    0.000    0.000 
#    0.000    0.000    0.000    0.000    0.000    0.000 
#
# Total GULP energy -225024.536413 kJ/mol
# GULP energy per Si atom -5625.613410 kJ/mol
# Density = 2.610961 g / cm^3
# Si number density = 26.169175 Si / 1000 Ang^3
#
#
#
# Elastic Constant Matrix: (Units=GPa)
#
#
# Indices 1 2 3 4 5 6 
#
# 1 152.0911 50.7805 35.1559 0.0000 0.0000 0.0000
# 2 50.7805 91.1127 11.3904 0.0000 0.0000 0.0000
# 3 35.1559 11.3904 85.7677 0.0000 0.0000 0.0000
# 4 0.0000 0.0000 0.0000 32.5513 0.0000 0.0000
# 5 0.0000 0.0000 0.0000 0.0000 33.2167 0.0000
# 6 0.0000 0.0000 0.0000 0.0000 0.0000 73.8531
#
#
#
# Elastic Compliance Matrix: (Units=1/GPa)
#
#
# Indices 1 2 3 4 5 6 
#
# 1 0.008776 -0.004516 -0.002997 0.000000 0.000000 0.000000
# 2 -0.004516 0.013485 0.000060 0.000000 0.000000 0.000000
# 3 -0.002997 0.000060 0.012880 0.000000 0.000000 0.000000
# 4 0.000000 0.000000 0.000000 0.030721 0.000000 0.000000
# 5 0.000000 0.000000 0.000000 0.000000 0.030105 0.000000
# 6 0.000000 0.000000 0.000000 0.000000 0.000000 0.013540
#
#
# Mechanical properties :
#
#
# Convention : Reuss Voigt Hill
#
# Bulk Modulus (GPa) = 49.42164 58.18059 53.80111
# Shear Modulus (GPa) = 38.12177 43.36720 40.74448
#
# Velocity S-wave (km/s) = 3.82087 4.07527 3.95012
# Velocity P-wave (km/s) = 6.19612 6.66517 6.43492
#
# Compressibility (1/GPa) = 0.02023405
#
# Stress axis : x y z
#
# Youngs Moduli (GPa) = 113.94995 74.15643 77.63977
#
# Poissons Ratio (x) = 0.33492 0.23272
# Poissons Ratio (y) = 0.51464 -0.00469
# Poissons Ratio (z) = 0.34155 -0.00448
#
# Static dielectric constant tensor:
#      x y z
#    x 2.003620 0.000000 0.000000 
#    y 0.000000 2.039450 0.000000 
#    z 0.000000 0.000000 1.944520 
# 
# From -- ./inp_files/1291.got.cif
#   From: 2010.05.17/outbox.cif.g08.bks.cpg/sg61_1_cif.got.tgz:1291.got - 2010.06.03 15:17:17.
