data_PCOD9461738
_publ_section_title
;
Structure prediction by ZEFSAII (Michael W. Deem and Ramdas Pophale) SiO2 
 PCOD9461738
Probable space group: P N M A
;
_chemical_formula_sum "Si O2"
_cell_formula_units_Z 64
_cell_length_a 11.796878
_cell_length_b 9.130829
_cell_length_c 29.223528
_cell_angle_alpha 90.000000
_cell_angle_beta 90.000000
_cell_angle_gamma 90.000000
_cell_volume 3147.820377
_symmetry_space_group_name_H-M "P N M A"
_symmetry_group_IT_number 62
_symmetry_cell_setting 'orthorhombic'
loop_
_space_group_symop_operation_xyz
x,y,z
1/2-x,-y,1/2+z
1/2+x,1/2-y,1/2-z
-x,1/2+y,-z
-x,-y,-z
1/2+x,y,1/2-z
1/2-x,1/2+y,1/2+z
x,1/2-y,z
loop_
_atom_site_type_symbol
_atom_site_label
_atom_site_fract_x
_atom_site_fract_y
_atom_site_fract_z
Si Si1 0.064068 0.076612 0.823620
Si Si2 0.799783 0.576922 0.669491
Si Si3 0.495372 0.576585 0.222278
Si Si4 0.329825 0.576472 0.938995
Si Si5 0.599200 0.422982 0.392296
Si Si6 0.661318 0.922839 0.842107
Si Si7 0.203019 0.919251 0.023475
Si Si8 0.553828 0.419480 0.926812
O O1 0.077209 0.250000 0.830142
O O2 0.995610 0.052275 0.776498
O O3 0.001050 0.005554 0.866607
O O4 0.184401 0.000889 0.816380
O O5 0.797474 0.750000 0.678940
O O6 0.904378 0.503924 0.695570
O O7 0.808689 0.556965 0.614696
O O8 0.498382 0.750000 0.213549
O O9 0.377931 0.511081 0.202358
O O10 0.351144 0.750000 0.947358
O O11 0.441663 0.483122 0.949977
O O12 0.223195 0.535070 0.970970
O O13 0.577566 0.250000 0.394395
O O14 0.712064 0.447546 0.361065
O O15 0.627580 0.484607 0.442653
O O16 0.644872 0.750000 0.835238
O O17 0.580626 0.981482 0.882720
O O18 0.165159 0.750000 0.025510
O O19 0.331800 0.925271 0.043387
O O20 0.535902 0.250000 0.913695
#
# Coordination Sequence:
#
# PCOD9461738 Si02
#       8
#     8   8   8   8   8   8   8   8
#     4  11  26  45  65  88 120 161 205 255 307 365
#     4  11  24  42  65  92 125 161 203 254 306 363
#     4  11  24  41  63  91 121 156 200 248 305 369
#     4  10  20  35  56  85 122 162 203 253 308 365
#     4  10  22  40  62  90 122 158 206 256 304 362
#     4  10  20  35  57  87 121 157 194 242 300 358
#     4   9  19  35  56  85 122 163 205 249 307 366
#     4  10  18  29  51  83 120 161 199 244 297 359
#
# _framework density 20.331527999999999
#
# number of rings (size 3 to 8) (size 9 to 14) (size 15 to 20)
#    0.000    1.750    1.250    2.625    1.750    5.000 
#    0.000    0.625    0.000    0.000    0.000    0.000 
#    0.000    0.000    0.000    0.000    0.000    0.000 
#
# Total GULP energy -357622.589972 kJ/mol
# GULP energy per Si atom -5587.852968 kJ/mol
# Density = 2.028525 g / cm^3
# Si number density = 20.331528 Si / 1000 Ang^3
#
#
#
# Elastic Constant Matrix: (Units=GPa)
#
#
# Indices 1 2 3 4 5 6 
#
# 1 36.0862 30.0965 7.1159 0.0000 0.0000 0.0000
# 2 30.0965 71.3257 30.6110 0.0000 0.0000 0.0000
# 3 7.1159 30.6110 47.2759 0.0000 0.0000 0.0000
# 4 0.0000 0.0000 0.0000 25.7571 0.0000 0.0000
# 5 0.0000 0.0000 0.0000 0.0000 13.5056 0.0000
# 6 0.0000 0.0000 0.0000 0.0000 0.0000 26.7737
#
#
#
# Elastic Compliance Matrix: (Units=1/GPa)
#
#
# Indices 1 2 3 4 5 6 
#
# 1 0.044641 -0.022092 0.007585 0.000000 0.000000 0.000000
# 2 -0.022092 0.030348 -0.016325 0.000000 0.000000 0.000000
# 3 0.007585 -0.016325 0.030581 0.000000 0.000000 0.000000
# 4 0.000000 0.000000 0.000000 0.038824 0.000000 0.000000
# 5 0.000000 0.000000 0.000000 0.000000 0.074044 0.000000
# 6 0.000000 0.000000 0.000000 0.000000 0.000000 0.037350
#
#
# Mechanical properties :
#
#
# Convention : Reuss Voigt Hill
#
# Bulk Modulus (GPa) = 22.77569 32.25940 27.51755
# Shear Modulus (GPa) = 15.05626 18.99823 17.02724
#
# Velocity S-wave (km/s) = 2.72423 3.06015 2.89706
# Velocity P-wave (km/s) = 4.59584 5.32796 4.97538
#
# Compressibility (1/GPa) = 0.04390646
#
# Stress axis : x y z
#
# Youngs Moduli (GPa) = 22.40108 32.95066 32.69974
#
# Poissons Ratio (x) = 0.72794 -0.24803
# Poissons Ratio (y) = 0.49488 0.53383
# Poissons Ratio (z) = -0.16992 0.53793
#
# Static dielectric constant tensor:
#      x y z
#    x 1.719400 0.000000 0.000000 
#    y 0.000000 1.672780 0.000000 
#    z 0.000000 0.000000 1.760570 
# 
# From -- ./inp_files/32470.got.cif
#   From: 2010.05.17/outbox.cif.g08.bks.cpg/sg62_17_cif.got.tgz:32470.got - 2010.06.03 15:25:27.
