data_PCOD9461406
_publ_section_title
;
Structure prediction by ZEFSAII (Michael W. Deem and Ramdas Pophale) SiO2 
 PCOD9461406
Probable space group: P N M A
;
_chemical_formula_sum "Si O2"
_cell_formula_units_Z 56
_cell_length_a 17.174178
_cell_length_b 7.469753
_cell_length_c 20.234412
_cell_angle_alpha 90.000000
_cell_angle_beta 90.000000
_cell_angle_gamma 90.000000
_cell_volume 2595.809334
_symmetry_space_group_name_H-M "P N M A"
_symmetry_group_IT_number 62
_symmetry_cell_setting 'orthorhombic'
loop_
_space_group_symop_operation_xyz
x,y,z
1/2-x,-y,1/2+z
1/2+x,1/2-y,1/2-z
-x,1/2+y,-z
-x,-y,-z
1/2+x,y,1/2-z
1/2-x,1/2+y,1/2+z
x,1/2-y,z
loop_
_atom_site_type_symbol
_atom_site_label
_atom_site_fract_x
_atom_site_fract_y
_atom_site_fract_z
Si Si1 0.592283 0.539135 0.503099
Si Si2 0.123015 0.967108 0.477075
Si Si3 0.974114 0.031473 0.647750
Si Si4 0.307659 0.030138 0.621600
Si Si5 0.634350 0.049000 0.877556
Si Si6 0.225250 0.036898 0.896113
Si Si7 0.176487 0.531937 0.272397
O O1 0.500000 0.500000 0.500000
O O2 0.598204 0.750000 0.498084
O O3 0.638004 0.465039 0.438392
O O4 0.641354 0.495183 0.569939
O O5 0.122939 0.750000 0.483349
O O6 0.059097 0.020051 0.423530
O O7 0.207297 0.023220 0.447449
O O8 0.107315 0.054191 0.546810
O O9 0.977668 0.250000 0.649039
O O10 0.905759 0.977394 0.696502
O O11 0.061432 0.965920 0.660418
O O12 0.308902 0.250000 0.618569
O O13 0.218810 0.965714 0.615386
O O14 0.326038 0.976230 0.696469
O O15 0.646321 0.250000 0.850539
O O16 0.232561 0.250000 0.892342
O O17 0.254092 0.972597 0.823027
O O18 0.179793 0.750000 0.272055
#
# Coordination Sequence:
#
# PCOD9461406 Si02
#       7
#     8   8   8   8   8   8   8
#     4  11  22  37  56  80 108 139 182 230 275 320
#     4   9  16  27  45  70  99 131 158 189 242 305
#     4   8  15  26  43  68  99 130 161 201 248 299
#     4   9  18  32  50  75 105 134 171 222 267 306
#     4  10  17  27  45  73 100 124 161 205 252 296
#     4   9  17  32  55  78 102 135 174 214 265 321
#     4   8  15  31  51  75 106 135 171 219 267 316
#
# _framework density 21.573232000000001
#
# number of rings (size 3 to 8) (size 9 to 14) (size 15 to 20)
#    0.000    2.857    1.429    2.571    0.000    0.000 
#    2.571    0.000    0.000    2.571    0.000    0.000 
#    0.000    0.000    0.000    0.000    0.000    0.000 
#
# Total GULP energy -311937.597332 kJ/mol
# GULP energy per Si atom -5570.314238 kJ/mol
# Density = 2.152413 g / cm^3
# Si number density = 21.573232 Si / 1000 Ang^3
#
#
#
# Elastic Constant Matrix: (Units=GPa)
#
#
# Indices 1 2 3 4 5 6 
#
# 1 170.4027 -1.6776 60.4655 0.0000 0.0000 0.0000
# 2 -1.6776 64.1520 0.8976 0.0000 0.0000 0.0000
# 3 60.4655 0.8976 105.8429 0.0000 0.0000 0.0000
# 4 0.0000 0.0000 0.0000 9.8552 0.0000 0.0000
# 5 0.0000 0.0000 0.0000 0.0000 2.1330 0.0000
# 6 0.0000 0.0000 0.0000 0.0000 0.0000 0.1475
#
#
#
# Elastic Compliance Matrix: (Units=1/GPa)
#
#
# Indices 1 2 3 4 5 6 
#
# 1 0.007365 0.000251 -0.004209 0.000000 0.000000 0.000000
# 2 0.000251 0.015598 -0.000276 0.000000 0.000000 0.000000
# 3 -0.004209 -0.000276 0.011855 0.000000 0.000000 0.000000
# 4 0.000000 0.000000 0.000000 0.101469 0.000000 0.000000
# 5 0.000000 0.000000 0.000000 0.000000 0.468826 0.000000
# 6 0.000000 0.000000 0.000000 0.000000 0.000000 6.781827
#
#
# Mechanical properties :
#
#
# Convention : Reuss Voigt Hill
#
# Bulk Modulus (GPa) = 37.95011 51.08539 44.51775
# Shear Modulus (GPa) = 0.67529 21.14126 10.90828
#
# Velocity S-wave (km/s) = 0.56009 3.13385 2.25108
# Velocity P-wave (km/s) = 4.24826 6.06845 5.23803
#
# Compressibility (1/GPa) = 0.02635039
#
# Stress axis : x y z
#
# Youngs Moduli (GPa) = 135.78541 64.10905 84.35268
#
# Poissons Ratio (x) = -0.01612 0.35507
# Poissons Ratio (y) = -0.03415 0.02328
# Poissons Ratio (z) = 0.57157 0.01769
#
# Static dielectric constant tensor:
#      x y z
#    x 2.113790 0.000000 0.000000 
#    y 0.000000 1.852010 0.000000 
#    z 0.000000 0.000000 1.793140 
# 
# From -- ./inp_files/27505.got.cif
#   From: 2010.05.17/outbox.cif.g08.bks.cpg/sg62_14_cif.got.tgz:27505.got - 2010.06.03 15:25:27.
