data_PCOD9461945
_publ_section_title
;
Structure prediction by ZEFSAII (Michael W. Deem and Ramdas Pophale) SiO2 
 PCOD9461945
Probable space group: P N M A
;
_chemical_formula_sum "Si O2"
_cell_formula_units_Z 52
_cell_length_a 9.449249
_cell_length_b 18.516033
_cell_length_c 13.265451
_cell_angle_alpha 90.000000
_cell_angle_beta 90.000000
_cell_angle_gamma 90.000000
_cell_volume 2320.957881
_symmetry_space_group_name_H-M "P N M A"
_symmetry_group_IT_number 62
_symmetry_cell_setting 'orthorhombic'
loop_
_space_group_symop_operation_xyz
x,y,z
1/2-x,-y,1/2+z
1/2+x,1/2-y,1/2-z
-x,1/2+y,-z
-x,-y,-z
1/2+x,y,1/2-z
1/2-x,1/2+y,1/2+z
x,1/2-y,z
loop_
_atom_site_type_symbol
_atom_site_label
_atom_site_fract_x
_atom_site_fract_y
_atom_site_fract_z
Si Si1 0.371865 0.633720 0.063759
Si Si2 0.288141 0.468448 0.824147
Si Si3 0.079464 0.517062 0.653087
Si Si4 0.530155 0.830408 0.249220
Si Si5 0.219052 0.108527 0.024938
Si Si6 0.394324 0.250000 0.988017
Si Si7 0.055526 0.832808 0.014016
O O1 0.414942 0.550375 0.074226
O O2 0.390549 0.662209 0.179876
O O3 0.216116 0.640396 0.020668
O O4 0.482007 0.685883 0.009417
O O5 0.159812 0.489971 0.752937
O O6 0.413452 0.527960 0.827500
O O7 0.369643 0.396581 0.782357
O O8 0.233296 0.447582 0.933584
O O9 0.177106 0.580260 0.611224
O O10 0.588269 0.750000 0.219906
O O11 0.506526 0.833474 0.367934
O O12 0.273545 0.186326 0.989960
O O13 0.053399 0.118866 0.048517
O O14 0.056228 0.750000 0.979337
#
# Coordination Sequence:
#
# PCOD9461945 Si02
#       7
#     8   8   8   8   8   4   8
#     4  11  20  37  56  90 124 170 204 261 318 401
#     4  11  22  41  60  94 128 179 209 261 318 391
#     4  11  25  42  65  94 138 170 224 263 325 400
#     4  10  18  31  55  84 129 162 203 243 316 397
#     4  12  24  42  64  98 133 175 215 273 328 393
#     4  12  22  38  66  92 128 170 218 266 332 390
#     4  11  22  33  56  90 128 165 209 262 321 380
#
# _framework density 22.404543
#
# number of rings (size 3 to 8) (size 9 to 14) (size 15 to 20)
#    0.000    0.923    6.923    2.308    0.000    0.615 
#    0.000    0.000    0.000    0.923    0.000    0.000 
#    0.000    0.000    0.000    0.000    0.000    0.000 
#
# Total GULP energy -289704.418965 kJ/mol
# GULP energy per Si atom -5571.238826 kJ/mol
# Density = 2.235355 g / cm^3
# Si number density = 22.404543 Si / 1000 Ang^3
#
#
#
# Elastic Constant Matrix: (Units=GPa)
#
#
# Indices 1 2 3 4 5 6 
#
# 1 106.3888 -0.3949 -8.3620 0.0000 0.0000 0.0000
# 2 -0.3949 27.4549 9.1589 0.0000 0.0000 0.0000
# 3 -8.3620 9.1589 20.1357 0.0000 0.0000 0.0000
# 4 0.0000 0.0000 0.0000 24.8317 0.0000 0.0000
# 5 0.0000 0.0000 0.0000 0.0000 18.8375 0.0000
# 6 0.0000 0.0000 0.0000 0.0000 0.0000 31.1485
#
#
#
# Elastic Compliance Matrix: (Units=1/GPa)
#
#
# Indices 1 2 3 4 5 6 
#
# 1 0.009764 -0.001429 0.004705 0.000000 0.000000 0.000000
# 2 -0.001429 0.043148 -0.020220 0.000000 0.000000 0.000000
# 3 0.004705 -0.020220 0.060814 0.000000 0.000000 0.000000
# 4 0.000000 0.000000 0.000000 0.040271 0.000000 0.000000
# 5 0.000000 0.000000 0.000000 0.000000 0.053086 0.000000
# 6 0.000000 0.000000 0.000000 0.000000 0.000000 0.032104
#
#
# Mechanical properties :
#
#
# Convention : Reuss Voigt Hill
#
# Bulk Modulus (GPa) = 12.52534 17.19814 14.86174
# Shear Modulus (GPa) = 16.68405 25.20203 20.94304
#
# Velocity S-wave (km/s) = 2.73183 3.35754 3.06071
# Velocity P-wave (km/s) = 3.94375 4.76693 4.37474
#
# Compressibility (1/GPa) = 0.07983814
#
# Stress axis : x y z
#
# Youngs Moduli (GPa) = 102.41732 23.17607 16.44360
#
# Poissons Ratio (x) = 0.03312 -0.07736
# Poissons Ratio (y) = 0.14636 0.33248
# Poissons Ratio (z) = -0.48186 0.46861
#
# Static dielectric constant tensor:
#      x y z
#    x 1.867820 0.000000 0.000000 
#    y 0.000000 1.857770 0.000000 
#    z 0.000000 0.000000 1.943840 
# 
# From -- ./inp_files/17167.got.cif
#   From: 2010.05.17/outbox.cif.g08.bks.cpg/sg62_9_cif.got.tgz:17167.got - 2010.06.03 15:25:27.
