data_PCOD9461206
_publ_section_title
;
Structure prediction by ZEFSAII (Michael W. Deem and Ramdas Pophale) SiO2 
 PCOD9461206
Probable space group: P B C A
;
_chemical_formula_sum "Si O2"
_cell_formula_units_Z 48
_cell_length_a 10.284797
_cell_length_b 13.385994
_cell_length_c 14.221430
_cell_angle_alpha 90.000000
_cell_angle_beta 90.000000
_cell_angle_gamma 90.000000
_cell_volume 1957.895995
_symmetry_space_group_name_H-M "P B C A"
_symmetry_group_IT_number 61
_symmetry_cell_setting 'orthorhombic'
loop_
_space_group_symop_operation_xyz
x,y,z
1/2-x,-y,1/2+z
1/2+x,1/2-y,-z
-x,1/2+y,1/2-z
-x,-y,-z
1/2+x,y,1/2-z
1/2-x,1/2+y,z
x,1/2-y,1/2+z
loop_
_atom_site_type_symbol
_atom_site_label
_atom_site_fract_x
_atom_site_fract_y
_atom_site_fract_z
Si Si1 0.254618 0.514541 0.358257
Si Si2 0.236992 0.890593 0.180381
Si Si3 0.620017 0.787419 0.704153
Si Si4 0.988326 0.108151 0.369522
Si Si5 0.063159 0.276847 0.052489
Si Si6 0.805089 0.560858 0.438310
O O1 0.208590 0.445462 0.272861
O O2 0.216635 0.627545 0.331758
O O3 0.411021 0.516618 0.369597
O O4 0.196833 0.481266 0.456691
O O5 0.174424 0.791019 0.221466
O O6 0.339217 0.853460 0.103050
O O7 0.144887 0.972380 0.129973
O O8 0.512038 0.845388 0.765380
O O9 0.566706 0.729082 0.614515
O O10 0.035702 0.186750 0.447843
O O11 0.841691 0.079739 0.399431
O O12 0.121451 0.165584 0.059751
#
# Coordination Sequence:
#
# PCOD9461206 Si02
#       6
#     8   8   8   8   8   8
#     4  12  28  47  78 109 150 198 253 312 376 450
#     4  12  25  49  76 110 152 190 251 308 375 454
#     4  12  28  48  76 113 151 198 252 311 382 453
#     4  12  26  52  76 108 157 196 252 314 381 451
#     4  12  29  48  77 111 151 203 250 315 382 446
#     4  12  27  50  76 116 147 197 259 308 377 456
#
# _framework density 24.516114000000002
#
# number of rings (size 3 to 8) (size 9 to 14) (size 15 to 20)
#    0.000    0.000    5.000    3.500   11.667    2.000 
#    0.000    0.000    0.000    0.000    0.000    0.000 
#    0.000    0.000    0.000    0.000    0.000    0.000 
#
# Total GULP energy -269116.025357 kJ/mol
# GULP energy per Si atom -5606.583862 kJ/mol
# Density = 2.446031 g / cm^3
# Si number density = 24.516114 Si / 1000 Ang^3
#
#
#
# Elastic Constant Matrix: (Units=GPa)
#
#
# Indices 1 2 3 4 5 6 
#
# 1 41.2340 13.0343 4.2732 0.0000 0.0000 0.0000
# 2 13.0343 131.6550 30.9378 0.0000 0.0000 0.0000
# 3 4.2732 30.9378 145.6157 0.0000 0.0000 0.0000
# 4 0.0000 0.0000 0.0000 39.9203 0.0000 0.0000
# 5 0.0000 0.0000 0.0000 0.0000 38.0262 0.0000
# 6 0.0000 0.0000 0.0000 0.0000 0.0000 20.5132
#
#
#
# Elastic Compliance Matrix: (Units=1/GPa)
#
#
# Indices 1 2 3 4 5 6 
#
# 1 0.025042 -0.002428 -0.000219 0.000000 0.000000 0.000000
# 2 -0.002428 0.008230 -0.001677 0.000000 0.000000 0.000000
# 3 -0.000219 -0.001677 0.007230 0.000000 0.000000 0.000000
# 4 0.000000 0.000000 0.000000 0.025050 0.000000 0.000000
# 5 0.000000 0.000000 0.000000 0.000000 0.026298 0.000000
# 6 0.000000 0.000000 0.000000 0.000000 0.000000 0.048749
#
#
# Mechanical properties :
#
#
# Convention : Reuss Voigt Hill
#
# Bulk Modulus (GPa) = 31.39329 46.11059 38.75194
# Shear Modulus (GPa) = 31.27632 37.70924 34.49278
#
# Velocity S-wave (km/s) = 3.57563 3.92617 3.75499
# Velocity P-wave (km/s) = 5.46624 6.27712 5.88566
#
# Compressibility (1/GPa) = 0.03185394
#
# Stress axis : x y z
#
# Youngs Moduli (GPa) = 39.93294 121.50478 138.30895
#
# Poissons Ratio (x) = 0.29499 0.03030
# Poissons Ratio (y) = 0.09695 0.23199
# Poissons Ratio (z) = 0.00875 0.20381
#
# Static dielectric constant tensor:
#      x y z
#    x 1.995390 0.000000 0.000000 
#    y 0.000000 1.957730 0.000000 
#    z 0.000000 0.000000 1.871880 
# 
# From -- ./inp_files/7480.got.cif
#   From: 2010.05.17/outbox.cif.g08.bks.cpg/sg61_4_cif.got.tgz:7480.got - 2010.06.03 15:17:17.
