data_PCOD9461864
_publ_section_title
;
Structure prediction by ZEFSAII (Michael W. Deem and Ramdas Pophale) SiO2 
 PCOD9461864
Probable space group: P N M A
;
_chemical_formula_sum "Si O2"
_cell_formula_units_Z 56
_cell_length_a 19.921175
_cell_length_b 8.318949
_cell_length_c 19.878298
_cell_angle_alpha 90.000000
_cell_angle_beta 90.000000
_cell_angle_gamma 90.000000
_cell_volume 3294.295927
_symmetry_space_group_name_H-M "P N M A"
_symmetry_group_IT_number 62
_symmetry_cell_setting 'orthorhombic'
loop_
_space_group_symop_operation_xyz
x,y,z
1/2-x,-y,1/2+z
1/2+x,1/2-y,1/2-z
-x,1/2+y,-z
-x,-y,-z
1/2+x,y,1/2-z
1/2-x,1/2+y,1/2+z
x,1/2-y,z
loop_
_atom_site_type_symbol
_atom_site_label
_atom_site_fract_x
_atom_site_fract_y
_atom_site_fract_z
Si Si1 0.733829 0.943877 0.848258
Si Si2 0.842383 0.556217 0.737146
Si Si3 0.552986 0.555408 0.444290
Si Si4 0.626129 0.943803 0.742415
Si Si5 0.796538 0.056346 0.981845
Si Si6 0.479559 0.058592 0.706867
Si Si7 0.734327 0.946228 0.631585
O O1 0.733948 0.750000 0.849726
O O2 0.796153 0.995057 0.800555
O O3 0.666527 0.996205 0.809198
O O4 0.746615 0.006753 0.922518
O O5 0.843546 0.750000 0.737147
O O6 0.916989 0.494926 0.747862
O O7 0.801964 0.503816 0.670530
O O8 0.500000 0.500000 0.500000
O O9 0.553490 0.750000 0.443604
O O10 0.628173 0.500097 0.463185
O O11 0.532716 0.497584 0.369636
O O12 0.626016 0.750000 0.742407
O O13 0.671680 0.995186 0.678627
O O14 0.550769 0.001755 0.734632
O O15 0.798803 0.250000 0.984294
O O16 0.774719 0.997565 0.055494
O O17 0.479897 0.250000 0.703675
O O18 0.734377 0.750000 0.630932
#
# Coordination Sequence:
#
# PCOD9461864 Si02
#       7
#     8   8   8   8   8   8   8
#     4   9  18  32  51  74  96 125 170 209 240 291
#     4   9  17  32  52  71  93 129 171 205 238 289
#     4  10  21  32  45  70 104 138 165 192 237 297
#     4   9  18  34  53  71  96 132 170 205 240 289
#     4  10  18  31  50  72 101 132 159 200 253 295
#     4  11  21  32  47  74 104 129 162 204 249 295
#     4   8  16  31  52  74  95 126 171 206 237 291
#
# _framework density 16.999078999999998
#
# number of rings (size 3 to 8) (size 9 to 14) (size 15 to 20)
#    0.000    2.571    1.429    3.000    0.000    3.429 
#    0.000    3.571    0.000    0.857    0.000    0.000 
#    0.000    0.000    0.000    0.000    0.000    0.000 
#
# Total GULP energy -312287.181578 kJ/mol
# GULP energy per Si atom -5576.556814 kJ/mol
# Density = 1.696039 g / cm^3
# Si number density = 16.999079 Si / 1000 Ang^3
#
#
#
# Elastic Constant Matrix: (Units=GPa)
#
#
# Indices 1 2 3 4 5 6 
#
# 1 165.5357 18.5679 97.9553 0.0000 0.0000 0.0000
# 2 18.5679 5.8337 13.8638 0.0000 0.0000 0.0000
# 3 97.9553 13.8638 115.9510 0.0000 0.0000 0.0000
# 4 0.0000 0.0000 0.0000 21.4187 0.0000 0.0000
# 5 0.0000 0.0000 0.0000 0.0000 22.5802 0.0000
# 6 0.0000 0.0000 0.0000 0.0000 0.0000 10.7976
#
#
#
# Elastic Compliance Matrix: (Units=1/GPa)
#
#
# Indices 1 2 3 4 5 6 
#
# 1 0.013981 -0.022951 -0.009067 0.000000 0.000000 0.000000
# 2 -0.022951 0.277138 -0.013747 0.000000 0.000000 0.000000
# 3 -0.009067 -0.013747 0.017927 0.000000 0.000000 0.000000
# 4 0.000000 0.000000 0.000000 0.046688 0.000000 0.000000
# 5 0.000000 0.000000 0.000000 0.000000 0.044287 0.000000
# 6 0.000000 0.000000 0.000000 0.000000 0.000000 0.092613
#
#
# Mechanical properties :
#
#
# Convention : Reuss Voigt Hill
#
# Bulk Modulus (GPa) = 4.59737 60.89939 32.74838
# Shear Modulus (GPa) = 7.61418 21.42151 14.51785
#
# Velocity S-wave (km/s) = 2.11870 3.55372 2.92556
# Velocity P-wave (km/s) = 2.94882 7.26233 5.54243
#
# Compressibility (1/GPa) = 0.21751589
#
# Stress axis : x y z
#
# Youngs Moduli (GPa) = 71.52813 3.60831 55.78059
#
# Poissons Ratio (x) = 0.08282 0.50573
# Poissons Ratio (y) = 1.64168 0.76681
# Poissons Ratio (z) = 0.64851 0.04960
#
# Static dielectric constant tensor:
#      x y z
#    x 1.559070 0.000000 0.000000 
#    y 0.000000 1.594500 0.000000 
#    z 0.000000 0.000000 1.575260 
# 
# From -- ./inp_files/27509.got.cif
#   From: 2010.05.17/outbox.cif.g08.bks.cpg/sg62_14_cif.got.tgz:27509.got - 2010.06.03 15:25:27.
