data_PCOD9461648
_publ_section_title
;
Structure prediction by ZEFSAII (Michael W. Deem and Ramdas Pophale) SiO2 
 PCOD9461648
Probable space group: P N M A
;
_chemical_formula_sum "Si O2"
_cell_formula_units_Z 64
_cell_length_a 20.900009
_cell_length_b 9.144178
_cell_length_c 19.181602
_cell_angle_alpha 90.000000
_cell_angle_beta 90.000000
_cell_angle_gamma 90.000000
_cell_volume 3665.861224
_symmetry_space_group_name_H-M "P N M A"
_symmetry_group_IT_number 62
_symmetry_cell_setting 'orthorhombic'
loop_
_space_group_symop_operation_xyz
x,y,z
1/2-x,-y,1/2+z
1/2+x,1/2-y,1/2-z
-x,1/2+y,-z
-x,-y,-z
1/2+x,y,1/2-z
1/2-x,1/2+y,1/2+z
x,1/2-y,z
loop_
_atom_site_type_symbol
_atom_site_label
_atom_site_fract_x
_atom_site_fract_y
_atom_site_fract_z
Si Si1 0.806203 0.575711 0.481324
Si Si2 0.207151 0.924729 0.668009
Si Si3 0.042791 0.074147 0.940831
Si Si4 0.977136 0.076040 0.795579
Si Si5 0.936003 0.078473 0.474838
Si Si6 0.822319 0.924696 0.998824
Si Si7 0.848695 0.922455 0.834853
Si Si8 0.430766 0.081222 0.193317
O O1 0.809306 0.750000 0.486408
O O2 0.798340 0.522512 0.401103
O O3 0.872701 0.501329 0.504083
O O4 0.742284 0.511068 0.516370
O O5 0.204519 0.750000 0.648376
O O6 0.278118 0.950263 0.697075
O O7 0.143375 0.953570 0.712211
O O8 0.037698 0.250000 0.947889
O O9 0.015509 0.031654 0.865694
O O10 0.116898 0.036513 0.953964
O O11 0.000000 0.000000 0.000000
O O12 0.973354 0.250000 0.793867
O O13 0.906322 0.010456 0.801414
O O14 0.017782 0.017902 0.730928
O O15 0.935458 0.250000 0.493084
O O16 0.934053 0.068476 0.390469
O O17 0.000000 0.000000 0.500000
O O18 0.810297 0.750000 0.002711
O O19 0.842174 0.955309 0.917944
O O20 0.862273 0.750000 0.828971
O O21 0.443245 0.250000 0.211846
#
# Coordination Sequence:
#
# PCOD9461648 Si02
#       8
#     8   8   8   8   8   8   8   8
#     4  10  18  28  48  79 107 132 166 210 258 306
#     4   8  16  32  52  73  97 128 172 215 256 305
#     4  10  20  33  49  72 104 141 180 220 261 304
#     4  11  22  32  48  77 109 137 173 218 262 308
#     4  10  20  36  59  84 107 133 169 213 262 317
#     4   9  17  31  49  69  99 139 178 216 259 302
#     4   9  16  29  51  74  97 132 173 213 260 310
#     4   9  19  36  56  76 102 137 172 206 253 316
#
# _framework density 17.458380999999999
#
# number of rings (size 3 to 8) (size 9 to 14) (size 15 to 20)
#    0.000    2.500    1.250    3.375    0.000    5.500 
#    0.000    0.000    2.750    0.000    0.000    0.000 
#    0.000    0.000    0.000    0.000    0.000    0.000 
#
# Total GULP energy -356696.812639 kJ/mol
# GULP energy per Si atom -5573.387697 kJ/mol
# Density = 1.741865 g / cm^3
# Si number density = 17.458381 Si / 1000 Ang^3
#
#
#
# Elastic Constant Matrix: (Units=GPa)
#
#
# Indices 1 2 3 4 5 6 
#
# 1 179.2991 76.3493 23.7002 0.0000 0.0000 0.0000
# 2 76.3493 71.0548 16.2275 0.0000 0.0000 0.0000
# 3 23.7002 16.2275 10.5634 0.0000 0.0000 0.0000
# 4 0.0000 0.0000 0.0000 17.5837 0.0000 0.0000
# 5 0.0000 0.0000 0.0000 0.0000 24.8936 0.0000
# 6 0.0000 0.0000 0.0000 0.0000 0.0000 32.3161
#
#
#
# Elastic Compliance Matrix: (Units=1/GPa)
#
#
# Indices 1 2 3 4 5 6 
#
# 1 0.010924 -0.009459 -0.009978 0.000000 0.000000 0.000000
# 2 -0.009459 0.029871 -0.024664 0.000000 0.000000 0.000000
# 3 -0.009978 -0.024664 0.154943 0.000000 0.000000 0.000000
# 4 0.000000 0.000000 0.000000 0.056871 0.000000 0.000000
# 5 0.000000 0.000000 0.000000 0.000000 0.040171 0.000000
# 6 0.000000 0.000000 0.000000 0.000000 0.000000 0.030944
#
#
# Mechanical properties :
#
#
# Convention : Reuss Voigt Hill
#
# Bulk Modulus (GPa) = 9.29938 54.83014 32.06476
# Shear Modulus (GPa) = 11.16640 24.60136 17.88388
#
# Velocity S-wave (km/s) = 2.53178 3.75793 3.20405
# Velocity P-wave (km/s) = 3.72622 7.09251 5.66518
#
# Compressibility (1/GPa) = 0.10753400
#
# Stress axis : x y z
#
# Youngs Moduli (GPa) = 91.53969 33.47758 6.45400
#
# Poissons Ratio (x) = 0.31668 0.06440
# Poissons Ratio (y) = 0.86591 0.15918
# Poissons Ratio (z) = 0.91340 0.82570
#
# Static dielectric constant tensor:
#      x y z
#    x 1.622050 0.000000 0.000000 
#    y 0.000000 1.580810 0.000000 
#    z 0.000000 0.000000 1.584420 
# 
# From -- ./inp_files/24747.got.cif
#   From: 2010.05.17/outbox.cif.g08.bks.cpg/sg62_13_cif.got.tgz:24747.got - 2010.06.03 15:25:27.
