data_PCOD9461732
_publ_section_title
;
Structure prediction by ZEFSAII (Michael W. Deem and Ramdas Pophale) SiO2 
 PCOD9461732
Probable space group: P N M A
;
_chemical_formula_sum "Si O2"
_cell_formula_units_Z 48
_cell_length_a 12.738637
_cell_length_b 9.836021
_cell_length_c 18.268924
_cell_angle_alpha 90.000000
_cell_angle_beta 90.000000
_cell_angle_gamma 90.000000
_cell_volume 2289.050524
_symmetry_space_group_name_H-M "P N M A"
_symmetry_group_IT_number 62
_symmetry_cell_setting 'orthorhombic'
loop_
_space_group_symop_operation_xyz
x,y,z
1/2-x,-y,1/2+z
1/2+x,1/2-y,1/2-z
-x,1/2+y,-z
-x,-y,-z
1/2+x,y,1/2-z
1/2-x,1/2+y,1/2+z
x,1/2-y,z
loop_
_atom_site_type_symbol
_atom_site_label
_atom_site_fract_x
_atom_site_fract_y
_atom_site_fract_z
Si Si1 0.434097 0.598322 0.051274
Si Si2 0.272699 0.410089 0.127157
Si Si3 0.082181 0.900183 0.308395
Si Si4 0.091926 0.405062 0.029391
Si Si5 0.922396 0.409905 0.232858
Si Si6 0.190035 0.094550 0.876828
O O1 0.414965 0.750000 0.020863
O O2 0.332188 0.517587 0.076402
O O3 0.503344 0.612725 0.123818
O O4 0.500000 0.500000 0.000000
O O5 0.292296 0.250000 0.108407
O O6 0.327047 0.428316 0.206898
O O7 0.150792 0.434059 0.106226
O O8 0.088375 0.750000 0.271842
O O9 0.194675 0.930903 0.344077
O O10 0.027934 0.017160 0.261233
O O11 0.053157 0.250000 0.032552
O O12 0.179270 0.411192 0.964228
O O13 0.000000 0.500000 0.000000
O O14 0.937868 0.250000 0.223461
O O15 0.885956 0.486459 0.160348
O O16 0.161053 0.250000 0.855458
#
# Coordination Sequence:
#
# PCOD9461732 Si02
#       6
#     8   8   8   8   8   8
#     4  10  18  29  50  79 108 137 172 217 270 328
#     4   9  19  37  56  76 107 144 184 233 286 336
#     4   9  19  36  56  78 107 145 187 229 276 335
#     4  10  22  40  60  83 114 152 194 240 289 342
#     4  10  21  36  57  86 117 148 187 241 299 348
#     4  10  21  38  59  82 113 154 195 234 281 343
#
# _framework density 20.969393
#
# number of rings (size 3 to 8) (size 9 to 14) (size 15 to 20)
#    0.000    2.333    0.000    2.000    0.000    7.333 
#    0.000    5.000    0.000    0.000    0.000    0.000 
#    0.000    0.000    0.000    0.000    0.000    0.000 
#
# Total GULP energy -267644.613026 kJ/mol
# GULP energy per Si atom -5575.929438 kJ/mol
# Density = 2.092167 g / cm^3
# Si number density = 20.969393 Si / 1000 Ang^3
#
#
#
# Elastic Constant Matrix: (Units=GPa)
#
#
# Indices 1 2 3 4 5 6 
#
# 1 60.8676 30.2328 10.1684 0.0000 0.0000 0.0000
# 2 30.2328 96.1340 38.3691 0.0000 0.0000 0.0000
# 3 10.1684 38.3691 58.4021 0.0000 0.0000 0.0000
# 4 0.0000 0.0000 0.0000 26.8768 0.0000 0.0000
# 5 0.0000 0.0000 0.0000 0.0000 28.1633 0.0000
# 6 0.0000 0.0000 0.0000 0.0000 0.0000 31.8990
#
#
#
# Elastic Compliance Matrix: (Units=1/GPa)
#
#
# Indices 1 2 3 4 5 6 
#
# 1 0.019502 -0.006476 0.000859 0.000000 0.000000 0.000000
# 2 -0.006476 0.016250 -0.009548 0.000000 0.000000 0.000000
# 3 0.000859 -0.009548 0.023246 0.000000 0.000000 0.000000
# 4 0.000000 0.000000 0.000000 0.037207 0.000000 0.000000
# 5 0.000000 0.000000 0.000000 0.000000 0.035507 0.000000
# 6 0.000000 0.000000 0.000000 0.000000 0.000000 0.031349
#
#
# Mechanical properties :
#
#
# Convention : Reuss Voigt Hill
#
# Bulk Modulus (GPa) = 34.88246 41.43825 38.16035
# Shear Modulus (GPa) = 24.63698 26.49673 25.56685
#
# Velocity S-wave (km/s) = 3.43140 3.55856 3.49556
# Velocity P-wave (km/s) = 5.68950 6.05712 5.87618
#
# Compressibility (1/GPa) = 0.02866771
#
# Stress axis : x y z
#
# Youngs Moduli (GPa) = 51.27615 61.53974 43.01807
#
# Poissons Ratio (x) = 0.39854 -0.03696
# Poissons Ratio (y) = 0.33207 0.41074
# Poissons Ratio (z) = -0.04405 0.58759
#
# Static dielectric constant tensor:
#      x y z
#    x 1.775710 0.000000 0.000000 
#    y 0.000000 1.812090 0.000000 
#    z 0.000000 0.000000 1.758510 
# 
# From -- ./inp_files/29234.got.cif
#   From: 2010.05.17/outbox.cif.g08.bks.cpg/sg62_15_cif.got.tgz:29234.got - 2010.06.03 15:25:27.
