data_PCOD9461521
_publ_section_title
;
Structure prediction by ZEFSAII (Michael W. Deem and Ramdas Pophale) SiO2 
 PCOD9461521
Probable space group: P N M A
;
_chemical_formula_sum "Si O2"
_cell_formula_units_Z 56
_cell_length_a 13.045560
_cell_length_b 17.686741
_cell_length_c 14.703945
_cell_angle_alpha 90.000000
_cell_angle_beta 90.000000
_cell_angle_gamma 90.000000
_cell_volume 3392.691825
_symmetry_space_group_name_H-M "P N M A"
_symmetry_group_IT_number 62
_symmetry_cell_setting 'orthorhombic'
loop_
_space_group_symop_operation_xyz
x,y,z
1/2-x,-y,1/2+z
1/2+x,1/2-y,1/2-z
-x,1/2+y,-z
-x,-y,-z
1/2+x,y,1/2-z
1/2-x,1/2+y,1/2+z
x,1/2-y,z
loop_
_atom_site_type_symbol
_atom_site_label
_atom_site_fract_x
_atom_site_fract_y
_atom_site_fract_z
Si Si1 0.152825 0.337929 0.701897
Si Si2 0.995775 0.332487 0.043550
Si Si3 0.484034 0.987185 0.647145
Si Si4 0.652823 0.392446 0.593122
Si Si5 0.665984 0.522511 0.006211
Si Si6 0.186089 0.901320 0.064700
Si Si7 0.979013 0.519682 0.353702
O O1 0.124094 0.250000 0.695108
O O2 0.173644 0.359857 0.806845
O O3 0.252606 0.355594 0.641282
O O4 0.066277 0.396232 0.665301
O O5 0.996625 0.250000 0.086788
O O6 0.017994 0.403092 0.108583
O O7 0.887780 0.349243 0.994706
O O8 0.081185 0.337553 0.964823
O O9 0.583026 0.032090 0.607831
O O10 0.386437 0.035465 0.612591
O O11 0.493269 0.987639 0.755400
O O12 0.753433 0.414084 0.536583
O O13 0.577797 0.520155 0.081903
O O14 0.731649 0.445521 0.997089
O O15 0.608494 0.526674 0.908724
#
# Coordination Sequence:
#
# PCOD9461521 Si02
#       7
#     8   8   8   8   8   8   8
#     4  10  20  33  51  83 113 137 170 220 277 324
#     4  11  20  32  52  78 108 137 172 229 275 305
#     4  10  18  35  52  79 101 141 182 221 258 318
#     4  10  18  33  53  76 107 140 176 213 263 330
#     4  10  17  35  54  81  98 138 186 214 256 311
#     4  10  18  33  56  77 105 140 181 218 259 331
#     4   9  21  32  56  77 105 143 180 220 257 322
#
# _framework density 16.506067000000002
#
# number of rings (size 3 to 8) (size 9 to 14) (size 15 to 20)
#    0.000    2.000    2.857    2.571    0.000    0.000 
#    0.000    6.429    0.000   12.000    0.000    0.000 
#    0.000    0.000    0.000    0.000    0.000    0.000 
#
# Total GULP energy -312203.817458 kJ/mol
# GULP energy per Si atom -5575.068169 kJ/mol
# Density = 1.646850 g / cm^3
# Si number density = 16.506067 Si / 1000 Ang^3
#
#
#
# Elastic Constant Matrix: (Units=GPa)
#
#
# Indices 1 2 3 4 5 6 
#
# 1 67.7793 24.6068 23.6406 0.0000 0.0000 0.0000
# 2 24.6068 100.6864 50.0035 0.0000 0.0000 0.0000
# 3 23.6406 50.0035 83.7257 0.0000 0.0000 0.0000
# 4 0.0000 0.0000 0.0000 15.0584 0.0000 0.0000
# 5 0.0000 0.0000 0.0000 0.0000 24.1241 0.0000
# 6 0.0000 0.0000 0.0000 0.0000 0.0000 2.7554
#
#
#
# Elastic Compliance Matrix: (Units=1/GPa)
#
#
# Indices 1 2 3 4 5 6 
#
# 1 0.016792 -0.002487 -0.003256 0.000000 0.000000 0.000000
# 2 -0.002487 0.014488 -0.007951 0.000000 0.000000 0.000000
# 3 -0.003256 -0.007951 0.017611 0.000000 0.000000 0.000000
# 4 0.000000 0.000000 0.000000 0.066408 0.000000 0.000000
# 5 0.000000 0.000000 0.000000 0.000000 0.041452 0.000000
# 6 0.000000 0.000000 0.000000 0.000000 0.000000 0.362928
#
#
# Mechanical properties :
#
#
# Convention : Reuss Voigt Hill
#
# Bulk Modulus (GPa) = 46.50140 49.85480 48.17810
# Shear Modulus (GPa) = 9.02143 18.65027 13.83585
#
# Velocity S-wave (km/s) = 2.34038 3.36505 2.89836
# Velocity P-wave (km/s) = 5.96126 6.73555 6.36020
#
# Compressibility (1/GPa) = 0.02150473
#
# Stress axis : x y z
#
# Youngs Moduli (GPa) = 59.55110 69.02257 56.78110
#
# Poissons Ratio (x) = 0.17164 0.18489
# Poissons Ratio (y) = 0.14809 0.45144
# Poissons Ratio (z) = 0.19391 0.54877
#
# Static dielectric constant tensor:
#      x y z
#    x 1.566400 0.000000 0.000000 
#    y 0.000000 1.543440 0.000000 
#    z 0.000000 0.000000 1.549390 
# 
# From -- ./inp_files/18109.got.cif
#   From: 2010.05.17/outbox.cif.g08.bks.cpg/sg62_10_cif.got.tgz:18109.got - 2010.06.03 15:25:27.
