data_PCOD9461417
_publ_section_title
;
Structure prediction by ZEFSAII (Michael W. Deem and Ramdas Pophale) SiO2 
 PCOD9461417
Probable space group: P N M A
;
_chemical_formula_sum "Si O2"
_cell_formula_units_Z 56
_cell_length_a 11.096298
_cell_length_b 28.345482
_cell_length_c 7.098760
_cell_angle_alpha 90.000000
_cell_angle_beta 90.000000
_cell_angle_gamma 90.000000
_cell_volume 2232.772381
_symmetry_space_group_name_H-M "P N M A"
_symmetry_group_IT_number 62
_symmetry_cell_setting 'orthorhombic'
loop_
_space_group_symop_operation_xyz
x,y,z
1/2-x,-y,1/2+z
1/2+x,1/2-y,1/2-z
-x,1/2+y,-z
-x,-y,-z
1/2+x,y,1/2-z
1/2-x,1/2+y,1/2+z
x,1/2-y,z
loop_
_atom_site_type_symbol
_atom_site_label
_atom_site_fract_x
_atom_site_fract_y
_atom_site_fract_z
Si Si1 0.782802 0.480215 0.299730
Si Si2 0.426992 0.919499 0.507352
Si Si3 0.378060 0.750000 0.927910
Si Si4 0.755190 0.151071 0.462166
Si Si5 0.170944 0.931540 0.102345
Si Si6 0.028278 0.583610 0.587071
Si Si7 0.811884 0.646956 0.514176
Si Si8 0.666293 0.750000 0.895452
O O1 0.667962 0.455991 0.401597
O O2 0.751738 0.534718 0.269518
O O3 0.794053 0.454397 0.100030
O O4 0.908099 0.467654 0.404336
O O5 0.359200 0.872671 0.439756
O O6 0.528502 0.939540 0.369602
O O7 0.503448 0.904594 0.692827
O O8 0.359102 0.800554 0.031414
O O9 0.520038 0.750000 0.854114
O O10 0.264846 0.750000 0.777627
O O11 0.864719 0.115788 0.488104
O O12 0.723481 0.149419 0.237050
O O13 0.798536 0.203036 0.507341
O O14 0.200039 0.876153 0.095407
O O15 0.910000 0.605024 0.493349
#
# Coordination Sequence:
#
# PCOD9461417 Si02
#       8
#     8   8   4   8   8   8   8   4
#     4  10  20  31  49  69  95 138 168 206 246 302
#     4   9  16  31  46  61  90 133 168 196 242 301
#     4  10  20  26  44  68  98 133 172 207 258 316
#     4   9  15  25  42  61  90 126 163 197 246 292
#     4  11  20  33  49  71 100 134 173 203 256 298
#     4   9  14  28  44  61  91 126 163 191 243 292
#     4  10  17  28  43  64  96 128 160 202 250 300
#     4  10  18  24  40  68  94 133 170 207 250 318
#
# _framework density 25.080926000000002
#
# number of rings (size 3 to 8) (size 9 to 14) (size 15 to 20)
#    0.000    2.286    7.143    0.429    0.000    0.571 
#    0.000    0.000    0.000    0.000    0.000    0.000 
#    0.000    6.857    0.000    0.000    0.000    0.000 
#
# Total GULP energy -312401.657654 kJ/mol
# GULP energy per Si atom -5578.601030 kJ/mol
# Density = 2.502384 g / cm^3
# Si number density = 25.080926 Si / 1000 Ang^3
#
#
#
# Elastic Constant Matrix: (Units=GPa)
#
#
# Indices 1 2 3 4 5 6 
#
# 1 136.0458 44.7651 22.3802 0.0000 0.0000 0.0000
# 2 44.7651 129.0580 13.3117 0.0000 0.0000 0.0000
# 3 22.3802 13.3117 70.8131 0.0000 0.0000 0.0000
# 4 0.0000 0.0000 0.0000 14.8276 0.0000 0.0000
# 5 0.0000 0.0000 0.0000 0.0000 22.3744 0.0000
# 6 0.0000 0.0000 0.0000 0.0000 0.0000 38.3991
#
#
#
# Elastic Compliance Matrix: (Units=1/GPa)
#
#
# Indices 1 2 3 4 5 6 
#
# 1 0.008623 -0.002763 -0.002206 0.000000 0.000000 0.000000
# 2 -0.002763 0.008787 -0.000779 0.000000 0.000000 0.000000
# 3 -0.002206 -0.000779 0.014965 0.000000 0.000000 0.000000
# 4 0.000000 0.000000 0.000000 0.067442 0.000000 0.000000
# 5 0.000000 0.000000 0.000000 0.000000 0.044694 0.000000
# 6 0.000000 0.000000 0.000000 0.000000 0.000000 0.026042
#
#
# Mechanical properties :
#
#
# Convention : Reuss Voigt Hill
#
# Bulk Modulus (GPa) = 47.89291 55.20341 51.54816
# Shear Modulus (GPa) = 26.45393 32.15088 29.30240
#
# Velocity S-wave (km/s) = 3.25120 3.58423 3.42177
# Velocity P-wave (km/s) = 5.76460 6.25994 6.01737
#
# Compressibility (1/GPa) = 0.02087992
#
# Stress axis : x y z
#
# Youngs Moduli (GPa) = 115.97478 113.80137 66.82204
#
# Poissons Ratio (x) = 0.31447 0.14739
# Poissons Ratio (y) = 0.32048 0.05202
# Poissons Ratio (z) = 0.25580 0.08860
#
# Static dielectric constant tensor:
#      x y z
#    x 2.059440 0.000000 0.000000 
#    y 0.000000 1.986230 0.000000 
#    z 0.000000 0.000000 2.090810 
# 
# From -- ./inp_files/12588.got.cif
#   From: 2010.05.17/outbox.cif.g08.bks.cpg/sg62_7_cif.got.tgz:12588.got - 2010.06.03 15:25:27.
