data_PCOD9461065
_publ_section_title
;
Structure prediction by ZEFSAII (Michael W. Deem and Ramdas Pophale) SiO2 
 PCOD9461065
Probable space group: P B C A
;
_chemical_formula_sum "Si O2"
_cell_formula_units_Z 48
_cell_length_a 21.521213
_cell_length_b 11.366070
_cell_length_c 9.269087
_cell_angle_alpha 90.000000
_cell_angle_beta 90.000000
_cell_angle_gamma 90.000000
_cell_volume 2267.326326
_symmetry_space_group_name_H-M "P B C A"
_symmetry_group_IT_number 61
_symmetry_cell_setting 'orthorhombic'
loop_
_space_group_symop_operation_xyz
x,y,z
1/2-x,-y,1/2+z
1/2+x,1/2-y,-z
-x,1/2+y,1/2-z
-x,-y,-z
1/2+x,y,1/2-z
1/2-x,1/2+y,z
x,1/2-y,1/2+z
loop_
_atom_site_type_symbol
_atom_site_label
_atom_site_fract_x
_atom_site_fract_y
_atom_site_fract_z
Si Si1 0.351743 0.029330 0.531755
Si Si2 0.445401 0.286382 0.893111
Si Si3 0.654363 0.191995 0.680623
Si Si4 0.970196 0.674400 0.130652
Si Si5 0.116669 0.963781 0.360571
Si Si6 0.788630 0.889565 0.483855
O O1 0.403596 0.117809 0.472258
O O2 0.367477 0.000291 0.696865
O O3 0.283972 0.088022 0.529287
O O4 0.349705 0.916544 0.429185
O O5 0.475699 0.337620 0.748407
O O6 0.404272 0.170739 0.861842
O O7 0.500620 0.242215 0.996167
O O8 0.585795 0.247165 0.694768
O O9 0.696098 0.291523 0.603912
O O10 0.682362 0.152342 0.832677
O O11 0.939054 0.550145 0.091011
O O12 0.175024 0.993845 0.461986
#
# Coordination Sequence:
#
# PCOD9461065 Si02
#       6
#     8   8   8   8   8   8
#     4  12  27  43  72 103 141 180 233 286 341 414
#     4  12  26  42  70 104 136 182 229 290 341 414
#     4  11  25  47  72 103 136 188 226 283 353 402
#     4  11  24  45  70  96 140 178 231 285 343 419
#     4  11  25  48  66 105 134 187 227 285 350 399
#     4  11  26  45  74  98 142 180 232 287 341 420
#
# _framework density 21.170309
#
# number of rings (size 3 to 8) (size 9 to 14) (size 15 to 20)
#    0.000    0.667    1.667    6.500    9.333    1.333 
#    0.000    0.000    0.000    0.000    0.000    0.000 
#    0.000    0.000    0.000    0.000    0.000    0.000 
#
# Total GULP energy -268841.765189 kJ/mol
# GULP energy per Si atom -5600.870108 kJ/mol
# Density = 2.112212 g / cm^3
# Si number density = 21.170309 Si / 1000 Ang^3
#
#
#
# Elastic Constant Matrix: (Units=GPa)
#
#
# Indices 1 2 3 4 5 6 
#
# 1 29.8266 6.0300 8.5769 0.0000 0.0000 0.0000
# 2 6.0300 50.5484 -8.8550 0.0000 0.0000 0.0000
# 3 8.5769 -8.8550 61.0444 0.0000 0.0000 0.0000
# 4 0.0000 0.0000 0.0000 35.5764 0.0000 0.0000
# 5 0.0000 0.0000 0.0000 0.0000 -458.8703 0.0000
# 6 0.0000 0.0000 0.0000 0.0000 0.0000 33.3811
#
#
#
# Elastic Compliance Matrix: (Units=1/GPa)
#
#
# Indices 1 2 3 4 5 6 
#
# 1 0.036301 -0.005360 -0.005878 0.000000 0.000000 0.000000
# 2 -0.005360 0.021090 0.003812 0.000000 0.000000 0.000000
# 3 -0.005878 0.003812 0.017760 0.000000 0.000000 0.000000
# 4 0.000000 0.000000 0.000000 0.028109 0.000000 0.000000
# 5 0.000000 0.000000 0.000000 0.000000 -0.002179 0.000000
# 6 0.000000 0.000000 0.000000 0.000000 0.000000 0.029957
#
#
# Mechanical properties :
#
#
# Convention : Reuss Voigt Hill
#
# Bulk Modulus (GPa) = 16.58360 16.99147 16.78754
# Shear Modulus (GPa) = 30.12241 -68.93806 -19.40782
#
# Velocity S-wave (km/s) = 3.77618 -5.71264 -3.03107
# Velocity P-wave (km/s) = 5.18296 5.95557 2.07433
#
# Compressibility (1/GPa) = 0.06030054
#
# Stress axis : x y z
#
# Youngs Moduli (GPa) = 27.54744 47.41524 56.30503
#
# Poissons Ratio (x) = 0.25415 0.33096
# Poissons Ratio (y) = 0.14766 -0.21466
# Poissons Ratio (z) = 0.16192 -0.18077
#
# Static dielectric constant tensor:
#      x y z
#    x 1.731880 0.000000 0.000000 
#    y 0.000000 1.750620 0.000000 
#    z 0.000000 0.000000 1.748580 
# 
# From -- ./inp_files/4211.got.cif
#   From: 2010.05.17/outbox.cif.g08.bks.cpg/sg61_3_cif.got.tgz:4211.got - 2010.06.03 15:17:17.
