data_PCOD9461195
_publ_section_title
;
Structure prediction by ZEFSAII (Michael W. Deem and Ramdas Pophale) SiO2 
 PCOD9461195
Probable space group: P B C A
;
_chemical_formula_sum "Si O2"
_cell_formula_units_Z 64
_cell_length_a 8.375321
_cell_length_b 27.778618
_cell_length_c 11.473306
_cell_angle_alpha 90.000000
_cell_angle_beta 90.000000
_cell_angle_gamma 90.000000
_cell_volume 2669.320203
_symmetry_space_group_name_H-M "P B C A"
_symmetry_group_IT_number 61
_symmetry_cell_setting 'orthorhombic'
loop_
_space_group_symop_operation_xyz
x,y,z
1/2-x,-y,1/2+z
1/2+x,1/2-y,-z
-x,1/2+y,1/2-z
-x,-y,-z
1/2+x,y,1/2-z
1/2-x,1/2+y,z
x,1/2-y,1/2+z
loop_
_atom_site_type_symbol
_atom_site_label
_atom_site_fract_x
_atom_site_fract_y
_atom_site_fract_z
Si Si1 0.984104 0.326925 0.895639
Si Si2 0.259797 0.419574 0.398451
Si Si3 0.162444 0.801798 0.825910
Si Si4 0.025144 0.893600 0.957040
Si Si5 0.181736 0.977842 0.822521
Si Si6 0.168151 0.850695 0.181374
Si Si7 0.475624 0.704492 0.644596
Si Si8 0.024305 0.939139 0.601875
O O1 0.848366 0.305407 0.813590
O O2 0.000369 0.383110 0.867514
O O3 0.153915 0.301145 0.866606
O O4 0.951350 0.321489 0.031618
O O5 0.164005 0.466112 0.351178
O O6 0.282699 0.384847 0.288777
O O7 0.416918 0.438087 0.467730
O O8 0.155541 0.393909 0.498627
O O9 0.078446 0.849495 0.876411
O O10 0.052016 0.756936 0.860514
O O11 0.062596 0.943493 0.893874
O O12 0.128114 0.884847 0.073783
O O13 0.152742 0.964297 0.687433
O O14 0.356675 0.963326 0.867684
O O15 0.023501 0.820215 0.233871
O O16 0.290797 0.809615 0.139541
#
# Coordination Sequence:
#
# PCOD9461195 Si02
#       8
#     8   8   8   8   8   8   8   8
#     4  12  25  49  73 107 149 195 242 311 375 441
#     4  12  29  45  79 106 149 203 245 310 378 456
#     4  12  28  45  78 106 148 193 250 313 370 449
#     4  12  26  48  72 106 153 192 250 313 375 445
#     4  12  27  46  76 109 149 193 256 310 376 454
#     4  12  26  49  71 108 150 195 245 311 373 451
#     4  12  27  49  75 107 148 197 251 304 382 449
#     4  12  24  49  73 108 150 195 248 313 379 445
#
# _framework density 23.976140000000001
#
# number of rings (size 3 to 8) (size 9 to 14) (size 15 to 20)
#    0.000    0.000    6.250    2.250    7.000    2.000 
#    0.000    0.000    0.000    0.000    0.000    0.000 
#    0.000    0.000    0.000    0.000    0.000    0.000 
#
# Total GULP energy -358251.508604 kJ/mol
# GULP energy per Si atom -5597.679822 kJ/mol
# Density = 2.392157 g / cm^3
# Si number density = 23.976140 Si / 1000 Ang^3
#
#
#
# Elastic Constant Matrix: (Units=GPa)
#
#
# Indices 1 2 3 4 5 6 
#
# 1 47.6271 10.8869 5.0568 0.0000 0.0000 0.0000
# 2 10.8869 60.7855 6.8135 0.0000 0.0000 0.0000
# 3 5.0568 6.8135 108.5808 0.0000 0.0000 0.0000
# 4 0.0000 0.0000 0.0000 14.5300 0.0000 0.0000
# 5 0.0000 0.0000 0.0000 0.0000 39.3849 0.0000
# 6 0.0000 0.0000 0.0000 0.0000 0.0000 26.6869
#
#
#
# Elastic Compliance Matrix: (Units=1/GPa)
#
#
# Indices 1 2 3 4 5 6 
#
# 1 0.021958 -0.003845 -0.000781 0.000000 0.000000 0.000000
# 2 -0.003845 0.017241 -0.000903 0.000000 0.000000 0.000000
# 3 -0.000781 -0.000903 0.009303 0.000000 0.000000 0.000000
# 4 0.000000 0.000000 0.000000 0.068823 0.000000 0.000000
# 5 0.000000 0.000000 0.000000 0.000000 0.025390 0.000000
# 6 0.000000 0.000000 0.000000 0.000000 0.000000 0.037472
#
#
# Mechanical properties :
#
#
# Convention : Reuss Voigt Hill
#
# Bulk Modulus (GPa) = 26.70689 29.16754 27.93721
# Shear Modulus (GPa) = 24.54258 29.06943 26.80600
#
# Velocity S-wave (km/s) = 3.20288 3.48578 3.34732
# Velocity P-wave (km/s) = 4.98408 5.32846 5.15915
#
# Compressibility (1/GPa) = 0.03744352
#
# Stress axis : x y z
#
# Youngs Moduli (GPa) = 45.54067 58.00069 107.49484
#
# Poissons Ratio (x) = 0.22303 0.08399
# Poissons Ratio (y) = 0.17511 0.09705
# Poissons Ratio (z) = 0.03558 0.05236
#
# Static dielectric constant tensor:
#      x y z
#    x 1.929670 0.000000 0.000000 
#    y 0.000000 1.912320 0.000000 
#    z 0.000000 0.000000 1.904540 
# 
# From -- ./inp_files/4953.got.cif
#   From: 2010.05.17/outbox.cif.g08.bks.cpg/sg61_3_cif.got.tgz:4953.got - 2010.06.03 15:17:17.
