data_PCOD9461729
_publ_section_title
;
Structure prediction by ZEFSAII (Michael W. Deem and Ramdas Pophale) SiO2 
 PCOD9461729
Probable space group: P N M A
;
_chemical_formula_sum "Si O2"
_cell_formula_units_Z 64
_cell_length_a 20.103917
_cell_length_b 8.770698
_cell_length_c 19.877865
_cell_angle_alpha 90.000000
_cell_angle_beta 90.000000
_cell_angle_gamma 90.000000
_cell_volume 3504.972192
_symmetry_space_group_name_H-M "P N M A"
_symmetry_group_IT_number 62
_symmetry_cell_setting 'orthorhombic'
loop_
_space_group_symop_operation_xyz
x,y,z
1/2-x,-y,1/2+z
1/2+x,1/2-y,1/2-z
-x,1/2+y,-z
-x,-y,-z
1/2+x,y,1/2-z
1/2-x,1/2+y,1/2+z
x,1/2-y,z
loop_
_atom_site_type_symbol
_atom_site_label
_atom_site_fract_x
_atom_site_fract_y
_atom_site_fract_z
Si Si1 0.715033 0.932298 0.626518
Si Si2 0.501635 0.068986 0.270338
Si Si3 0.101485 0.070331 0.966237
Si Si4 0.644297 0.433025 0.750705
Si Si5 0.980413 0.567963 0.615557
Si Si6 0.874768 0.566501 0.401003
Si Si7 0.954097 0.429944 0.903648
Si Si8 0.344345 0.563979 0.953674
O O1 0.716012 0.750000 0.632762
O O2 0.784318 0.985604 0.593952
O O3 0.656676 0.980988 0.575459
O O4 0.697666 0.003486 0.698562
O O5 0.494481 0.250000 0.280531
O O6 0.529330 0.042122 0.195389
O O7 0.428426 0.993579 0.271352
O O8 0.546025 0.999264 0.329336
O O9 0.115971 0.250000 0.964814
O O10 0.029654 0.047209 0.930876
O O11 0.093065 0.010880 0.042200
O O12 0.643528 0.250000 0.747666
O O13 0.653173 0.483377 0.828415
O O14 0.988551 0.750000 0.605829
O O15 0.916026 0.515806 0.574674
O O16 0.048794 0.487434 0.595240
O O17 0.874247 0.750000 0.400496
O O18 0.837857 0.514846 0.468649
O O19 0.940831 0.250000 0.902563
O O20 0.343915 0.750000 0.952814
#
# Coordination Sequence:
#
# PCOD9461729 Si02
#       8
#     8   8   8   8   8   8   8   8
#     4  11  21  34  54  75 103 143 182 212 254 317
#     4  10  18  29  50  78 107 137 170 213 262 310
#     4  10  20  33  50  73 103 136 173 219 263 305
#     4  10  19  32  51  76 103 133 170 214 259 305
#     4   9  18  33  54  80 108 136 173 220 268 314
#     4   9  18  34  57  80 104 134 173 219 266 312
#     4  10  19  31  50  75 105 138 173 216 261 309
#     4   9  19  36  55  77 106 141 175 214 265 318
#
# _framework density 18.259774
#
# number of rings (size 3 to 8) (size 9 to 14) (size 15 to 20)
#    0.000    2.250    1.250    2.250    0.000    2.000 
#    0.000    3.750    0.000    3.000    0.000    0.000 
#    0.000    0.000    0.000    0.000    0.000    0.000 
#
# Total GULP energy -357111.021931 kJ/mol
# GULP energy per Si atom -5579.859718 kJ/mol
# Density = 1.821821 g / cm^3
# Si number density = 18.259774 Si / 1000 Ang^3
#
#
#
# Elastic Constant Matrix: (Units=GPa)
#
#
# Indices 1 2 3 4 5 6 
#
# 1 50.7457 12.8050 54.5234 0.0000 0.0000 0.0000
# 2 12.8050 19.6981 26.1290 0.0000 0.0000 0.0000
# 3 54.5234 26.1290 142.0047 0.0000 0.0000 0.0000
# 4 0.0000 0.0000 0.0000 21.3717 0.0000 0.0000
# 5 0.0000 0.0000 0.0000 0.0000 24.9827 0.0000
# 6 0.0000 0.0000 0.0000 0.0000 0.0000 16.5472
#
#
#
# Elastic Compliance Matrix: (Units=1/GPa)
#
#
# Indices 1 2 3 4 5 6 
#
# 1 0.034136 -0.006356 -0.011937 0.000000 0.000000 0.000000
# 2 -0.006356 0.068341 -0.010134 0.000000 0.000000 0.000000
# 3 -0.011937 -0.010134 0.013490 0.000000 0.000000 0.000000
# 4 0.000000 0.000000 0.000000 0.046791 0.000000 0.000000
# 5 0.000000 0.000000 0.000000 0.000000 0.040028 0.000000
# 6 0.000000 0.000000 0.000000 0.000000 0.000000 0.060433
#
#
# Mechanical properties :
#
#
# Convention : Reuss Voigt Hill
#
# Bulk Modulus (GPa) = 16.91712 44.37371 30.64541
# Shear Modulus (GPa) = 14.71550 20.51306 17.61428
#
# Velocity S-wave (km/s) = 2.84191 3.35535 3.10925
# Velocity P-wave (km/s) = 4.47811 6.27418 5.45063
#
# Compressibility (1/GPa) = 0.05911173
#
# Stress axis : x y z
#
# Youngs Moduli (GPa) = 29.29482 14.63246 74.12885
#
# Poissons Ratio (x) = 0.09301 0.88488
# Poissons Ratio (y) = 0.18621 0.75124
# Poissons Ratio (z) = 0.34969 0.14829
#
# Static dielectric constant tensor:
#      x y z
#    x 1.596160 0.000000 0.000000 
#    y 0.000000 1.613680 0.000000 
#    z 0.000000 0.000000 1.656540 
# 
# From -- ./inp_files/24826.got.cif
#   From: 2010.05.17/outbox.cif.g08.bks.cpg/sg62_13_cif.got.tgz:24826.got - 2010.06.03 15:25:27.
