data_PCOD9461070
_publ_section_title
;
Structure prediction by ZEFSAII (Michael W. Deem and Ramdas Pophale) SiO2 
 PCOD9461070
Probable space group: P B C A
;
_chemical_formula_sum "Si O2"
_cell_formula_units_Z 56
_cell_length_a 13.893206
_cell_length_b 14.512327
_cell_length_c 12.442546
_cell_angle_alpha 90.000000
_cell_angle_beta 90.000000
_cell_angle_gamma 90.000000
_cell_volume 2508.700323
_symmetry_space_group_name_H-M "P B C A"
_symmetry_group_IT_number 61
_symmetry_cell_setting 'orthorhombic'
loop_
_space_group_symop_operation_xyz
x,y,z
1/2-x,-y,1/2+z
1/2+x,1/2-y,-z
-x,1/2+y,1/2-z
-x,-y,-z
1/2+x,y,1/2-z
1/2-x,1/2+y,z
x,1/2-y,1/2+z
loop_
_atom_site_type_symbol
_atom_site_label
_atom_site_fract_x
_atom_site_fract_y
_atom_site_fract_z
Si Si1 0.303655 0.413552 0.516294
Si Si2 0.269640 0.370107 0.844939
Si Si3 0.925587 0.333535 0.810690
Si Si4 0.415767 0.976943 0.868741
Si Si5 0.508049 0.872501 0.292169
Si Si6 0.815563 0.078963 0.915533
Si Si7 0.283457 0.837249 0.296920
O O1 0.348026 0.336913 0.593081
O O2 0.387938 0.487607 0.487411
O O3 0.219671 0.473721 0.569591
O O4 0.270178 0.373192 0.403367
O O5 0.370580 0.386325 0.785084
O O6 0.188148 0.445725 0.822074
O O7 0.230263 0.272675 0.802946
O O8 0.287060 0.372209 0.972684
O O9 0.954359 0.231804 0.774834
O O10 0.017333 0.388621 0.853695
O O11 0.463651 0.060758 0.805229
O O12 0.571295 0.910614 0.391389
O O13 0.394362 0.866639 0.306054
O O14 0.761175 0.123723 0.813406
#
# Coordination Sequence:
#
# PCOD9461070 Si02
#       7
#     8   8   8   8   8   8   8
#     4  11  25  45  77  99 150 192 234 305 364 431
#     4  11  25  48  72 105 146 192 237 303 362 431
#     4  12  24  46  74 106 143 193 240 295 366 433
#     4  11  24  45  74 109 140 186 246 290 367 433
#     4  12  25  45  73 107 143 185 248 296 357 438
#     4  11  25  48  72 105 144 188 242 297 361 432
#     4  12  25  49  70 107 147 187 240 300 366 425
#
# _framework density 22.322315
#
# number of rings (size 3 to 8) (size 9 to 14) (size 15 to 20)
#    0.000    0.571    4.286    3.000    6.000    1.714 
#    5.143    0.000    0.000    0.000    0.000    0.000 
#    0.000    0.000    0.000    0.000    0.000    0.000 
#
# Total GULP energy -313304.011999 kJ/mol
# GULP energy per Si atom -5594.714500 kJ/mol
# Density = 2.227151 g / cm^3
# Si number density = 22.322315 Si / 1000 Ang^3
#
#
#
# Elastic Constant Matrix: (Units=GPa)
#
#
# Indices 1 2 3 4 5 6 
#
# 1 100.8141 -5.7709 29.0149 0.0000 0.0000 0.0000
# 2 -5.7709 65.6190 2.9774 0.0000 0.0000 0.0000
# 3 29.0149 2.9774 121.4837 0.0000 0.0000 0.0000
# 4 0.0000 0.0000 0.0000 32.3050 0.0000 0.0000
# 5 0.0000 0.0000 0.0000 0.0000 27.8225 0.0000
# 6 0.0000 0.0000 0.0000 0.0000 0.0000 17.9833
#
#
#
# Elastic Compliance Matrix: (Units=1/GPa)
#
#
# Indices 1 2 3 4 5 6 
#
# 1 0.010725 0.001061 -0.002587 0.000000 0.000000 0.000000
# 2 0.001061 0.015361 -0.000630 0.000000 0.000000 0.000000
# 3 -0.002587 -0.000630 0.008865 0.000000 0.000000 0.000000
# 4 0.000000 0.000000 0.000000 0.030955 0.000000 0.000000
# 5 0.000000 0.000000 0.000000 0.000000 0.035942 0.000000
# 6 0.000000 0.000000 0.000000 0.000000 0.000000 0.055607
#
#
# Mechanical properties :
#
#
# Convention : Reuss Voigt Hill
#
# Bulk Modulus (GPa) = 32.63957 37.81773 35.22865
# Shear Modulus (GPa) = 29.07297 33.06851 31.07074
#
# Velocity S-wave (km/s) = 3.61282 3.85308 3.73488
# Velocity P-wave (km/s) = 5.66189 6.06411 5.86645
#
# Compressibility (1/GPa) = 0.03063766
#
# Stress axis : x y z
#
# Youngs Moduli (GPa) = 93.24320 65.09849 112.80349
#
# Poissons Ratio (x) = -0.06904 0.29187
# Poissons Ratio (y) = -0.09889 0.07104
# Poissons Ratio (z) = 0.24126 0.04100
#
# Static dielectric constant tensor:
#      x y z
#    x 1.848790 0.000000 0.000000 
#    y 0.000000 1.829220 0.000000 
#    z 0.000000 0.000000 1.811580 
# 
# From -- ./inp_files/5825.got.cif
#   From: 2010.05.17/outbox.cif.g08.bks.cpg/sg61_3_cif.got.tgz:5825.got - 2010.06.03 15:17:17.
