data_PCOD9461018
_publ_section_title
;
Structure prediction by ZEFSAII (Michael W. Deem and Ramdas Pophale) SiO2 
 PCOD9461018
Probable space group: P B C A
;
_chemical_formula_sum "Si O2"
_cell_formula_units_Z 56
_cell_length_a 10.848128
_cell_length_b 14.345594
_cell_length_c 14.001217
_cell_angle_alpha 90.000000
_cell_angle_beta 90.000000
_cell_angle_gamma 90.000000
_cell_volume 2178.909152
_symmetry_space_group_name_H-M "P B C A"
_symmetry_group_IT_number 61
_symmetry_cell_setting 'orthorhombic'
loop_
_space_group_symop_operation_xyz
x,y,z
1/2-x,-y,1/2+z
1/2+x,1/2-y,-z
-x,1/2+y,1/2-z
-x,-y,-z
1/2+x,y,1/2-z
1/2-x,1/2+y,z
x,1/2-y,1/2+z
loop_
_atom_site_type_symbol
_atom_site_label
_atom_site_fract_x
_atom_site_fract_y
_atom_site_fract_z
Si Si1 0.461370 0.375973 0.901930
Si Si2 0.078507 0.532001 0.718898
Si Si3 0.223982 0.754039 0.337714
Si Si4 0.652004 0.857243 0.988979
Si Si5 0.499092 0.701900 0.893106
Si Si6 0.329601 0.746436 0.638125
Si Si7 0.850221 0.527777 0.855999
O O1 0.512631 0.471567 0.863927
O O2 0.323057 0.343573 0.880739
O O3 0.542169 0.298640 0.844233
O O4 0.483026 0.360363 0.012625
O O5 0.226552 0.511083 0.710947
O O6 0.061392 0.639389 0.689002
O O7 0.982958 0.510596 0.805460
O O8 0.149861 0.834421 0.398084
O O9 0.362507 0.783997 0.358321
O O10 0.236292 0.737061 0.225085
O O11 0.546149 0.801643 0.931866
O O12 0.770613 0.800014 0.950972
O O13 0.659751 0.961140 0.948474
O O14 0.344103 0.637302 0.619908
#
# Coordination Sequence:
#
# PCOD9461018 Si02
#       7
#     8   8   8   8   8   8   8
#     4  11  26  44  75 106 141 190 242 294 370 443
#     4  12  25  44  71 108 142 193 245 293 367 433
#     4  11  25  45  72 105 141 191 238 298 369 429
#     4  11  25  48  68 102 147 188 242 297 362 436
#     4  11  23  46  72 102 146 187 237 301 361 440
#     4  12  24  45  71 100 144 181 242 299 356 427
#     4  12  27  42  72 106 142 190 248 301 360 434
#
# _framework density 25.700935000000001
#
# number of rings (size 3 to 8) (size 9 to 14) (size 15 to 20)
#    0.000    0.571    5.714    1.286    6.000    0.000 
#    0.000    2.857    0.000    0.000    0.000    0.000 
#    0.000    0.000    0.000    0.000    0.000    0.000 
#
# Total GULP energy -312918.062378 kJ/mol
# GULP energy per Si atom -5587.822542 kJ/mol
# Density = 2.564244 g / cm^3
# Si number density = 25.700935 Si / 1000 Ang^3
#
#
#
# Elastic Constant Matrix: (Units=GPa)
#
#
# Indices 1 2 3 4 5 6 
#
# 1 68.9406 1.1370 6.7313 0.0000 0.0000 0.0000
# 2 1.1370 103.7670 14.3414 0.0000 0.0000 0.0000
# 3 6.7313 14.3414 105.0663 0.0000 0.0000 0.0000
# 4 0.0000 0.0000 0.0000 27.7954 0.0000 0.0000
# 5 0.0000 0.0000 0.0000 0.0000 17.2127 0.0000
# 6 0.0000 0.0000 0.0000 0.0000 0.0000 31.6353
#
#
#
# Elastic Compliance Matrix: (Units=1/GPa)
#
#
# Indices 1 2 3 4 5 6 
#
# 1 0.014597 -0.000031 -0.000931 0.000000 0.000000 0.000000
# 2 -0.000031 0.009822 -0.001339 0.000000 0.000000 0.000000
# 3 -0.000931 -0.001339 0.009760 0.000000 0.000000 0.000000
# 4 0.000000 0.000000 0.000000 0.035977 0.000000 0.000000
# 5 0.000000 0.000000 0.000000 0.000000 0.058097 0.000000
# 6 0.000000 0.000000 0.000000 0.000000 0.000000 0.031610
#
#
# Mechanical properties :
#
#
# Convention : Reuss Voigt Hill
#
# Bulk Modulus (GPa) = 33.80966 35.79927 34.80446
# Shear Modulus (GPa) = 28.68219 32.36629 30.52424
#
# Velocity S-wave (km/s) = 3.34428 3.55257 3.45000
# Velocity P-wave (km/s) = 5.30055 5.54861 5.42600
#
# Compressibility (1/GPa) = 0.02957734
#
# Stress axis : x y z
#
# Youngs Moduli (GPa) = 68.50883 101.80871 102.45721
#
# Poissons Ratio (x) = 0.00318 0.09538
# Poissons Ratio (y) = 0.00214 0.13716
# Poissons Ratio (z) = 0.06377 0.13629
#
# Static dielectric constant tensor:
#      x y z
#    x 2.138190 0.000000 0.000000 
#    y 0.000000 1.969680 0.000000 
#    z 0.000000 0.000000 2.029250 
# 
# From -- ./inp_files/7510.got.cif
#   From: 2010.05.17/outbox.cif.g08.bks.cpg/sg61_4_cif.got.tgz:7510.got - 2010.06.03 15:17:17.
