data_PCOD9461036
_publ_section_title
;
Structure prediction by ZEFSAII (Michael W. Deem and Ramdas Pophale) SiO2 
 PCOD9461036
Probable space group: P B C A
;
_chemical_formula_sum "Si O2"
_cell_formula_units_Z 56
_cell_length_a 8.578091
_cell_length_b 13.672834
_cell_length_c 18.438736
_cell_angle_alpha 90.000000
_cell_angle_beta 90.000000
_cell_angle_gamma 90.000000
_cell_volume 2162.620605
_symmetry_space_group_name_H-M "P B C A"
_symmetry_group_IT_number 61
_symmetry_cell_setting 'orthorhombic'
loop_
_space_group_symop_operation_xyz
x,y,z
1/2-x,-y,1/2+z
1/2+x,1/2-y,-z
-x,1/2+y,1/2-z
-x,-y,-z
1/2+x,y,1/2-z
1/2-x,1/2+y,z
x,1/2-y,1/2+z
loop_
_atom_site_type_symbol
_atom_site_label
_atom_site_fract_x
_atom_site_fract_y
_atom_site_fract_z
Si Si1 0.740906 0.950127 0.399744
Si Si2 0.751533 0.313109 0.591398
Si Si3 0.029117 0.196437 0.533308
Si Si4 0.569232 0.063700 0.689289
Si Si5 0.375264 0.734309 0.262908
Si Si6 0.261912 0.034367 0.949893
Si Si7 0.152192 0.897526 0.700056
O O1 0.828461 0.849667 0.419811
O O2 0.606857 0.939809 0.339805
O O3 0.683535 0.002332 0.473868
O O4 0.859096 0.028541 0.365951
O O5 0.615633 0.269834 0.539797
O O6 0.752583 0.276372 0.673568
O O7 0.709342 0.427080 0.584249
O O8 0.921136 0.284096 0.561200
O O9 0.907250 0.104684 0.530708
O O10 0.591958 0.152217 0.746084
O O11 0.666761 0.081898 0.616015
O O12 0.624858 0.966367 0.729899
O O13 0.523571 0.685232 0.299591
O O14 0.313822 0.662543 0.201023
#
# Coordination Sequence:
#
# PCOD9461036 Si02
#       7
#     8   8   8   8   8   8   8
#     4  11  26  48  77 105 151 204 247 310 388 454
#     4  11  24  45  75 112 151 191 243 313 379 453
#     4  11  25  44  75 112 151 194 248 310 380 460
#     4  12  27  48  76 108 153 200 254 319 375 463
#     4  12  27  48  76 107 147 197 258 313 378 452
#     4  11  23  49  74 110 150 196 250 314 379 451
#     4  12  27  52  75 108 154 202 256 315 385 458
#
# _framework density 25.894507999999998
#
# number of rings (size 3 to 8) (size 9 to 14) (size 15 to 20)
#    0.000    0.571    4.286    3.857    6.000    2.286 
#    2.571    0.000    0.000    0.000    0.000    0.000 
#    0.000    0.000    0.000    0.000    0.000    0.000 
#
# Total GULP energy -313315.892450 kJ/mol
# GULP energy per Si atom -5594.926651 kJ/mol
# Density = 2.583557 g / cm^3
# Si number density = 25.894508 Si / 1000 Ang^3
#
#
#
# Elastic Constant Matrix: (Units=GPa)
#
#
# Indices 1 2 3 4 5 6 
#
# 1 70.5747 29.0070 19.3108 0.0000 0.0000 0.0000
# 2 29.0070 126.5496 16.3760 0.0000 0.0000 0.0000
# 3 19.3108 16.3760 80.4072 0.0000 0.0000 0.0000
# 4 0.0000 0.0000 0.0000 27.7719 0.0000 0.0000
# 5 0.0000 0.0000 0.0000 0.0000 33.2269 0.0000
# 6 0.0000 0.0000 0.0000 0.0000 0.0000 40.7564
#
#
#
# Elastic Compliance Matrix: (Units=1/GPa)
#
#
# Indices 1 2 3 4 5 6 
#
# 1 0.016438 -0.003345 -0.003267 0.000000 0.000000 0.000000
# 2 -0.003345 0.008797 -0.000988 0.000000 0.000000 0.000000
# 3 -0.003267 -0.000988 0.013422 0.000000 0.000000 0.000000
# 4 0.000000 0.000000 0.000000 0.036008 0.000000 0.000000
# 5 0.000000 0.000000 0.000000 0.000000 0.030096 0.000000
# 6 0.000000 0.000000 0.000000 0.000000 0.000000 0.024536
#
#
# Mechanical properties :
#
#
# Convention : Reuss Voigt Hill
#
# Bulk Modulus (GPa) = 42.63032 45.21324 43.92178
# Shear Modulus (GPa) = 32.82653 34.54021 33.68337
#
# Velocity S-wave (km/s) = 3.56434 3.65620 3.61056
# Velocity P-wave (km/s) = 5.78258 5.94324 5.86346
#
# Compressibility (1/GPa) = 0.02345749
#
# Stress axis : x y z
#
# Youngs Moduli (GPa) = 60.83441 113.67945 74.50200
#
# Poissons Ratio (x) = 0.38027 0.24336
# Poissons Ratio (y) = 0.20350 0.07362
# Poissons Ratio (z) = 0.19872 0.11234
#
# Static dielectric constant tensor:
#      x y z
#    x 2.074700 0.000000 0.000000 
#    y 0.000000 2.022660 0.000000 
#    z 0.000000 0.000000 2.071830 
# 
# From -- ./inp_files/10120.got.cif
#   From: 2010.05.17/outbox.cif.g08.bks.cpg/sg61_6_cif.got.tgz:10120.got - 2010.06.03 15:17:17.
