data_PCOD9461170
_publ_section_title
;
Structure prediction by ZEFSAII (Michael W. Deem and Ramdas Pophale) SiO2 
 PCOD9461170
Probable space group: P B C A
;
_chemical_formula_sum "Si O2"
_cell_formula_units_Z 48
_cell_length_a 8.797446
_cell_length_b 12.951886
_cell_length_c 19.635229
_cell_angle_alpha 90.000000
_cell_angle_beta 90.000000
_cell_angle_gamma 90.000000
_cell_volume 2237.307063
_symmetry_space_group_name_H-M "P B C A"
_symmetry_group_IT_number 61
_symmetry_cell_setting 'orthorhombic'
loop_
_space_group_symop_operation_xyz
x,y,z
1/2-x,-y,1/2+z
1/2+x,1/2-y,-z
-x,1/2+y,1/2-z
-x,-y,-z
1/2+x,y,1/2-z
1/2-x,1/2+y,z
x,1/2-y,1/2+z
loop_
_atom_site_type_symbol
_atom_site_label
_atom_site_fract_x
_atom_site_fract_y
_atom_site_fract_z
Si Si1 0.079062 0.387077 0.818175
Si Si2 0.416543 0.979789 0.070954
Si Si3 0.763330 0.710160 0.730255
Si Si4 0.565228 0.035973 0.427711
Si Si5 0.449971 0.758450 0.144231
Si Si6 0.607904 0.504050 0.200546
O O1 0.107156 0.265690 0.815595
O O2 0.251105 0.426738 0.821150
O O3 0.989299 0.437447 0.878416
O O4 0.999971 0.432653 0.750795
O O5 0.240611 0.007430 0.068531
O O6 0.438085 0.863419 0.100015
O O7 0.500000 0.000000 0.000000
O O8 0.802212 0.754827 0.805605
O O9 0.599927 0.723670 0.693406
O O10 0.812141 0.592042 0.736339
O O11 0.485130 0.974223 0.366194
O O12 0.500000 0.000000 0.500000
O O13 0.540480 0.156175 0.403488
#
# Coordination Sequence:
#
# PCOD9461170 Si02
#       6
#     8   8   8   8   8   8
#     4  12  23  43  73 111 146 193 250 315 373 444
#     4  12  29  50  74 107 155 199 257 310 383 457
#     4  12  24  43  79 110 152 188 254 304 388 439
#     4  12  29  50  74 107 155 199 257 310 383 457
#     4  12  28  47  81 112 150 202 254 312 392 451
#     4  12  23  43  73 111 146 193 250 315 373 444
#
# _framework density 21.454364000000002
#
# number of rings (size 3 to 8) (size 9 to 14) (size 15 to 20)
#    0.000    0.000    6.667    2.000    4.667    2.667 
#    0.000    0.000    0.000    0.000    0.000    0.000 
#    0.000    0.000    0.000    0.000    0.000    0.000 
#
# Total GULP energy -268191.815779 kJ/mol
# GULP energy per Si atom -5587.329495 kJ/mol
# Density = 2.140553 g / cm^3
# Si number density = 21.454364 Si / 1000 Ang^3
#
#
#
# Elastic Constant Matrix: (Units=GPa)
#
#
# Indices 1 2 3 4 5 6 
#
# 1 171.5385 27.8275 70.5185 0.0000 0.0000 0.0000
# 2 27.8275 111.7744 15.8731 0.0000 0.0000 0.0000
# 3 70.5185 15.8731 141.9302 0.0000 0.0000 0.0000
# 4 0.0000 0.0000 0.0000 34.1369 0.0000 0.0000
# 5 0.0000 0.0000 0.0000 0.0000 42.5144 0.0000
# 6 0.0000 0.0000 0.0000 0.0000 0.0000 29.4464
#
#
#
# Elastic Compliance Matrix: (Units=1/GPa)
#
#
# Indices 1 2 3 4 5 6 
#
# 1 0.007525 -0.001364 -0.003586 0.000000 0.000000 0.000000
# 2 -0.001364 0.009338 -0.000367 0.000000 0.000000 0.000000
# 3 -0.003586 -0.000367 0.008869 0.000000 0.000000 0.000000
# 4 0.000000 0.000000 0.000000 0.029294 0.000000 0.000000
# 5 0.000000 0.000000 0.000000 0.000000 0.023521 0.000000
# 6 0.000000 0.000000 0.000000 0.000000 0.000000 0.033960
#
#
# Mechanical properties :
#
#
# Convention : Reuss Voigt Hill
#
# Bulk Modulus (GPa) = 66.23450 72.63124 69.43287
# Shear Modulus (GPa) = 39.00939 41.95447 40.48193
#
# Velocity S-wave (km/s) = 4.26872 4.42693 4.34854
# Velocity P-wave (km/s) = 7.43204 7.74968 7.59252
#
# Compressibility (1/GPa) = 0.01509787
#
# Stress axis : x y z
#
# Youngs Moduli (GPa) = 132.88622 107.08615 112.75717
#
# Poissons Ratio (x) = 0.14609 0.40439
# Poissons Ratio (y) = 0.18128 0.04133
# Poissons Ratio (z) = 0.47658 0.03925
#
# Static dielectric constant tensor:
#      x y z
#    x 1.752050 0.000000 0.000000 
#    y 0.000000 1.878860 0.000000 
#    z 0.000000 0.000000 1.810200 
# 
# From -- ./inp_files/8892.got.cif
#   From: 2010.05.17/outbox.cif.g08.bks.cpg/sg61_5_cif.got.tgz:8892.got - 2010.06.03 15:17:17.
