data_PCOD9461599
_publ_section_title
;
Structure prediction by ZEFSAII (Michael W. Deem and Ramdas Pophale) SiO2 
 PCOD9461599
Probable space group: P N M A
;
_chemical_formula_sum "Si O2"
_cell_formula_units_Z 64
_cell_length_a 27.053178
_cell_length_b 8.751303
_cell_length_c 19.025903
_cell_angle_alpha 90.000000
_cell_angle_beta 90.000000
_cell_angle_gamma 90.000000
_cell_volume 4504.393148
_symmetry_space_group_name_H-M "P N M A"
_symmetry_group_IT_number 62
_symmetry_cell_setting 'orthorhombic'
loop_
_space_group_symop_operation_xyz
x,y,z
1/2-x,-y,1/2+z
1/2+x,1/2-y,1/2-z
-x,1/2+y,-z
-x,-y,-z
1/2+x,y,1/2-z
1/2-x,1/2+y,1/2+z
x,1/2-y,z
loop_
_atom_site_type_symbol
_atom_site_label
_atom_site_fract_x
_atom_site_fract_y
_atom_site_fract_z
Si Si1 0.253576 0.934480 0.929302
Si Si2 0.551857 0.067197 0.916131
Si Si3 0.699465 0.073773 0.280371
Si Si4 0.694947 0.573799 0.699271
Si Si5 0.754258 0.065171 0.416138
Si Si6 0.644784 0.935569 0.835406
Si Si7 0.848383 0.069000 0.650386
Si Si8 0.944752 0.932766 0.580753
O O1 0.254371 0.750000 0.926879
O O2 0.210176 0.991597 0.876339
O O3 0.305327 0.994190 0.897515
O O4 0.247291 0.992536 0.008041
O O5 0.549658 0.250000 0.910392
O O6 0.595220 0.001353 0.868140
O O7 0.498482 0.996599 0.898936
O O8 0.562647 0.028620 0.998052
O O9 0.682372 0.250000 0.282376
O O10 0.752878 0.075442 0.241348
O O11 0.712720 0.020062 0.358773
O O12 0.664096 0.976818 0.230641
O O13 0.680131 0.750000 0.687503
O O14 0.656686 0.508100 0.755970
O O15 0.753211 0.250000 0.420777
O O16 0.807998 0.023003 0.384080
O O17 0.642861 0.750000 0.833955
O O18 0.846483 0.250000 0.641788
O O19 0.900749 0.005065 0.625292
O O20 0.944060 0.750000 0.587489
#
# Coordination Sequence:
#
# PCOD9461599 Si02
#       8
#     8   8   8   8   8   8   8   8
#     4  10  18  28  42  60  85 115 145 175 208 248
#     4  10  20  31  43  62  84 105 136 177 212 242
#     4   8  15  29  44  58  81 111 140 171 209 250
#     4   7  13  26  41  56  76 107 142 170 198 239
#     4   9  17  28  43  63  86 112 143 177 209 246
#     4   9  16  28  44  58  78 111 144 170 204 248
#     4  11  20  29  43  62  84 110 143 179 211 246
#     4  10  20  33  46  59  80 111 141 170 209 252
#
# _framework density 14.208352
#
# number of rings (size 3 to 8) (size 9 to 14) (size 15 to 20)
#    0.000    2.750    0.000    5.250    0.000    4.500 
#    0.000    5.625    0.000    0.000    0.000    0.000 
#    0.000    1.000    0.000    3.000    0.000    4.625 
#
# Total GULP energy -356442.548146 kJ/mol
# GULP energy per Si atom -5569.414815 kJ/mol
# Density = 1.417601 g / cm^3
# Si number density = 14.208352 Si / 1000 Ang^3
#
#
#
# Elastic Constant Matrix: (Units=GPa)
#
#
# Indices 1 2 3 4 5 6 
#
# 1 88.7925 35.0810 63.4254 0.0000 0.0000 0.0000
# 2 35.0810 41.0506 37.9113 0.0000 0.0000 0.0000
# 3 63.4254 37.9113 124.8494 0.0000 0.0000 0.0000
# 4 0.0000 0.0000 0.0000 22.2450 0.0000 0.0000
# 5 0.0000 0.0000 0.0000 0.0000 26.4229 0.0000
# 6 0.0000 0.0000 0.0000 0.0000 0.0000 18.3072
#
#
#
# Elastic Compliance Matrix: (Units=1/GPa)
#
#
# Indices 1 2 3 4 5 6 
#
# 1 0.020791 -0.011136 -0.007181 0.000000 0.000000 0.000000
# 2 -0.011136 0.039819 -0.006434 0.000000 0.000000 0.000000
# 3 -0.007181 -0.006434 0.013611 0.000000 0.000000 0.000000
# 4 0.000000 0.000000 0.000000 0.044954 0.000000 0.000000
# 5 0.000000 0.000000 0.000000 0.000000 0.037846 0.000000
# 6 0.000000 0.000000 0.000000 0.000000 0.000000 0.054623
#
#
# Mechanical properties :
#
#
# Convention : Reuss Voigt Hill
#
# Bulk Modulus (GPa) = 40.45347 58.61423 49.53385
# Shear Modulus (GPa) = 18.56072 21.28000 19.92036
#
# Velocity S-wave (km/s) = 3.61823 3.87423 3.74841
# Velocity P-wave (km/s) = 6.78151 7.83299 7.32614
#
# Compressibility (1/GPa) = 0.02471976
#
# Stress axis : x y z
#
# Youngs Moduli (GPa) = 48.09710 25.11372 73.46874
#
# Poissons Ratio (x) = 0.27967 0.52756
# Poissons Ratio (y) = 0.53562 0.47269
# Poissons Ratio (z) = 0.34537 0.16158
#
# Static dielectric constant tensor:
#      x y z
#    x 1.443110 0.000000 0.000000 
#    y 0.000000 1.477550 0.000000 
#    z 0.000000 0.000000 1.487970 
# 
# From -- ./inp_files/25009.got.cif
#   From: 2010.05.17/outbox.cif.g08.bks.cpg/sg62_13_cif.got.tgz:25009.got - 2010.06.03 15:25:27.
