data_PCOD9461387
_publ_section_title
;
Structure prediction by ZEFSAII (Michael W. Deem and Ramdas Pophale) SiO2 
 PCOD9461387
Probable space group: P N M A
;
_chemical_formula_sum "Si O2"
_cell_formula_units_Z 56
_cell_length_a 9.559730
_cell_length_b 16.731834
_cell_length_c 21.110237
_cell_angle_alpha 90.000000
_cell_angle_beta 90.000000
_cell_angle_gamma 90.000000
_cell_volume 3376.620733
_symmetry_space_group_name_H-M "P N M A"
_symmetry_group_IT_number 62
_symmetry_cell_setting 'orthorhombic'
loop_
_space_group_symop_operation_xyz
x,y,z
1/2-x,-y,1/2+z
1/2+x,1/2-y,1/2-z
-x,1/2+y,-z
-x,-y,-z
1/2+x,y,1/2-z
1/2-x,1/2+y,1/2+z
x,1/2-y,z
loop_
_atom_site_type_symbol
_atom_site_label
_atom_site_fract_x
_atom_site_fract_y
_atom_site_fract_z
Si Si1 0.515475 0.475880 0.572818
Si Si2 0.018755 0.841013 0.785231
Si Si3 0.274578 0.937091 0.651543
Si Si4 0.758696 0.945200 0.647244
Si Si5 0.982424 0.341358 0.367415
Si Si6 0.258633 0.069096 0.749568
Si Si7 0.007330 0.345478 0.824854
O O1 0.500000 0.500000 0.500000
O O2 0.388211 0.521024 0.607451
O O3 0.663808 0.510297 0.596126
O O4 0.508300 0.387743 0.605542
O O5 0.029940 0.750000 0.807974
O O6 0.870528 0.877757 0.806393
O O7 0.024724 0.840606 0.709469
O O8 0.145994 0.892038 0.813725
O O9 0.156973 0.888750 0.614226
O O10 0.208117 0.005587 0.696309
O O11 0.877872 0.890138 0.617872
O O12 0.820992 0.011095 0.695664
O O13 0.985696 0.250000 0.389594
O O14 0.371512 0.124201 0.714348
O O15 0.137147 0.118523 0.784285
O O16 0.012696 0.250000 0.828764
#
# Coordination Sequence:
#
# PCOD9461387 Si02
#       7
#     8   8   8   8   8   8   8
#     4   9  21  39  55  70  95 138 182 209 243 308
#     4  10  17  26  42  70 111 142 164 194 240 297
#     4  10  18  30  49  72 102 138 173 206 254 310
#     4  10  18  30  49  72 102 138 173 206 254 310
#     4  11  18  26  43  74 110 134 163 203 251 295
#     4  10  17  30  49  74 104 128 162 204 265 322
#     4  10  20  33  54  80 103 126 159 214 270 312
#
# _framework density 16.584629
#
# number of rings (size 3 to 8) (size 9 to 14) (size 15 to 20)
#    0.000    2.000    2.857    3.000    0.000    2.286 
#    0.000    5.000    0.000    0.000    0.000    8.000 
#    0.000    0.000    0.000    0.000    0.000    0.000 
#
# Total GULP energy -311991.043986 kJ/mol
# GULP energy per Si atom -5571.268643 kJ/mol
# Density = 1.654688 g / cm^3
# Si number density = 16.584629 Si / 1000 Ang^3
#
#
#
# Elastic Constant Matrix: (Units=GPa)
#
#
# Indices 1 2 3 4 5 6 
#
# 1 70.2917 30.8362 -5.3927 0.0000 0.0000 0.0000
# 2 30.8362 116.2186 16.2796 0.0000 0.0000 0.0000
# 3 -5.3927 16.2796 53.7132 0.0000 0.0000 0.0000
# 4 0.0000 0.0000 0.0000 8.6106 0.0000 0.0000
# 5 0.0000 0.0000 0.0000 0.0000 10.0088 0.0000
# 6 0.0000 0.0000 0.0000 0.0000 0.0000 22.5856
#
#
#
# Elastic Compliance Matrix: (Units=1/GPa)
#
#
# Indices 1 2 3 4 5 6 
#
# 1 0.016590 -0.004841 0.003133 0.000000 0.000000 0.000000
# 2 -0.004841 0.010398 -0.003638 0.000000 0.000000 0.000000
# 3 0.003133 -0.003638 0.020034 0.000000 0.000000 0.000000
# 4 0.000000 0.000000 0.000000 0.116136 0.000000 0.000000
# 5 0.000000 0.000000 0.000000 0.000000 0.099912 0.000000
# 6 0.000000 0.000000 0.000000 0.000000 0.000000 0.044276
#
#
# Mechanical properties :
#
#
# Convention : Reuss Voigt Hill
#
# Bulk Modulus (GPa) = 27.52389 35.96330 31.74360
# Shear Modulus (GPa) = 15.14468 21.47436 18.30952
#
# Velocity S-wave (km/s) = 3.02516 3.60229 3.32626
# Velocity P-wave (km/s) = 5.36975 6.24770 5.82529
#
# Compressibility (1/GPa) = 0.03633207
#
# Stress axis : x y z
#
# Youngs Moduli (GPa) = 60.27600 96.16864 49.91417
#
# Poissons Ratio (x) = 0.46553 -0.15637
# Poissons Ratio (y) = 0.29178 0.18157
# Poissons Ratio (z) = -0.18883 0.34982
#
# Static dielectric constant tensor:
#      x y z
#    x 1.573920 0.000000 0.000000 
#    y 0.000000 1.575520 0.000000 
#    z 0.000000 0.000000 1.551490 
# 
# From -- ./inp_files/29033.got.cif
#   From: 2010.05.17/outbox.cif.g08.bks.cpg/sg62_15_cif.got.tgz:29033.got - 2010.06.03 15:25:27.
