data_PCOD9461845
_publ_section_title
;
Structure prediction by ZEFSAII (Michael W. Deem and Ramdas Pophale) SiO2 
 PCOD9461845
Probable space group: P N M A
;
_chemical_formula_sum "Si O2"
_cell_formula_units_Z 56
_cell_length_a 24.825651
_cell_length_b 21.211342
_cell_length_c 5.607630
_cell_angle_alpha 90.000000
_cell_angle_beta 90.000000
_cell_angle_gamma 90.000000
_cell_volume 2952.895939
_symmetry_space_group_name_H-M "P N M A"
_symmetry_group_IT_number 62
_symmetry_cell_setting 'orthorhombic'
loop_
_space_group_symop_operation_xyz
x,y,z
1/2-x,-y,1/2+z
1/2+x,1/2-y,1/2-z
-x,1/2+y,-z
-x,-y,-z
1/2+x,y,1/2-z
1/2-x,1/2+y,1/2+z
x,1/2-y,z
loop_
_atom_site_type_symbol
_atom_site_label
_atom_site_fract_x
_atom_site_fract_y
_atom_site_fract_z
Si Si1 0.985785 0.564073 0.252355
Si Si2 0.834075 0.822252 0.236772
Si Si3 0.447822 0.682556 0.999974
Si Si4 0.588135 0.513489 0.087040
Si Si5 0.102583 0.392305 0.117738
Si Si6 0.746118 0.085317 0.956445
Si Si7 0.800081 0.057583 0.456010
O O1 0.984383 0.623998 0.429633
O O2 0.951664 0.508881 0.377935
O O3 0.047573 0.544903 0.222173
O O4 0.948406 0.583828 0.034547
O O5 0.817015 0.750000 0.182983
O O6 0.895435 0.818289 0.330659
O O7 0.796481 0.857638 0.427220
O O8 0.843700 0.871764 0.020913
O O9 0.474904 0.750000 0.013263
O O10 0.420509 0.669057 0.747597
O O11 0.612924 0.449712 0.200970
O O12 0.635465 0.555278 0.982341
O O13 0.778995 0.087128 0.705299
O O14 0.719042 0.015794 0.951342
O O15 0.779042 0.087336 0.206456
#
# Coordination Sequence:
#
# PCOD9461845 Si02
#       7
#     8   8   8   8   8   8   8
#     4   9  19  33  51  79 115 141 185 226 293 342
#     4  10  21  35  55  81 113 147 186 234 293 350
#     4   9  18  32  51  77 107 143 183 230 282 345
#     4  10  20  33  53  81 110 150 180 235 289 356
#     4  10  18  30  54  83 112 143 182 236 289 361
#     4  10  22  37  55  83 111 148 187 238 286 337
#     4  10  22  36  57  81 113 146 191 235 284 342
#
# _framework density 18.964434000000001
#
# number of rings (size 3 to 8) (size 9 to 14) (size 15 to 20)
#    0.000    2.286    0.000    3.429   10.000    0.571 
#    0.000    0.000    0.000    1.714    0.000    0.000 
#    0.000    0.000    0.000    0.000    0.000    0.000 
#
# Total GULP energy -311871.731359 kJ/mol
# GULP energy per Si atom -5569.138060 kJ/mol
# Density = 1.892127 g / cm^3
# Si number density = 18.964434 Si / 1000 Ang^3
#
#
#
# Elastic Constant Matrix: (Units=GPa)
#
#
# Indices 1 2 3 4 5 6 
#
# 1 77.7790 32.8854 33.3202 0.0000 0.0000 0.0000
# 2 32.8854 63.6711 14.9743 0.0000 0.0000 0.0000
# 3 33.3202 14.9743 82.6616 0.0000 0.0000 0.0000
# 4 0.0000 0.0000 0.0000 5.8554 0.0000 0.0000
# 5 0.0000 0.0000 0.0000 0.0000 22.6653 0.0000
# 6 0.0000 0.0000 0.0000 0.0000 0.0000 17.4668
#
#
#
# Elastic Compliance Matrix: (Units=1/GPa)
#
#
# Indices 1 2 3 4 5 6 
#
# 1 0.019040 -0.008386 -0.006156 0.000000 0.000000 0.000000
# 2 -0.008386 0.020098 -0.000260 0.000000 0.000000 0.000000
# 3 -0.006156 -0.000260 0.014626 0.000000 0.000000 0.000000
# 4 0.000000 0.000000 0.000000 0.170783 0.000000 0.000000
# 5 0.000000 0.000000 0.000000 0.000000 0.044120 0.000000
# 6 0.000000 0.000000 0.000000 0.000000 0.000000 0.057252
#
#
# Mechanical properties :
#
#
# Convention : Reuss Voigt Hill
#
# Bulk Modulus (GPa) = 41.39136 42.94128 42.16632
# Shear Modulus (GPa) = 13.75229 18.72629 16.23929
#
# Velocity S-wave (km/s) = 2.69580 3.14577 2.92944
# Velocity P-wave (km/s) = 5.61809 5.99055 5.80731
#
# Compressibility (1/GPa) = 0.02415963
#
# Stress axis : x y z
#
# Youngs Moduli (GPa) = 52.52194 49.75545 68.37159
#
# Poissons Ratio (x) = 0.41725 0.42087
# Poissons Ratio (y) = 0.44045 0.01781
# Poissons Ratio (z) = 0.32330 0.01296
#
# Static dielectric constant tensor:
#      x y z
#    x 1.676350 0.000000 0.000000 
#    y 0.000000 1.696020 0.000000 
#    z 0.000000 0.000000 1.782370 
# 
# From -- ./inp_files/2831.got.cif
#   From: 2010.05.17/outbox.cif.g08.bks.cpg/sg62_2_cif.got.tgz:2831.got - 2010.06.03 15:25:27.
