data_PCOD9461994
_publ_section_title
;
Structure prediction by ZEFSAII (Michael W. Deem and Ramdas Pophale) SiO2 
 PCOD9461994
Probable space group: P N M A
;
_chemical_formula_sum "Si O2"
_cell_formula_units_Z 56
_cell_length_a 19.667142
_cell_length_b 8.246022
_cell_length_c 19.944037
_cell_angle_alpha 90.000000
_cell_angle_beta 90.000000
_cell_angle_gamma 90.000000
_cell_volume 3234.437874
_symmetry_space_group_name_H-M "P N M A"
_symmetry_group_IT_number 62
_symmetry_cell_setting 'orthorhombic'
loop_
_space_group_symop_operation_xyz
x,y,z
1/2-x,-y,1/2+z
1/2+x,1/2-y,1/2-z
-x,1/2+y,-z
-x,-y,-z
1/2+x,y,1/2-z
1/2-x,1/2+y,1/2+z
x,1/2-y,z
loop_
_atom_site_type_symbol
_atom_site_label
_atom_site_fract_x
_atom_site_fract_y
_atom_site_fract_z
Si Si1 0.946121 0.054343 0.944542
Si Si2 0.375221 0.441688 0.267068
Si Si3 0.271530 0.558620 0.159345
Si Si4 0.975764 0.441777 0.793127
Si Si5 0.660900 0.057958 0.238578
Si Si6 0.262596 0.447286 0.373599
Si Si7 0.292132 0.448553 0.522928
O O1 0.945815 0.250000 0.943812
O O2 0.966370 0.998142 0.869888
O O3 0.869802 0.000222 0.962967
O O4 0.000000 0.000000 0.000000
O O5 0.385096 0.250000 0.274965
O O6 0.332007 0.474534 0.200033
O O7 0.448189 0.523867 0.269279
O O8 0.327078 0.499419 0.328498
O O9 0.285625 0.750000 0.157506
O O10 0.203045 0.529626 0.202590
O O11 0.255523 0.499462 0.084453
O O12 0.963142 0.250000 0.793026
O O13 0.917999 0.521808 0.747423
O O14 0.673265 0.250000 0.246165
O O15 0.695637 0.006604 0.168526
O O16 0.264330 0.250000 0.375387
O O17 0.268318 0.504009 0.449729
O O18 0.292053 0.250000 0.523460
#
# Coordination Sequence:
#
# PCOD9461994 Si02
#       7
#     8   8   8   8   8   8   8
#     4  10  20  32  47  73 106 140 171 201 249 311
#     4  10  20  34  52  75 103 135 172 215 258 306
#     4  10  18  32  53  75 101 134 171 213 256 307
#     4  11  21  34  51  74 103 137 175 213 257 309
#     4  10  19  32  51  75 102 135 175 215 255 302
#     4   8  16  30  50  74 100 131 168 207 252 305
#     4   9  16  30  50  72 101 134 166 203 253 305
#
# _framework density 17.313673000000001
#
# number of rings (size 3 to 8) (size 9 to 14) (size 15 to 20)
#    0.000    2.286    1.429    3.429    0.000    2.286 
#    0.000    0.000    0.000   11.143    0.000    0.000 
#    0.000    0.000    0.000    0.000    0.000    0.000 
#
# Total GULP energy -312428.127153 kJ/mol
# GULP energy per Si atom -5579.073699 kJ/mol
# Density = 1.727427 g / cm^3
# Si number density = 17.313673 Si / 1000 Ang^3
#
#
#
# Elastic Constant Matrix: (Units=GPa)
#
#
# Indices 1 2 3 4 5 6 
#
# 1 94.4038 -4.7426 70.2474 0.0000 0.0000 0.0000
# 2 -4.7426 13.7239 1.0763 0.0000 0.0000 0.0000
# 3 70.2474 1.0763 122.6843 0.0000 0.0000 0.0000
# 4 0.0000 0.0000 0.0000 17.2664 0.0000 0.0000
# 5 0.0000 0.0000 0.0000 0.0000 19.8139 0.0000
# 6 0.0000 0.0000 0.0000 0.0000 0.0000 23.0560
#
#
#
# Elastic Compliance Matrix: (Units=1/GPa)
#
#
# Indices 1 2 3 4 5 6 
#
# 1 0.019199 0.007502 -0.011059 0.000000 0.000000 0.000000
# 2 0.007502 0.075847 -0.004961 0.000000 0.000000 0.000000
# 3 -0.011059 -0.004961 0.014527 0.000000 0.000000 0.000000
# 4 0.000000 0.000000 0.000000 0.057916 0.000000 0.000000
# 5 0.000000 0.000000 0.000000 0.000000 0.050470 0.000000
# 6 0.000000 0.000000 0.000000 0.000000 0.000000 0.043373
#
#
# Mechanical properties :
#
#
# Convention : Reuss Voigt Hill
#
# Bulk Modulus (GPa) = 10.80653 40.44158 25.62405
# Shear Modulus (GPa) = 16.17017 22.97599 19.57308
#
# Velocity S-wave (km/s) = 3.05938 3.64681 3.36594
# Velocity P-wave (km/s) = 4.32838 6.41414 5.47157
#
# Compressibility (1/GPa) = 0.09253668
#
# Stress axis : x y z
#
# Youngs Moduli (GPa) = 52.08712 13.18445 68.83940
#
# Poissons Ratio (x) = -0.09891 0.76127
# Poissons Ratio (y) = -0.39075 0.34150
# Poissons Ratio (z) = 0.57601 0.06541
#
# Static dielectric constant tensor:
#      x y z
#    x 1.561400 0.000000 0.000000 
#    y 0.000000 1.604570 0.000000 
#    z 0.000000 0.000000 1.591260 
# 
# From -- ./inp_files/27577.got.cif
#   From: 2010.05.17/outbox.cif.g08.bks.cpg/sg62_14_cif.got.tgz:27577.got - 2010.06.03 15:25:27.
