data_PCOD9461534
_publ_section_title
;
Structure prediction by ZEFSAII (Michael W. Deem and Ramdas Pophale) SiO2 
 PCOD9461534
Probable space group: P N M A
;
_chemical_formula_sum "Si O2"
_cell_formula_units_Z 64
_cell_length_a 17.832218
_cell_length_b 15.253730
_cell_length_c 11.214075
_cell_angle_alpha 90.000000
_cell_angle_beta 90.000000
_cell_angle_gamma 90.000000
_cell_volume 3050.316303
_symmetry_space_group_name_H-M "P N M A"
_symmetry_group_IT_number 62
_symmetry_cell_setting 'orthorhombic'
loop_
_space_group_symop_operation_xyz
x,y,z
1/2-x,-y,1/2+z
1/2+x,1/2-y,1/2-z
-x,1/2+y,-z
-x,-y,-z
1/2+x,y,1/2-z
1/2-x,1/2+y,1/2+z
x,1/2-y,z
loop_
_atom_site_type_symbol
_atom_site_label
_atom_site_fract_x
_atom_site_fract_y
_atom_site_fract_z
Si Si1 0.158075 0.649521 0.813132
Si Si2 0.411686 0.473593 0.712046
Si Si3 0.103185 0.155393 0.652511
Si Si4 0.057812 0.100896 0.911513
Si Si5 0.563163 0.851968 0.064537
Si Si6 0.690487 0.979680 0.501134
Si Si7 0.977161 0.652754 0.820782
Si Si8 0.664624 0.534107 0.906638
O O1 0.176428 0.750000 0.790441
O O2 0.191041 0.614199 0.936658
O O3 0.067148 0.641510 0.815592
O O4 0.188556 0.587011 0.710074
O O5 0.479838 0.445784 0.623415
O O6 0.410296 0.403989 0.817534
O O7 0.336750 0.472907 0.634934
O O8 0.435006 0.573038 0.745257
O O9 0.139696 0.250000 0.628340
O O10 0.079008 0.153369 0.792181
O O11 0.026520 0.149678 0.576219
O O12 0.146262 0.066000 0.625561
O O13 0.125746 0.033763 0.931961
O O14 0.045910 0.147292 0.038855
O O15 0.588304 0.750000 0.057549
O O16 0.594704 0.910949 0.957850
O O17 0.768852 0.029590 0.502374
O O18 0.959121 0.750000 0.774663
#
# Coordination Sequence:
#
# PCOD9461534 Si02
#       8
#     8   8   8   8   8   8   8   8
#     4  11  22  40  64  92 122 164 207 253 308 369
#     4  10  19  37  63  95 125 154 209 260 309 356
#     4  10  21  39  66  93 124 162 210 260 311 371
#     4  10  17  38  62  92 124 158 210 256 306 356
#     4  10  23  42  66  91 118 165 213 257 309 379
#     4  11  22  38  64  87 124 170 200 256 312 367
#     4  10  18  32  61  96 126 157 201 252 308 360
#     4  12  25  41  62  88 134 166 208 246 322 377
#
# _framework density 20.98143
#
# number of rings (size 3 to 8) (size 9 to 14) (size 15 to 20)
#    0.000    1.500    3.750    2.625    1.750    1.500 
#    0.000    9.375    0.000    0.000    0.000    0.000 
#    0.000    0.000    0.000    0.000    0.000    0.000 
#
# Total GULP energy -357354.603577 kJ/mol
# GULP energy per Si atom -5583.665681 kJ/mol
# Density = 2.093368 g / cm^3
# Si number density = 20.981430 Si / 1000 Ang^3
#
#
#
# Elastic Constant Matrix: (Units=GPa)
#
#
# Indices 1 2 3 4 5 6 
#
# 1 37.7883 29.0527 14.1549 0.0000 0.0000 0.0000
# 2 29.0527 174.8318 29.0609 0.0000 0.0000 0.0000
# 3 14.1549 29.0609 39.4007 0.0000 0.0000 0.0000
# 4 0.0000 0.0000 0.0000 14.7851 0.0000 0.0000
# 5 0.0000 0.0000 0.0000 0.0000 13.8187 0.0000
# 6 0.0000 0.0000 0.0000 0.0000 0.0000 8.2688
#
#
#
# Elastic Compliance Matrix: (Units=1/GPa)
#
#
# Indices 1 2 3 4 5 6 
#
# 1 0.032846 -0.003985 -0.008861 0.000000 0.000000 0.000000
# 2 -0.003985 0.007003 -0.003733 0.000000 0.000000 0.000000
# 3 -0.008861 -0.003733 0.031317 0.000000 0.000000 0.000000
# 4 0.000000 0.000000 0.000000 0.067636 0.000000 0.000000
# 5 0.000000 0.000000 0.000000 0.000000 0.072366 0.000000
# 6 0.000000 0.000000 0.000000 0.000000 0.000000 0.120937
#
#
# Mechanical properties :
#
#
# Convention : Reuss Voigt Hill
#
# Bulk Modulus (GPa) = 26.31065 44.06200 35.18632
# Shear Modulus (GPa) = 13.22989 19.35799 16.29394
#
# Velocity S-wave (km/s) = 2.51380 3.04077 2.78976
# Velocity P-wave (km/s) = 4.58179 5.77706 5.21379
#
# Compressibility (1/GPa) = 0.03800742
#
# Stress axis : x y z
#
# Youngs Moduli (GPa) = 30.44472 142.80429 31.93155
#
# Poissons Ratio (x) = 0.56913 0.28294
# Poissons Ratio (y) = 0.12133 0.11921
# Poissons Ratio (z) = 0.26976 0.53311
#
# Static dielectric constant tensor:
#      x y z
#    x 1.741570 0.000000 0.000000 
#    y 0.000000 1.769350 0.000000 
#    z 0.000000 0.000000 1.789770 
# 
# From -- ./inp_files/14365.got.cif
#   From: 2010.05.17/outbox.cif.g08.bks.cpg/sg62_8_cif.got.tgz:14365.got - 2010.06.03 15:25:27.
