data_PCOD9461430
_publ_section_title
;
Structure prediction by ZEFSAII (Michael W. Deem and Ramdas Pophale) SiO2 
 PCOD9461430
Probable space group: P N M A
;
_chemical_formula_sum "Si O2"
_cell_formula_units_Z 64
_cell_length_a 24.001317
_cell_length_b 8.021335
_cell_length_c 19.903656
_cell_angle_alpha 90.000000
_cell_angle_beta 90.000000
_cell_angle_gamma 90.000000
_cell_volume 3831.903684
_symmetry_space_group_name_H-M "P N M A"
_symmetry_group_IT_number 62
_symmetry_cell_setting 'orthorhombic'
loop_
_space_group_symop_operation_xyz
x,y,z
1/2-x,-y,1/2+z
1/2+x,1/2-y,1/2-z
-x,1/2+y,-z
-x,-y,-z
1/2+x,y,1/2-z
1/2-x,1/2+y,1/2+z
x,1/2-y,z
loop_
_atom_site_type_symbol
_atom_site_label
_atom_site_fract_x
_atom_site_fract_y
_atom_site_fract_z
Si Si1 0.273371 0.953275 0.349864
Si Si2 0.564560 0.051817 0.136449
Si Si3 0.773637 0.450663 0.857862
Si Si4 0.251517 0.950737 0.496436
Si Si5 0.838134 0.451096 0.729050
Si Si6 0.124199 0.949514 0.500580
Si Si7 0.336781 0.951258 0.220245
Si Si8 0.438553 0.049571 0.133220
O O1 0.274462 0.750000 0.349744
O O2 0.278337 0.010489 0.426525
O O3 0.212629 0.001087 0.320600
O O4 0.318674 0.007671 0.294800
O O5 0.562183 0.250000 0.129016
O O6 0.501421 0.986762 0.142631
O O7 0.603921 0.011782 0.199424
O O8 0.593816 0.983360 0.069431
O O9 0.772921 0.250000 0.855702
O O10 0.781114 0.503865 0.934244
O O11 0.819389 0.507055 0.803334
O O12 0.713118 0.508041 0.829795
O O13 0.249288 0.750000 0.492670
O O14 0.187576 0.014221 0.499973
O O15 0.839309 0.250000 0.728778
O O16 0.128058 0.750000 0.508401
O O17 0.088952 0.015047 0.563839
O O18 0.336136 0.750000 0.219882
O O19 0.395796 0.008307 0.192570
O O20 0.441510 0.250000 0.128283
#
# Coordination Sequence:
#
# PCOD9461430 Si02
#       8
#     8   8   8   8   8   8   8   8
#     4   8  15  29  47  67  90 118 153 189 228 272
#     4  11  22  32  45  67  94 123 160 203 229 256
#     4   9  18  30  47  70  95 119 150 194 234 270
#     4  10  17  28  49  70  93 127 156 182 225 281
#     4   9  17  33  50  64  90 126 156 187 231 279
#     4  10  19  32  47  63  92 133 164 184 220 276
#     4   9  17  30  48  67  88 118 156 194 227 268
#     4  10  21  34  45  64  95 126 158 194 232 269
#
# _framework density 16.701882000000001
#
# number of rings (size 3 to 8) (size 9 to 14) (size 15 to 20)
#    0.000    2.500    2.500    2.250    0.000    2.500 
#    0.000    2.500    0.000    0.000    0.000    0.875 
#    0.000    0.000    0.000    0.000    0.000    0.000 
#
# Total GULP energy -356807.184300 kJ/mol
# GULP energy per Si atom -5575.112255 kJ/mol
# Density = 1.666387 g / cm^3
# Si number density = 16.701882 Si / 1000 Ang^3
#
#
#
# Elastic Constant Matrix: (Units=GPa)
#
#
# Indices 1 2 3 4 5 6 
#
# 1 77.0168 -3.0248 55.1910 0.0000 0.0000 0.0000
# 2 -3.0248 3.5690 -0.6571 0.0000 0.0000 0.0000
# 3 55.1910 -0.6571 147.7110 0.0000 0.0000 0.0000
# 4 0.0000 0.0000 0.0000 22.4054 0.0000 0.0000
# 5 0.0000 0.0000 0.0000 0.0000 19.5170 0.0000
# 6 0.0000 0.0000 0.0000 0.0000 0.0000 23.5386
#
#
#
# Elastic Compliance Matrix: (Units=1/GPa)
#
#
# Indices 1 2 3 4 5 6 
#
# 1 0.018440 0.014372 -0.006826 0.000000 0.000000 0.000000
# 2 0.014372 0.291621 -0.004073 0.000000 0.000000 0.000000
# 3 -0.006826 -0.004073 0.009302 0.000000 0.000000 0.000000
# 4 0.000000 0.000000 0.000000 0.044632 0.000000 0.000000
# 5 0.000000 0.000000 0.000000 0.000000 0.051238 0.000000
# 6 0.000000 0.000000 0.000000 0.000000 0.000000 0.042483
#
#
# Mechanical properties :
#
#
# Convention : Reuss Voigt Hill
#
# Bulk Modulus (GPa) = 3.06457 36.81277 19.93867
# Shear Modulus (GPa) = 8.93590 24.87804 16.90697
#
# Velocity S-wave (km/s) = 2.31557 3.86364 3.18509
# Velocity P-wave (km/s) = 2.99800 6.48016 5.04879
#
# Compressibility (1/GPa) = 0.32631028
#
# Stress axis : x y z
#
# Youngs Moduli (GPa) = 54.22904 3.42910 107.49922
#
# Poissons Ratio (x) = -0.04928 0.73380
# Poissons Ratio (y) = -0.77937 0.43779
# Poissons Ratio (z) = 0.37017 0.01397
#
# Static dielectric constant tensor:
#      x y z
#    x 1.551760 0.000000 0.000000 
#    y 0.000000 1.602630 0.000000 
#    z 0.000000 0.000000 1.576210 
# 
# From -- ./inp_files/27916.got.cif
#   From: 2010.05.17/outbox.cif.g08.bks.cpg/sg62_14_cif.got.tgz:27916.got - 2010.06.03 15:25:27.
