data_PCOD9461721
_publ_section_title
;
Structure prediction by ZEFSAII (Michael W. Deem and Ramdas Pophale) SiO2 
 PCOD9461721
Probable space group: P N M A
;
_chemical_formula_sum "Si O2"
_cell_formula_units_Z 56
_cell_length_a 19.440944
_cell_length_b 8.886361
_cell_length_c 17.832216
_cell_angle_alpha 90.000000
_cell_angle_beta 90.000000
_cell_angle_gamma 90.000000
_cell_volume 3080.680201
_symmetry_space_group_name_H-M "P N M A"
_symmetry_group_IT_number 62
_symmetry_cell_setting 'orthorhombic'
loop_
_space_group_symop_operation_xyz
x,y,z
1/2-x,-y,1/2+z
1/2+x,1/2-y,1/2-z
-x,1/2+y,-z
-x,-y,-z
1/2+x,y,1/2-z
1/2-x,1/2+y,1/2+z
x,1/2-y,z
loop_
_atom_site_type_symbol
_atom_site_label
_atom_site_fract_x
_atom_site_fract_y
_atom_site_fract_z
Si Si1 0.434066 0.426184 0.424128
Si Si2 0.917898 0.574852 0.916426
Si Si3 0.651356 0.420168 0.833257
Si Si4 0.802371 0.424770 0.181930
Si Si5 0.074647 0.432355 0.518011
Si Si6 0.714703 0.918319 0.435699
Si Si7 0.794871 0.428350 0.566492
O O1 0.440351 0.250000 0.448554
O O2 0.506746 0.460638 0.383901
O O3 0.426117 0.533631 0.495482
O O4 0.368008 0.439533 0.372742
O O5 0.902714 0.750000 0.905508
O O6 0.853046 0.475694 0.894043
O O7 0.631925 0.250000 0.810191
O O8 0.669308 0.517197 0.761137
O O9 0.597383 0.474478 0.896562
O O10 0.722154 0.412290 0.879500
O O11 0.783156 0.250000 0.187008
O O12 0.738669 0.512922 0.143985
O O13 0.074486 0.250000 0.514235
O O14 0.134302 0.493549 0.461850
O O15 0.000000 0.500000 0.500000
O O16 0.703562 0.750000 0.466990
O O17 0.738876 0.026302 0.502726
O O18 0.804394 0.250000 0.568718
#
# Coordination Sequence:
#
# PCOD9461721 Si02
#       7
#     8   8   8   8   8   8   8
#     4   9  19  32  47  72 108 142 175 218 267 319
#     4  10  18  29  49  76 102 137 180 220 263 319
#     4   9  21  38  56  79 111 147 185 231 284 338
#     4  11  21  35  55  80 112 149 186 232 284 339
#     4  10  21  40  64  89 116 150 194 245 293 344
#     4  10  19  34  53  76 107 141 179 228 276 324
#     4  11  21  34  57  85 111 144 187 233 282 342
#
# _framework density 18.177803999999998
#
# number of rings (size 3 to 8) (size 9 to 14) (size 15 to 20)
#    0.000    2.000    1.429    3.857    0.000    4.571 
#    0.000    1.429    0.000    6.857    0.000    0.000 
#    0.000    0.000    0.000    0.000    0.000    0.000 
#
# Total GULP energy -312119.203108 kJ/mol
# GULP energy per Si atom -5573.557198 kJ/mol
# Density = 1.813643 g / cm^3
# Si number density = 18.177804 Si / 1000 Ang^3
#
#
#
# Elastic Constant Matrix: (Units=GPa)
#
#
# Indices 1 2 3 4 5 6 
#
# 1 116.7076 41.8480 27.4879 0.0000 0.0000 0.0000
# 2 41.8480 90.7855 39.5079 0.0000 0.0000 0.0000
# 3 27.4879 39.5079 68.8397 0.0000 0.0000 0.0000
# 4 0.0000 0.0000 0.0000 24.8008 0.0000 0.0000
# 5 0.0000 0.0000 0.0000 0.0000 12.4625 0.0000
# 6 0.0000 0.0000 0.0000 0.0000 0.0000 29.7912
#
#
#
# Elastic Compliance Matrix: (Units=1/GPa)
#
#
# Indices 1 2 3 4 5 6 
#
# 1 0.010444 -0.003998 -0.001876 0.000000 0.000000 0.000000
# 2 -0.003998 0.016212 -0.007708 0.000000 0.000000 0.000000
# 3 -0.001876 -0.007708 0.019699 0.000000 0.000000 0.000000
# 4 0.000000 0.000000 0.000000 0.040321 0.000000 0.000000
# 5 0.000000 0.000000 0.000000 0.000000 0.080241 0.000000
# 6 0.000000 0.000000 0.000000 0.000000 0.000000 0.033567
#
#
# Mechanical properties :
#
#
# Convention : Reuss Voigt Hill
#
# Bulk Modulus (GPa) = 52.10543 54.89116 53.49830
# Shear Modulus (GPa) = 21.36345 24.57682 22.97013
#
# Velocity S-wave (km/s) = 3.43191 3.68098 3.55862
# Velocity P-wave (km/s) = 6.66562 6.95187 6.81025
#
# Compressibility (1/GPa) = 0.01919186
#
# Stress axis : x y z
#
# Youngs Moduli (GPa) = 95.75142 61.68233 50.76340
#
# Poissons Ratio (x) = 0.24659 0.09523
# Poissons Ratio (y) = 0.38279 0.39128
# Poissons Ratio (z) = 0.17962 0.47545
#
# Static dielectric constant tensor:
#      x y z
#    x 1.658770 0.000000 0.000000 
#    y 0.000000 1.634230 0.000000 
#    z 0.000000 0.000000 1.615990 
# 
# From -- ./inp_files/24640.got.cif
#   From: 2010.05.17/outbox.cif.g08.bks.cpg/sg62_13_cif.got.tgz:24640.got - 2010.06.03 15:25:27.
