data_PCOD9461005
_publ_section_title
;
Structure prediction by ZEFSAII (Michael W. Deem and Ramdas Pophale) SiO2 
 PCOD9461005
Probable space group: P B C A
;
_chemical_formula_sum "Si O2"
_cell_formula_units_Z 48
_cell_length_a 9.673789
_cell_length_b 14.120264
_cell_length_c 15.775807
_cell_angle_alpha 90.000000
_cell_angle_beta 90.000000
_cell_angle_gamma 90.000000
_cell_volume 2154.919304
_symmetry_space_group_name_H-M "P B C A"
_symmetry_group_IT_number 61
_symmetry_cell_setting 'orthorhombic'
loop_
_space_group_symop_operation_xyz
x,y,z
1/2-x,-y,1/2+z
1/2+x,1/2-y,-z
-x,1/2+y,1/2-z
-x,-y,-z
1/2+x,y,1/2-z
1/2-x,1/2+y,z
x,1/2-y,1/2+z
loop_
_atom_site_type_symbol
_atom_site_label
_atom_site_fract_x
_atom_site_fract_y
_atom_site_fract_z
Si Si1 0.723137 0.175632 0.907886
Si Si2 0.628448 0.383594 0.927468
Si Si3 0.337348 0.861017 0.904526
Si Si4 0.591170 0.516733 0.389696
Si Si5 0.962915 0.841445 0.119183
Si Si6 0.895652 0.031677 0.193659
O O1 0.666528 0.280070 0.892337
O O2 0.872091 0.158398 0.866181
O O3 0.611407 0.095773 0.885815
O O4 0.743140 0.167204 0.009820
O O5 0.769771 0.442877 0.931958
O O6 0.523335 0.433941 0.863958
O O7 0.566150 0.371633 0.021402
O O8 0.456817 0.935484 0.929601
O O9 0.405135 0.764429 0.870575
O O10 0.237254 0.912743 0.839723
O O11 0.585219 0.550510 0.292167
O O12 0.887408 0.919255 0.176427
#
# Coordination Sequence:
#
# PCOD9461005 Si02
#       6
#     8   8   8   8   8   8
#     4  11  23  44  72  97 126 175 228 270 319 387
#     4  11  23  44  71  94 131 176 220 273 324 384
#     4  11  25  43  67 103 127 168 227 275 316 388
#     4  12  25  41  66 100 136 170 215 268 334 394
#     4  11  23  45  72  95 128 175 226 271 323 384
#     4  12  25  42  68  98 137 176 210 269 339 390
#
# _framework density 22.274616999999999
#
# number of rings (size 3 to 8) (size 9 to 14) (size 15 to 20)
#    0.000    0.667    5.000    3.000    0.000    4.000 
#    0.000    0.000    0.000    0.000    0.000    0.000 
#    0.000    0.000    0.000    0.000    0.000    0.000 
#
# Total GULP energy -268771.558713 kJ/mol
# GULP energy per Si atom -5599.407473 kJ/mol
# Density = 2.222392 g / cm^3
# Si number density = 22.274617 Si / 1000 Ang^3
#
#
#
# Elastic Constant Matrix: (Units=GPa)
#
#
# Indices 1 2 3 4 5 6 
#
# 1 70.8844 11.5209 2.0545 0.0000 0.0000 0.0000
# 2 11.5209 131.3550 -1.4463 0.0000 0.0000 0.0000
# 3 2.0545 -1.4463 38.4160 0.0000 0.0000 0.0000
# 4 0.0000 0.0000 0.0000 3.3550 0.0000 0.0000
# 5 0.0000 0.0000 0.0000 0.0000 2.8151 0.0000
# 6 0.0000 0.0000 0.0000 0.0000 0.0000 34.9507
#
#
#
# Elastic Compliance Matrix: (Units=1/GPa)
#
#
# Indices 1 2 3 4 5 6 
#
# 1 0.014337 -0.001266 -0.000814 0.000000 0.000000 0.000000
# 2 -0.001266 0.007728 0.000359 0.000000 0.000000 0.000000
# 3 -0.000814 0.000359 0.026088 0.000000 0.000000 0.000000
# 4 0.000000 0.000000 0.000000 0.298060 0.000000 0.000000
# 5 0.000000 0.000000 0.000000 0.000000 0.355223 0.000000
# 6 0.000000 0.000000 0.000000 0.000000 0.000000 0.028612
#
#
# Mechanical properties :
#
#
# Convention : Reuss Voigt Hill
#
# Bulk Modulus (GPa) = 22.36713 29.43484 25.90098
# Shear Modulus (GPa) = 6.68096 23.45927 15.07012
#
# Velocity S-wave (km/s) = 1.73375 3.24880 2.60390
# Velocity P-wave (km/s) = 3.75116 5.22648 4.54903
#
# Compressibility (1/GPa) = 0.04470846
#
# Stress axis : x y z
#
# Youngs Moduli (GPa) = 69.75003 129.39989 38.33193
#
# Poissons Ratio (x) = 0.16388 0.03122
# Poissons Ratio (y) = 0.08833 -0.01375
# Poissons Ratio (z) = 0.05681 -0.04641
#
# Static dielectric constant tensor:
#      x y z
#    x 1.785120 0.000000 0.000000 
#    y 0.000000 1.811430 0.000000 
#    z 0.000000 0.000000 1.823880 
# 
# From -- ./inp_files/2845.got.cif
#   From: 2010.05.17/outbox.cif.g08.bks.cpg/sg61_2_cif.got.tgz:2845.got - 2010.06.03 15:17:17.
