data_PCOD9461352
_publ_section_title
;
Structure prediction by ZEFSAII (Michael W. Deem and Ramdas Pophale) SiO2 
 PCOD9461352
Probable space group: P N M A
;
_chemical_formula_sum "Si O2"
_cell_formula_units_Z 52
_cell_length_a 13.416052
_cell_length_b 21.344595
_cell_length_c 6.616153
_cell_angle_alpha 90.000000
_cell_angle_beta 90.000000
_cell_angle_gamma 90.000000
_cell_volume 1894.602873
_symmetry_space_group_name_H-M "P N M A"
_symmetry_group_IT_number 62
_symmetry_cell_setting 'orthorhombic'
loop_
_space_group_symop_operation_xyz
x,y,z
1/2-x,-y,1/2+z
1/2+x,1/2-y,1/2-z
-x,1/2+y,-z
-x,-y,-z
1/2+x,y,1/2-z
1/2-x,1/2+y,1/2+z
x,1/2-y,z
loop_
_atom_site_type_symbol
_atom_site_label
_atom_site_fract_x
_atom_site_fract_y
_atom_site_fract_z
Si Si1 0.237500 0.850319 0.940783
Si Si2 0.392062 0.750000 0.136970
Si Si3 0.083083 0.048187 0.066922
Si Si4 0.522873 0.640175 0.106112
Si Si5 0.984941 0.319569 0.134045
Si Si6 0.362520 0.537265 0.035128
Si Si7 0.785113 0.090838 0.480826
O O1 0.318061 0.804394 0.039130
O O2 0.126732 0.823673 0.952607
O O3 0.264892 0.918409 0.031316
O O4 0.248920 0.861998 0.697023
O O5 0.467879 0.695018 0.223647
O O6 0.114973 0.030455 0.294208
O O7 0.186050 0.056135 0.942950
O O8 0.038313 0.117566 0.065484
O O9 0.000000 0.000000 0.000000
O O10 0.521561 0.668610 0.877681
O O11 0.456013 0.577733 0.114028
O O12 0.639567 0.625113 0.131959
O O13 0.030182 0.250000 0.120097
O O14 0.349663 0.466591 0.112007
#
# Coordination Sequence:
#
# PCOD9461352 Si02
#       7
#     8   4   8   8   8   8   8
#     4   9  18  29  51  77 109 144 182 227 286 339
#     4  10  16  30  46  76 110 146 176 238 284 334
#     4  10  21  35  53  78 110 148 195 230 290 348
#     4   9  18  28  47  73 109 140 175 222 292 335
#     4  10  17  30  49  78 107 142 175 238 285 332
#     4   9  18  33  50  74 112 140 181 232 274 342
#     4  10  19  31  47  77 110 147 182 224 287 348
#
# _framework density 27.446386
#
# number of rings (size 3 to 8) (size 9 to 14) (size 15 to 20)
#    0.000    2.462    1.538    2.308    0.000    1.231 
#    1.385    0.000    0.000    0.000    4.000    0.000 
#    0.000    0.000    0.000    0.000    0.000    0.000 
#
# Total GULP energy -290379.479703 kJ/mol
# GULP energy per Si atom -5584.220764 kJ/mol
# Density = 2.738392 g / cm^3
# Si number density = 27.446386 Si / 1000 Ang^3
#
#
#
# Elastic Constant Matrix: (Units=GPa)
#
#
# Indices 1 2 3 4 5 6 
#
# 1 151.6021 45.9517 3.4843 0.0000 0.0000 0.0000
# 2 45.9517 183.0645 27.6798 0.0000 0.0000 0.0000
# 3 3.4843 27.6798 78.0160 0.0000 0.0000 0.0000
# 4 0.0000 0.0000 0.0000 38.0431 0.0000 0.0000
# 5 0.0000 0.0000 0.0000 0.0000 33.8350 0.0000
# 6 0.0000 0.0000 0.0000 0.0000 0.0000 58.3165
#
#
#
# Elastic Compliance Matrix: (Units=1/GPa)
#
#
# Indices 1 2 3 4 5 6 
#
# 1 0.007148 -0.001845 0.000335 0.000000 0.000000 0.000000
# 2 -0.001845 0.006248 -0.002135 0.000000 0.000000 0.000000
# 3 0.000335 -0.002135 0.013560 0.000000 0.000000 0.000000
# 4 0.000000 0.000000 0.000000 0.026286 0.000000 0.000000
# 5 0.000000 0.000000 0.000000 0.000000 0.029555 0.000000
# 6 0.000000 0.000000 0.000000 0.000000 0.000000 0.017148
#
#
# Mechanical properties :
#
#
# Convention : Reuss Voigt Hill
#
# Bulk Modulus (GPa) = 50.84351 62.99048 56.91699
# Shear Modulus (GPa) = 43.94079 48.41004 46.17542
#
# Velocity S-wave (km/s) = 4.00555 4.20432 4.10614
# Velocity P-wave (km/s) = 6.32119 6.82412 6.57747
#
# Compressibility (1/GPa) = 0.01966819
#
# Stress axis : x y z
#
# Youngs Moduli (GPa) = 139.90514 160.04127 73.74511
#
# Poissons Ratio (x) = 0.29526 -0.02473
# Poissons Ratio (y) = 0.25811 0.15741
# Poissons Ratio (z) = -0.04691 0.34161
#
# Static dielectric constant tensor:
#      x y z
#    x 2.165550 0.000000 0.000000 
#    y 0.000000 1.994330 0.000000 
#    z 0.000000 0.000000 2.386100 
# 
# From -- ./inp_files/13656.got.cif
#   From: 2010.05.17/outbox.cif.g08.bks.cpg/sg62_7_cif.got.tgz:13656.got - 2010.06.03 15:25:27.
