data_PCOD9461884
_publ_section_title
;
Structure prediction by ZEFSAII (Michael W. Deem and Ramdas Pophale) SiO2 
 PCOD9461884
Probable space group: P N M A
;
_chemical_formula_sum "Si O2"
_cell_formula_units_Z 48
_cell_length_a 15.688371
_cell_length_b 7.465405
_cell_length_c 20.153137
_cell_angle_alpha 90.000000
_cell_angle_beta 90.000000
_cell_angle_gamma 90.000000
_cell_volume 2360.336278
_symmetry_space_group_name_H-M "P N M A"
_symmetry_group_IT_number 62
_symmetry_cell_setting 'orthorhombic'
loop_
_space_group_symop_operation_xyz
x,y,z
1/2-x,-y,1/2+z
1/2+x,1/2-y,1/2-z
-x,1/2+y,-z
-x,-y,-z
1/2+x,y,1/2-z
1/2-x,1/2+y,1/2+z
x,1/2-y,z
loop_
_atom_site_type_symbol
_atom_site_label
_atom_site_fract_x
_atom_site_fract_y
_atom_site_fract_z
Si Si1 0.227432 0.031727 0.510882
Si Si2 0.912967 0.036277 0.962104
Si Si3 0.937532 0.536880 0.561811
Si Si4 0.384344 0.030760 0.687916
Si Si5 0.196158 0.031431 0.663380
Si Si6 0.514872 0.042981 0.797057
O O1 0.225879 0.250000 0.508780
O O2 0.325366 0.971697 0.503311
O O3 0.156367 0.970170 0.459053
O O4 0.199413 0.980401 0.585615
O O5 0.904211 0.250000 0.958359
O O6 0.912882 0.973342 0.885807
O O7 0.000000 0.000000 0.000000
O O8 0.933669 0.750000 0.570955
O O9 0.974427 0.460328 0.629658
O O10 0.000000 0.500000 0.500000
O O11 0.383823 0.250000 0.689272
O O12 0.285615 0.976183 0.695737
O O13 0.448701 0.965462 0.744135
O O14 0.193897 0.250000 0.663619
O O15 0.109743 0.964607 0.696960
O O16 0.526606 0.250000 0.777260
#
# Coordination Sequence:
#
# PCOD9461884 Si02
#       6
#     8   8   8   8   8   8
#     4   8  15  29  49  68  94 132 163 189 241 309
#     4   9  17  33  54  74  96 129 169 205 243 296
#     4  11  20  32  51  76 102 131 167 207 251 303
#     4   8  16  30  49  72  97 129 168 200 237 298
#     4   8  13  26  48  68  91 128 164 191 236 296
#     4  10  18  31  51  74  99 130 167 210 251 293
#
# _framework density 20.336086999999999
#
# number of rings (size 3 to 8) (size 9 to 14) (size 15 to 20)
#    0.000    3.000    1.667    2.500    0.000    0.000 
#    3.000    2.500    0.000    1.000    0.000    0.000 
#    0.000    0.000    0.000    0.000    0.000    0.000 
#
# Total GULP energy -267684.493168 kJ/mol
# GULP energy per Si atom -5576.760274 kJ/mol
# Density = 2.028980 g / cm^3
# Si number density = 20.336087 Si / 1000 Ang^3
#
#
#
# Elastic Constant Matrix: (Units=GPa)
#
#
# Indices 1 2 3 4 5 6 
#
# 1 232.5251 -0.2900 96.8747 0.0000 0.0000 0.0000
# 2 -0.2900 58.4811 -6.3247 0.0000 0.0000 0.0000
# 3 96.8747 -6.3247 82.2011 0.0000 0.0000 0.0000
# 4 0.0000 0.0000 0.0000 11.1427 0.0000 0.0000
# 5 0.0000 0.0000 0.0000 0.0000 39.1158 0.0000
# 6 0.0000 0.0000 0.0000 0.0000 0.0000 11.0053
#
#
#
# Elastic Compliance Matrix: (Units=1/GPa)
#
#
# Indices 1 2 3 4 5 6 
#
# 1 0.008513 -0.001052 -0.010113 0.000000 0.000000 0.000000
# 2 -0.001052 0.017373 0.002576 0.000000 0.000000 0.000000
# 3 -0.010113 0.002576 0.024282 0.000000 0.000000 0.000000
# 4 0.000000 0.000000 0.000000 0.089745 0.000000 0.000000
# 5 0.000000 0.000000 0.000000 0.000000 0.025565 0.000000
# 6 0.000000 0.000000 0.000000 0.000000 0.000000 0.090865
#
#
# Mechanical properties :
#
#
# Convention : Reuss Voigt Hill
#
# Bulk Modulus (GPa) = 30.31218 61.52525 45.91872
# Shear Modulus (GPa) = 17.57364 31.11591 24.34478
#
# Velocity S-wave (km/s) = 2.94285 3.91587 3.46370
# Velocity P-wave (km/s) = 5.14637 7.12498 6.21492
#
# Compressibility (1/GPa) = 0.03299004
#
# Stress axis : x y z
#
# Youngs Moduli (GPa) = 117.47249 57.56085 41.18294
#
# Poissons Ratio (x) = 0.06053 0.41649
# Poissons Ratio (y) = 0.12352 -0.10608
# Poissons Ratio (z) = 1.18801 -0.14827
#
# Static dielectric constant tensor:
#      x y z
#    x 1.755140 0.000000 0.000000 
#    y 0.000000 1.894910 0.000000 
#    z 0.000000 0.000000 1.695760 
# 
# From -- ./inp_files/26862.got.cif
#   From: 2010.05.17/outbox.cif.g08.bks.cpg/sg62_14_cif.got.tgz:26862.got - 2010.06.03 15:25:27.
