data_PCOD9461920
_publ_section_title
;
Structure prediction by ZEFSAII (Michael W. Deem and Ramdas Pophale) SiO2 
 PCOD9461920
Probable space group: P N M A
;
_chemical_formula_sum "Si O2"
_cell_formula_units_Z 48
_cell_length_a 8.272035
_cell_length_b 10.497071
_cell_length_c 29.604652
_cell_angle_alpha 90.000000
_cell_angle_beta 90.000000
_cell_angle_gamma 90.000000
_cell_volume 2570.635249
_symmetry_space_group_name_H-M "P N M A"
_symmetry_group_IT_number 62
_symmetry_cell_setting 'orthorhombic'
loop_
_space_group_symop_operation_xyz
x,y,z
1/2-x,-y,1/2+z
1/2+x,1/2-y,1/2-z
-x,1/2+y,-z
-x,-y,-z
1/2+x,y,1/2-z
1/2-x,1/2+y,1/2+z
x,1/2-y,z
loop_
_atom_site_type_symbol
_atom_site_label
_atom_site_fract_x
_atom_site_fract_y
_atom_site_fract_z
Si Si1 0.537566 0.597657 0.540194
Si Si2 0.281102 0.886668 0.180085
Si Si3 0.223290 0.395605 0.308084
Si Si4 0.276736 0.099822 0.104039
Si Si5 0.004822 0.527466 0.244081
Si Si6 0.867328 0.902847 0.590767
O O1 0.500000 0.500000 0.500000
O O2 0.546284 0.750000 0.527864
O O3 0.386918 0.586894 0.575115
O O4 0.710536 0.557508 0.562051
O O5 0.280917 0.750000 0.156132
O O6 0.432980 0.897090 0.213571
O O7 0.132311 0.897174 0.214547
O O8 0.270395 0.005868 0.146615
O O9 0.276293 0.250000 0.313166
O O10 0.089208 0.408181 0.269060
O O11 0.367182 0.481115 0.289645
O O12 0.159800 0.439799 0.356825
O O13 0.289588 0.250000 0.117353
O O14 0.446369 0.064627 0.078683
O O15 0.861026 0.750000 0.589143
#
# Coordination Sequence:
#
# PCOD9461920 Si02
#       6
#     8   8   8   8   8   8
#     4  10  22  40  63  88 116 145 181 230 291 356
#     4  11  22  37  54  78 115 158 197 237 285 336
#     4  10  18  31  52  82 113 147 194 242 284 327
#     4  10  21  39  62  86 114 149 190 238 290 341
#     4  10  21  32  50  77 113 156 198 238 282 332
#     4   9  18  35  57  83 117 150 182 232 289 337
#
# _framework density 18.672428
#
# number of rings (size 3 to 8) (size 9 to 14) (size 15 to 20)
#    0.000    2.000    1.667    2.000    0.000    6.000 
#    0.000    0.833    0.000    0.000    0.000    0.000 
#    0.000    0.000    0.000    0.000    0.000    0.000 
#
# Total GULP energy -267348.134217 kJ/mol
# GULP energy per Si atom -5569.752796 kJ/mol
# Density = 1.862993 g / cm^3
# Si number density = 18.672428 Si / 1000 Ang^3
#
#
#
# Elastic Constant Matrix: (Units=GPa)
#
#
# Indices 1 2 3 4 5 6 
#
# 1 97.9174 31.3049 30.4586 0.0000 0.0000 0.0000
# 2 31.3049 88.4901 41.4525 0.0000 0.0000 0.0000
# 3 30.4586 41.4525 54.0586 0.0000 0.0000 0.0000
# 4 0.0000 0.0000 0.0000 24.3269 0.0000 0.0000
# 5 0.0000 0.0000 0.0000 0.0000 25.0197 0.0000
# 6 0.0000 0.0000 0.0000 0.0000 0.0000 2.2264
#
#
#
# Elastic Compliance Matrix: (Units=1/GPa)
#
#
# Indices 1 2 3 4 5 6 
#
# 1 0.012556 -0.001760 -0.005725 0.000000 0.000000 0.000000
# 2 -0.001760 0.017882 -0.012720 0.000000 0.000000 0.000000
# 3 -0.005725 -0.012720 0.031478 0.000000 0.000000 0.000000
# 4 0.000000 0.000000 0.000000 0.041107 0.000000 0.000000
# 5 0.000000 0.000000 0.000000 0.000000 0.039969 0.000000
# 6 0.000000 0.000000 0.000000 0.000000 0.000000 0.449162
#
#
# Mechanical properties :
#
#
# Convention : Reuss Voigt Hill
#
# Bulk Modulus (GPa) = 46.49968 49.65535 48.07752
# Shear Modulus (GPa) = 7.81575 19.46458 13.64017
#
# Velocity S-wave (km/s) = 2.04812 3.23216 2.70570
# Velocity P-wave (km/s) = 5.52720 6.37022 5.96363
#
# Compressibility (1/GPa) = 0.02150553
#
# Stress axis : x y z
#
# Youngs Moduli (GPa) = 79.64155 55.92154 31.76804
#
# Poissons Ratio (x) = 0.09843 0.18187
# Poissons Ratio (y) = 0.14018 0.40410
# Poissons Ratio (z) = 0.45594 0.71135
#
# Static dielectric constant tensor:
#      x y z
#    x 1.714980 0.000000 0.000000 
#    y 0.000000 1.654350 0.000000 
#    z 0.000000 0.000000 1.617070 
# 
# From -- ./inp_files/31998.got.cif
#   From: 2010.05.17/outbox.cif.g08.bks.cpg/sg62_16_cif.got.tgz:31998.got - 2010.06.03 15:25:27.
