data_PCOD9461103
_publ_section_title
;
Structure prediction by ZEFSAII (Michael W. Deem and Ramdas Pophale) SiO2 
 PCOD9461103
Probable space group: P B C A
;
_chemical_formula_sum "Si O2"
_cell_formula_units_Z 64
_cell_length_a 28.674947
_cell_length_b 11.434062
_cell_length_c 8.418319
_cell_angle_alpha 90.000000
_cell_angle_beta 90.000000
_cell_angle_gamma 90.000000
_cell_volume 2760.123695
_symmetry_space_group_name_H-M "P B C A"
_symmetry_group_IT_number 61
_symmetry_cell_setting 'orthorhombic'
loop_
_space_group_symop_operation_xyz
x,y,z
1/2-x,-y,1/2+z
1/2+x,1/2-y,-z
-x,1/2+y,1/2-z
-x,-y,-z
1/2+x,y,1/2-z
1/2-x,1/2+y,z
x,1/2-y,1/2+z
loop_
_atom_site_type_symbol
_atom_site_label
_atom_site_fract_x
_atom_site_fract_y
_atom_site_fract_z
Si Si1 0.136594 0.387455 0.292217
Si Si2 0.887599 0.636928 0.341668
Si Si3 0.814413 0.480252 0.154206
Si Si4 0.466722 0.992594 0.753850
Si Si5 0.281581 0.490510 0.693265
Si Si6 0.088086 0.808862 0.060067
Si Si7 0.563270 0.543027 0.387523
Si Si8 0.342021 0.271469 0.802030
O O1 0.128378 0.263729 0.210668
O O2 0.119825 0.388526 0.473326
O O3 0.191170 0.415506 0.299461
O O4 0.109730 0.481349 0.179360
O O5 0.942760 0.623617 0.312358
O O6 0.859253 0.545393 0.229019
O O7 0.796006 0.525755 0.985115
O O8 0.773000 0.500758 0.278970
O O9 0.821849 0.343118 0.112589
O O10 0.444644 0.095291 0.643634
O O11 0.522146 0.988534 0.764434
O O12 0.449885 0.997502 0.936978
O O13 0.304282 0.368009 0.754521
O O14 0.065392 0.681511 0.077933
O O15 0.136704 0.796119 0.152207
O O16 0.110890 0.823217 0.886139
#
# Coordination Sequence:
#
# PCOD9461103 Si02
#       8
#     8   8   8   8   8   8   8   8
#     4  12  26  47  70  98 141 185 230 286 353 416
#     4  12  26  47  70  98 140 184 228 286 351 417
#     4  12  27  46  72 105 141 182 235 289 353 421
#     4  11  25  44  71 103 144 182 234 292 353 421
#     4  12  27  45  72 105 140 181 233 289 349 424
#     4  12  22  45  73 102 136 188 238 291 352 419
#     4  11  25  45  69 105 141 183 234 292 352 421
#     4  12  24  45  75 100 139 184 234 293 347 419
#
# _framework density 23.187366000000001
#
# number of rings (size 3 to 8) (size 9 to 14) (size 15 to 20)
#    0.000    0.250    5.000    3.750    5.250    0.500 
#    0.000    0.000    0.000    0.000    0.000    0.000 
#    0.000    0.000    0.000    0.000    0.000    0.000 
#
# Total GULP energy -357514.218769 kJ/mol
# GULP energy per Si atom -5586.159668 kJ/mol
# Density = 2.313459 g / cm^3
# Si number density = 23.187366 Si / 1000 Ang^3
#
#
#
# Elastic Constant Matrix: (Units=GPa)
#
#
# Indices 1 2 3 4 5 6 
#
# 1 76.1950 -3.2493 -4.4714 0.0000 0.0000 0.0000
# 2 -3.2493 99.2330 -8.6755 0.0000 0.0000 0.0000
# 3 -4.4714 -8.6755 84.3609 0.0000 0.0000 0.0000
# 4 0.0000 0.0000 0.0000 24.1437 0.0000 0.0000
# 5 0.0000 0.0000 0.0000 0.0000 26.0833 0.0000
# 6 0.0000 0.0000 0.0000 0.0000 0.0000 19.1174
#
#
#
# Elastic Compliance Matrix: (Units=1/GPa)
#
#
# Indices 1 2 3 4 5 6 
#
# 1 0.013189 0.000497 0.000750 0.000000 0.000000 0.000000
# 2 0.000497 0.010187 0.001074 0.000000 0.000000 0.000000
# 3 0.000750 0.001074 0.012004 0.000000 0.000000 0.000000
# 4 0.000000 0.000000 0.000000 0.041419 0.000000 0.000000
# 5 0.000000 0.000000 0.000000 0.000000 0.038339 0.000000
# 6 0.000000 0.000000 0.000000 0.000000 0.000000 0.052308
#
#
# Mechanical properties :
#
#
# Convention : Reuss Voigt Hill
#
# Bulk Modulus (GPa) = 24.98470 25.22182 25.10326
# Shear Modulus (GPa) = 28.38575 32.28122 30.33349
#
# Velocity S-wave (km/s) = 3.50264 3.73525 3.62082
# Velocity P-wave (km/s) = 5.21119 5.43174 5.32261
#
# Compressibility (1/GPa) = 0.04002449
#
# Stress axis : x y z
#
# Youngs Moduli (GPa) = 75.81813 98.15968 83.30521
#
# Poissons Ratio (x) = -0.04883 -0.06250
# Poissons Ratio (y) = -0.03772 -0.08947
# Poissons Ratio (z) = -0.05688 -0.10543
#
# Static dielectric constant tensor:
#      x y z
#    x 1.853400 0.000000 0.000000 
#    y 0.000000 1.893350 0.000000 
#    z 0.000000 0.000000 1.974460 
# 
# From -- ./inp_files/4636.got.cif
#   From: 2010.05.17/outbox.cif.g08.bks.cpg/sg61_3_cif.got.tgz:4636.got - 2010.06.03 15:17:17.
