data_PCOD9461667
_publ_section_title
;
Structure prediction by ZEFSAII (Michael W. Deem and Ramdas Pophale) SiO2 
 PCOD9461667
Probable space group: P N M A
;
_chemical_formula_sum "Si O2"
_cell_formula_units_Z 56
_cell_length_a 30.385797
_cell_length_b 8.449145
_cell_length_c 14.171147
_cell_angle_alpha 90.000000
_cell_angle_beta 90.000000
_cell_angle_gamma 90.000000
_cell_volume 3638.215322
_symmetry_space_group_name_H-M "P N M A"
_symmetry_group_IT_number 62
_symmetry_cell_setting 'orthorhombic'
loop_
_space_group_symop_operation_xyz
x,y,z
1/2-x,-y,1/2+z
1/2+x,1/2-y,1/2-z
-x,1/2+y,-z
-x,-y,-z
1/2+x,y,1/2-z
1/2-x,1/2+y,1/2+z
x,1/2-y,z
loop_
_atom_site_type_symbol
_atom_site_label
_atom_site_fract_x
_atom_site_fract_y
_atom_site_fract_z
Si Si1 0.905663 0.557146 0.388904
Si Si2 0.683098 0.939745 0.203999
Si Si3 0.770608 0.057479 0.892219
Si Si4 0.997934 0.060276 0.607775
Si Si5 0.770628 0.439767 0.104834
Si Si6 0.904671 0.560833 0.608717
Si Si7 0.182036 0.058732 0.713628
O O1 0.904674 0.750000 0.389726
O O2 0.900844 0.507194 0.498675
O O3 0.864550 0.502317 0.326958
O O4 0.954283 0.511235 0.352234
O O5 0.685046 0.750000 0.201120
O O6 0.695299 0.991573 0.310752
O O7 0.722305 0.005157 0.138374
O O8 0.636143 0.996239 0.167545
O O9 0.770820 0.250000 0.894203
O O10 0.722147 0.009627 0.855333
O O11 0.779228 0.002763 0.998330
O O12 0.995644 0.250000 0.608600
O O13 0.952308 0.993193 0.646847
O O14 0.000000 0.000000 0.500000
O O15 0.771396 0.250000 0.105409
O O16 0.804885 0.501400 0.182540
O O17 0.903249 0.750000 0.608217
O O18 0.181666 0.250000 0.714609
#
# Coordination Sequence:
#
# PCOD9461667 Si02
#       7
#     8   8   8   8   8   8   8
#     4   8  15  27  44  62  87 119 145 166 205 258
#     4  10  19  31  45  63  84 113 147 176 207 254
#     4   8  16  29  44  59  84 117 143 167 209 259
#     4   9  16  27  42  63  88 117 147 176 210 255
#     4  10  18  30  45  63  86 113 142 177 214 251
#     4  10  18  29  44  64  88 116 144 177 216 255
#     4   9  16  29  45  62  83 113 146 173 202 248
#
# _framework density 15.392162000000001
#
# number of rings (size 3 to 8) (size 9 to 14) (size 15 to 20)
#    0.000    2.857    0.000    4.286    0.000    2.286 
#    0.000   14.286    0.000    0.000    0.000    1.000 
#    0.000    0.000    0.000    0.000    0.000    0.000 
#
# Total GULP energy -311869.409740 kJ/mol
# GULP energy per Si atom -5569.096602 kJ/mol
# Density = 1.535713 g / cm^3
# Si number density = 15.392162 Si / 1000 Ang^3
#
#
#
# Elastic Constant Matrix: (Units=GPa)
#
#
# Indices 1 2 3 4 5 6 
#
# 1 150.8919 16.9358 66.6451 0.0000 0.0000 0.0000
# 2 16.9358 22.3723 11.4353 0.0000 0.0000 0.0000
# 3 66.6451 11.4353 101.7872 0.0000 0.0000 0.0000
# 4 0.0000 0.0000 0.0000 18.8372 0.0000 0.0000
# 5 0.0000 0.0000 0.0000 0.0000 24.1213 0.0000
# 6 0.0000 0.0000 0.0000 0.0000 0.0000 20.6494
#
#
#
# Elastic Compliance Matrix: (Units=1/GPa)
#
#
# Indices 1 2 3 4 5 6 
#
# 1 0.009707 -0.004349 -0.005867 0.000000 0.000000 0.000000
# 2 -0.004349 0.049370 -0.002699 0.000000 0.000000 0.000000
# 3 -0.005867 -0.002699 0.013969 0.000000 0.000000 0.000000
# 4 0.000000 0.000000 0.000000 0.053086 0.000000 0.000000
# 5 0.000000 0.000000 0.000000 0.000000 0.041457 0.000000
# 6 0.000000 0.000000 0.000000 0.000000 0.000000 0.048428
#
#
# Mechanical properties :
#
#
# Convention : Reuss Voigt Hill
#
# Bulk Modulus (GPa) = 21.17932 51.67596 36.42764
# Shear Modulus (GPa) = 19.41109 24.72394 22.06752
#
# Velocity S-wave (km/s) = 3.55505 4.01218 3.79051
# Velocity P-wave (km/s) = 5.53542 7.42356 6.54790
#
# Compressibility (1/GPa) = 0.04721587
#
# Stress axis : x y z
#
# Youngs Moduli (GPa) = 103.02258 20.25522 71.58765
#
# Poissons Ratio (x) = 0.08809 0.41999
# Poissons Ratio (y) = 0.44806 0.19321
# Poissons Ratio (z) = 0.60441 0.05467
#
# Static dielectric constant tensor:
#      x y z
#    x 1.525300 0.000000 0.000000 
#    y 0.000000 1.529960 0.000000 
#    z 0.000000 0.000000 1.504000 
# 
# From -- ./inp_files/21173.got.cif
#   From: 2010.05.17/outbox.cif.g08.bks.cpg/sg62_11_cif.got.tgz:21173.got - 2010.06.03 15:25:27.
