data_PCOD9461344
_publ_section_title
;
Structure prediction by ZEFSAII (Michael W. Deem and Ramdas Pophale) SiO2 
 PCOD9461344
Probable space group: P N M A
;
_chemical_formula_sum "Si O2"
_cell_formula_units_Z 64
_cell_length_a 9.326360
_cell_length_b 19.512975
_cell_length_c 18.272984
_cell_angle_alpha 90.000000
_cell_angle_beta 90.000000
_cell_angle_gamma 90.000000
_cell_volume 3325.409533
_symmetry_space_group_name_H-M "P N M A"
_symmetry_group_IT_number 62
_symmetry_cell_setting 'orthorhombic'
loop_
_space_group_symop_operation_xyz
x,y,z
1/2-x,-y,1/2+z
1/2+x,1/2-y,1/2-z
-x,1/2+y,-z
-x,-y,-z
1/2+x,y,1/2-z
1/2-x,1/2+y,1/2+z
x,1/2-y,z
loop_
_atom_site_type_symbol
_atom_site_label
_atom_site_fract_x
_atom_site_fract_y
_atom_site_fract_z
Si Si1 0.425770 0.420372 0.127216
Si Si2 0.179640 0.526019 0.124548
Si Si3 0.365352 0.100383 0.762278
Si Si4 0.785706 0.981817 0.622047
Si Si5 0.023059 0.913001 0.801060
Si Si6 0.661865 0.169788 0.403653
Si Si7 0.926314 0.584797 0.043902
Si Si8 0.389089 0.672373 0.313794
O O1 0.323138 0.484964 0.109774
O O2 0.579807 0.438280 0.092771
O O3 0.453857 0.413636 0.214415
O O4 0.326292 0.355835 0.105801
O O5 0.204373 0.585604 0.182829
O O6 0.077165 0.475485 0.171924
O O7 0.081538 0.550405 0.057458
O O8 0.524501 0.122472 0.740916
O O9 0.278011 0.161986 0.798247
O O10 0.344180 0.036038 0.816689
O O11 0.674702 0.929743 0.660805
O O12 0.696140 0.029902 0.566655
O O13 0.935444 0.848170 0.832503
O O14 0.654864 0.250000 0.420778
O O15 0.597395 0.120304 0.466562
O O16 0.917456 0.643767 0.105418
O O17 0.435363 0.750000 0.305465
#
# Coordination Sequence:
#
# PCOD9461344 Si02
#       8
#     8   8   8   8   8   8   8   8
#     4  11  19  34  61  90 116 137 180 251 306 338
#     4   9  17  31  58  86 113 144 182 230 294 343
#     4  10  16  28  49  77 109 142 176 227 282 322
#     4  10  18  32  58  89 114 139 181 239 309 333
#     4  10  19  35  60  85 113 142 184 244 294 345
#     4  11  25  42  58  77 114 163 200 227 273 349
#     4   9  21  37  55  79 112 157 190 226 273 349
#     4  10  19  29  47  75 112 150 189 219 259 328
#
# _framework density 19.245750000000001
#
# number of rings (size 3 to 8) (size 9 to 14) (size 15 to 20)
#    0.000    2.000    2.500    3.000    0.000    5.500 
#    0.000    0.625    0.000    0.000    0.000    3.500 
#    0.000    0.000    0.000    0.000    0.000    0.000 
#
# Total GULP energy -356869.937719 kJ/mol
# GULP energy per Si atom -5576.092777 kJ/mol
# Density = 1.920195 g / cm^3
# Si number density = 19.245750 Si / 1000 Ang^3
#
#
#
# Elastic Constant Matrix: (Units=GPa)
#
#
# Indices 1 2 3 4 5 6 
#
# 1 80.6848 20.7098 8.7590 0.0000 0.0000 0.0000
# 2 20.7098 75.6810 28.0319 0.0000 0.0000 0.0000
# 3 8.7590 28.0319 49.9595 0.0000 0.0000 0.0000
# 4 0.0000 0.0000 0.0000 14.4672 0.0000 0.0000
# 5 0.0000 0.0000 0.0000 0.0000 19.0010 0.0000
# 6 0.0000 0.0000 0.0000 0.0000 0.0000 20.3751
#
#
#
# Elastic Compliance Matrix: (Units=1/GPa)
#
#
# Indices 1 2 3 4 5 6 
#
# 1 0.013336 -0.003513 -0.000367 0.000000 0.000000 0.000000
# 2 -0.003513 0.017606 -0.009262 0.000000 0.000000 0.000000
# 3 -0.000367 -0.009262 0.025278 0.000000 0.000000 0.000000
# 4 0.000000 0.000000 0.000000 0.069122 0.000000 0.000000
# 5 0.000000 0.000000 0.000000 0.000000 0.052629 0.000000
# 6 0.000000 0.000000 0.000000 0.000000 0.000000 0.049080
#
#
# Mechanical properties :
#
#
# Convention : Reuss Voigt Hill
#
# Bulk Modulus (GPa) = 33.40712 35.70298 34.55505
# Shear Modulus (GPa) = 18.98891 20.69030 19.83960
#
# Velocity S-wave (km/s) = 3.14451 3.28236 3.21418
# Velocity P-wave (km/s) = 5.52990 5.74078 5.63633
#
# Compressibility (1/GPa) = 0.02993374
#
# Stress axis : x y z
#
# Youngs Moduli (GPa) = 74.98775 56.80035 39.56078
#
# Poissons Ratio (x) = 0.19956 0.01451
# Poissons Ratio (y) = 0.26346 0.36643
# Poissons Ratio (z) = 0.02750 0.52611
#
# Static dielectric constant tensor:
#      x y z
#    x 1.688260 0.000000 0.000000 
#    y 0.000000 1.690040 0.000000 
#    z 0.000000 0.000000 1.704150 
# 
# From -- ./inp_files/22544.got.cif
#   From: 2010.05.17/outbox.cif.g08.bks.cpg/sg62_12_cif.got.tgz:22544.got - 2010.06.03 15:25:27.
