data_PCOD9461389
_publ_section_title
;
Structure prediction by ZEFSAII (Michael W. Deem and Ramdas Pophale) SiO2 
 PCOD9461389
Probable space group: P N M A
;
_chemical_formula_sum "Si O2"
_cell_formula_units_Z 64
_cell_length_a 15.430006
_cell_length_b 14.785521
_cell_length_c 11.504395
_cell_angle_alpha 90.000000
_cell_angle_beta 90.000000
_cell_angle_gamma 90.000000
_cell_volume 2624.620472
_symmetry_space_group_name_H-M "P N M A"
_symmetry_group_IT_number 62
_symmetry_cell_setting 'orthorhombic'
loop_
_space_group_symop_operation_xyz
x,y,z
1/2-x,-y,1/2+z
1/2+x,1/2-y,1/2-z
-x,1/2+y,-z
-x,-y,-z
1/2+x,y,1/2-z
1/2-x,1/2+y,1/2+z
x,1/2-y,z
loop_
_atom_site_type_symbol
_atom_site_label
_atom_site_fract_x
_atom_site_fract_y
_atom_site_fract_z
Si Si1 0.308636 0.457396 0.598310
Si Si2 0.402803 0.377011 0.027019
Si Si3 0.164021 0.460340 0.793494
Si Si4 0.800819 0.648336 0.975142
Si Si5 0.637810 0.426076 0.034179
Si Si6 0.397475 0.357934 0.410279
Si Si7 0.536911 0.345484 0.840649
Si Si8 0.959606 0.849942 0.731172
O O1 0.247705 0.443825 0.710708
O O2 0.333038 0.563092 0.600460
O O3 0.236891 0.439378 0.496716
O O4 0.384564 0.394436 0.543855
O O5 0.303559 0.349495 0.040472
O O6 0.404913 0.484517 0.017933
O O7 0.443966 0.350028 0.902868
O O8 0.461140 0.348770 0.135828
O O9 0.179106 0.391382 0.898450
O O10 0.149469 0.565184 0.828780
O O11 0.073670 0.426064 0.736594
O O12 0.833080 0.750000 0.958826
O O13 0.608291 0.414351 0.165492
O O14 0.600200 0.347505 0.953524
O O15 0.371762 0.250000 0.402294
O O16 0.493828 0.363287 0.354896
O O17 0.545391 0.250000 0.777778
O O18 0.919624 0.750000 0.729758
#
# Coordination Sequence:
#
# PCOD9461389 Si02
#       8
#     8   8   8   8   8   8   8   8
#     4   9  20  33  48  70  98 126 157 193 236 281
#     4  10  17  27  44  68  97 124 153 191 232 279
#     4  10  20  34  48  70  99 127 157 195 238 284
#     4  10  19  31  47  70  97 127 160 192 231 281
#     4   9  16  27  43  65  94 124 150 188 238 285
#     4  10  20  32  48  70  96 127 162 194 233 283
#     4  10  17  26  44  69  96 125 152 188 240 289
#     4  10  17  26  43  68  94 120 151 189 231 278
#
# _framework density 24.384478000000001
#
# number of rings (size 3 to 8) (size 9 to 14) (size 15 to 20)
#    0.000    2.250    0.000    7.125    0.000    4.500 
#    0.000    0.000    0.000    0.000    0.000   23.625 
#    0.000   20.000    0.000    0.000    0.000    0.000 
#
# Total GULP energy -356569.586368 kJ/mol
# GULP energy per Si atom -5571.399787 kJ/mol
# Density = 2.432898 g / cm^3
# Si number density = 24.384478 Si / 1000 Ang^3
#
#
#
# Elastic Constant Matrix: (Units=GPa)
#
#
# Indices 1 2 3 4 5 6 
#
# 1 48.2494 10.6333 17.2366 0.0000 0.0000 0.0000
# 2 10.6333 169.6476 29.0196 0.0000 0.0000 0.0000
# 3 17.2366 29.0196 72.6335 0.0000 0.0000 0.0000
# 4 0.0000 0.0000 0.0000 -0.9394 0.0000 0.0000
# 5 0.0000 0.0000 0.0000 0.0000 44.6164 0.0000
# 6 0.0000 0.0000 0.0000 0.0000 0.0000 6.4970
#
#
#
# Elastic Compliance Matrix: (Units=1/GPa)
#
#
# Indices 1 2 3 4 5 6 
#
# 1 0.022691 -0.000538 -0.005170 0.000000 0.000000 0.000000
# 2 -0.000538 0.006340 -0.002405 0.000000 0.000000 0.000000
# 3 -0.005170 -0.002405 0.015956 0.000000 0.000000 0.000000
# 4 0.000000 0.000000 0.000000 -1.064543 0.000000 0.000000
# 5 0.000000 0.000000 0.000000 0.000000 0.022413 0.000000
# 6 0.000000 0.000000 0.000000 0.000000 0.000000 0.153917
#
#
# Mechanical properties :
#
#
# Convention : Reuss Voigt Hill
#
# Bulk Modulus (GPa) = 34.77019 44.92326 39.84672
# Shear Modulus (GPa) = -6.11686 25.61088 9.74701
#
# Velocity S-wave (km/s) = -1.58554 3.24434 2.00147
# Velocity P-wave (km/s) = 3.30729 5.70063 4.66022
#
# Compressibility (1/GPa) = 0.02876027
#
# Stress axis : x y z
#
# Youngs Moduli (GPa) = 44.07017 157.73542 62.67391
#
# Poissons Ratio (x) = 0.08484 0.32402
# Poissons Ratio (y) = 0.02371 0.15075
# Poissons Ratio (z) = 0.22784 0.37940
#
# Static dielectric constant tensor:
#      x y z
#    x 1.983150 0.000000 0.000000 
#    y 0.000000 1.988770 0.000000 
#    z 0.000000 0.000000 2.002420 
# 
# From -- ./inp_files/19960.got.cif
#   From: 2010.05.17/outbox.cif.g08.bks.cpg/sg62_10_cif.got.tgz:19960.got - 2010.06.03 15:25:27.
