data_PCOD9461859
_publ_section_title
;
Structure prediction by ZEFSAII (Michael W. Deem and Ramdas Pophale) SiO2 
 PCOD9461859
Probable space group: P N M A
;
_chemical_formula_sum "Si O2"
_cell_formula_units_Z 56
_cell_length_a 18.909665
_cell_length_b 8.600463
_cell_length_c 21.311602
_cell_angle_alpha 90.000000
_cell_angle_beta 90.000000
_cell_angle_gamma 90.000000
_cell_volume 3465.945775
_symmetry_space_group_name_H-M "P N M A"
_symmetry_group_IT_number 62
_symmetry_cell_setting 'orthorhombic'
loop_
_space_group_symop_operation_xyz
x,y,z
1/2-x,-y,1/2+z
1/2+x,1/2-y,1/2-z
-x,1/2+y,-z
-x,-y,-z
1/2+x,y,1/2-z
1/2-x,1/2+y,1/2+z
x,1/2-y,z
loop_
_atom_site_type_symbol
_atom_site_label
_atom_site_fract_x
_atom_site_fract_y
_atom_site_fract_z
Si Si1 0.414247 0.064461 0.250183
Si Si2 0.420357 0.435824 0.999116
Si Si3 0.355372 0.564745 0.871219
Si Si4 0.344767 0.938369 0.122751
Si Si5 0.929843 0.061809 0.753975
Si Si6 0.780700 0.570848 0.186844
Si Si7 0.203277 0.928678 0.177097
O O1 0.416229 0.250000 0.247293
O O2 0.388959 0.999041 0.182546
O O3 0.491341 0.997069 0.264572
O O4 0.355602 0.009125 0.300330
O O5 0.421700 0.250000 0.001899
O O6 0.383324 0.491703 0.935335
O O7 0.500000 0.500000 0.000000
O O8 0.379176 0.502746 0.059108
O O9 0.362122 0.750000 0.872965
O O10 0.401368 0.499269 0.812990
O O11 0.274241 0.516464 0.857882
O O12 0.344796 0.750000 0.124962
O O13 0.263408 0.995736 0.131650
O O14 0.927718 0.250000 0.752644
O O15 0.873650 0.004371 0.806781
O O16 0.789439 0.750000 0.167545
O O17 0.742182 0.572388 0.255056
O O18 0.192068 0.750000 0.157333
#
# Coordination Sequence:
#
# PCOD9461859 Si02
#       7
#     8   8   8   8   8   8   8
#     4  11  20  30  46  73 102 129 160 200 243 285
#     4  12  24  37  50  69  96 130 167 202 237 282
#     4  11  21  34  50  71  97 128 163 202 242 287
#     4  10  19  34  51  69  94 127 163 202 242 287
#     4  10  18  31  49  71  98 130 161 195 239 290
#     4   9  17  32  50  69  93 126 161 197 240 289
#     4   7  14  28  48  68  89 118 155 192 234 282
#
# _framework density 16.157205999999999
#
# number of rings (size 3 to 8) (size 9 to 14) (size 15 to 20)
#    0.000    2.000    0.000    7.714    0.000    0.000 
#    0.000    2.143    0.000    0.000    0.000    1.000 
#    0.000    0.000    0.000    0.000    0.000    0.000 
#
# Total GULP energy -312301.694507 kJ/mol
# GULP energy per Si atom -5576.815973 kJ/mol
# Density = 1.612043 g / cm^3
# Si number density = 16.157206 Si / 1000 Ang^3
#
#
#
# Elastic Constant Matrix: (Units=GPa)
#
#
# Indices 1 2 3 4 5 6 
#
# 1 163.9413 45.1537 58.1820 0.0000 0.0000 0.0000
# 2 45.1537 109.5477 22.8790 0.0000 0.0000 0.0000
# 3 58.1820 22.8790 64.5333 0.0000 0.0000 0.0000
# 4 0.0000 0.0000 0.0000 22.6228 0.0000 0.0000
# 5 0.0000 0.0000 0.0000 0.0000 25.6892 0.0000
# 6 0.0000 0.0000 0.0000 0.0000 0.0000 25.0882
#
#
#
# Elastic Compliance Matrix: (Units=1/GPa)
#
#
# Indices 1 2 3 4 5 6 
#
# 1 0.009474 -0.002291 -0.007729 0.000000 0.000000 0.000000
# 2 -0.002291 0.010412 -0.001626 0.000000 0.000000 0.000000
# 3 -0.007729 -0.001626 0.023041 0.000000 0.000000 0.000000
# 4 0.000000 0.000000 0.000000 0.044203 0.000000 0.000000
# 5 0.000000 0.000000 0.000000 0.000000 0.038927 0.000000
# 6 0.000000 0.000000 0.000000 0.000000 0.000000 0.039859
#
#
# Mechanical properties :
#
#
# Convention : Reuss Voigt Hill
#
# Bulk Modulus (GPa) = 50.93031 65.60575 58.26803
# Shear Modulus (GPa) = 25.54232 28.80054 27.17143
#
# Velocity S-wave (km/s) = 3.98032 4.22657 4.10529
# Velocity P-wave (km/s) = 7.26045 8.03189 7.65589
#
# Compressibility (1/GPa) = 0.01963467
#
# Stress axis : x y z
#
# Youngs Moduli (GPa) = 105.55521 96.04072 43.40099
#
# Poissons Ratio (x) = 0.22000 0.33546
# Poissons Ratio (y) = 0.24179 0.07058
# Poissons Ratio (z) = 0.81586 0.15619
#
# Static dielectric constant tensor:
#      x y z
#    x 1.565400 0.000000 0.000000 
#    y 0.000000 1.544210 0.000000 
#    z 0.000000 0.000000 1.513960 
# 
# From -- ./inp_files/27573.got.cif
#   From: 2010.05.17/outbox.cif.g08.bks.cpg/sg62_14_cif.got.tgz:27573.got - 2010.06.03 15:25:27.
