data_PCOD9461110
_publ_section_title
;
Structure prediction by ZEFSAII (Michael W. Deem and Ramdas Pophale) SiO2 
 PCOD9461110
Probable space group: P B C A
;
_chemical_formula_sum "Si O2"
_cell_formula_units_Z 40
_cell_length_a 9.137832
_cell_length_b 17.982789
_cell_length_c 10.560355
_cell_angle_alpha 90.000000
_cell_angle_beta 90.000000
_cell_angle_gamma 90.000000
_cell_volume 1735.316657
_symmetry_space_group_name_H-M "P B C A"
_symmetry_group_IT_number 61
_symmetry_cell_setting 'orthorhombic'
loop_
_space_group_symop_operation_xyz
x,y,z
1/2-x,-y,1/2+z
1/2+x,1/2-y,-z
-x,1/2+y,1/2-z
-x,-y,-z
1/2+x,y,1/2-z
1/2-x,1/2+y,z
x,1/2-y,1/2+z
loop_
_atom_site_type_symbol
_atom_site_label
_atom_site_fract_x
_atom_site_fract_y
_atom_site_fract_z
Si Si1 0.728350 0.143398 0.689695
Si Si2 0.062138 0.792662 0.094712
Si Si3 0.219611 0.918881 0.972687
Si Si4 0.192954 0.993874 0.702123
Si Si5 0.548967 0.877173 0.974193
O O1 0.606766 0.196577 0.631498
O O2 0.828273 0.184539 0.792431
O O3 0.842748 0.109107 0.590642
O O4 0.640141 0.073123 0.745199
O O5 0.085423 0.707057 0.063431
O O6 0.101823 0.852768 0.985921
O O7 0.232135 0.951026 0.831425
O O8 0.378153 0.883551 0.001333
O O9 0.196407 0.979247 0.087697
O O10 0.083610 0.939583 0.629706
#
# Coordination Sequence:
#
# PCOD9461110 Si02
#       5
#     8   8   8   8   8
#     4  11  25  49  70 108 145 192 245 303 357 443
#     4  11  27  45  75 104 150 188 245 302 373 428
#     4  11  26  49  73 109 144 194 245 303 364 436
#     4  11  25  45  76 104 146 192 246 298 363 431
#     4  12  26  46  76 103 151 189 247 299 369 432
#
# _framework density 23.050549
#
# number of rings (size 3 to 8) (size 9 to 14) (size 15 to 20)
#    0.000    0.800    2.000    4.200   11.200    2.400 
#    0.000    0.000    0.000    0.000    0.000    0.000 
#    0.000    0.000    0.000    0.000    0.000    0.000 
#
# Total GULP energy -223443.526377 kJ/mol
# GULP energy per Si atom -5586.088159 kJ/mol
# Density = 2.299808 g / cm^3
# Si number density = 23.050549 Si / 1000 Ang^3
#
#
#
# Elastic Constant Matrix: (Units=GPa)
#
#
# Indices 1 2 3 4 5 6 
#
# 1 80.1516 3.6506 30.9168 0.0000 0.0000 0.0000
# 2 3.6506 57.7873 35.6709 0.0000 0.0000 0.0000
# 3 30.9168 35.6709 113.8222 0.0000 0.0000 0.0000
# 4 0.0000 0.0000 0.0000 2.0212 0.0000 0.0000
# 5 0.0000 0.0000 0.0000 0.0000 30.8118 0.0000
# 6 0.0000 0.0000 0.0000 0.0000 0.0000 22.2022
#
#
#
# Elastic Compliance Matrix: (Units=1/GPa)
#
#
# Indices 1 2 3 4 5 6 
#
# 1 0.014090 0.001825 -0.004399 0.000000 0.000000 0.000000
# 2 0.001825 0.021692 -0.007294 0.000000 0.000000 0.000000
# 3 -0.004399 -0.007294 0.012266 0.000000 0.000000 0.000000
# 4 0.000000 0.000000 0.000000 0.494757 0.000000 0.000000
# 5 0.000000 0.000000 0.000000 0.000000 0.032455 0.000000
# 6 0.000000 0.000000 0.000000 0.000000 0.000000 0.045041
#
#
# Mechanical properties :
#
#
# Convention : Reuss Voigt Hill
#
# Bulk Modulus (GPa) = 35.31943 43.58197 39.45070
# Shear Modulus (GPa) = 7.69853 23.10858 15.40355
#
# Velocity S-wave (km/s) = 1.82951 3.16969 2.58786
# Velocity P-wave (km/s) = 4.45182 5.68719 5.10699
#
# Compressibility (1/GPa) = 0.02831303
#
# Stress axis : x y z
#
# Youngs Moduli (GPa) = 70.97156 46.10021 81.52325
#
# Poissons Ratio (x) = -0.08416 0.35865
# Poissons Ratio (y) = -0.12956 0.59462
# Poissons Ratio (z) = 0.31223 0.33625
#
# Static dielectric constant tensor:
#      x y z
#    x 1.823360 0.000000 0.000000 
#    y 0.000000 1.848690 0.000000 
#    z 0.000000 0.000000 1.932090 
# 
# From -- ./inp_files/3290.got.cif
#   From: 2010.05.17/outbox.cif.g08.bks.cpg/sg61_2_cif.got.tgz:3290.got - 2010.06.03 15:17:17.
