data_PCOD9461293
_publ_section_title
;
Structure prediction by ZEFSAII (Michael W. Deem and Ramdas Pophale) SiO2 
 PCOD9461293
Probable space group: P B C A
;
_chemical_formula_sum "Si O2"
_cell_formula_units_Z 64
_cell_length_a 9.000000
_cell_length_b 24.000000
_cell_length_c 15.000000
_cell_angle_alpha 90.000000
_cell_angle_beta 90.000000
_cell_angle_gamma 90.000000
_cell_volume 3240.000000
_symmetry_space_group_name_H-M "P B C A"
_symmetry_group_IT_number 61
_symmetry_cell_setting 'orthorhombic'
loop_
_space_group_symop_operation_xyz
x,y,z
1/2-x,-y,1/2+z
1/2+x,1/2-y,-z
-x,1/2+y,1/2-z
-x,-y,-z
1/2+x,y,1/2-z
1/2-x,1/2+y,z
x,1/2-y,1/2+z
loop_
_atom_site_type_symbol
_atom_site_label
_atom_site_fract_x
_atom_site_fract_y
_atom_site_fract_z
Si Si1 0.291355 0.534275 0.071598
Si Si2 0.453228 0.523682 0.817672
Si Si3 0.953285 0.418608 0.811125
Si Si4 0.999985 0.809370 0.814261
Si Si5 0.521658 0.882658 0.520150
Si Si6 0.979367 0.349382 0.326073
Si Si7 0.240618 0.271758 0.272178
Si Si8 0.785986 0.962460 0.578176
O O1 0.413666 0.493192 0.114506
O O2 0.206772 0.572382 0.143169
O O3 0.382988 0.575818 0.008535
O O4 0.184270 0.495646 0.013121
O O5 0.472794 0.475526 0.744516
O O6 0.476930 0.588238 0.791325
O O7 0.289325 0.508165 0.855755
O O8 0.973377 0.361827 0.754447
O O9 0.080304 0.426146 0.884750
O O10 0.974491 0.836557 0.909595
O O11 0.146604 0.770922 0.819223
O O12 0.864553 0.769314 0.786058
O O13 0.570318 0.858548 0.427016
O O14 0.651942 0.919334 0.562451
O O15 0.848723 0.316264 0.276255
O O16 0.123670 0.309510 0.325841
#
# Coordination Sequence:
#
# PCOD9461293 Si02
#       8
#     8   8   8   8   8   8   8   8
#     4  11  21  38  57 101 133 166 200 259 329 386
#     4  11  22  37  64  92 127 166 206 246 331 396
#     4  12  24  35  68  99 127 168 211 265 320 371
#     4  11  22  44  64  91 125 163 225 268 300 378
#     4  11  21  39  70  86 129 169 204 265 328 370
#     4  11  24  44  64  92 124 170 209 259 325 385
#     4  10  26  44  64  88 124 170 222 264 304 374
#     4  11  21  38  57 101 133 166 200 259 329 386
#
# _framework density 19.753086
#
# number of rings (size 3 to 8) (size 9 to 14) (size 15 to 20)
#    0.000    1.000    5.000    3.375    3.500    1.000 
#    0.000    2.500    0.000    0.000    0.000    0.000 
#    0.000    0.000    0.000    0.000    0.000    0.000 
#
# Total GULP energy -356925.101462 kJ/mol
# GULP energy per Si atom -5576.954710 kJ/mol
# Density = 1.970813 g / cm^3
# Si number density = 19.753086 Si / 1000 Ang^3
#
#
#
# Elastic Constant Matrix: (Units=GPa)
#
#
# Indices 1 2 3 4 5 6 
#
# 1 68.7191 17.0628 -5.7394 0.0000 0.0000 0.0000
# 2 17.0628 120.1346 11.4326 0.0000 0.0000 0.0000
# 3 -5.7394 11.4326 22.4913 0.0000 0.0000 0.0000
# 4 0.0000 0.0000 0.0000 26.0817 0.0000 0.0000
# 5 0.0000 0.0000 0.0000 0.0000 50.9072 0.0000
# 6 0.0000 0.0000 0.0000 0.0000 0.0000 23.6505
#
#
#
# Elastic Compliance Matrix: (Units=1/GPa)
#
#
# Indices 1 2 3 4 5 6 
#
# 1 0.015683 -0.002741 0.005395 0.000000 0.000000 0.000000
# 2 -0.002741 0.009226 -0.005389 0.000000 0.000000 0.000000
# 3 0.005395 -0.005389 0.048578 0.000000 0.000000 0.000000
# 4 0.000000 0.000000 0.000000 0.038341 0.000000 0.000000
# 5 0.000000 0.000000 0.000000 0.000000 0.019644 0.000000
# 6 0.000000 0.000000 0.000000 0.000000 0.000000 0.042282
#
#
# Mechanical properties :
#
#
# Convention : Reuss Voigt Hill
#
# Bulk Modulus (GPa) = 14.70211 28.53967 21.62089
# Shear Modulus (GPa) = 24.76520 32.70049 28.73285
#
# Velocity S-wave (km/s) = 3.54466 4.07315 3.81806
# Velocity P-wave (km/s) = 4.92056 6.04982 5.51417
#
# Compressibility (1/GPa) = 0.06801747
#
# Stress axis : x y z
#
# Youngs Moduli (GPa) = 63.76258 108.38744 20.58554
#
# Poissons Ratio (x) = 0.29708 -0.11107
# Poissons Ratio (y) = 0.17477 0.11094
# Poissons Ratio (z) = -0.34402 0.58412
#
# Static dielectric constant tensor:
#      x y z
#    x 1.718440 0.000000 0.000000 
#    y 0.000000 1.680730 0.000000 
#    z 0.000000 0.000000 1.765420 
# 
# From -- ./inp_files/7265.got.cif
#   From: 2010.05.17/outbox.ucp.g08.bks.cvg/sg61_4_cif.got.tgz:7265.got - 2010.06.11 16:28:26.
