data_PCOD9461436
_publ_section_title
;
Structure prediction by ZEFSAII (Michael W. Deem and Ramdas Pophale) SiO2 
 PCOD9461436
Probable space group: P N M A
;
_chemical_formula_sum "Si O2"
_cell_formula_units_Z 48
_cell_length_a 15.850464
_cell_length_b 9.103056
_cell_length_c 14.421183
_cell_angle_alpha 90.000000
_cell_angle_beta 90.000000
_cell_angle_gamma 90.000000
_cell_volume 2080.798770
_symmetry_space_group_name_H-M "P N M A"
_symmetry_group_IT_number 62
_symmetry_cell_setting 'orthorhombic'
loop_
_space_group_symop_operation_xyz
x,y,z
1/2-x,-y,1/2+z
1/2+x,1/2-y,1/2-z
-x,1/2+y,-z
-x,-y,-z
1/2+x,y,1/2-z
1/2-x,1/2+y,1/2+z
x,1/2-y,z
loop_
_atom_site_type_symbol
_atom_site_label
_atom_site_fract_x
_atom_site_fract_y
_atom_site_fract_z
Si Si1 0.370486 0.078269 0.533204
Si Si2 0.601762 0.422480 0.014256
Si Si3 0.466696 0.426292 0.815145
Si Si4 0.210915 0.072755 0.655380
Si Si5 0.205305 0.421837 0.311142
Si Si6 0.947331 0.921726 0.135411
O O1 0.355292 0.250000 0.516448
O O2 0.293711 0.024465 0.596758
O O3 0.459620 0.066291 0.587738
O O4 0.384882 0.001840 0.434553
O O5 0.577342 0.250000 0.015644
O O6 0.538777 0.516959 0.078953
O O7 0.632932 0.464024 0.912118
O O8 0.688355 0.430856 0.078261
O O9 0.465350 0.250000 0.815139
O O10 0.378709 0.492310 0.777849
O O11 0.536320 0.474085 0.740597
O O12 0.211262 0.250000 0.665412
O O13 0.220063 0.999727 0.755846
O O14 0.203844 0.250000 0.287511
O O15 0.924719 0.750000 0.139387
#
# Coordination Sequence:
#
# PCOD9461436 Si02
#       6
#     8   8   8   8   8   8
#     4   9  16  24  36  54  75 104 135 158 188 232
#     4   8  17  28  40  58  79 103 133 168 200 233
#     4   9  15  27  41  53  74 105 134 161 196 232
#     4  10  17  29  43  57  82 111 135 163 201 239
#     4   9  17  27  39  58  78 103 134 166 198 230
#     4   9  16  25  36  52  76 104 133 162 190 227
#
# _framework density 23.068064
#
# number of rings (size 3 to 8) (size 9 to 14) (size 15 to 20)
#    1.000    2.000    1.667    0.500    0.000    2.667 
#    0.000    0.000    0.000    0.000    0.000    0.000 
#    0.000    1.333    0.000    3.000    0.000    4.667 
#
# Total GULP energy -267725.169490 kJ/mol
# GULP energy per Si atom -5577.607698 kJ/mol
# Density = 2.301556 g / cm^3
# Si number density = 23.068064 Si / 1000 Ang^3
#
#
#
# Elastic Constant Matrix: (Units=GPa)
#
#
# Indices 1 2 3 4 5 6 
#
# 1 77.8566 11.7073 21.4721 0.0000 0.0000 0.0000
# 2 11.7073 27.7110 40.5182 0.0000 0.0000 0.0000
# 3 21.4721 40.5182 172.9655 0.0000 0.0000 0.0000
# 4 0.0000 0.0000 0.0000 20.3150 0.0000 0.0000
# 5 0.0000 0.0000 0.0000 0.0000 41.3532 0.0000
# 6 0.0000 0.0000 0.0000 0.0000 0.0000 6.1761
#
#
#
# Elastic Compliance Matrix: (Units=1/GPa)
#
#
# Indices 1 2 3 4 5 6 
#
# 1 0.013747 -0.005038 -0.000526 0.000000 0.000000 0.000000
# 2 -0.005038 0.056733 -0.012665 0.000000 0.000000 0.000000
# 3 -0.000526 -0.012665 0.008814 0.000000 0.000000 0.000000
# 4 0.000000 0.000000 0.000000 0.049225 0.000000 0.000000
# 5 0.000000 0.000000 0.000000 0.000000 0.024182 0.000000
# 6 0.000000 0.000000 0.000000 0.000000 0.000000 0.161915
#
#
# Mechanical properties :
#
#
# Convention : Reuss Voigt Hill
#
# Bulk Modulus (GPa) = 23.34524 47.32537 35.33531
# Shear Modulus (GPa) = 13.68543 27.22456 20.45500
#
# Velocity S-wave (km/s) = 2.43834 3.43911 2.98102
# Velocity P-wave (km/s) = 4.25082 6.02744 5.21534
#
# Compressibility (1/GPa) = 0.04283528
#
# Stress axis : x y z
#
# Youngs Moduli (GPa) = 72.74381 17.62643 113.46111
#
# Poissons Ratio (x) = 0.08880 0.05972
# Poissons Ratio (y) = 0.36649 1.43694
# Poissons Ratio (z) = 0.03829 0.22323
#
# Static dielectric constant tensor:
#      x y z
#    x 1.996210 0.000000 0.000000 
#    y 0.000000 1.756660 0.000000 
#    z 0.000000 0.000000 1.935150 
# 
# From -- ./inp_files/24525.got.cif
#   From: 2010.05.17/outbox.cif.g08.bks.cpg/sg62_13_cif.got.tgz:24525.got - 2010.06.03 15:25:27.
