data_PCOD9461936
_publ_section_title
;
Structure prediction by ZEFSAII (Michael W. Deem and Ramdas Pophale) SiO2 
 PCOD9461936
Probable space group: P N M A
;
_chemical_formula_sum "Si O2"
_cell_formula_units_Z 48
_cell_length_a 23.991880
_cell_length_b 10.467397
_cell_length_c 9.761981
_cell_angle_alpha 90.000000
_cell_angle_beta 90.000000
_cell_angle_gamma 90.000000
_cell_volume 2451.551013
_symmetry_space_group_name_H-M "P N M A"
_symmetry_group_IT_number 62
_symmetry_cell_setting 'orthorhombic'
loop_
_space_group_symop_operation_xyz
x,y,z
1/2-x,-y,1/2+z
1/2+x,1/2-y,1/2-z
-x,1/2+y,-z
-x,-y,-z
1/2+x,y,1/2-z
1/2-x,1/2+y,1/2+z
x,1/2-y,z
loop_
_atom_site_type_symbol
_atom_site_label
_atom_site_fract_x
_atom_site_fract_y
_atom_site_fract_z
Si Si1 0.636661 0.100596 0.051017
Si Si2 0.939871 0.390668 0.114514
Si Si3 0.877689 0.893629 0.997620
Si Si4 0.514105 0.399887 0.121021
Si Si5 0.657475 0.994833 0.764430
Si Si6 0.717636 0.095760 0.282479
O O1 0.644438 0.250000 0.018623
O O2 0.580617 0.089928 0.139399
O O3 0.688965 0.057106 0.139785
O O4 0.630881 0.027432 0.909662
O O5 0.953245 0.250000 0.058795
O O6 0.928471 0.505361 0.007820
O O7 0.879303 0.386691 0.190733
O O8 0.981849 0.424848 0.237592
O O9 0.894643 0.750000 0.958474
O O10 0.852258 0.894850 0.151796
O O11 0.827257 0.937906 0.899819
O O12 0.502377 0.250000 0.082958
O O13 0.500000 0.500000 0.000000
O O14 0.721520 0.963494 0.790439
O O15 0.722588 0.250000 0.285764
#
# Coordination Sequence:
#
# PCOD9461936 Si02
#       6
#     8   8   8   8   8   8
#     4  10  20  33  54  80 108 137 177 216 264 313
#     4   9  19  32  53  76 103 137 171 211 268 310
#     4   9  19  34  53  74 102 136 181 214 253 313
#     4  10  18  33  53  79 107 137 173 220 262 312
#     4  10  18  31  54  75 105 131 176 211 266 304
#     4  10  20  34  50  76 108 144 173 215 264 315
#
# _framework density 19.579440999999999
#
# number of rings (size 3 to 8) (size 9 to 14) (size 15 to 20)
#    1.000    1.333    1.667    2.000    0.000    0.667 
#    0.000    1.667    0.000    4.000    0.000    0.000 
#    0.000    0.000    0.000    0.000    0.000    0.000 
#
# Total GULP energy -267222.155724 kJ/mol
# GULP energy per Si atom -5567.128244 kJ/mol
# Density = 1.953488 g / cm^3
# Si number density = 19.579441 Si / 1000 Ang^3
#
#
#
# Elastic Constant Matrix: (Units=GPa)
#
#
# Indices 1 2 3 4 5 6 
#
# 1 53.5336 11.7783 4.3897 0.0000 0.0000 0.0000
# 2 11.7783 60.6269 8.5181 0.0000 0.0000 0.0000
# 3 4.3897 8.5181 42.2522 0.0000 0.0000 0.0000
# 4 0.0000 0.0000 0.0000 16.0136 0.0000 0.0000
# 5 0.0000 0.0000 0.0000 0.0000 33.5007 0.0000
# 6 0.0000 0.0000 0.0000 0.0000 0.0000 47.9480
#
#
#
# Elastic Compliance Matrix: (Units=1/GPa)
#
#
# Indices 1 2 3 4 5 6 
#
# 1 0.019584 -0.003621 -0.001305 0.000000 0.000000 0.000000
# 2 -0.003621 0.017645 -0.003181 0.000000 0.000000 0.000000
# 3 -0.001305 -0.003181 0.024444 0.000000 0.000000 0.000000
# 4 0.000000 0.000000 0.000000 0.062447 0.000000 0.000000
# 5 0.000000 0.000000 0.000000 0.000000 0.029850 0.000000
# 6 0.000000 0.000000 0.000000 0.000000 0.000000 0.020856
#
#
# Mechanical properties :
#
#
# Convention : Reuss Voigt Hill
#
# Bulk Modulus (GPa) = 21.99786 22.86497 22.43142
# Shear Modulus (GPa) = 24.24924 28.27425 26.26174
#
# Velocity S-wave (km/s) = 3.52306 3.80423 3.66634
# Velocity P-wave (km/s) = 5.27341 5.56773 5.42256
#
# Compressibility (1/GPa) = 0.04545896
#
# Stress axis : x y z
#
# Youngs Moduli (GPa) = 51.06316 56.67392 40.90942
#
# Poissons Ratio (x) = 0.20523 0.05337
# Poissons Ratio (y) = 0.18492 0.13013
# Poissons Ratio (z) = 0.06661 0.18028
#
# Static dielectric constant tensor:
#      x y z
#    x 1.702080 0.000000 0.000000 
#    y 0.000000 1.704010 0.000000 
#    z 0.000000 0.000000 1.677770 
# 
# From -- ./inp_files/15217.got.cif
#   From: 2010.05.17/outbox.cif.g08.bks.cpg/sg62_8_cif.got.tgz:15217.got - 2010.06.03 15:25:27.
