data_PCOD9461780
_publ_section_title
;
Structure prediction by ZEFSAII (Michael W. Deem and Ramdas Pophale) SiO2 
 PCOD9461780
Probable space group: P N M A
;
_chemical_formula_sum "Si O2"
_cell_formula_units_Z 40
_cell_length_a 19.076496
_cell_length_b 7.466047
_cell_length_c 13.714166
_cell_angle_alpha 90.000000
_cell_angle_beta 90.000000
_cell_angle_gamma 90.000000
_cell_volume 1953.254022
_symmetry_space_group_name_H-M "P N M A"
_symmetry_group_IT_number 62
_symmetry_cell_setting 'orthorhombic'
loop_
_space_group_symop_operation_xyz
x,y,z
1/2-x,-y,1/2+z
1/2+x,1/2-y,1/2-z
-x,1/2+y,-z
-x,-y,-z
1/2+x,y,1/2-z
1/2-x,1/2+y,1/2+z
x,1/2-y,z
loop_
_atom_site_type_symbol
_atom_site_label
_atom_site_fract_x
_atom_site_fract_y
_atom_site_fract_z
Si Si1 0.667522 0.459342 0.602186
Si Si2 0.976933 0.530846 0.191968
Si Si3 0.874562 0.034128 0.885813
Si Si4 0.036230 0.536308 0.397601
Si Si5 0.316195 0.469026 0.822957
O O1 0.668670 0.250000 0.629284
O O2 0.596867 0.534808 0.650763
O O3 0.658556 0.471855 0.486244
O O4 0.741588 0.534426 0.638436
O O5 0.976203 0.750000 0.189764
O O6 0.992779 0.473387 0.302961
O O7 0.044586 0.475570 0.128360
O O8 0.874670 0.250000 0.887357
O O9 0.832776 0.979259 0.788586
O O10 0.039515 0.750000 0.387432
O O11 0.000000 0.500000 0.500000
O O12 0.116355 0.471601 0.386023
O O13 0.315459 0.250000 0.825910
#
# Coordination Sequence:
#
# PCOD9461780 Si02
#       5
#     8   8   8   8   8
#     4  10  18  30  49  71  91 119 155 190 226 270
#     4   8  16  30  48  67  91 122 155 184 224 279
#     4   9  17  32  49  66  91 123 152 186 228 271
#     4   9  17  32  50  68  91 123 156 187 222 268
#     4   8  17  32  47  64  94 127 150 177 228 282
#
# _framework density 20.478646000000001
#
# number of rings (size 3 to 8) (size 9 to 14) (size 15 to 20)
#    0.000    3.200    0.000    3.000    0.000    1.600 
#    0.000    9.000    0.000    0.000    0.000    0.000 
#    0.000    0.000    0.000    0.000    0.000    0.000 
#
# Total GULP energy -223133.292672 kJ/mol
# GULP energy per Si atom -5578.332317 kJ/mol
# Density = 2.043204 g / cm^3
# Si number density = 20.478646 Si / 1000 Ang^3
#
#
#
# Elastic Constant Matrix: (Units=GPa)
#
#
# Indices 1 2 3 4 5 6 
#
# 1 225.6792 6.5905 126.4987 0.0000 0.0000 0.0000
# 2 6.5905 55.3487 -6.3851 0.0000 0.0000 0.0000
# 3 126.4987 -6.3851 117.5190 0.0000 0.0000 0.0000
# 4 0.0000 0.0000 0.0000 23.6794 0.0000 0.0000
# 5 0.0000 0.0000 0.0000 0.0000 28.9278 0.0000
# 6 0.0000 0.0000 0.0000 0.0000 0.0000 3.2119
#
#
#
# Elastic Compliance Matrix: (Units=1/GPa)
#
#
# Indices 1 2 3 4 5 6 
#
# 1 0.011598 -0.002839 -0.012639 0.000000 0.000000 0.000000
# 2 -0.002839 0.018876 0.004082 0.000000 0.000000 0.000000
# 3 -0.012639 0.004082 0.022336 0.000000 0.000000 0.000000
# 4 0.000000 0.000000 0.000000 0.042231 0.000000 0.000000
# 5 0.000000 0.000000 0.000000 0.000000 0.034569 0.000000
# 6 0.000000 0.000000 0.000000 0.000000 0.000000 0.311344
#
#
# Mechanical properties :
#
#
# Convention : Reuss Voigt Hill
#
# Bulk Modulus (GPa) = 33.31383 72.43946 52.87665
# Shear Modulus (GPa) = 10.55404 29.28667 19.92036
#
# Velocity S-wave (km/s) = 2.27263 3.78578 3.12226
# Velocity P-wave (km/s) = 4.81554 7.38644 6.23494
#
# Compressibility (1/GPa) = 0.03001756
#
# Stress axis : x y z
#
# Youngs Moduli (GPa) = 86.21893 52.97672 44.77147
#
# Poissons Ratio (x) = 0.15041 0.56586
# Poissons Ratio (y) = 0.24478 -0.18274
# Poissons Ratio (z) = 1.08971 -0.21623
#
# Static dielectric constant tensor:
#      x y z
#    x 1.729180 0.000000 0.000000 
#    y 0.000000 1.790680 0.000000 
#    z 0.000000 0.000000 1.692500 
# 
# From -- ./inp_files/14609.got.cif
#   From: 2010.05.17/outbox.cif.g08.bks.cpg/sg62_8_cif.got.tgz:14609.got - 2010.06.03 15:25:27.
