data_PCOD9461378
_publ_section_title
;
Structure prediction by ZEFSAII (Michael W. Deem and Ramdas Pophale) SiO2 
 PCOD9461378
Probable space group: P N M A
;
_chemical_formula_sum "Si O2"
_cell_formula_units_Z 40
_cell_length_a 9.956870
_cell_length_b 13.586863
_cell_length_c 19.621837
_cell_angle_alpha 90.000000
_cell_angle_beta 90.000000
_cell_angle_gamma 90.000000
_cell_volume 2654.493687
_symmetry_space_group_name_H-M "P N M A"
_symmetry_group_IT_number 62
_symmetry_cell_setting 'orthorhombic'
loop_
_space_group_symop_operation_xyz
x,y,z
1/2-x,-y,1/2+z
1/2+x,1/2-y,1/2-z
-x,1/2+y,-z
-x,-y,-z
1/2+x,y,1/2-z
1/2-x,1/2+y,1/2+z
x,1/2-y,z
loop_
_atom_site_type_symbol
_atom_site_label
_atom_site_fract_x
_atom_site_fract_y
_atom_site_fract_z
Si Si1 0.390511 0.631363 0.633508
Si Si2 0.184584 0.631138 0.902300
Si Si3 0.894936 0.448425 0.402355
Si Si4 0.406898 0.631760 0.794287
Si Si5 0.595917 0.134509 0.987283
O O1 0.378454 0.750000 0.625597
O O2 0.531667 0.597023 0.601404
O O3 0.259504 0.581361 0.602742
O O4 0.397150 0.611312 0.714561
O O5 0.179295 0.750000 0.901106
O O6 0.272456 0.603240 0.835918
O O7 0.272540 0.604889 0.968243
O O8 0.912678 0.561834 0.423617
O O9 0.970036 0.420222 0.332523
O O10 0.971991 0.387411 0.461635
O O11 0.425150 0.750000 0.802310
O O12 0.601573 0.250000 0.971449
#
# Coordination Sequence:
#
# PCOD9461378 Si02
#       5
#     8   8   8   8   8
#     4  10  17  25  42  68  92 111 136 174 216 259
#     4   8  15  26  39  58  87 116 138 170 216 255
#     4  10  18  28  47  67  84 114 149 176 209 260
#     4   9  16  27  42  64  93 115 134 169 220 268
#     4   9  18  32  45  60  86 117 148 180 212 249
#
# _framework density 15.068787
#
# number of rings (size 3 to 8) (size 9 to 14) (size 15 to 20)
#    0.000    2.800    0.000    4.200    0.000    4.000 
#    0.000    0.000    0.000    1.200    0.000    0.000 
#    0.000    0.000    0.000    0.000    0.000    0.000 
#
# Total GULP energy -222812.500376 kJ/mol
# GULP energy per Si atom -5570.312509 kJ/mol
# Density = 1.503449 g / cm^3
# Si number density = 15.068787 Si / 1000 Ang^3
#
#
#
# Elastic Constant Matrix: (Units=GPa)
#
#
# Indices 1 2 3 4 5 6 
#
# 1 128.6939 24.7877 29.9531 0.0000 0.0000 0.0000
# 2 24.7877 53.9513 28.7243 0.0000 0.0000 0.0000
# 3 29.9531 28.7243 43.7209 0.0000 0.0000 0.0000
# 4 0.0000 0.0000 0.0000 12.2825 0.0000 0.0000
# 5 0.0000 0.0000 0.0000 0.0000 6.8484 0.0000
# 6 0.0000 0.0000 0.0000 0.0000 0.0000 13.2285
#
#
#
# Elastic Compliance Matrix: (Units=1/GPa)
#
#
# Indices 1 2 3 4 5 6 
#
# 1 0.009308 -0.001356 -0.005487 0.000000 0.000000 0.000000
# 2 -0.001356 0.028704 -0.017930 0.000000 0.000000 0.000000
# 3 -0.005487 -0.017930 0.038411 0.000000 0.000000 0.000000
# 4 0.000000 0.000000 0.000000 0.081416 0.000000 0.000000
# 5 0.000000 0.000000 0.000000 0.000000 0.146020 0.000000
# 6 0.000000 0.000000 0.000000 0.000000 0.000000 0.075594
#
#
# Mechanical properties :
#
#
# Convention : Reuss Voigt Hill
#
# Bulk Modulus (GPa) = 37.20279 43.69959 40.45119
# Shear Modulus (GPa) = 11.41664 15.99863 13.70763
#
# Velocity S-wave (km/s) = 2.75550 3.26192 3.01935
# Velocity P-wave (km/s) = 5.90474 6.57646 6.24963
#
# Compressibility (1/GPa) = 0.02687970
#
# Stress axis : x y z
#
# Youngs Moduli (GPa) = 107.42916 34.83834 26.03432
#
# Poissons Ratio (x) = 0.04723 0.14284
# Poissons Ratio (y) = 0.14563 0.46679
# Poissons Ratio (z) = 0.58942 0.62464
#
# Static dielectric constant tensor:
#      x y z
#    x 1.527530 0.000000 0.000000 
#    y 0.000000 1.473680 0.000000 
#    z 0.000000 0.000000 1.492460 
# 
# From -- ./inp_files/16648.got.cif
#   From: 2010.05.17/outbox.cif.g08.bks.cpg/sg62_9_cif.got.tgz:16648.got - 2010.06.03 15:25:27.
