data_PCOD9461730
_publ_section_title
;
Structure prediction by ZEFSAII (Michael W. Deem and Ramdas Pophale) SiO2 
 PCOD9461730
Probable space group: P N M A
;
_chemical_formula_sum "Si O2"
_cell_formula_units_Z 64
_cell_length_a 17.958410
_cell_length_b 7.530735
_cell_length_c 20.786176
_cell_angle_alpha 90.000000
_cell_angle_beta 90.000000
_cell_angle_gamma 90.000000
_cell_volume 2811.122998
_symmetry_space_group_name_H-M "P N M A"
_symmetry_group_IT_number 62
_symmetry_cell_setting 'orthorhombic'
loop_
_space_group_symop_operation_xyz
x,y,z
1/2-x,-y,1/2+z
1/2+x,1/2-y,1/2-z
-x,1/2+y,-z
-x,-y,-z
1/2+x,y,1/2-z
1/2-x,1/2+y,1/2+z
x,1/2-y,z
loop_
_atom_site_type_symbol
_atom_site_label
_atom_site_fract_x
_atom_site_fract_y
_atom_site_fract_z
Si Si1 0.398621 0.952012 0.980172
Si Si2 0.926807 0.540379 0.242559
Si Si3 0.286988 0.456046 0.624867
Si Si4 0.707775 0.539220 0.653346
Si Si5 0.273200 0.958289 0.485553
Si Si6 0.925408 0.453961 0.798662
Si Si7 0.884431 0.531316 0.380307
Si Si8 0.620766 0.466992 0.157413
O O1 0.426067 0.750000 0.980429
O O2 0.415860 0.030547 0.050431
O O3 0.307723 0.949284 0.980080
O O4 0.414971 0.031335 0.909990
O O5 0.941521 0.750000 0.248517
O O6 0.847510 0.523421 0.208279
O O7 0.924214 0.469405 0.315375
O O8 0.991969 0.465538 0.196793
O O9 0.279034 0.250000 0.644000
O O10 0.310235 0.471048 0.550294
O O11 0.352393 0.536393 0.668371
O O12 0.202377 0.526862 0.626907
O O13 0.709990 0.750000 0.657008
O O14 0.684252 0.487583 0.581077
O O15 0.792656 0.475246 0.660165
O O16 0.259306 0.750000 0.493423
O O17 0.927736 0.250000 0.822397
O O18 0.914093 0.460855 0.722067
O O19 0.884759 0.750000 0.382584
O O20 0.618099 0.250000 0.157415
#
# Coordination Sequence:
#
# PCOD9461730 Si02
#       8
#     8   8   8   8   8   8   8   8
#     4   8  15  30  50  74 101 131 164 201 249 302
#     4  10  20  34  51  75 103 134 173 214 250 294
#     4   9  17  32  51  71  97 133 167 199 246 303
#     4  10  20  35  54  76 101 133 167 204 252 306
#     4  10  18  29  50  79 102 122 156 209 256 295
#     4  10  21  34  50  73 104 138 172 208 251 299
#     4   8  14  28  52  73  95 129 167 204 247 294
#     4   9  18  32  52  75 100 130 169 209 247 297
#
# _framework density 22.7667
#
# number of rings (size 3 to 8) (size 9 to 14) (size 15 to 20)
#    0.000    2.750    0.000    3.750    0.000    4.500 
#    0.000    5.000    0.000    0.000    0.000    0.000 
#    0.000    0.000    0.000    0.000    0.000    0.000 
#
# Total GULP energy -357046.057362 kJ/mol
# GULP energy per Si atom -5578.844646 kJ/mol
# Density = 2.271488 g / cm^3
# Si number density = 22.766700 Si / 1000 Ang^3
#
#
#
# Elastic Constant Matrix: (Units=GPa)
#
#
# Indices 1 2 3 4 5 6 
#
# 1 49.8412 3.1900 13.1556 0.0000 0.0000 0.0000
# 2 3.1900 69.6155 -12.9835 0.0000 0.0000 0.0000
# 3 13.1556 -12.9835 87.8320 0.0000 0.0000 0.0000
# 4 0.0000 0.0000 0.0000 7.9678 0.0000 0.0000
# 5 0.0000 0.0000 0.0000 0.0000 -16.9971 0.0000
# 6 0.0000 0.0000 0.0000 0.0000 0.0000 20.1376
#
#
#
# Elastic Compliance Matrix: (Units=1/GPa)
#
#
# Indices 1 2 3 4 5 6 
#
# 1 0.021061 -0.001597 -0.003391 0.000000 0.000000 0.000000
# 2 -0.001597 0.014893 0.002441 0.000000 0.000000 0.000000
# 3 -0.003391 0.002441 0.012254 0.000000 0.000000 0.000000
# 4 0.000000 0.000000 0.000000 0.125504 0.000000 0.000000
# 5 0.000000 0.000000 0.000000 0.000000 -0.058833 0.000000
# 6 0.000000 0.000000 0.000000 0.000000 0.000000 0.049658
#
#
# Mechanical properties :
#
#
# Convention : Reuss Voigt Hill
#
# Bulk Modulus (GPa) = 23.19469 23.77922 23.48695
# Shear Modulus (GPa) = 27.17346 15.81677 21.49511
#
# Velocity S-wave (km/s) = 3.45854 2.63864 3.07603
# Velocity P-wave (km/s) = 5.11457 4.44417 4.79111
#
# Compressibility (1/GPa) = 0.04311332
#
# Stress axis : x y z
#
# Youngs Moduli (GPa) = 47.48126 67.14551 81.60577
#
# Poissons Ratio (x) = 0.10726 0.27670
# Poissons Ratio (y) = 0.07585 -0.19918
# Poissons Ratio (z) = 0.16099 -0.16389
#
# Static dielectric constant tensor:
#      x y z
#    x 1.877070 0.000000 0.000000 
#    y 0.000000 1.868830 0.000000 
#    z 0.000000 0.000000 1.865110 
# 
# From -- ./inp_files/27910.got.cif
#   From: 2010.05.17/outbox.cif.g08.bks.cpg/sg62_14_cif.got.tgz:27910.got - 2010.06.03 15:25:27.
