data_PCOD9461258
_publ_section_title
;
Structure prediction by ZEFSAII (Michael W. Deem and Ramdas Pophale) SiO2 
 PCOD9461258
Probable space group: P B C A
;
_chemical_formula_sum "Si O2"
_cell_formula_units_Z 64
_cell_length_a 24.000000
_cell_length_b 15.000000
_cell_length_c 9.000000
_cell_angle_alpha 90.000000
_cell_angle_beta 90.000000
_cell_angle_gamma 90.000000
_cell_volume 3240.000000
_symmetry_space_group_name_H-M "P B C A"
_symmetry_group_IT_number 61
_symmetry_cell_setting 'orthorhombic'
loop_
_space_group_symop_operation_xyz
x,y,z
1/2-x,-y,1/2+z
1/2+x,1/2-y,-z
-x,1/2+y,1/2-z
-x,-y,-z
1/2+x,y,1/2-z
1/2-x,1/2+y,z
x,1/2-y,1/2+z
loop_
_atom_site_type_symbol
_atom_site_label
_atom_site_fract_x
_atom_site_fract_y
_atom_site_fract_z
Si Si1 0.021059 0.074693 0.800359
Si Si2 0.790476 0.142896 0.425917
Si Si3 0.628777 0.496076 0.337349
Si Si4 0.426514 0.948894 0.627836
Si Si5 0.076375 0.241355 0.277697
Si Si6 0.689883 0.011509 0.519857
Si Si7 0.353965 0.812870 0.037131
Si Si8 0.268044 0.185386 0.414582
O O1 0.064053 0.014427 0.704525
O O2 0.031825 0.178641 0.758048
O O3 0.044528 0.066205 0.967900
O O4 0.959794 0.031650 0.798148
O O5 0.800886 0.228005 0.529222
O O6 0.770869 0.174523 0.262382
O O7 0.846900 0.087239 0.399423
O O8 0.742006 0.076985 0.488879
O O9 0.640845 0.418854 0.455225
O O10 0.663989 0.476253 0.185621
O O11 0.435621 0.857307 0.717653
O O12 0.361260 0.968255 0.593465
O O13 0.095087 0.229660 0.446760
O O14 0.133331 0.275722 0.199633
O O15 0.710386 0.908400 0.516031
O O16 0.294124 0.793900 0.971442
#
# Coordination Sequence:
#
# PCOD9461258 Si02
#       8
#     8   8   8   8   8   8   8   8
#     4   9  20  38  64  86 117 155 201 250 301 351
#     4  11  23  38  57  87 123 157 199 248 301 365
#     4   9  21  39  57  83 121 154 200 252 299 350
#     4  10  19  39  62  85 118 159 196 246 302 363
#     4  11  21  36  62  93 113 153 205 247 296 352
#     4  10  21  39  59  89 118 160 205 242 304 370
#     4  11  20  36  58  88 119 151 197 250 287 348
#     4  11  23  35  58  86 120 162 192 242 305 359
#
# _framework density 19.753086
#
# number of rings (size 3 to 8) (size 9 to 14) (size 15 to 20)
#    0.000    1.750    2.500    2.250    5.250    0.000 
#    4.500    2.500    0.000    0.000    0.000    0.000 
#    0.000    0.000    0.000    0.000    0.000    0.000 
#
# Total GULP energy -357106.645737 kJ/mol
# GULP energy per Si atom -5579.791340 kJ/mol
# Density = 1.970813 g / cm^3
# Si number density = 19.753086 Si / 1000 Ang^3
#
#
#
# Elastic Constant Matrix: (Units=GPa)
#
#
# Indices 1 2 3 4 5 6 
#
# 1 37.3872 28.2550 -11.7270 0.0000 0.0000 0.0000
# 2 28.2550 140.8460 22.1861 0.0000 0.0000 0.0000
# 3 -11.7270 22.1861 13.9364 0.0000 0.0000 0.0000
# 4 0.0000 0.0000 0.0000 37.6242 0.0000 0.0000
# 5 0.0000 0.0000 0.0000 0.0000 9.9101 0.0000
# 6 0.0000 0.0000 0.0000 0.0000 0.0000 27.7124
#
#
#
# Elastic Compliance Matrix: (Units=1/GPa)
#
#
# Indices 1 2 3 4 5 6 
#
# 1 0.150283 -0.066825 0.232841 0.000000 0.000000 0.000000
# 2 -0.066825 0.039191 -0.118622 0.000000 0.000000 0.000000
# 3 0.232841 -0.118622 0.456522 0.000000 0.000000 0.000000
# 4 0.000000 0.000000 0.000000 0.026579 0.000000 0.000000
# 5 0.000000 0.000000 0.000000 0.000000 0.100908 0.000000
# 6 0.000000 0.000000 0.000000 0.000000 0.000000 0.036085
#
#
# Mechanical properties :
#
#
# Convention : Reuss Voigt Hill
#
# Bulk Modulus (GPa) = 1.34992 29.95534 15.65263
# Shear Modulus (GPa) = 5.19909 25.27970 15.23939
#
# Velocity S-wave (km/s) = 1.62412 3.58129 2.78059
# Velocity P-wave (km/s) = 2.04985 5.68319 4.27203
#
# Compressibility (1/GPa) = 0.74078350
#
# Stress axis : x y z
#
# Youngs Moduli (GPa) = 6.65412 25.51602 2.19047
#
# Poissons Ratio (x) = 1.70512 -0.51003
# Poissons Ratio (y) = 0.44466 0.25984
# Poissons Ratio (z) = -1.54935 3.02675
#
# Static dielectric constant tensor:
#      x y z
#    x 1.683520 0.000000 0.000000 
#    y 0.000000 1.720780 0.000000 
#    z 0.000000 0.000000 1.720550 
# 
# From -- ./inp_files/4342.got.cif
#   From: 2010.05.17/outbox.ucp.g08.bks.cvg/sg61_3_cif.got.tgz:4342.got - 2010.06.11 16:28:26.
