data_PCOD9461741
_publ_section_title
;
Structure prediction by ZEFSAII (Michael W. Deem and Ramdas Pophale) SiO2 
 PCOD9461741
Probable space group: P N M A
;
_chemical_formula_sum "Si O2"
_cell_formula_units_Z 48
_cell_length_a 16.451354
_cell_length_b 17.819606
_cell_length_c 9.069279
_cell_angle_alpha 90.000000
_cell_angle_beta 90.000000
_cell_angle_gamma 90.000000
_cell_volume 2658.719417
_symmetry_space_group_name_H-M "P N M A"
_symmetry_group_IT_number 62
_symmetry_cell_setting 'orthorhombic'
loop_
_space_group_symop_operation_xyz
x,y,z
1/2-x,-y,1/2+z
1/2+x,1/2-y,1/2-z
-x,1/2+y,-z
-x,-y,-z
1/2+x,y,1/2-z
1/2-x,1/2+y,1/2+z
x,1/2-y,z
loop_
_atom_site_type_symbol
_atom_site_label
_atom_site_fract_x
_atom_site_fract_y
_atom_site_fract_z
Si Si1 0.183881 0.890937 0.643579
Si Si2 0.214284 0.166159 0.890382
Si Si3 0.100958 0.574352 0.923249
Si Si4 0.958005 0.594427 0.140589
Si Si5 0.296899 0.033453 0.704133
Si Si6 0.441299 0.446891 0.907259
O O1 0.249827 0.841777 0.556097
O O2 0.138950 0.873717 0.796750
O O3 0.112611 0.902669 0.524770
O O4 0.232066 0.968089 0.680096
O O5 0.230128 0.250000 0.836649
O O6 0.119423 0.146253 0.883062
O O7 0.257392 0.103216 0.789809
O O8 0.072555 0.492711 0.861726
O O9 0.168913 0.557481 0.046027
O O10 0.022855 0.605064 0.009887
O O11 0.005374 0.602725 0.295023
O O12 0.375571 0.010379 0.802378
O O13 0.500000 0.500000 0.000000
#
# Coordination Sequence:
#
# PCOD9461741 Si02
#       6
#     8   8   8   8   8   8
#     4  11  19  34  58  85 114 149 192 241 282 341
#     4  11  23  39  56  82 118 154 190 238 298 350
#     4  10  18  32  57  85 112 140 194 242 277 331
#     4  10  19  33  53  85 117 146 185 238 291 340
#     4  10  19  34  56  85 113 151 194 237 285 345
#     4  10  18  29  53  86 116 144 188 243 283 329
#
# _framework density 18.053805000000001
#
# number of rings (size 3 to 8) (size 9 to 14) (size 15 to 20)
#    0.000    1.667    5.000    1.000    0.000    0.000 
#    0.000    9.167    0.000    0.000    0.000    0.000 
#    0.000    0.000    0.000    0.000    0.000    0.000 
#
# Total GULP energy -267571.312463 kJ/mol
# GULP energy per Si atom -5574.402343 kJ/mol
# Density = 1.801271 g / cm^3
# Si number density = 18.053805 Si / 1000 Ang^3
#
#
#
# Elastic Constant Matrix: (Units=GPa)
#
#
# Indices 1 2 3 4 5 6 
#
# 1 116.6220 22.3900 48.7098 0.0000 0.0000 0.0000
# 2 22.3900 52.9950 6.7288 0.0000 0.0000 0.0000
# 3 48.7098 6.7288 110.4702 0.0000 0.0000 0.0000
# 4 0.0000 0.0000 0.0000 11.6637 0.0000 0.0000
# 5 0.0000 0.0000 0.0000 0.0000 32.2809 0.0000
# 6 0.0000 0.0000 0.0000 0.0000 0.0000 8.0106
#
#
#
# Elastic Compliance Matrix: (Units=1/GPa)
#
#
# Indices 1 2 3 4 5 6 
#
# 1 0.011367 -0.004199 -0.004757 0.000000 0.000000 0.000000
# 2 -0.004199 0.020568 0.000599 0.000000 0.000000 0.000000
# 3 -0.004757 0.000599 0.011113 0.000000 0.000000 0.000000
# 4 0.000000 0.000000 0.000000 0.085736 0.000000 0.000000
# 5 0.000000 0.000000 0.000000 0.000000 0.030978 0.000000
# 6 0.000000 0.000000 0.000000 0.000000 0.000000 0.124835
#
#
# Mechanical properties :
#
#
# Convention : Reuss Voigt Hill
#
# Bulk Modulus (GPa) = 37.97261 48.41605 43.19433
# Shear Modulus (GPa) = 16.12443 23.87496 19.99970
#
# Velocity S-wave (km/s) = 2.99177 3.64047 3.33195
# Velocity P-wave (km/s) = 5.74569 6.67432 6.22734
#
# Compressibility (1/GPa) = 0.02633477
#
# Stress axis : x y z
#
# Youngs Moduli (GPa) = 87.97012 48.62007 89.98416
#
# Poissons Ratio (x) = 0.20414 0.42801
# Poissons Ratio (y) = 0.36936 -0.05386
# Poissons Ratio (z) = 0.41843 -0.02910
#
# Static dielectric constant tensor:
#      x y z
#    x 1.669100 0.000000 0.000000 
#    y 0.000000 1.612980 0.000000 
#    z 0.000000 0.000000 1.646530 
# 
# From -- ./inp_files/6501.got.cif
#   From: 2010.05.17/outbox.cif.g08.bks.cpg/sg62_4_cif.got.tgz:6501.got - 2010.06.03 15:25:27.
