data_PCOD9461111
_publ_section_title
;
Structure prediction by ZEFSAII (Michael W. Deem and Ramdas Pophale) SiO2 
 PCOD9461111
Probable space group: P B C A
;
_chemical_formula_sum "Si O2"
_cell_formula_units_Z 48
_cell_length_a 17.905937
_cell_length_b 12.335405
_cell_length_c 9.264482
_cell_angle_alpha 90.000000
_cell_angle_beta 90.000000
_cell_angle_gamma 90.000000
_cell_volume 2046.310850
_symmetry_space_group_name_H-M "P B C A"
_symmetry_group_IT_number 61
_symmetry_cell_setting 'orthorhombic'
loop_
_space_group_symop_operation_xyz
x,y,z
1/2-x,-y,1/2+z
1/2+x,1/2-y,-z
-x,1/2+y,1/2-z
-x,-y,-z
1/2+x,y,1/2-z
1/2-x,1/2+y,z
x,1/2-y,1/2+z
loop_
_atom_site_type_symbol
_atom_site_label
_atom_site_fract_x
_atom_site_fract_y
_atom_site_fract_z
Si Si1 0.598219 0.460454 0.996241
Si Si2 0.479993 0.735535 0.411901
Si Si3 0.868341 0.934112 0.669503
Si Si4 0.926438 0.315281 0.641058
Si Si5 0.234577 0.781073 0.715801
Si Si6 0.758863 0.394207 0.077279
O O1 0.565427 0.345419 0.051432
O O2 0.564638 0.562615 0.080661
O O3 0.685946 0.460975 0.035281
O O4 0.595242 0.470997 0.822118
O O5 0.424931 0.634165 0.428441
O O6 0.509324 0.723081 0.250151
O O7 0.555239 0.739228 0.505448
O O8 0.799763 0.856381 0.718442
O O9 0.831689 0.032753 0.585350
O O10 0.846080 0.305100 0.714478
O O11 0.234432 0.802658 0.545763
O O12 0.252425 0.659755 0.766503
#
# Coordination Sequence:
#
# PCOD9461111 Si02
#       6
#     8   8   8   8   8   8
#     4  11  25  50  73 110 155 198 251 311 382 442
#     4  12  26  47  77 104 153 199 246 310 383 447
#     4  11  25  48  76 112 147 206 252 310 378 451
#     4  12  27  48  74 111 151 201 246 311 382 454
#     4  11  25  46  72 112 149 195 250 315 368 439
#     4  11  25  45  81 109 150 194 257 311 372 449
#
# _framework density 23.456847
#
# number of rings (size 3 to 8) (size 9 to 14) (size 15 to 20)
#    0.000    0.667    5.000    1.500    4.667    1.333 
#    0.000    2.500    0.000    0.000    0.000    0.000 
#    0.000    0.000    0.000    0.000    0.000    0.000 
#
# Total GULP energy -268562.956645 kJ/mol
# GULP energy per Si atom -5595.061597 kJ/mol
# Density = 2.340346 g / cm^3
# Si number density = 23.456847 Si / 1000 Ang^3
#
#
#
# Elastic Constant Matrix: (Units=GPa)
#
#
# Indices 1 2 3 4 5 6 
#
# 1 77.8521 15.3235 27.9190 0.0000 0.0000 0.0000
# 2 15.3235 48.2144 43.9759 0.0000 0.0000 0.0000
# 3 27.9190 43.9759 80.1082 0.0000 0.0000 0.0000
# 4 0.0000 0.0000 0.0000 29.0627 0.0000 0.0000
# 5 0.0000 0.0000 0.0000 0.0000 46.2671 0.0000
# 6 0.0000 0.0000 0.0000 0.0000 0.0000 51.3611
#
#
#
# Elastic Compliance Matrix: (Units=1/GPa)
#
#
# Indices 1 2 3 4 5 6 
#
# 1 0.014680 0.000002 -0.005117 0.000000 0.000000 0.000000
# 2 0.000002 0.041539 -0.022804 0.000000 0.000000 0.000000
# 3 -0.005117 -0.022804 0.026785 0.000000 0.000000 0.000000
# 4 0.000000 0.000000 0.000000 0.034408 0.000000 0.000000
# 5 0.000000 0.000000 0.000000 0.000000 0.021614 0.000000
# 6 0.000000 0.000000 0.000000 0.000000 0.000000 0.019470
#
#
# Mechanical properties :
#
#
# Convention : Reuss Voigt Hill
#
# Bulk Modulus (GPa) = 36.81154 42.29016 39.55085
# Shear Modulus (GPa) = 22.38243 33.26859 27.82551
#
# Velocity S-wave (km/s) = 3.09236 3.77010 3.44792
# Velocity P-wave (km/s) = 5.33644 6.08438 5.72264
#
# Compressibility (1/GPa) = 0.02716539
#
# Stress axis : x y z
#
# Youngs Moduli (GPa) = 68.12181 24.07354 37.33451
#
# Poissons Ratio (x) = -0.00004 0.19104
# Poissons Ratio (y) = -0.00012 0.85137
# Poissons Ratio (z) = 0.34858 0.54897
#
# Static dielectric constant tensor:
#      x y z
#    x 1.934970 0.000000 0.000000 
#    y 0.000000 1.879250 0.000000 
#    z 0.000000 0.000000 1.847450 
# 
# From -- ./inp_files/3441.got.cif
#   From: 2010.05.17/outbox.cif.g08.bks.cpg/sg61_2_cif.got.tgz:3441.got - 2010.06.03 15:17:17.
