data_PCOD9461050
_publ_section_title
;
Structure prediction by ZEFSAII (Michael W. Deem and Ramdas Pophale) SiO2 
 PCOD9461050
Probable space group: P B C A
;
_chemical_formula_sum "Si O2"
_cell_formula_units_Z 64
_cell_length_a 15.226077
_cell_length_b 9.040656
_cell_length_c 21.742761
_cell_angle_alpha 90.000000
_cell_angle_beta 90.000000
_cell_angle_gamma 90.000000
_cell_volume 2992.972030
_symmetry_space_group_name_H-M "P B C A"
_symmetry_group_IT_number 61
_symmetry_cell_setting 'orthorhombic'
loop_
_space_group_symop_operation_xyz
x,y,z
1/2-x,-y,1/2+z
1/2+x,1/2-y,-z
-x,1/2+y,1/2-z
-x,-y,-z
1/2+x,y,1/2-z
1/2-x,1/2+y,z
x,1/2-y,1/2+z
loop_
_atom_site_type_symbol
_atom_site_label
_atom_site_fract_x
_atom_site_fract_y
_atom_site_fract_z
Si Si1 0.520176 0.073857 0.935128
Si Si2 0.401438 0.783295 0.740210
Si Si3 0.315149 0.187074 0.369990
Si Si4 0.489056 0.073707 0.433391
Si Si5 0.334374 0.965978 0.159217
Si Si6 0.892940 0.208464 0.258475
Si Si7 0.644675 0.038219 0.136621
Si Si8 0.134139 0.969658 0.159608
O O1 0.510691 0.251170 0.937861
O O2 0.613205 0.054579 0.903397
O O3 0.451484 0.988875 0.890679
O O4 0.500000 0.000000 0.000000
O O5 0.374529 0.618176 0.720261
O O6 0.505948 0.811269 0.739069
O O7 0.367949 0.861185 0.802043
O O8 0.358800 0.863098 0.682144
O O9 0.391189 0.093017 0.404720
O O10 0.331899 0.158087 0.297528
O O11 0.322318 0.366514 0.367541
O O12 0.222018 0.131935 0.395288
O O13 0.500000 0.000000 0.500000
O O14 0.555317 0.979260 0.389495
O O15 0.233851 0.928441 0.145374
O O16 0.356952 0.131532 0.180579
O O17 0.890709 0.379408 0.278860
#
# Coordination Sequence:
#
# PCOD9461050 Si02
#       8
#     8   8   8   8   8   8   8   8
#     4  11  26  50  69  95 136 185 238 287 348 415
#     4  12  22  43  66 101 146 179 223 285 351 419
#     4  11  24  43  67 101 139 174 228 283 346 418
#     4  11  27  48  70  96 134 185 238 291 345 416
#     4  12  25  43  68 104 141 183 229 289 349 424
#     4  12  24  39  69 104 141 182 222 282 357 419
#     4  11  24  43  68 102 136 179 225 283 347 416
#     4  12  24  43  69 103 140 180 232 285 353 419
#
# _framework density 21.383426
#
# number of rings (size 3 to 8) (size 9 to 14) (size 15 to 20)
#    0.000    0.500    5.000    3.750    3.500    2.000 
#    0.000    2.500    0.000    0.000    0.000    0.000 
#    0.000    0.000    0.000    0.000    0.000    0.000 
#
# Total GULP energy -356309.657444 kJ/mol
# GULP energy per Si atom -5567.338398 kJ/mol
# Density = 2.133476 g / cm^3
# Si number density = 21.383426 Si / 1000 Ang^3
#
#
#
# Elastic Constant Matrix: (Units=GPa)
#
#
# Indices 1 2 3 4 5 6 
#
# 1 124.2103 15.1896 18.3628 0.0000 0.0000 0.0000
# 2 15.1896 28.8296 4.9808 0.0000 0.0000 0.0000
# 3 18.3628 4.9808 58.7632 0.0000 0.0000 0.0000
# 4 0.0000 0.0000 0.0000 37.8515 0.0000 0.0000
# 5 0.0000 0.0000 0.0000 0.0000 7.4472 0.0000
# 6 0.0000 0.0000 0.0000 0.0000 0.0000 31.9929
#
#
#
# Elastic Compliance Matrix: (Units=1/GPa)
#
#
# Indices 1 2 3 4 5 6 
#
# 1 0.008934 -0.004288 -0.002428 0.000000 0.000000 0.000000
# 2 -0.004288 0.037260 -0.001818 0.000000 0.000000 0.000000
# 3 -0.002428 -0.001818 0.017930 0.000000 0.000000 0.000000
# 4 0.000000 0.000000 0.000000 0.026419 0.000000 0.000000
# 5 0.000000 0.000000 0.000000 0.000000 0.134279 0.000000
# 6 0.000000 0.000000 0.000000 0.000000 0.000000 0.031257
#
#
# Mechanical properties :
#
#
# Convention : Reuss Voigt Hill
#
# Bulk Modulus (GPa) = 21.25144 32.09661 26.67402
# Shear Modulus (GPa) = 17.31102 27.00964 22.16033
#
# Velocity S-wave (km/s) = 2.84835 3.55788 3.22270
# Velocity P-wave (km/s) = 4.55822 5.64984 5.13313
#
# Compressibility (1/GPa) = 0.04705564
#
# Stress axis : x y z
#
# Youngs Moduli (GPa) = 111.92931 26.83860 55.77111
#
# Poissons Ratio (x) = 0.11508 0.13544
# Poissons Ratio (y) = 0.47992 0.10141
# Poissons Ratio (z) = 0.27181 0.04880
#
# Static dielectric constant tensor:
#      x y z
#    x 1.839620 0.000000 0.000000 
#    y 0.000000 1.771370 0.000000 
#    z 0.000000 0.000000 1.755610 
# 
# From -- ./inp_files/11090.got.cif
#   From: 2010.05.17/outbox.cif.g08.bks.cpg/sg61_6_cif.got.tgz:11090.got - 2010.06.03 15:17:17.
