data_PCOD9461159
_publ_section_title
;
Structure prediction by ZEFSAII (Michael W. Deem and Ramdas Pophale) SiO2 
 PCOD9461159
Probable space group: P B C A
;
_chemical_formula_sum "Si O2"
_cell_formula_units_Z 32
_cell_length_a 15.200714
_cell_length_b 15.670164
_cell_length_c 4.857779
_cell_angle_alpha 90.000000
_cell_angle_beta 90.000000
_cell_angle_gamma 90.000000
_cell_volume 1157.111694
_symmetry_space_group_name_H-M "P B C A"
_symmetry_group_IT_number 61
_symmetry_cell_setting 'orthorhombic'
loop_
_space_group_symop_operation_xyz
x,y,z
1/2-x,-y,1/2+z
1/2+x,1/2-y,-z
-x,1/2+y,1/2-z
-x,-y,-z
1/2+x,y,1/2-z
1/2-x,1/2+y,z
x,1/2-y,1/2+z
loop_
_atom_site_type_symbol
_atom_site_label
_atom_site_fract_x
_atom_site_fract_y
_atom_site_fract_z
Si Si1 0.945130 0.310921 0.798227
Si Si2 0.394206 0.067358 0.782432
Si Si3 0.267654 0.810659 0.145602
Si Si4 0.083191 0.107995 0.009819
O O1 0.920726 0.250676 0.546607
O O2 0.908029 0.402959 0.898929
O O3 0.048135 0.324636 0.735756
O O4 0.311872 0.122300 0.681396
O O5 0.489563 0.088848 0.644192
O O6 0.380522 0.970717 0.687675
O O7 0.263681 0.775169 0.835271
O O8 0.350145 0.859372 0.282217
#
# Coordination Sequence:
#
# PCOD9461159 Si02
#       4
#     8   8   8   8
#     4  12  23  44  77 110 151 200 263 326 397 480
#     4  11  27  52  81 116 163 214 277 339 415 488
#     4  12  30  50  78 119 161 213 273 342 412 489
#     4  11  27  52  81 117 163 218 274 340 416 493
#
# _framework density 27.655065
#
# number of rings (size 3 to 8) (size 9 to 14) (size 15 to 20)
#    0.000    0.500    2.500    3.750    7.000    2.000 
#    4.500    0.000    0.000    0.000    0.000    0.000 
#    0.000    0.000    0.000    0.000    0.000    0.000 
#
# Total GULP energy -179100.677828 kJ/mol
# GULP energy per Si atom -5596.896182 kJ/mol
# Density = 2.759212 g / cm^3
# Si number density = 27.655065 Si / 1000 Ang^3
#
#
#
# Elastic Constant Matrix: (Units=GPa)
#
#
# Indices 1 2 3 4 5 6 
#
# 1 103.0629 23.2612 -2.9128 0.0000 0.0000 0.0000
# 2 23.2612 87.5625 9.1955 0.0000 0.0000 0.0000
# 3 -2.9128 9.1955 158.5449 0.0000 0.0000 0.0000
# 4 0.0000 0.0000 0.0000 49.3594 0.0000 0.0000
# 5 0.0000 0.0000 0.0000 0.0000 34.8445 0.0000
# 6 0.0000 0.0000 0.0000 0.0000 0.0000 53.6279
#
#
#
# Elastic Compliance Matrix: (Units=1/GPa)
#
#
# Indices 1 2 3 4 5 6 
#
# 1 0.010341 -0.002784 0.000351 0.000000 0.000000 0.000000
# 2 -0.002784 0.012240 -0.000761 0.000000 0.000000 0.000000
# 3 0.000351 -0.000761 0.006358 0.000000 0.000000 0.000000
# 4 0.000000 0.000000 0.000000 0.020260 0.000000 0.000000
# 5 0.000000 0.000000 0.000000 0.000000 0.028699 0.000000
# 6 0.000000 0.000000 0.000000 0.000000 0.000000 0.018647
#
#
# Mechanical properties :
#
#
# Convention : Reuss Voigt Hill
#
# Bulk Modulus (GPa) = 44.34258 45.36203 44.85230
# Shear Modulus (GPa) = 45.26978 48.87481 47.07229
#
# Velocity S-wave (km/s) = 4.05031 4.20849 4.13015
# Velocity P-wave (km/s) = 6.15973 6.32879 6.24483
#
# Compressibility (1/GPa) = 0.02255169
#
# Stress axis : x y z
#
# Youngs Moduli (GPa) = 96.70151 81.69987 157.28318
#
# Poissons Ratio (x) = 0.22746 -0.05528
# Poissons Ratio (y) = 0.26922 0.11970
# Poissons Ratio (z) = -0.03399 0.06218
#
# Static dielectric constant tensor:
#      x y z
#    x 2.204510 0.000000 0.000000 
#    y 0.000000 2.198600 0.000000 
#    z 0.000000 0.000000 2.295090 
# 
# From -- ./inp_files/651.got.cif
#   From: 2010.05.17/outbox.cif.g08.bks.cpg/sg61_1_cif.got.tgz:651.got - 2010.06.03 15:17:17.
