data_PCOD9461388
_publ_section_title
;
Structure prediction by ZEFSAII (Michael W. Deem and Ramdas Pophale) SiO2 
 PCOD9461388
Probable space group: P N M A
;
_chemical_formula_sum "Si O2"
_cell_formula_units_Z 64
_cell_length_a 15.275048
_cell_length_b 7.389160
_cell_length_c 28.596801
_cell_angle_alpha 90.000000
_cell_angle_beta 90.000000
_cell_angle_gamma 90.000000
_cell_volume 3227.714457
_symmetry_space_group_name_H-M "P N M A"
_symmetry_group_IT_number 62
_symmetry_cell_setting 'orthorhombic'
loop_
_space_group_symop_operation_xyz
x,y,z
1/2-x,-y,1/2+z
1/2+x,1/2-y,1/2-z
-x,1/2+y,-z
-x,-y,-z
1/2+x,y,1/2-z
1/2-x,1/2+y,1/2+z
x,1/2-y,z
loop_
_atom_site_type_symbol
_atom_site_label
_atom_site_fract_x
_atom_site_fract_y
_atom_site_fract_z
Si Si1 0.893445 0.970657 0.672600
Si Si2 0.728797 0.471879 0.365253
Si Si3 0.091055 0.529780 0.779739
Si Si4 0.590394 0.970410 0.827461
Si Si5 0.107927 0.030087 0.220103
Si Si6 0.082237 0.037687 0.947010
Si Si7 0.786857 0.467950 0.136186
Si Si8 0.888560 0.958284 0.949342
O O1 0.894967 0.750000 0.672257
O O2 0.874343 0.024657 0.726419
O O3 0.813308 0.030336 0.640311
O O4 0.991908 0.029745 0.660392
O O5 0.726567 0.250000 0.365460
O O6 0.829533 0.527608 0.359942
O O7 0.676003 0.529549 0.318901
O O8 0.677134 0.536094 0.411053
O O9 0.093296 0.750000 0.779850
O O10 0.108996 0.475039 0.726336
O O11 0.159177 0.467313 0.818450
O O12 0.991597 0.476086 0.791658
O O13 0.589487 0.750000 0.827605
O O14 0.109898 0.250000 0.220228
O O15 0.065061 0.250000 0.952764
O O16 0.158824 0.014519 0.909829
O O17 0.106814 0.962581 0.998323
O O18 0.988740 0.959851 0.930981
O O19 0.785282 0.250000 0.138533
O O20 0.861291 0.750000 0.955374
#
# Coordination Sequence:
#
# PCOD9461388 Si02
#       8
#     8   8   8   8   8   8   8   8
#     4   8  14  22  33  56  90 118 137 165 205 244
#     4   9  14  21  38  61  84 110 138 170 209 251
#     4   8  13  20  33  58  90 115 135 167 209 249
#     4   8  13  21  34  59  92 115 135 172 216 246
#     4   8  12  18  30  54  87 113 132 161 205 251
#     4  10  20  32  45  63  87 111 136 171 214 257
#     4  10  17  26  43  64  86 114 145 172 202 245
#     4   9  18  32  48  66  86 108 136 171 214 261
#
# _framework density 19.828271000000001
#
# number of rings (size 3 to 8) (size 9 to 14) (size 15 to 20)
#    0.000    3.250    0.000    3.375    0.000    5.500 
#    0.000    0.000    0.000    0.750    0.000   14.875 
#    0.000    0.000    0.000    0.000    0.000    0.375 
#
# Total GULP energy -356996.401204 kJ/mol
# GULP energy per Si atom -5578.068769 kJ/mol
# Density = 1.978314 g / cm^3
# Si number density = 19.828271 Si / 1000 Ang^3
#
#
#
# Elastic Constant Matrix: (Units=GPa)
#
#
# Indices 1 2 3 4 5 6 
#
# 1 164.9626 0.1650 100.5105 0.0000 0.0000 0.0000
# 2 0.1650 66.8074 0.7207 0.0000 0.0000 0.0000
# 3 100.5105 0.7207 91.4107 0.0000 0.0000 0.0000
# 4 0.0000 0.0000 0.0000 -4.7987 0.0000 0.0000
# 5 0.0000 0.0000 0.0000 0.0000 35.5085 0.0000
# 6 0.0000 0.0000 0.0000 0.0000 0.0000 -4.3024
#
#
#
# Elastic Compliance Matrix: (Units=1/GPa)
#
#
# Indices 1 2 3 4 5 6 
#
# 1 0.018369 0.000173 -0.020199 0.000000 0.000000 0.000000
# 2 0.000173 0.014971 -0.000308 0.000000 0.000000 0.000000
# 3 -0.020199 -0.000308 0.033151 0.000000 0.000000 0.000000
# 4 0.000000 0.000000 0.000000 -0.208389 0.000000 0.000000
# 5 0.000000 0.000000 0.000000 0.000000 0.028162 0.000000
# 6 0.000000 0.000000 0.000000 0.000000 0.000000 -0.232426
#
#
# Mechanical properties :
#
#
# Convention : Reuss Voigt Hill
#
# Bulk Modulus (GPa) = 38.72404 58.44146 48.58275
# Shear Modulus (GPa) = -16.84149 20.06710 1.61281
#
# Velocity S-wave (km/s) = -2.91755 3.18472 0.90286
# Velocity P-wave (km/s) = 2.86751 6.56209 5.06378
#
# Compressibility (1/GPa) = 0.02582375
#
# Stress axis : x y z
#
# Youngs Moduli (GPa) = 54.44042 66.79453 30.16458
#
# Poissons Ratio (x) = -0.01152 0.60928
# Poissons Ratio (y) = -0.00939 0.00928
# Poissons Ratio (z) = 1.09962 0.02055
#
# Static dielectric constant tensor:
#      x y z
#    x 1.699840 0.000000 0.000000 
#    y 0.000000 1.797690 0.000000 
#    z 0.000000 0.000000 1.675940 
# 
# From -- ./inp_files/32681.got.cif
#   From: 2010.05.17/outbox.cif.g08.bks.cpg/sg62_17_cif.got.tgz:32681.got - 2010.06.03 15:25:27.
