data_PCOD9461298
_publ_section_title
;
Structure prediction by ZEFSAII (Michael W. Deem and Ramdas Pophale) SiO2 
 PCOD9461298
Probable space group: P B C A
;
_chemical_formula_sum "Si O2"
_cell_formula_units_Z 48
_cell_length_a 15.000000
_cell_length_b 9.000000
_cell_length_c 18.000000
_cell_angle_alpha 90.000000
_cell_angle_beta 90.000000
_cell_angle_gamma 90.000000
_cell_volume 2430.000000
_symmetry_space_group_name_H-M "P B C A"
_symmetry_group_IT_number 61
_symmetry_cell_setting 'orthorhombic'
loop_
_space_group_symop_operation_xyz
x,y,z
1/2-x,-y,1/2+z
1/2+x,1/2-y,-z
-x,1/2+y,1/2-z
-x,-y,-z
1/2+x,y,1/2-z
1/2-x,1/2+y,z
x,1/2-y,1/2+z
loop_
_atom_site_type_symbol
_atom_site_label
_atom_site_fract_x
_atom_site_fract_y
_atom_site_fract_z
Si Si1 0.825240 0.452663 0.198422
Si Si2 0.204436 0.662504 0.208166
Si Si3 0.977294 0.635554 0.633163
Si Si4 0.215658 0.412640 0.449262
Si Si5 0.831005 0.188653 0.947722
Si Si6 0.509132 0.924544 0.768452
O O1 0.809635 0.287141 0.228646
O O2 0.785471 0.561776 0.262463
O O3 0.771103 0.475510 0.121909
O O4 0.931132 0.478768 0.192944
O O5 0.212436 0.749952 0.129729
O O6 0.112833 0.565333 0.206404
O O7 0.881811 0.636261 0.587989
O O8 0.981214 0.760430 0.699506
O O9 0.062900 0.672352 0.578500
O O10 0.990144 0.481630 0.681620
O O11 0.192913 0.530492 0.514701
O O12 0.285572 0.297785 0.489433
#
# Coordination Sequence:
#
# PCOD9461298 Si02
#       6
#     8   8   8   8   8   8
#     4  12  23  43  73 101 135 182 239 289 343 418
#     4  11  24  43  67 101 133 183 234 289 340 421
#     4  11  24  46  71 100 142 186 237 297 354 426
#     4  12  25  46  69 104 143 187 228 294 365 420
#     4  11  25  45  66 103 144 184 230 287 365 423
#     4  11  22  43  68 105 130 179 244 294 346 403
#
# _framework density 19.753086
#
# number of rings (size 3 to 8) (size 9 to 14) (size 15 to 20)
#    0.000    0.667    5.000    4.500    0.000    0.000 
#    0.000    9.167    0.000    0.000    0.000    0.000 
#    0.000    0.000    0.000    0.000    0.000    0.000 
#
# Total GULP energy -267345.108107 kJ/mol
# GULP energy per Si atom -5569.689752 kJ/mol
# Density = 1.970813 g / cm^3
# Si number density = 19.753086 Si / 1000 Ang^3
#
#
#
# Elastic Constant Matrix: (Units=GPa)
#
#
# Indices 1 2 3 4 5 6 
#
# 1 104.0868 28.7120 41.9480 0.0000 0.0000 0.0000
# 2 28.7120 76.9729 23.2246 0.0000 0.0000 0.0000
# 3 41.9480 23.2246 117.0528 0.0000 0.0000 0.0000
# 4 0.0000 0.0000 0.0000 54.6080 0.0000 0.0000
# 5 0.0000 0.0000 0.0000 0.0000 44.8526 0.0000
# 6 0.0000 0.0000 0.0000 0.0000 0.0000 31.9166
#
#
#
# Elastic Compliance Matrix: (Units=1/GPa)
#
#
# Indices 1 2 3 4 5 6 
#
# 1 0.012003 -0.003382 -0.003631 0.000000 0.000000 0.000000
# 2 -0.003382 0.014772 -0.001719 0.000000 0.000000 0.000000
# 3 -0.003631 -0.001719 0.010185 0.000000 0.000000 0.000000
# 4 0.000000 0.000000 0.000000 0.018312 0.000000 0.000000
# 5 0.000000 0.000000 0.000000 0.000000 0.022295 0.000000
# 6 0.000000 0.000000 0.000000 0.000000 0.000000 0.031332
#
#
# Mechanical properties :
#
#
# Convention : Reuss Voigt Hill
#
# Bulk Modulus (GPa) = 51.28870 53.98687 52.63779
# Shear Modulus (GPa) = 37.63302 39.89061 38.76182
#
# Velocity S-wave (km/s) = 4.36956 4.49872 4.43461
# Velocity P-wave (km/s) = 7.17487 7.37393 7.27508
#
# Compressibility (1/GPa) = 0.01949747
#
# Stress axis : x y z
#
# Youngs Moduli (GPa) = 83.30927 67.69678 98.18070
#
# Poissons Ratio (x) = 0.22895 0.35646
# Poissons Ratio (y) = 0.28175 0.16876
# Poissons Ratio (z) = 0.30247 0.11636
#
# Static dielectric constant tensor:
#      x y z
#    x 1.712990 0.000000 0.000000 
#    y 0.000000 1.766480 0.000000 
#    z 0.000000 0.000000 1.687000 
# 
# From -- ./inp_files/3465.got.cif
#   From: 2010.05.17/outbox.ucp.g08.bks.cvg/sg61_2_cif.got.tgz:3465.got - 2010.06.11 16:28:26.
