data_PCOD9461306
_publ_section_title
;
Structure prediction by ZEFSAII (Michael W. Deem and Ramdas Pophale) SiO2 
 PCOD9461306
Probable space group: P B C A
;
_chemical_formula_sum "Si O2"
_cell_formula_units_Z 48
_cell_length_a 9.000000
_cell_length_b 9.000000
_cell_length_c 30.000000
_cell_angle_alpha 90.000000
_cell_angle_beta 90.000000
_cell_angle_gamma 90.000000
_cell_volume 2430.000000
_symmetry_space_group_name_H-M "P B C A"
_symmetry_group_IT_number 61
_symmetry_cell_setting 'orthorhombic'
loop_
_space_group_symop_operation_xyz
x,y,z
1/2-x,-y,1/2+z
1/2+x,1/2-y,-z
-x,1/2+y,1/2-z
-x,-y,-z
1/2+x,y,1/2-z
1/2-x,1/2+y,z
x,1/2-y,1/2+z
loop_
_atom_site_type_symbol
_atom_site_label
_atom_site_fract_x
_atom_site_fract_y
_atom_site_fract_z
Si Si1 0.624632 0.661496 0.616436
Si Si2 0.056260 0.486212 0.369912
Si Si3 0.942735 0.528881 0.799803
Si Si4 0.631115 0.888299 0.006870
Si Si5 0.105916 0.931106 0.036346
Si Si6 0.888277 0.164589 0.786682
O O1 0.513257 0.569114 0.650639
O O2 0.629856 0.641232 0.561339
O O3 0.789139 0.604191 0.628615
O O4 0.592399 0.836186 0.627173
O O5 0.956940 0.449179 0.413849
O O6 0.973375 0.427212 0.325752
O O7 0.917290 0.346649 0.792597
O O8 0.785047 0.615898 0.792963
O O9 0.050230 0.599795 0.760973
O O10 0.619136 0.736673 0.979832
O O11 0.500000 0.000000 0.000000
O O12 0.752009 0.975921 0.977410
O O13 0.000000 0.000000 0.000000
#
# Coordination Sequence:
#
# PCOD9461306 Si02
#       6
#     8   8   8   8   8   8
#     4  12  25  46  70 104 140 190 238 292 357 421
#     4  12  27  45  74 103 146 190 243 296 359 427
#     4  12  27  49  77 108 146 185 239 291 364 425
#     4  12  27  43  71  99 145 189 239 298 351 424
#     4  12  25  46  68 103 141 191 242 290 356 418
#     4  12  27  49  76 108 144 186 234 298 353 431
#
# _framework density 19.753086
#
# number of rings (size 3 to 8) (size 9 to 14) (size 15 to 20)
#    0.000    0.000    3.333    6.000    7.000    0.000 
#    0.000    0.000    0.000    0.000    0.000    0.000 
#    0.000    0.000    0.000    0.000    0.000    0.000 
#
# Total GULP energy -267480.491791 kJ/mol
# GULP energy per Si atom -5572.510246 kJ/mol
# Density = 1.970813 g / cm^3
# Si number density = 19.753086 Si / 1000 Ang^3
#
#
#
# Elastic Constant Matrix: (Units=GPa)
#
#
# Indices 1 2 3 4 5 6 
#
# 1 135.5733 60.2872 37.1352 0.0000 0.0000 0.0000
# 2 60.2872 198.1454 44.7069 0.0000 0.0000 0.0000
# 3 37.1352 44.7069 136.4210 0.0000 0.0000 0.0000
# 4 0.0000 0.0000 0.0000 44.7124 0.0000 0.0000
# 5 0.0000 0.0000 0.0000 0.0000 52.6181 0.0000
# 6 0.0000 0.0000 0.0000 0.0000 0.0000 35.7929
#
#
#
# Elastic Compliance Matrix: (Units=1/GPa)
#
#
# Indices 1 2 3 4 5 6 
#
# 1 0.008862 -0.002324 -0.001651 0.000000 0.000000 0.000000
# 2 -0.002324 0.006059 -0.001353 0.000000 0.000000 0.000000
# 3 -0.001651 -0.001353 0.008223 0.000000 0.000000 0.000000
# 4 0.000000 0.000000 0.000000 0.022365 0.000000 0.000000
# 5 0.000000 0.000000 0.000000 0.000000 0.019005 0.000000
# 6 0.000000 0.000000 0.000000 0.000000 0.000000 0.027939
#
#
# Mechanical properties :
#
#
# Convention : Reuss Voigt Hill
#
# Bulk Modulus (GPa) = 80.07296 83.82203 81.94750
# Shear Modulus (GPa) = 46.61128 48.49203 47.55165
#
# Velocity S-wave (km/s) = 4.86294 4.96008 4.91175
# Velocity P-wave (km/s) = 8.49446 8.67930 8.58738
#
# Compressibility (1/GPa) = 0.01248861
#
# Stress axis : x y z
#
# Youngs Moduli (GPa) = 112.84690 165.04059 121.61001
#
# Poissons Ratio (x) = 0.38351 0.20074
# Poissons Ratio (y) = 0.26223 0.16455
# Poissons Ratio (z) = 0.18627 0.22332
#
# Static dielectric constant tensor:
#      x y z
#    x 1.666170 0.000000 0.000000 
#    y 0.000000 2.006280 0.000000 
#    z 0.000000 0.000000 1.695670 
# 
# From -- ./inp_files/11671.got.cif
#   From: 2010.05.17/outbox.ucp.g08.bks.cvg/sg61_6_cif.got.tgz:11671.got - 2010.06.11 16:28:26.
