data_PCOD9461057
_publ_section_title
;
Structure prediction by ZEFSAII (Michael W. Deem and Ramdas Pophale) SiO2 
 PCOD9461057
Probable space group: P B C A
;
_chemical_formula_sum "Si O2"
_cell_formula_units_Z 64
_cell_length_a 25.322036
_cell_length_b 8.411221
_cell_length_c 12.500380
_cell_angle_alpha 90.000000
_cell_angle_beta 90.000000
_cell_angle_gamma 90.000000
_cell_volume 2662.446448
_symmetry_space_group_name_H-M "P B C A"
_symmetry_group_IT_number 61
_symmetry_cell_setting 'orthorhombic'
loop_
_space_group_symop_operation_xyz
x,y,z
1/2-x,-y,1/2+z
1/2+x,1/2-y,-z
-x,1/2+y,1/2-z
-x,-y,-z
1/2+x,y,1/2-z
1/2-x,1/2+y,z
x,1/2-y,1/2+z
loop_
_atom_site_type_symbol
_atom_site_label
_atom_site_fract_x
_atom_site_fract_y
_atom_site_fract_z
Si Si1 0.301832 0.112036 0.955291
Si Si2 0.940427 0.608172 0.174043
Si Si3 0.367836 0.955848 0.632721
Si Si4 0.887533 0.601885 0.948987
Si Si5 0.881259 0.384442 0.576396
Si Si6 0.549910 0.475803 0.243492
Si Si7 0.708143 0.464947 0.200376
Si Si8 0.739156 0.315568 0.847300
O O1 0.348112 0.224306 0.912323
O O2 0.261016 0.049061 0.868989
O O3 0.266238 0.212245 0.039206
O O4 0.331557 0.969175 0.014739
O O5 0.893593 0.545187 0.250963
O O6 0.947800 0.796411 0.197712
O O7 0.992983 0.519191 0.211167
O O8 0.925918 0.583279 0.050639
O O9 0.383096 0.786988 0.579481
O O10 0.304312 0.955222 0.638287
O O11 0.388982 0.085840 0.549476
O O12 0.909599 0.516346 0.843281
O O13 0.932419 0.403975 0.649446
O O14 0.841853 0.521129 0.623496
O O15 0.714680 0.622628 0.270354
O O16 0.708238 0.319178 0.282361
#
# Coordination Sequence:
#
# PCOD9461057 Si02
#       8
#     8   8   8   8   8   8   8   8
#     4  12  27  41  70 103 139 188 231 285 351 417
#     4  11  25  48  74 104 134 191 234 295 362 408
#     4  11  24  43  72  97 141 184 230 284 349 422
#     4  11  25  47  72 102 137 182 235 289 353 417
#     4  12  25  47  65 107 141 183 238 290 349 421
#     4  11  26  48  75 104 142 181 236 296 354 418
#     4  12  25  42  66  99 142 181 233 281 344 417
#     4  12  24  42  67 100 141 184 230 283 345 417
#
# _framework density 24.038042999999998
#
# number of rings (size 3 to 8) (size 9 to 14) (size 15 to 20)
#    0.000    0.500    3.750    4.875    5.250    1.500 
#    0.000    0.000    0.000    0.000    0.000    0.000 
#    0.000    0.000    0.000    0.000    0.000    0.000 
#
# Total GULP energy -358696.348674 kJ/mol
# GULP energy per Si atom -5604.630448 kJ/mol
# Density = 2.398333 g / cm^3
# Si number density = 24.038043 Si / 1000 Ang^3
#
#
#
# Elastic Constant Matrix: (Units=GPa)
#
#
# Indices 1 2 3 4 5 6 
#
# 1 52.5886 0.9963 -11.7774 0.0000 0.0000 0.0000
# 2 0.9963 34.7755 16.2732 0.0000 0.0000 0.0000
# 3 -11.7774 16.2732 84.5286 0.0000 0.0000 0.0000
# 4 0.0000 0.0000 0.0000 27.3783 0.0000 0.0000
# 5 0.0000 0.0000 0.0000 0.0000 38.0530 0.0000
# 6 0.0000 0.0000 0.0000 0.0000 0.0000 34.8490
#
#
#
# Elastic Compliance Matrix: (Units=1/GPa)
#
#
# Indices 1 2 3 4 5 6 
#
# 1 0.019759 -0.002038 0.003145 0.000000 0.000000 0.000000
# 2 -0.002038 0.031813 -0.006408 0.000000 0.000000 0.000000
# 3 0.003145 -0.006408 0.013502 0.000000 0.000000 0.000000
# 4 0.000000 0.000000 0.000000 0.036525 0.000000 0.000000
# 5 0.000000 0.000000 0.000000 0.000000 0.026279 0.000000
# 6 0.000000 0.000000 0.000000 0.000000 0.000000 0.028695
#
#
# Mechanical properties :
#
#
# Convention : Reuss Voigt Hill
#
# Bulk Modulus (GPa) = 18.35816 20.31965 19.33891
# Shear Modulus (GPa) = 26.97847 31.14943 29.06395
#
# Velocity S-wave (km/s) = 3.35374 3.60368 3.48096
# Velocity P-wave (km/s) = 4.75926 5.07807 4.92125
#
# Compressibility (1/GPa) = 0.05447169
#
# Stress axis : x y z
#
# Youngs Moduli (GPa) = 50.61106 31.43362 74.06146
#
# Poissons Ratio (x) = 0.06406 -0.23294
# Poissons Ratio (y) = 0.10314 0.47462
# Poissons Ratio (z) = -0.15919 0.20144
#
# Static dielectric constant tensor:
#      x y z
#    x 1.889630 0.000000 0.000000 
#    y 0.000000 1.961810 0.000000 
#    z 0.000000 0.000000 1.905480 
# 
# From -- ./inp_files/6767.got.cif
#   From: 2010.05.17/outbox.cif.g08.bks.cpg/sg61_4_cif.got.tgz:6767.got - 2010.06.03 15:17:17.
