data_PCOD9461439
_publ_section_title
;
Structure prediction by ZEFSAII (Michael W. Deem and Ramdas Pophale) SiO2 
 PCOD9461439
Probable space group: P N M A
;
_chemical_formula_sum "Si O2"
_cell_formula_units_Z 48
_cell_length_a 6.701761
_cell_length_b 10.821077
_cell_length_c 27.068216
_cell_angle_alpha 90.000000
_cell_angle_beta 90.000000
_cell_angle_gamma 90.000000
_cell_volume 1962.994382
_symmetry_space_group_name_H-M "P N M A"
_symmetry_group_IT_number 62
_symmetry_cell_setting 'orthorhombic'
loop_
_space_group_symop_operation_xyz
x,y,z
1/2-x,-y,1/2+z
1/2+x,1/2-y,1/2-z
-x,1/2+y,-z
-x,-y,-z
1/2+x,y,1/2-z
1/2-x,1/2+y,1/2+z
x,1/2-y,z
loop_
_atom_site_type_symbol
_atom_site_label
_atom_site_fract_x
_atom_site_fract_y
_atom_site_fract_z
Si Si1 0.993592 0.750000 0.826376
Si Si2 0.185178 0.395070 0.587943
Si Si3 0.615518 0.504340 0.618780
Si Si4 0.474178 0.389096 0.706715
Si Si5 0.553645 0.015702 0.811784
Si Si6 0.050862 0.750000 0.712029
Si Si7 0.678029 0.903035 0.515258
O O1 0.058371 0.865264 0.858351
O O2 0.080843 0.750000 0.770830
O O3 0.757484 0.750000 0.817616
O O4 0.163715 0.250000 0.594902
O O5 0.414336 0.434293 0.599695
O O6 0.045741 0.452173 0.630443
O O7 0.164717 0.418229 0.529513
O O8 0.656004 0.424786 0.669543
O O9 0.733681 0.543645 0.569160
O O10 0.412565 0.250000 0.694555
O O11 0.295483 0.484153 0.696634
O O12 0.506488 0.397692 0.765111
O O13 0.460029 0.881649 0.802100
O O14 0.633150 0.750000 0.517235
O O15 0.500000 0.000000 0.500000
#
# Coordination Sequence:
#
# PCOD9461439 Si02
#       7
#     4   8   8   8   8   4   8
#     4  12  20  32  50  70 108 128 170 201 249 293
#     4   9  17  29  44  68  97 130 159 204 244 299
#     4  10  17  29  46  68  94 133 159 204 244 296
#     4  11  21  33  50  72 101 132 163 204 247 300
#     4  11  20  33  50  71 101 128 165 201 250 292
#     4  12  20  34  48  74 100 136 166 207 245 301
#     4   9  17  27  44  66  96 127 166 197 253 299
#
# _framework density 24.452435999999999
#
# number of rings (size 3 to 8) (size 9 to 14) (size 15 to 20)
#    0.000    1.667    5.833    3.000    0.000    0.667 
#    0.000    0.000    0.000    0.000    0.000    1.167 
#    0.000    0.000    0.000    0.000    0.000    0.000 
#
# Total GULP energy -267341.779834 kJ/mol
# GULP energy per Si atom -5569.620413 kJ/mol
# Density = 2.439678 g / cm^3
# Si number density = 24.452436 Si / 1000 Ang^3
#
#
#
# Elastic Constant Matrix: (Units=GPa)
#
#
# Indices 1 2 3 4 5 6 
#
# 1 31.9144 12.5389 35.1601 0.0000 0.0000 0.0000
# 2 12.5389 144.2526 48.3995 0.0000 0.0000 0.0000
# 3 35.1601 48.3995 223.2450 0.0000 0.0000 0.0000
# 4 0.0000 0.0000 0.0000 45.2119 0.0000 0.0000
# 5 0.0000 0.0000 0.0000 0.0000 44.7684 0.0000
# 6 0.0000 0.0000 0.0000 0.0000 0.0000 13.0317
#
#
#
# Elastic Compliance Matrix: (Units=1/GPa)
#
#
# Indices 1 2 3 4 5 6 
#
# 1 0.038174 -0.001403 -0.005708 0.000000 0.000000 0.000000
# 2 -0.001403 0.007528 -0.001411 0.000000 0.000000 0.000000
# 3 -0.005708 -0.001411 0.005684 0.000000 0.000000 0.000000
# 4 0.000000 0.000000 0.000000 0.022118 0.000000 0.000000
# 5 0.000000 0.000000 0.000000 0.000000 0.022337 0.000000
# 6 0.000000 0.000000 0.000000 0.000000 0.000000 0.076736
#
#
# Mechanical properties :
#
#
# Convention : Reuss Voigt Hill
#
# Bulk Modulus (GPa) = 29.11938 65.73433 47.42685
# Shear Modulus (GPa) = 24.86726 40.82330 32.84528
#
# Velocity S-wave (km/s) = 3.19245 4.09038 3.66899
# Velocity P-wave (km/s) = 5.05207 7.01778 6.11443
#
# Compressibility (1/GPa) = 0.03434139
#
# Stress axis : x y z
#
# Youngs Moduli (GPa) = 26.19617 132.84329 175.92394
#
# Poissons Ratio (x) = 0.18638 1.00417
# Poissons Ratio (y) = 0.03675 0.24823
# Poissons Ratio (z) = 0.14953 0.18745
#
# Static dielectric constant tensor:
#      x y z
#    x 2.070150 0.000000 0.000000 
#    y 0.000000 1.810200 0.000000 
#    z 0.000000 0.000000 2.037830 
# 
# From -- ./inp_files/29380.got.cif
#   From: 2010.05.17/outbox.cif.g08.bks.cpg/sg62_15_cif.got.tgz:29380.got - 2010.06.03 15:25:27.
