data_PCOD9461064
_publ_section_title
;
Structure prediction by ZEFSAII (Michael W. Deem and Ramdas Pophale) SiO2 
 PCOD9461064
Probable space group: P B C A
;
_chemical_formula_sum "Si O2"
_cell_formula_units_Z 48
_cell_length_a 9.217264
_cell_length_b 8.740843
_cell_length_c 26.249223
_cell_angle_alpha 90.000000
_cell_angle_beta 90.000000
_cell_angle_gamma 90.000000
_cell_volume 2114.812159
_symmetry_space_group_name_H-M "P B C A"
_symmetry_group_IT_number 61
_symmetry_cell_setting 'orthorhombic'
loop_
_space_group_symop_operation_xyz
x,y,z
1/2-x,-y,1/2+z
1/2+x,1/2-y,-z
-x,1/2+y,1/2-z
-x,-y,-z
1/2+x,y,1/2-z
1/2-x,1/2+y,z
x,1/2-y,1/2+z
loop_
_atom_site_type_symbol
_atom_site_label
_atom_site_fract_x
_atom_site_fract_y
_atom_site_fract_z
Si Si1 0.136596 0.187814 0.722711
Si Si2 0.073686 0.814960 0.862366
Si Si3 0.351298 0.910506 0.000138
Si Si4 0.352913 0.964896 0.883811
Si Si5 0.597772 0.421755 0.957676
Si Si6 0.442838 0.161629 0.196152
O O1 0.301085 0.231977 0.706232
O O2 0.029675 0.275777 0.684085
O O3 0.078445 0.255673 0.775940
O O4 0.102311 0.006605 0.717925
O O5 0.214276 0.916060 0.850340
O O6 0.122097 0.646945 0.882823
O O7 0.980044 0.903888 0.904341
O O8 0.307129 0.915345 0.940836
O O9 0.370483 0.741923 0.019160
O O10 0.500000 0.000000 0.000000
O O11 0.245942 0.986947 0.040906
O O12 0.494286 0.878953 0.860499
O O13 0.500000 0.500000 0.000000
#
# Coordination Sequence:
#
# PCOD9461064 Si02
#       6
#     8   8   8   8   8   8
#     4  11  25  45  70 102 134 175 221 280 333 407
#     4  11  25  43  67  98 135 178 228 274 340 396
#     4  12  24  43  67  95 139 176 226 279 332 395
#     4  11  24  45  66  99 135 180 226 279 337 400
#     4  12  25  44  65  99 133 181 227 275 335 400
#     4  11  25  46  71 101 138 175 226 276 342 399
#
# _framework density 22.697053
#
# number of rings (size 3 to 8) (size 9 to 14) (size 15 to 20)
#    0.000    0.667    3.333    4.000    2.333    5.333 
#    0.000    0.000    0.000    0.000    0.000    0.000 
#    0.000    0.000    0.000    0.000    0.000    0.000 
#
# Total GULP energy -268463.069572 kJ/mol
# GULP energy per Si atom -5592.980616 kJ/mol
# Density = 2.264539 g / cm^3
# Si number density = 22.697053 Si / 1000 Ang^3
#
#
#
# Elastic Constant Matrix: (Units=GPa)
#
#
# Indices 1 2 3 4 5 6 
#
# 1 98.9062 19.0674 -5.7908 0.0000 0.0000 0.0000
# 2 19.0674 84.2207 -15.1584 0.0000 0.0000 0.0000
# 3 -5.7908 -15.1584 34.2183 0.0000 0.0000 0.0000
# 4 0.0000 0.0000 0.0000 26.0692 0.0000 0.0000
# 5 0.0000 0.0000 0.0000 0.0000 41.2707 0.0000
# 6 0.0000 0.0000 0.0000 0.0000 0.0000 32.7551
#
#
#
# Elastic Compliance Matrix: (Units=1/GPa)
#
#
# Indices 1 2 3 4 5 6 
#
# 1 0.010592 -0.002255 0.000793 0.000000 0.000000 0.000000
# 2 -0.002255 0.013382 0.005547 0.000000 0.000000 0.000000
# 3 0.000793 0.005547 0.031816 0.000000 0.000000 0.000000
# 4 0.000000 0.000000 0.000000 0.038359 0.000000 0.000000
# 5 0.000000 0.000000 0.000000 0.000000 0.024230 0.000000
# 6 0.000000 0.000000 0.000000 0.000000 0.000000 0.030530
#
#
# Mechanical properties :
#
#
# Convention : Reuss Voigt Hill
#
# Bulk Modulus (GPa) = 15.63485 23.73127 19.68306
# Shear Modulus (GPa) = 30.85294 34.63412 32.74353
#
# Velocity S-wave (km/s) = 3.69092 3.91055 3.80232
# Velocity P-wave (km/s) = 5.00672 5.55592 5.28846
#
# Compressibility (1/GPa) = 0.06395969
#
# Stress axis : x y z
#
# Youngs Moduli (GPa) = 94.41266 74.72481 31.43121
#
# Poissons Ratio (x) = 0.16852 -0.02494
# Poissons Ratio (y) = 0.21291 -0.17434
# Poissons Ratio (z) = -0.07491 -0.41447
#
# Static dielectric constant tensor:
#      x y z
#    x 1.951860 0.000000 0.000000 
#    y 0.000000 1.789700 0.000000 
#    z 0.000000 0.000000 1.946520 
# 
# From -- ./inp_files/11682.got.cif
#   From: 2010.05.17/outbox.cif.g08.bks.cpg/sg61_6_cif.got.tgz:11682.got - 2010.06.03 15:17:17.
