data_PCOD9461795
_publ_section_title
;
Structure prediction by ZEFSAII (Michael W. Deem and Ramdas Pophale) SiO2 
 PCOD9461795
Probable space group: P N M A
;
_chemical_formula_sum "Si O2"
_cell_formula_units_Z 64
_cell_length_a 14.750501
_cell_length_b 14.402890
_cell_length_c 11.158905
_cell_angle_alpha 90.000000
_cell_angle_beta 90.000000
_cell_angle_gamma 90.000000
_cell_volume 2370.707619
_symmetry_space_group_name_H-M "P N M A"
_symmetry_group_IT_number 62
_symmetry_cell_setting 'orthorhombic'
loop_
_space_group_symop_operation_xyz
x,y,z
1/2-x,-y,1/2+z
1/2+x,1/2-y,1/2-z
-x,1/2+y,-z
-x,-y,-z
1/2+x,y,1/2-z
1/2-x,1/2+y,1/2+z
x,1/2-y,z
loop_
_atom_site_type_symbol
_atom_site_label
_atom_site_fract_x
_atom_site_fract_y
_atom_site_fract_z
Si Si1 0.671333 0.362915 0.707799
Si Si2 0.985295 0.636754 0.817073
Si Si3 0.708416 0.863699 0.434885
Si Si4 0.971675 0.104605 0.529426
Si Si5 0.844303 0.142570 0.304244
Si Si6 0.963497 0.361139 0.797298
Si Si7 0.359927 0.645225 0.899904
Si Si8 0.817830 0.637132 0.949791
O O1 0.670593 0.250000 0.709350
O O2 0.729487 0.390560 0.821505
O O3 0.566929 0.394395 0.705431
O O4 0.712674 0.392119 0.580635
O O5 0.991059 0.750000 0.812465
O O6 0.922047 0.604406 0.705672
O O7 0.923113 0.613836 0.929221
O O8 0.087147 0.603253 0.795267
O O9 0.706161 0.750000 0.443383
O O10 0.607640 0.895070 0.397573
O O11 0.766037 0.895163 0.550892
O O12 0.903578 0.139206 0.426929
O O13 0.931955 0.120176 0.660769
O O14 0.069630 0.152443 0.511118
O O15 0.000000 0.000000 0.500000
O O16 0.830358 0.250000 0.272497
O O17 0.748184 0.102527 0.344574
O O18 0.966630 0.250000 0.813592
O O19 0.340966 0.750000 0.859274
O O20 0.812644 0.750000 0.945649
#
# Coordination Sequence:
#
# PCOD9461795 Si02
#       8
#     8   8   8   8   8   8   8   8
#     4   9  16  26  43  71 105 132 159 208 263 310
#     4   8  15  27  45  70  98 129 163 210 258 295
#     4   9  16  27  48  76  99 130 171 209 263 319
#     4  11  20  30  50  74 104 133 173 212 252 307
#     4   9  17  31  52  72  93 130 172 211 255 299
#     4  10  18  30  49  76 106 137 170 215 271 317
#     4   9  16  31  52  72 100 133 169 214 259 300
#     4   9  16  28  46  73 102 128 169 212 256 311
#
# _framework density 26.996158999999999
#
# number of rings (size 3 to 8) (size 9 to 14) (size 15 to 20)
#    0.000    2.750    1.250    2.625    0.000    2.000 
#    2.250    0.000    5.500    0.000    0.000    3.500 
#    0.000    0.000    0.000    0.000    0.000    0.000 
#
# Total GULP energy -357768.035365 kJ/mol
# GULP energy per Si atom -5590.125553 kJ/mol
# Density = 2.693471 g / cm^3
# Si number density = 26.996159 Si / 1000 Ang^3
#
#
#
# Elastic Constant Matrix: (Units=GPa)
#
#
# Indices 1 2 3 4 5 6 
#
# 1 161.6940 3.3424 12.0261 0.0000 0.0000 0.0000
# 2 3.3424 140.1472 -13.1538 0.0000 0.0000 0.0000
# 3 12.0261 -13.1538 50.6565 0.0000 0.0000 0.0000
# 4 0.0000 0.0000 0.0000 -11.4233 0.0000 0.0000
# 5 0.0000 0.0000 0.0000 0.0000 56.7266 0.0000
# 6 0.0000 0.0000 0.0000 0.0000 0.0000 -52.4380
#
#
#
# Elastic Compliance Matrix: (Units=1/GPa)
#
#
# Indices 1 2 3 4 5 6 
#
# 1 0.006308 -0.000298 -0.001575 0.000000 0.000000 0.000000
# 2 -0.000298 0.007328 0.001974 0.000000 0.000000 0.000000
# 3 -0.001575 0.001974 0.020627 0.000000 0.000000 0.000000
# 4 0.000000 0.000000 0.000000 -0.087540 0.000000 0.000000
# 5 0.000000 0.000000 0.000000 0.000000 0.017628 0.000000
# 6 0.000000 0.000000 0.000000 0.000000 0.000000 -0.019070
#
#
# Mechanical properties :
#
#
# Convention : Reuss Voigt Hill
#
# Bulk Modulus (GPa) = 29.01627 39.65856 34.33742
# Shear Modulus (GPa) = -115.12188 21.92525 -46.59831
#
# Velocity S-wave (km/s) = -6.53731 2.85294 -4.15915
# Velocity P-wave (km/s) = 6.79781 5.05714 3.21213
#
# Compressibility (1/GPa) = 0.03446342
#
# Stress axis : x y z
#
# Youngs Moduli (GPa) = 158.53329 136.46839 48.47974
#
# Poissons Ratio (x) = 0.04070 0.07635
# Poissons Ratio (y) = 0.04728 -0.09568
# Poissons Ratio (z) = 0.24968 -0.26933
#
# Static dielectric constant tensor:
#      x y z
#    x 2.111850 0.000000 0.000000 
#    y 0.000000 3.422660 0.000000 
#    z 0.000000 0.000000 2.114920 
# 
# From -- ./inp_files/13612.got.cif
#   From: 2010.05.17/outbox.cif.g08.bks.cpg/sg62_7_cif.got.tgz:13612.got - 2010.06.03 15:25:27.
