data_PCOD9461429
_publ_section_title
;
Structure prediction by ZEFSAII (Michael W. Deem and Ramdas Pophale) SiO2 
 PCOD9461429
Probable space group: P N M A
;
_chemical_formula_sum "Si O2"
_cell_formula_units_Z 48
_cell_length_a 9.534837
_cell_length_b 13.560776
_cell_length_c 16.167186
_cell_angle_alpha 90.000000
_cell_angle_beta 90.000000
_cell_angle_gamma 90.000000
_cell_volume 2090.413735
_symmetry_space_group_name_H-M "P N M A"
_symmetry_group_IT_number 62
_symmetry_cell_setting 'orthorhombic'
loop_
_space_group_symop_operation_xyz
x,y,z
1/2-x,-y,1/2+z
1/2+x,1/2-y,1/2-z
-x,1/2+y,-z
-x,-y,-z
1/2+x,y,1/2-z
1/2-x,1/2+y,1/2+z
x,1/2-y,z
loop_
_atom_site_type_symbol
_atom_site_label
_atom_site_fract_x
_atom_site_fract_y
_atom_site_fract_z
Si Si1 0.105387 0.531692 0.605795
Si Si2 0.880269 0.537979 0.821049
Si Si3 0.674328 0.250000 0.241146
Si Si4 0.429176 0.250000 0.142962
Si Si5 0.701712 0.500221 0.078397
Si Si6 0.055512 0.363241 0.864918
Si Si7 0.550824 0.637972 0.548592
O O1 0.219796 0.503242 0.674193
O O2 0.112393 0.650222 0.598628
O O3 0.153078 0.492989 0.516914
O O4 0.945453 0.504891 0.625722
O O5 0.883239 0.643020 0.773994
O O6 0.981281 0.444821 0.806865
O O7 0.925700 0.573951 0.913289
O O8 0.596523 0.250000 0.153543
O O9 0.835826 0.250000 0.271648
O O10 0.793375 0.594201 0.106276
O O11 0.810368 0.410196 0.086995
O O12 0.062760 0.250000 0.835417
O O13 0.962778 0.363275 0.949805
O O14 0.536490 0.750000 0.575556
#
# Coordination Sequence:
#
# PCOD9461429 Si02
#       7
#     8   8   4   4   8   8   8
#     4  10  20  33  49  75 112 138 173 224 278 329
#     4  10  17  35  51  74 107 142 185 225 275 317
#     4  10  22  36  58  78 106 152 180 237 280 309
#     4  10  24  38  56  80 108 142 190 229 276 327
#     4  10  19  31  48  76 110 151 172 211 280 331
#     4  10  19  30  50  77 110 142 186 215 254 334
#     4  10  17  28  48  75 107 144 185 216 255 330
#
# _framework density 22.961960999999999
#
# number of rings (size 3 to 8) (size 9 to 14) (size 15 to 20)
#    0.000    2.000    4.167    1.000    2.333    2.667 
#    0.000    0.833    0.000    0.000    0.000   11.667 
#    0.000    0.000    0.000    0.000    0.000    0.000 
#
# Total GULP energy -267706.588785 kJ/mol
# GULP energy per Si atom -5577.220600 kJ/mol
# Density = 2.290970 g / cm^3
# Si number density = 22.961961 Si / 1000 Ang^3
#
#
#
# Elastic Constant Matrix: (Units=GPa)
#
#
# Indices 1 2 3 4 5 6 
#
# 1 149.7261 67.1206 1.9528 0.0000 0.0000 0.0000
# 2 67.1206 148.6888 9.9666 0.0000 0.0000 0.0000
# 3 1.9528 9.9666 31.0772 0.0000 0.0000 0.0000
# 4 0.0000 0.0000 0.0000 17.9726 0.0000 0.0000
# 5 0.0000 0.0000 0.0000 0.0000 20.0716 0.0000
# 6 0.0000 0.0000 0.0000 0.0000 0.0000 29.3740
#
#
#
# Elastic Compliance Matrix: (Units=1/GPa)
#
#
# Indices 1 2 3 4 5 6 
#
# 1 0.008388 -0.003834 0.000702 0.000000 0.000000 0.000000
# 2 -0.003834 0.008625 -0.002525 0.000000 0.000000 0.000000
# 3 0.000702 -0.002525 0.032944 0.000000 0.000000 0.000000
# 4 0.000000 0.000000 0.000000 0.055640 0.000000 0.000000
# 5 0.000000 0.000000 0.000000 0.000000 0.049822 0.000000
# 6 0.000000 0.000000 0.000000 0.000000 0.000000 0.034044
#
#
# Mechanical properties :
#
#
# Convention : Reuss Voigt Hill
#
# Bulk Modulus (GPa) = 25.87719 54.17469 40.02594
# Shear Modulus (GPa) = 23.40195 30.18045 26.79120
#
# Velocity S-wave (km/s) = 3.19589 3.62935 3.41950
# Velocity P-wave (km/s) = 4.99123 6.41930 5.74977
#
# Compressibility (1/GPa) = 0.03864408
#
# Stress axis : x y z
#
# Youngs Moduli (GPa) = 119.21359 115.93768 30.35486
#
# Poissons Ratio (x) = 0.44447 -0.02132
# Poissons Ratio (y) = 0.45703 0.07665
# Poissons Ratio (z) = -0.08373 0.29278
#
# Static dielectric constant tensor:
#      x y z
#    x 1.876860 0.000000 0.000000 
#    y 0.000000 1.837830 0.000000 
#    z 0.000000 0.000000 1.905940 
# 
# From -- ./inp_files/25886.got.cif
#   From: 2010.05.17/outbox.cif.g08.bks.cpg/sg62_13_cif.got.tgz:25886.got - 2010.06.03 15:25:27.
