data_PCOD9461007
_publ_section_title
;
Structure prediction by ZEFSAII (Michael W. Deem and Ramdas Pophale) SiO2 
 PCOD9461007
Probable space group: P B C A
;
_chemical_formula_sum "Si O2"
_cell_formula_units_Z 44
_cell_length_a 13.632351
_cell_length_b 9.626116
_cell_length_c 13.421499
_cell_angle_alpha 90.000000
_cell_angle_beta 90.000000
_cell_angle_gamma 90.000000
_cell_volume 1761.257574
_symmetry_space_group_name_H-M "P B C A"
_symmetry_group_IT_number 61
_symmetry_cell_setting 'orthorhombic'
loop_
_space_group_symop_operation_xyz
x,y,z
1/2-x,-y,1/2+z
1/2+x,1/2-y,-z
-x,1/2+y,1/2-z
-x,-y,-z
1/2+x,y,1/2-z
1/2-x,1/2+y,z
x,1/2-y,1/2+z
loop_
_atom_site_type_symbol
_atom_site_label
_atom_site_fract_x
_atom_site_fract_y
_atom_site_fract_z
Si Si1 0.500000 0.500000 0.500000
Si Si2 0.856023 0.743858 0.391561
Si Si3 0.200743 0.760777 0.755890
Si Si4 0.344102 0.258006 0.483560
Si Si5 0.067994 0.556428 0.637063
Si Si6 0.560566 0.993687 0.816229
O O1 0.397597 0.404995 0.487049
O O2 0.518969 0.419158 0.614732
O O3 0.811537 0.753223 0.280092
O O4 0.761788 0.746915 0.462005
O O5 0.910626 0.599973 0.396087
O O6 0.924416 0.880676 0.399702
O O7 0.148190 0.623710 0.712267
O O8 0.151887 0.894079 0.701589
O O9 0.176987 0.778134 0.870010
O O10 0.415567 0.149738 0.539822
O O11 0.975216 0.549103 0.710551
#
# Coordination Sequence:
#
# PCOD9461007 Si02
#       6
#     4   8   8   8   8   8
#     4  12  24  44  74 102 146 192 236 300 368 442
#     4  11  26  45  71 104 145 185 250 302 367 442
#     4  11  23  45  70 100 142 192 239 296 370 442
#     4  11  26  45  72 107 146 194 248 304 371 448
#     4  11  24  44  71 103 141 187 247 301 366 444
#     4  12  25  47  72 103 144 193 236 310 367 444
#
# _framework density 24.982149
#
# number of rings (size 3 to 8) (size 9 to 14) (size 15 to 20)
#    0.000    0.727    5.455    3.273    0.000    5.091 
#    0.000    0.000    0.000    0.000    0.000    0.000 
#    0.000    0.000    0.000    0.000    0.000    0.000 
#
# Total GULP energy -245271.378478 kJ/mol
# GULP energy per Si atom -5574.349511 kJ/mol
# Density = 2.492529 g / cm^3
# Si number density = 24.982149 Si / 1000 Ang^3
#
#
#
# Elastic Constant Matrix: (Units=GPa)
#
#
# Indices 1 2 3 4 5 6 
#
# 1 84.4737 33.5262 27.3842 0.0000 0.0000 0.0000
# 2 33.5262 128.8697 18.5274 0.0000 0.0000 0.0000
# 3 27.3842 18.5274 165.2755 0.0000 0.0000 0.0000
# 4 0.0000 0.0000 0.0000 23.0067 0.0000 0.0000
# 5 0.0000 0.0000 0.0000 0.0000 47.3919 0.0000
# 6 0.0000 0.0000 0.0000 0.0000 0.0000 29.4409
#
#
#
# Elastic Compliance Matrix: (Units=1/GPa)
#
#
# Indices 1 2 3 4 5 6 
#
# 1 0.013770 -0.003308 -0.001911 0.000000 0.000000 0.000000
# 2 -0.003308 0.008681 -0.000425 0.000000 0.000000 0.000000
# 3 -0.001911 -0.000425 0.006415 0.000000 0.000000 0.000000
# 4 0.000000 0.000000 0.000000 0.043466 0.000000 0.000000
# 5 0.000000 0.000000 0.000000 0.000000 0.021101 0.000000
# 6 0.000000 0.000000 0.000000 0.000000 0.000000 0.033966
#
#
# Mechanical properties :
#
#
# Convention : Reuss Voigt Hill
#
# Bulk Modulus (GPa) = 56.88551 59.72159 58.30355
# Shear Modulus (GPa) = 34.59110 39.91331 37.25221
#
# Velocity S-wave (km/s) = 3.72510 4.00143 3.86573
# Velocity P-wave (km/s) = 6.42820 6.73098 6.58133
#
# Compressibility (1/GPa) = 0.01757917
#
# Stress axis : x y z
#
# Youngs Moduli (GPa) = 72.62066 115.18864 155.89063
#
# Poissons Ratio (x) = 0.38101 0.29787
# Poissons Ratio (y) = 0.24021 0.06628
# Poissons Ratio (z) = 0.13876 0.04897
#
# Static dielectric constant tensor:
#      x y z
#    x 0.815290 0.000000 0.000000 
#    y 0.000000 0.732300 0.000000 
#    z 0.000000 0.000000 38.602930 
# 
# From -- ./inp_files/8080.got.cif
#   From: 2010.05.17/outbox.cif.g08.bks.cpg/sg61_5_cif.got.tgz:8080.got - 2010.06.03 15:17:17.
