data_PCOD9461605
_publ_section_title
;
Structure prediction by ZEFSAII (Michael W. Deem and Ramdas Pophale) SiO2 
 PCOD9461605
Probable space group: P N M A
;
_chemical_formula_sum "Si O2"
_cell_formula_units_Z 56
_cell_length_a 30.403995
_cell_length_b 8.437070
_cell_length_c 14.171503
_cell_angle_alpha 90.000000
_cell_angle_beta 90.000000
_cell_angle_gamma 90.000000
_cell_volume 3635.282936
_symmetry_space_group_name_H-M "P N M A"
_symmetry_group_IT_number 62
_symmetry_cell_setting 'orthorhombic'
loop_
_space_group_symop_operation_xyz
x,y,z
1/2-x,-y,1/2+z
1/2+x,1/2-y,1/2-z
-x,1/2+y,-z
-x,-y,-z
1/2+x,y,1/2-z
1/2-x,1/2+y,1/2+z
x,1/2-y,z
loop_
_atom_site_type_symbol
_atom_site_label
_atom_site_fract_x
_atom_site_fract_y
_atom_site_fract_z
Si Si1 0.817076 0.942100 0.210464
Si Si2 0.229928 0.442896 0.602590
Si Si3 0.681734 0.939623 0.291356
Si Si4 0.905274 0.560776 0.890160
Si Si5 0.905236 0.943146 0.109504
Si Si6 0.998468 0.060148 0.892148
Si Si7 0.229472 0.440248 0.389456
O O1 0.816658 0.750000 0.208528
O O2 0.804673 0.992407 0.316916
O O3 0.863871 0.997521 0.170766
O O4 0.777258 0.000755 0.144869
O O5 0.229893 0.250000 0.601362
O O6 0.278169 0.492656 0.639966
O O7 0.221269 0.496526 0.496321
O O8 0.681767 0.750000 0.290866
O O9 0.635532 0.999799 0.330003
O O10 0.694740 0.998877 0.187456
O O11 0.904796 0.750000 0.891651
O O12 0.952838 0.505499 0.852358
O O13 0.900758 0.505611 0.999825
O O14 0.904454 0.750000 0.108723
O O15 0.953674 0.989637 0.146962
O O16 0.996450 0.250000 0.891301
O O17 0.000000 0.000000 0.000000
O O18 0.229271 0.250000 0.388293
#
# Coordination Sequence:
#
# PCOD9461605 Si02
#       7
#     8   8   8   8   8   8   8
#     4   9  16  29  45  62  83 112 144 173 204 246
#     4   8  16  28  43  61  84 110 139 171 208 247
#     4  10  19  31  45  63  84 113 146 175 208 252
#     4  10  18  28  42  64  89 115 143 176 214 255
#     4   8  15  26  43  64  87 113 144 174 206 248
#     4   9  16  27  41  61  87 116 145 176 212 255
#     4  10  18  29  42  61  86 111 138 173 208 245
#
# _framework density 15.404579
#
# number of rings (size 3 to 8) (size 9 to 14) (size 15 to 20)
#    0.000    2.857    0.000    4.286    0.000    0.000 
#    0.000   10.000    0.000    0.000    0.000    1.000 
#    0.000    0.000    0.000    0.000    0.000    0.000 
#
# Total GULP energy -311871.360342 kJ/mol
# GULP energy per Si atom -5569.131435 kJ/mol
# Density = 1.536952 g / cm^3
# Si number density = 15.404579 Si / 1000 Ang^3
#
#
#
# Elastic Constant Matrix: (Units=GPa)
#
#
# Indices 1 2 3 4 5 6 
#
# 1 161.8318 24.5694 78.1740 0.0000 0.0000 0.0000
# 2 24.5694 28.9763 20.8390 0.0000 0.0000 0.0000
# 3 78.1740 20.8390 106.9694 0.0000 0.0000 0.0000
# 4 0.0000 0.0000 0.0000 15.0013 0.0000 0.0000
# 5 0.0000 0.0000 0.0000 0.0000 24.2865 0.0000
# 6 0.0000 0.0000 0.0000 0.0000 0.0000 22.1083
#
#
#
# Elastic Compliance Matrix: (Units=1/GPa)
#
#
# Indices 1 2 3 4 5 6 
#
# 1 0.009881 -0.003704 -0.006500 0.000000 0.000000 0.000000
# 2 -0.003704 0.041522 -0.005382 0.000000 0.000000 0.000000
# 3 -0.006500 -0.005382 0.015147 0.000000 0.000000 0.000000
# 4 0.000000 0.000000 0.000000 0.066661 0.000000 0.000000
# 5 0.000000 0.000000 0.000000 0.000000 0.041175 0.000000
# 6 0.000000 0.000000 0.000000 0.000000 0.000000 0.045232
#
#
# Mechanical properties :
#
#
# Convention : Reuss Voigt Hill
#
# Bulk Modulus (GPa) = 28.26547 60.54914 44.40730
# Shear Modulus (GPa) = 19.04156 23.89223 21.46690
#
# Velocity S-wave (km/s) = 3.51963 3.94252 3.73706
# Velocity P-wave (km/s) = 5.90810 7.75345 6.89281
#
# Compressibility (1/GPa) = 0.03537886
#
# Stress axis : x y z
#
# Youngs Moduli (GPa) = 101.20056 24.08340 66.01947
#
# Poissons Ratio (x) = 0.08921 0.42911
# Poissons Ratio (y) = 0.37485 0.35532
# Poissons Ratio (z) = 0.65778 0.12962
#
# Static dielectric constant tensor:
#      x y z
#    x 1.525590 0.000000 0.000000 
#    y 0.000000 1.525310 0.000000 
#    z 0.000000 0.000000 1.504080 
# 
# From -- ./inp_files/21193.got.cif
#   From: 2010.05.17/outbox.cif.g08.bks.cpg/sg62_11_cif.got.tgz:21193.got - 2010.06.03 15:25:27.
