data_PCOD9461905
_publ_section_title
;
Structure prediction by ZEFSAII (Michael W. Deem and Ramdas Pophale) SiO2 
 PCOD9461905
Probable space group: P N M A
;
_chemical_formula_sum "Si O2"
_cell_formula_units_Z 40
_cell_length_a 12.846502
_cell_length_b 8.921288
_cell_length_c 21.200595
_cell_angle_alpha 90.000000
_cell_angle_beta 90.000000
_cell_angle_gamma 90.000000
_cell_volume 2429.743887
_symmetry_space_group_name_H-M "P N M A"
_symmetry_group_IT_number 62
_symmetry_cell_setting 'orthorhombic'
loop_
_space_group_symop_operation_xyz
x,y,z
1/2-x,-y,1/2+z
1/2+x,1/2-y,1/2-z
-x,1/2+y,-z
-x,-y,-z
1/2+x,y,1/2-z
1/2-x,1/2+y,1/2+z
x,1/2-y,z
loop_
_atom_site_type_symbol
_atom_site_label
_atom_site_fract_x
_atom_site_fract_y
_atom_site_fract_z
Si Si1 0.674470 0.570902 0.659462
Si Si2 0.816562 0.428860 0.838127
Si Si3 0.894032 0.428177 0.303525
Si Si4 0.496503 0.569814 0.430860
Si Si5 0.886542 0.428659 0.695111
O O1 0.675491 0.750000 0.651493
O O2 0.629344 0.537390 0.729576
O O3 0.600601 0.494440 0.608376
O O4 0.791122 0.506058 0.658955
O O5 0.798545 0.250000 0.840586
O O6 0.706668 0.512546 0.840668
O O7 0.866899 0.461965 0.769550
O O8 0.899068 0.470065 0.891733
O O9 0.903822 0.250000 0.309808
O O10 0.000939 0.507642 0.322327
O O11 0.500000 0.500000 0.500000
O O12 0.490120 0.750000 0.433674
O O13 0.882727 0.250000 0.686986
#
# Coordination Sequence:
#
# PCOD9461905 Si02
#       5
#     8   8   8   8   8
#     4  10  20  33  50  76 107 138 175 217 262 311
#     4   9  19  33  50  73 103 138 176 211 255 311
#     4  10  19  30  50  78 108 136 168 215 266 310
#     4  11  22  37  55  77 105 142 181 219 259 308
#     4  10  18  31  52  76 106 139 171 213 262 315
#
# _framework density 16.46264
#
# number of rings (size 3 to 8) (size 9 to 14) (size 15 to 20)
#    0.000    2.000    2.000    2.400    0.000    4.000 
#    0.000    0.000    0.000    1.200    0.000    0.000 
#    0.000    0.000    0.000    0.000    0.000    0.000 
#
# Total GULP energy -223271.369338 kJ/mol
# GULP energy per Si atom -5581.784233 kJ/mol
# Density = 1.642517 g / cm^3
# Si number density = 16.462640 Si / 1000 Ang^3
#
#
#
# Elastic Constant Matrix: (Units=GPa)
#
#
# Indices 1 2 3 4 5 6 
#
# 1 176.0019 73.2213 65.9975 0.0000 0.0000 0.0000
# 2 73.2213 56.7388 47.1406 0.0000 0.0000 0.0000
# 3 65.9975 47.1406 89.4296 0.0000 0.0000 0.0000
# 4 0.0000 0.0000 0.0000 23.5593 0.0000 0.0000
# 5 0.0000 0.0000 0.0000 0.0000 18.6704 0.0000
# 6 0.0000 0.0000 0.0000 0.0000 0.0000 31.3605
#
#
#
# Elastic Compliance Matrix: (Units=1/GPa)
#
#
# Indices 1 2 3 4 5 6 
#
# 1 0.012349 -0.014882 -0.001268 0.000000 0.000000 0.000000
# 2 -0.014882 0.049293 -0.015001 0.000000 0.000000 0.000000
# 3 -0.001268 -0.015001 0.020025 0.000000 0.000000 0.000000
# 4 0.000000 0.000000 0.000000 0.042446 0.000000 0.000000
# 5 0.000000 0.000000 0.000000 0.000000 0.053561 0.000000
# 6 0.000000 0.000000 0.000000 0.000000 0.000000 0.031887
#
#
# Mechanical properties :
#
#
# Convention : Reuss Voigt Hill
#
# Bulk Modulus (GPa) = 51.64105 77.20988 64.42546
# Shear Modulus (GPa) = 17.96495 23.77210 20.86852
#
# Velocity S-wave (km/s) = 3.30700 3.80413 3.56424
# Velocity P-wave (km/s) = 6.78369 8.14230 7.49385
#
# Compressibility (1/GPa) = 0.01936444
#
# Stress axis : x y z
#
# Youngs Moduli (GPa) = 80.97977 20.28665 49.93651
#
# Poissons Ratio (x) = 0.30191 0.06334
# Poissons Ratio (y) = 1.20516 0.74910
# Poissons Ratio (z) = 0.10271 0.30432
#
# Static dielectric constant tensor:
#      x y z
#    x 1.541520 0.000000 0.000000 
#    y 0.000000 1.542560 0.000000 
#    z 0.000000 0.000000 1.528530 
# 
# From -- ./inp_files/22755.got.cif
#   From: 2010.05.17/outbox.cif.g08.bks.cpg/sg62_12_cif.got.tgz:22755.got - 2010.06.03 15:25:27.
