data_PCOD9461451
_publ_section_title
;
Structure prediction by ZEFSAII (Michael W. Deem and Ramdas Pophale) SiO2 
 PCOD9461451
Probable space group: P N M A
;
_chemical_formula_sum "Si O2"
_cell_formula_units_Z 64
_cell_length_a 7.938838
_cell_length_b 15.555593
_cell_length_c 22.100036
_cell_angle_alpha 90.000000
_cell_angle_beta 90.000000
_cell_angle_gamma 90.000000
_cell_volume 2729.207101
_symmetry_space_group_name_H-M "P N M A"
_symmetry_group_IT_number 62
_symmetry_cell_setting 'orthorhombic'
loop_
_space_group_symop_operation_xyz
x,y,z
1/2-x,-y,1/2+z
1/2+x,1/2-y,1/2-z
-x,1/2+y,-z
-x,-y,-z
1/2+x,y,1/2-z
1/2-x,1/2+y,1/2+z
x,1/2-y,z
loop_
_atom_site_type_symbol
_atom_site_label
_atom_site_fract_x
_atom_site_fract_y
_atom_site_fract_z
Si Si1 0.315065 0.154767 0.062471
Si Si2 0.017620 0.604774 0.440963
Si Si3 0.335258 0.351368 0.495216
Si Si4 0.518042 0.649840 0.384205
Si Si5 0.459662 0.980813 0.774938
Si Si6 0.147453 0.420328 0.395140
Si Si7 0.157798 0.843558 0.319242
Si Si8 0.684028 0.023062 0.343347
O O1 0.242903 0.250000 0.069388
O O2 0.503333 0.149917 0.091724
O O3 0.209748 0.083468 0.098614
O O4 0.353893 0.135861 0.992440
O O5 0.065331 0.507186 0.423806
O O6 0.037361 0.653985 0.377952
O O7 0.833845 0.618736 0.468950
O O8 0.324206 0.250000 0.483693
O O9 0.484866 0.365137 0.542909
O O10 0.316294 0.400203 0.431870
O O11 0.573218 0.750000 0.376591
O O12 0.340842 0.641104 0.349480
O O13 0.635951 0.573643 0.360983
O O14 0.398527 0.080017 0.776107
O O15 0.641213 0.976663 0.805933
O O16 0.447450 0.946309 0.707503
O O17 0.340162 0.934541 0.824033
O O18 0.154567 0.750000 0.289867
#
# Coordination Sequence:
#
# PCOD9461451 Si02
#       8
#     8   8   8   8   8   8   8   8
#     4  10  19  33  56  84 112 148 187 229 274 322
#     4  10  17  30  55  83 112 142 177 221 270 326
#     4  10  17  29  51  79 107 139 175 215 260 316
#     4  10  21  35  55  82 115 147 175 216 275 334
#     4  10  22  37  57  75 102 142 182 230 276 316
#     4   9  17  31  52  80 107 137 179 224 270 322
#     4  10  20  35  54  83 115 143 175 216 274 343
#     4  11  22  40  57  78 108 142 189 235 273 327
#
# _framework density 23.450033999999999
#
# number of rings (size 3 to 8) (size 9 to 14) (size 15 to 20)
#    0.000    2.000    0.000    7.500    0.000    2.000 
#    0.000   10.000    0.000    0.000    0.000    7.875 
#    0.000    0.000    0.000    0.000    0.000    0.000 
#
# Total GULP energy -357770.651499 kJ/mol
# GULP energy per Si atom -5590.166430 kJ/mol
# Density = 2.339666 g / cm^3
# Si number density = 23.450034 Si / 1000 Ang^3
#
#
#
# Elastic Constant Matrix: (Units=GPa)
#
#
# Indices 1 2 3 4 5 6 
#
# 1 79.0431 6.2596 0.2866 0.0000 0.0000 0.0000
# 2 6.2596 69.4553 -7.0724 0.0000 0.0000 0.0000
# 3 0.2866 -7.0724 57.4746 0.0000 0.0000 0.0000
# 4 0.0000 0.0000 0.0000 0.5730 0.0000 0.0000
# 5 0.0000 0.0000 0.0000 0.0000 22.5335 0.0000
# 6 0.0000 0.0000 0.0000 0.0000 0.0000 6.8099
#
#
#
# Elastic Compliance Matrix: (Units=1/GPa)
#
#
# Indices 1 2 3 4 5 6 
#
# 1 0.012745 -0.001170 -0.000207 0.000000 0.000000 0.000000
# 2 -0.001170 0.014688 0.001813 0.000000 0.000000 0.000000
# 3 -0.000207 0.001813 0.017623 0.000000 0.000000 0.000000
# 4 0.000000 0.000000 0.000000 1.745217 0.000000 0.000000
# 5 0.000000 0.000000 0.000000 0.000000 0.044378 0.000000
# 6 0.000000 0.000000 0.000000 0.000000 0.000000 0.146845
#
#
# Mechanical properties :
#
#
# Convention : Reuss Voigt Hill
#
# Bulk Modulus (GPa) = 21.77338 22.76895 22.27117
# Shear Modulus (GPa) = 2.50509 19.74990 11.12750
#
# Velocity S-wave (km/s) = 1.03469 2.90524 2.18071
# Velocity P-wave (km/s) = 3.27607 4.58089 3.98228
#
# Compressibility (1/GPa) = 0.04592764
#
# Stress axis : x y z
#
# Youngs Moduli (GPa) = 78.46395 68.08366 56.74359
#
# Poissons Ratio (x) = 0.07964 0.01177
# Poissons Ratio (y) = 0.09178 -0.10289
# Poissons Ratio (z) = 0.01628 -0.12345
#
# Static dielectric constant tensor:
#      x y z
#    x 1.964760 0.000000 0.000000 
#    y 0.000000 1.894570 0.000000 
#    z 0.000000 0.000000 1.900510 
# 
# From -- ./inp_files/29008.got.cif
#   From: 2010.05.17/outbox.cif.g08.bks.cpg/sg62_15_cif.got.tgz:29008.got - 2010.06.03 15:25:27.
