data_PCOD9461885
_publ_section_title
;
Structure prediction by ZEFSAII (Michael W. Deem and Ramdas Pophale) SiO2 
 PCOD9461885
Probable space group: P N M A
;
_chemical_formula_sum "Si O2"
_cell_formula_units_Z 48
_cell_length_a 9.536232
_cell_length_b 14.792162
_cell_length_c 12.140340
_cell_angle_alpha 90.000000
_cell_angle_beta 90.000000
_cell_angle_gamma 90.000000
_cell_volume 1712.534433
_symmetry_space_group_name_H-M "P N M A"
_symmetry_group_IT_number 62
_symmetry_cell_setting 'orthorhombic'
loop_
_space_group_symop_operation_xyz
x,y,z
1/2-x,-y,1/2+z
1/2+x,1/2-y,1/2-z
-x,1/2+y,-z
-x,-y,-z
1/2+x,y,1/2-z
1/2-x,1/2+y,1/2+z
x,1/2-y,z
loop_
_atom_site_type_symbol
_atom_site_label
_atom_site_fract_x
_atom_site_fract_y
_atom_site_fract_z
Si Si1 0.323846 0.353849 0.599631
Si Si2 0.602340 0.461423 0.324971
Si Si3 0.476341 0.650170 0.961493
Si Si4 0.130952 0.152926 0.805612
Si Si5 0.170376 0.513213 0.408599
Si Si6 0.866972 0.151090 0.236336
O O1 0.320268 0.250000 0.546138
O O2 0.354966 0.464338 0.585609
O O3 0.466917 0.341833 0.673579
O O4 0.188524 0.355954 0.681628
O O5 0.578107 0.506529 0.204410
O O6 0.467155 0.399787 0.351118
O O7 0.738158 0.402141 0.290669
O O8 0.475223 0.750000 0.010595
O O9 0.332218 0.591628 0.953636
O O10 0.526367 0.661942 0.837249
O O11 0.585249 0.581402 0.015177
O O12 0.190167 0.250000 0.847316
O O13 0.193115 0.067723 0.871204
O O14 0.819539 0.250000 0.200326
#
# Coordination Sequence:
#
# PCOD9461885 Si02
#       6
#     8   8   8   8   8   8
#     4   9  17  28  44  70 100 129 162 202 251 302
#     4  10  18  31  51  75 102 132 169 211 257 302
#     4   9  18  32  49  72 101 132 168 209 252 299
#     4   9  16  27  45  69  98 130 164 203 248 300
#     4   9  17  29  48  71  97 128 166 207 251 295
#     4  10  20  33  51  75 102 133 171 214 255 300
#
# _framework density 28.028632999999999
#
# number of rings (size 3 to 8) (size 9 to 14) (size 15 to 20)
#    0.000    2.667    0.000    3.000    0.000    1.333 
#    0.000    0.000    0.000    8.000    0.000    2.333 
#    0.000    0.000    0.000    0.000    0.000    0.000 
#
# Total GULP energy -267740.843964 kJ/mol
# GULP energy per Si atom -5577.934249 kJ/mol
# Density = 2.796484 g / cm^3
# Si number density = 28.028633 Si / 1000 Ang^3
#
#
#
# Elastic Constant Matrix: (Units=GPa)
#
#
# Indices 1 2 3 4 5 6 
#
# 1 88.5502 25.7928 -35.9469 0.0000 0.0000 0.0000
# 2 25.7928 270.9910 -23.7075 0.0000 0.0000 0.0000
# 3 -35.9469 -23.7075 -36.7620 0.0000 0.0000 0.0000
# 4 0.0000 0.0000 0.0000 86.5246 0.0000 0.0000
# 5 0.0000 0.0000 0.0000 0.0000 224.7129 0.0000
# 6 0.0000 0.0000 0.0000 0.0000 0.0000 24.8737
#
#
#
# Elastic Compliance Matrix: (Units=1/GPa)
#
#
# Indices 1 2 3 4 5 6 
#
# 1 0.008671 -0.001483 -0.007522 0.000000 0.000000 0.000000
# 2 -0.001483 0.003747 -0.000966 0.000000 0.000000 0.000000
# 3 -0.007522 -0.000966 -0.019224 0.000000 0.000000 0.000000
# 4 0.000000 0.000000 0.000000 0.011557 0.000000 0.000000
# 5 0.000000 0.000000 0.000000 0.000000 0.004450 0.000000
# 6 0.000000 0.000000 0.000000 0.000000 0.000000 0.040203
#
#
# Mechanical properties :
#
#
# Convention : Reuss Voigt Hill
#
# Bulk Modulus (GPa) = -37.38509 28.33954 -4.52278
# Shear Modulus (GPa) = 82.73698 90.99831 86.86764
#
# Velocity S-wave (km/s) = 5.43901 5.70409 5.57313
# Velocity P-wave (km/s) = 5.10653 7.31540 6.30840
#
# Compressibility (1/GPa) = -0.02674863
#
# Stress axis : x y z
#
# Youngs Moduli (GPa) = 115.32195 266.89000 -52.01964
#
# Poissons Ratio (x) = 0.39591 -0.39132
# Poissons Ratio (y) = 0.17107 -0.05024
# Poissons Ratio (z) = 0.86751 0.25776
#
# Static dielectric constant tensor:
#      x y z
#    x 2.219790 0.000000 0.000000 
#    y 0.000000 2.340840 0.000000 
#    z 0.000000 0.000000 2.322620 
# 
# From -- ./inp_files/25860.got.cif
#   From: 2010.05.17/outbox.cif.g08.bks.cpg/sg62_13_cif.got.tgz:25860.got - 2010.06.03 15:25:27.
