data_PCOD9461480
_publ_section_title
;
Structure prediction by ZEFSAII (Michael W. Deem and Ramdas Pophale) SiO2 
 PCOD9461480
Probable space group: P N M A
;
_chemical_formula_sum "Si O2"
_cell_formula_units_Z 64
_cell_length_a 18.217348
_cell_length_b 21.898526
_cell_length_c 9.395060
_cell_angle_alpha 90.000000
_cell_angle_beta 90.000000
_cell_angle_gamma 90.000000
_cell_volume 3748.000118
_symmetry_space_group_name_H-M "P N M A"
_symmetry_group_IT_number 62
_symmetry_cell_setting 'orthorhombic'
loop_
_space_group_symop_operation_xyz
x,y,z
1/2-x,-y,1/2+z
1/2+x,1/2-y,1/2-z
-x,1/2+y,-z
-x,-y,-z
1/2+x,y,1/2-z
1/2-x,1/2+y,1/2+z
x,1/2-y,z
loop_
_atom_site_type_symbol
_atom_site_label
_atom_site_fract_x
_atom_site_fract_y
_atom_site_fract_z
Si Si1 0.567591 0.397105 0.817757
Si Si2 0.838182 0.395492 0.878013
Si Si3 0.621913 0.050137 0.112520
Si Si4 0.658171 0.583894 0.979153
Si Si5 0.968464 0.491984 0.840806
Si Si6 0.709119 0.933755 0.665842
Si Si7 0.574549 0.678958 0.160580
Si Si8 0.290120 0.575555 0.331633
O O1 0.527271 0.457700 0.758368
O O2 0.507865 0.343724 0.807480
O O3 0.637490 0.389248 0.715005
O O4 0.593929 0.410003 0.979114
O O5 0.899951 0.446617 0.858684
O O6 0.871151 0.338504 0.791906
O O7 0.764478 0.421127 0.804147
O O8 0.821038 0.390109 0.043032
O O9 0.702299 0.070091 0.167320
O O10 0.564945 0.046454 0.244260
O O11 0.633509 0.981219 0.047465
O O12 0.668934 0.578586 0.812850
O O13 0.603113 0.635363 0.033796
O O14 0.738602 0.599424 0.043035
O O15 0.000000 0.500000 0.000000
O O16 0.692709 0.005154 0.632003
O O17 0.577831 0.750000 0.128816
#
# Coordination Sequence:
#
# PCOD9461480 Si02
#       8
#     8   8   8   8   8   8   8   8
#     4  11  20  34  56  78 118 150 185 226 283 336
#     4  10  19  36  52  83 110 148 187 221 276 332
#     4  11  20  33  52  88 125 147 172 223 286 359
#     4  10  20  34  57  83 116 150 182 225 284 335
#     4  11  22  30  48  82 121 154 179 213 275 344
#     4  11  18  30  57  87 119 144 171 224 286 337
#     4  10  23  42  58  74 104 148 202 241 273 331
#     4  10  17  31  54  85 120 147 175 221 273 350
#
# _framework density 17.075773999999999
#
# number of rings (size 3 to 8) (size 9 to 14) (size 15 to 20)
#    0.000    1.500    7.500    1.875    1.750    0.000 
#    0.000    3.125    0.000    0.750    0.000    0.000 
#    0.000    0.000    0.000    0.000    0.000    0.000 
#
# Total GULP energy -356789.393642 kJ/mol
# GULP energy per Si atom -5574.834276 kJ/mol
# Density = 1.703691 g / cm^3
# Si number density = 17.075774 Si / 1000 Ang^3
#
#
#
# Elastic Constant Matrix: (Units=GPa)
#
#
# Indices 1 2 3 4 5 6 
#
# 1 68.4308 10.2067 -2.8310 0.0000 0.0000 0.0000
# 2 10.2067 45.4336 -4.4733 0.0000 0.0000 0.0000
# 3 -2.8310 -4.4733 66.2614 0.0000 0.0000 0.0000
# 4 0.0000 0.0000 0.0000 6.4269 0.0000 0.0000
# 5 0.0000 0.0000 0.0000 0.0000 28.5322 0.0000
# 6 0.0000 0.0000 0.0000 0.0000 0.0000 9.5970
#
#
#
# Elastic Compliance Matrix: (Units=1/GPa)
#
#
# Indices 1 2 3 4 5 6 
#
# 1 0.015132 -0.003358 0.000420 0.000000 0.000000 0.000000
# 2 -0.003358 0.022903 0.001403 0.000000 0.000000 0.000000
# 3 0.000420 0.001403 0.015204 0.000000 0.000000 0.000000
# 4 0.000000 0.000000 0.000000 0.155596 0.000000 0.000000
# 5 0.000000 0.000000 0.000000 0.000000 0.035048 0.000000
# 6 0.000000 0.000000 0.000000 0.000000 0.000000 0.104199
#
#
# Mechanical properties :
#
#
# Convention : Reuss Voigt Hill
#
# Bulk Modulus (GPa) = 19.93322 20.65896 20.29609
# Shear Modulus (GPa) = 13.59157 20.72611 17.15884
#
# Velocity S-wave (km/s) = 2.82433 3.48770 3.17340
# Velocity P-wave (km/s) = 4.72594 5.32386 5.03378
#
# Compressibility (1/GPa) = 0.05016750
#
# Stress axis : x y z
#
# Youngs Moduli (GPa) = 66.08716 43.66316 65.77054
#
# Poissons Ratio (x) = 0.14662 -0.02761
# Poissons Ratio (y) = 0.22192 -0.09226
# Poissons Ratio (z) = -0.02774 -0.06125
#
# Static dielectric constant tensor:
#      x y z
#    x 1.626110 0.000000 0.000000 
#    y 0.000000 1.548610 0.000000 
#    z 0.000000 0.000000 1.624070 
# 
# From -- ./inp_files/8158.got.cif
#   From: 2010.05.17/outbox.cif.g08.bks.cpg/sg62_5_cif.got.tgz:8158.got - 2010.06.03 15:25:27.
