data_PCOD9461184
_publ_section_title
;
Structure prediction by ZEFSAII (Michael W. Deem and Ramdas Pophale) SiO2 
 PCOD9461184
Probable space group: P B C A
;
_chemical_formula_sum "Si O2"
_cell_formula_units_Z 48
_cell_length_a 13.146307
_cell_length_b 16.313583
_cell_length_c 9.205379
_cell_angle_alpha 90.000000
_cell_angle_beta 90.000000
_cell_angle_gamma 90.000000
_cell_volume 1974.216606
_symmetry_space_group_name_H-M "P B C A"
_symmetry_group_IT_number 61
_symmetry_cell_setting 'orthorhombic'
loop_
_space_group_symop_operation_xyz
x,y,z
1/2-x,-y,1/2+z
1/2+x,1/2-y,-z
-x,1/2+y,1/2-z
-x,-y,-z
1/2+x,y,1/2-z
1/2-x,1/2+y,z
x,1/2-y,1/2+z
loop_
_atom_site_type_symbol
_atom_site_label
_atom_site_fract_x
_atom_site_fract_y
_atom_site_fract_z
Si Si1 0.145510 0.696129 0.333218
Si Si2 0.361147 0.837665 0.961254
Si Si3 0.941977 0.087039 0.381368
Si Si4 0.338757 0.568107 0.757233
Si Si5 0.534935 0.340539 0.048824
Si Si6 0.122197 0.614000 0.802211
O O1 0.247269 0.659030 0.401324
O O2 0.123290 0.665895 0.170689
O O3 0.043287 0.666261 0.415744
O O4 0.158482 0.793423 0.337744
O O5 0.438646 0.894419 0.871113
O O6 0.410868 0.747805 0.944775
O O7 0.360518 0.864284 0.130532
O O8 0.922335 0.076402 0.551503
O O9 0.897723 0.012970 0.289110
O O10 0.373475 0.596220 0.918514
O O11 0.217554 0.560517 0.753635
O O12 0.460945 0.368751 0.179752
#
# Coordination Sequence:
#
# PCOD9461184 Si02
#       6
#     8   8   8   8   8   8
#     4  12  25  45  76 112 141 194 256 304 360 454
#     4  12  25  45  75 105 146 197 243 301 374 438
#     4  12  29  47  75 110 153 194 243 315 382 435
#     4  12  28  46  77 109 153 196 245 315 378 441
#     4  12  24  45  77 107 143 193 255 295 367 454
#     4  12  24  46  74 107 144 196 251 303 364 452
#
# _framework density 24.313441000000001
#
# number of rings (size 3 to 8) (size 9 to 14) (size 15 to 20)
#    0.000    0.000    8.333    0.500    2.333    2.000 
#    0.000    0.000    0.000    0.000    0.000    0.000 
#    0.000    0.000    0.000    0.000    0.000    0.000 
#
# Total GULP energy -268637.773090 kJ/mol
# GULP energy per Si atom -5596.620273 kJ/mol
# Density = 2.425810 g / cm^3
# Si number density = 24.313441 Si / 1000 Ang^3
#
#
#
# Elastic Constant Matrix: (Units=GPa)
#
#
# Indices 1 2 3 4 5 6 
#
# 1 104.9340 -2.7578 7.2340 0.0000 0.0000 0.0000
# 2 -2.7578 74.2643 -6.9311 0.0000 0.0000 0.0000
# 3 7.2340 -6.9311 39.8604 0.0000 0.0000 0.0000
# 4 0.0000 0.0000 0.0000 37.4991 0.0000 0.0000
# 5 0.0000 0.0000 0.0000 0.0000 43.2728 0.0000
# 6 0.0000 0.0000 0.0000 0.0000 0.0000 22.8243
#
#
#
# Elastic Compliance Matrix: (Units=1/GPa)
#
#
# Indices 1 2 3 4 5 6 
#
# 1 0.009653 0.000198 -0.001717 0.000000 0.000000 0.000000
# 2 0.000198 0.013692 0.002345 0.000000 0.000000 0.000000
# 3 -0.001717 0.002345 0.025807 0.000000 0.000000 0.000000
# 4 0.000000 0.000000 0.000000 0.026667 0.000000 0.000000
# 5 0.000000 0.000000 0.000000 0.000000 0.023109 0.000000
# 6 0.000000 0.000000 0.000000 0.000000 0.000000 0.043813
#
#
# Mechanical properties :
#
#
# Convention : Reuss Voigt Hill
#
# Bulk Modulus (GPa) = 19.68387 23.79433 21.73910
# Shear Modulus (GPa) = 31.64062 35.48682 33.56372
#
# Velocity S-wave (km/s) = 3.61135 3.82456 3.71948
# Velocity P-wave (km/s) = 5.05001 5.41394 5.23514
#
# Compressibility (1/GPa) = 0.05080301
#
# Stress axis : x y z
#
# Youngs Moduli (GPa) = 103.59036 73.03740 38.74921
#
# Poissons Ratio (x) = -0.01447 0.06655
# Poissons Ratio (y) = -0.02053 -0.09086
# Poissons Ratio (z) = 0.17791 -0.17126
#
# Static dielectric constant tensor:
#      x y z
#    x 1.940580 0.000000 0.000000 
#    y 0.000000 1.959730 0.000000 
#    z 0.000000 0.000000 1.940140 
# 
# From -- ./inp_files/2848.got.cif
#   From: 2010.05.17/outbox.cif.g08.bks.cpg/sg61_2_cif.got.tgz:2848.got - 2010.06.03 15:17:17.
