data_PCOD9461987
_publ_section_title
;
Structure prediction by ZEFSAII (Michael W. Deem and Ramdas Pophale) SiO2 
 PCOD9461987
Probable space group: P N M A
;
_chemical_formula_sum "Si O2"
_cell_formula_units_Z 64
_cell_length_a 14.108811
_cell_length_b 11.237053
_cell_length_c 22.865853
_cell_angle_alpha 90.000000
_cell_angle_beta 90.000000
_cell_angle_gamma 90.000000
_cell_volume 3625.185650
_symmetry_space_group_name_H-M "P N M A"
_symmetry_group_IT_number 62
_symmetry_cell_setting 'orthorhombic'
loop_
_space_group_symop_operation_xyz
x,y,z
1/2-x,-y,1/2+z
1/2+x,1/2-y,1/2-z
-x,1/2+y,-z
-x,-y,-z
1/2+x,y,1/2-z
1/2-x,1/2+y,1/2+z
x,1/2-y,z
loop_
_atom_site_type_symbol
_atom_site_label
_atom_site_fract_x
_atom_site_fract_y
_atom_site_fract_z
Si Si1 0.306040 0.881796 0.645442
Si Si2 0.297591 0.454215 0.029239
Si Si3 0.442432 0.889165 0.098441
Si Si4 0.337375 0.890042 0.335363
Si Si5 0.617359 0.616402 0.492346
Si Si6 0.847400 0.384965 0.597504
Si Si7 0.498434 0.027414 0.400287
Si Si8 0.711827 0.385503 0.800876
O O1 0.292257 0.750000 0.672403
O O2 0.243476 0.886091 0.585735
O O3 0.415877 0.899691 0.628220
O O4 0.275655 0.001081 0.680738
O O5 0.383892 0.535525 0.051446
O O6 0.209016 0.534113 0.009139
O O7 0.328520 0.384265 0.971800
O O8 0.449245 0.750000 0.080385
O O9 0.548502 0.938074 0.107462
O O10 0.380200 0.892583 0.157404
O O11 0.351920 0.750000 0.351271
O O12 0.244054 0.936478 0.369735
O O13 0.427788 0.965599 0.354982
O O14 0.317095 0.895518 0.266543
O O15 0.647512 0.750000 0.481593
O O16 0.562053 0.603078 0.553217
O O17 0.548250 0.572846 0.440742
O O18 0.853467 0.250000 0.620445
O O19 0.752435 0.250000 0.809999
#
# Coordination Sequence:
#
# PCOD9461987 Si02
#       8
#     8   8   8   8   8   8   8   8
#     4  10  21  36  56  81 111 146 184 225 275 335
#     4  10  18  32  52  75 106 142 179 218 269 333
#     4   9  18  32  51  76 103 137 177 227 276 322
#     4  10  20  35  55  80 108 142 183 232 279 325
#     4  10  19  31  49  76 109 142 177 222 273 330
#     4  10  19  31  50  77 107 135 174 224 277 326
#     4  10  20  33  51  79 108 142 180 222 272 335
#     4   9  20  38  59  81 106 140 188 235 278 327
#
# _framework density 17.654267999999998
#
# number of rings (size 3 to 8) (size 9 to 14) (size 15 to 20)
#    0.000    2.250    1.250    1.875    0.000    4.500 
#    0.000    3.750    0.000    0.750    0.000    0.000 
#    0.000    0.000    0.000    0.000    0.000    0.000 
#
# Total GULP energy -356590.924874 kJ/mol
# GULP energy per Si atom -5571.733201 kJ/mol
# Density = 1.761409 g / cm^3
# Si number density = 17.654268 Si / 1000 Ang^3
#
#
#
# Elastic Constant Matrix: (Units=GPa)
#
#
# Indices 1 2 3 4 5 6 
#
# 1 81.3325 33.0230 11.0103 0.0000 0.0000 0.0000
# 2 33.0230 90.3519 22.2629 0.0000 0.0000 0.0000
# 3 11.0103 22.2629 60.4903 0.0000 0.0000 0.0000
# 4 0.0000 0.0000 0.0000 14.8771 0.0000 0.0000
# 5 0.0000 0.0000 0.0000 0.0000 14.6856 0.0000
# 6 0.0000 0.0000 0.0000 0.0000 0.0000 10.4250
#
#
#
# Elastic Compliance Matrix: (Units=1/GPa)
#
#
# Indices 1 2 3 4 5 6 
#
# 1 0.014469 -0.005102 -0.000756 0.000000 0.000000 0.000000
# 2 -0.005102 0.013971 -0.004213 0.000000 0.000000 0.000000
# 3 -0.000756 -0.004213 0.018220 0.000000 0.000000 0.000000
# 4 0.000000 0.000000 0.000000 0.067217 0.000000 0.000000
# 5 0.000000 0.000000 0.000000 0.000000 0.068094 0.000000
# 6 0.000000 0.000000 0.000000 0.000000 0.000000 0.095923
#
#
# Mechanical properties :
#
#
# Convention : Reuss Voigt Hill
#
# Bulk Modulus (GPa) = 37.71106 40.52968 39.12037
# Shear Modulus (GPa) = 16.29325 19.05611 17.67468
#
# Velocity S-wave (km/s) = 3.04123 3.28899 3.16754
# Velocity P-wave (km/s) = 5.80856 6.11805 5.96532
#
# Compressibility (1/GPa) = 0.02651742
#
# Stress axis : x y z
#
# Youngs Moduli (GPa) = 69.11274 71.57813 54.88551
#
# Poissons Ratio (x) = 0.36520 0.04149
# Poissons Ratio (y) = 0.35262 0.23124
# Poissons Ratio (z) = 0.05224 0.30157
#
# Static dielectric constant tensor:
#      x y z
#    x 1.606450 0.000000 0.000000 
#    y 0.000000 1.616810 0.000000 
#    z 0.000000 0.000000 1.585110 
# 
# From -- ./inp_files/29474.got.cif
#   From: 2010.05.17/outbox.cif.g08.bks.cpg/sg62_15_cif.got.tgz:29474.got - 2010.06.03 15:25:27.
