data_PCOD9461742
_publ_section_title
;
Structure prediction by ZEFSAII (Michael W. Deem and Ramdas Pophale) SiO2 
 PCOD9461742
Probable space group: P N M A
;
_chemical_formula_sum "Si O2"
_cell_formula_units_Z 64
_cell_length_a 19.650836
_cell_length_b 7.543677
_cell_length_c 23.661918
_cell_angle_alpha 90.000000
_cell_angle_beta 90.000000
_cell_angle_gamma 90.000000
_cell_volume 3507.632303
_symmetry_space_group_name_H-M "P N M A"
_symmetry_group_IT_number 62
_symmetry_cell_setting 'orthorhombic'
loop_
_space_group_symop_operation_xyz
x,y,z
1/2-x,-y,1/2+z
1/2+x,1/2-y,1/2-z
-x,1/2+y,-z
-x,-y,-z
1/2+x,y,1/2-z
1/2-x,1/2+y,1/2+z
x,1/2-y,z
loop_
_atom_site_type_symbol
_atom_site_label
_atom_site_fract_x
_atom_site_fract_y
_atom_site_fract_z
Si Si1 0.182675 0.463723 0.758350
Si Si2 0.683689 0.457365 0.183305
Si Si3 0.763237 0.032006 0.854260
Si Si4 0.105532 0.547261 0.204447
Si Si5 0.332279 0.546030 0.050420
Si Si6 0.469634 0.964995 0.243650
Si Si7 0.386384 0.967332 0.931916
Si Si8 0.531075 0.959007 0.888812
O O1 0.181897 0.250000 0.758115
O O2 0.236101 0.521198 0.805934
O O3 0.214997 0.520969 0.698308
O O4 0.105162 0.525386 0.762596
O O5 0.666184 0.250000 0.187826
O O6 0.645286 0.548690 0.235469
O O7 0.657016 0.520407 0.122937
O O8 0.763723 0.250000 0.854349
O O9 0.839318 0.970130 0.839082
O O10 0.728694 0.969305 0.911977
O O11 0.093901 0.750000 0.186445
O O12 0.032172 0.467159 0.218496
O O13 0.313347 0.750000 0.039137
O O14 0.399549 0.544623 0.089561
O O15 0.354119 0.467812 0.990333
O O16 0.471007 0.750000 0.245708
O O17 0.479589 0.013516 0.177959
O O18 0.387782 0.750000 0.933450
O O19 0.464256 0.024404 0.921884
O O20 0.538033 0.750000 0.899200
#
# Coordination Sequence:
#
# PCOD9461742 Si02
#       8
#     8   8   8   8   8   8   8   8
#     4   9  17  30  45  65  86 111 149 186 218 267
#     4  10  18  30  44  64  90 118 146 183 227 265
#     4   8  14  26  44  64  84 105 143 186 216 253
#     4   9  17  29  46  67  87 112 146 186 225 268
#     4  10  18  32  48  61  85 125 158 183 218 261
#     4  10  18  30  48  66  88 120 151 180 224 273
#     4   9  19  31  44  62  89 122 156 186 216 261
#     4  11  20  30  41  63  95 119 150 191 217 255
#
# _framework density 18.245926999999998
#
# number of rings (size 3 to 8) (size 9 to 14) (size 15 to 20)
#    0.000    2.500    2.500    1.875    0.000    0.500 
#    0.000    1.875    0.000    0.000    0.000    0.875 
#    0.000    0.000    0.000    0.000    0.000    0.000 
#
# Total GULP energy -356947.472104 kJ/mol
# GULP energy per Si atom -5577.304252 kJ/mol
# Density = 1.820440 g / cm^3
# Si number density = 18.245927 Si / 1000 Ang^3
#
#
#
# Elastic Constant Matrix: (Units=GPa)
#
#
# Indices 1 2 3 4 5 6 
#
# 1 70.9604 -5.0173 -2.0084 0.0000 0.0000 0.0000
# 2 -5.0173 48.9094 -6.4993 0.0000 0.0000 0.0000
# 3 -2.0084 -6.4993 26.1667 0.0000 0.0000 0.0000
# 4 0.0000 0.0000 0.0000 8.7216 0.0000 0.0000
# 5 0.0000 0.0000 0.0000 0.0000 20.8324 0.0000
# 6 0.0000 0.0000 0.0000 0.0000 0.0000 3.6498
#
#
#
# Elastic Compliance Matrix: (Units=1/GPa)
#
#
# Indices 1 2 3 4 5 6 
#
# 1 0.014253 0.001662 0.001507 0.000000 0.000000 0.000000
# 2 0.001662 0.021338 0.005427 0.000000 0.000000 0.000000
# 3 0.001507 0.005427 0.039680 0.000000 0.000000 0.000000
# 4 0.000000 0.000000 0.000000 0.114658 0.000000 0.000000
# 5 0.000000 0.000000 0.000000 0.000000 0.048002 0.000000
# 6 0.000000 0.000000 0.000000 0.000000 0.000000 0.273991
#
#
# Mechanical properties :
#
#
# Convention : Reuss Voigt Hill
#
# Bulk Modulus (GPa) = 10.81505 13.22073 12.01789
# Shear Modulus (GPa) = 9.51386 17.27818 13.39602
#
# Velocity S-wave (km/s) = 2.28595 3.08061 2.71254
# Velocity P-wave (km/s) = 3.59272 4.46264 4.05110
#
# Compressibility (1/GPa) = 0.09246372
#
# Stress axis : x y z
#
# Youngs Moduli (GPa) = 70.16292 46.86538 25.20141
#
# Poissons Ratio (x) = -0.07790 -0.03797
# Poissons Ratio (y) = -0.11663 -0.13678
# Poissons Ratio (z) = -0.10572 -0.25436
#
# Static dielectric constant tensor:
#      x y z
#    x 1.651700 0.000000 0.000000 
#    y 0.000000 1.692280 0.000000 
#    z 0.000000 0.000000 1.607640 
# 
# From -- ./inp_files/27959.got.cif
#   From: 2010.05.17/outbox.cif.g08.bks.cpg/sg62_14_cif.got.tgz:27959.got - 2010.06.03 15:25:27.
