data_PCOD9461952
_publ_section_title
;
Structure prediction by ZEFSAII (Michael W. Deem and Ramdas Pophale) SiO2 
 PCOD9461952
Probable space group: P N M A
;
_chemical_formula_sum "Si O2"
_cell_formula_units_Z 52
_cell_length_a 5.272988
_cell_length_b 31.593189
_cell_length_c 13.473988
_cell_angle_alpha 90.000000
_cell_angle_beta 90.000000
_cell_angle_gamma 90.000000
_cell_volume 2244.638485
_symmetry_space_group_name_H-M "P N M A"
_symmetry_group_IT_number 62
_symmetry_cell_setting 'orthorhombic'
loop_
_space_group_symop_operation_xyz
x,y,z
1/2-x,-y,1/2+z
1/2+x,1/2-y,1/2-z
-x,1/2+y,-z
-x,-y,-z
1/2+x,y,1/2-z
1/2-x,1/2+y,1/2+z
x,1/2-y,z
loop_
_atom_site_type_symbol
_atom_site_label
_atom_site_fract_x
_atom_site_fract_y
_atom_site_fract_z
Si Si1 0.270828 0.118418 0.147590
Si Si2 0.749038 0.477892 0.373186
Si Si3 0.622697 0.381394 0.687939
Si Si4 0.745016 0.795108 0.182340
Si Si5 0.203766 0.750000 0.819352
Si Si6 0.770700 0.344445 0.129552
Si Si7 0.260232 0.472651 0.890295
O O1 0.286245 0.068785 0.171140
O O2 0.261861 0.144290 0.251710
O O3 0.514426 0.135145 0.089788
O O4 0.013230 0.130137 0.092350
O O5 0.466697 0.495703 0.360852
O O6 0.779561 0.472070 0.491275
O O7 0.972368 0.510907 0.347270
O O8 0.329679 0.379661 0.721625
O O9 0.697030 0.338914 0.628018
O O10 0.683538 0.425815 0.639625
O O11 0.467128 0.795483 0.232949
O O12 0.771300 0.750000 0.128263
O O13 0.449681 0.750000 0.747483
O O14 0.211028 0.794029 0.879600
#
# Coordination Sequence:
#
# PCOD9461952 Si02
#       7
#     8   8   8   8   4   8   8
#     4  10  18  32  45  71  96 127 162 218 240 294
#     4  10  21  37  55  66 100 137 184 201 241 303
#     4  10  19  33  50  77 107 123 158 207 256 294
#     4   8  14  25  44  69  96 122 148 180 233 296
#     4  12  16  30  48  70 104 142 156 212 250 308
#     4  10  19  30  48  75 104 123 173 203 257 292
#     4  10  21  38  52  73  95 139 173 207 244 308
#
# _framework density 23.166315000000001
#
# number of rings (size 3 to 8) (size 9 to 14) (size 15 to 20)
#    0.000    2.154    3.077    1.846    0.000    0.000 
#   16.615    0.000    0.000    0.000    6.000    0.000 
#    4.615    0.000    0.000    0.000    0.000    0.000 
#
# Total GULP energy -290312.912938 kJ/mol
# GULP energy per Si atom -5582.940633 kJ/mol
# Density = 2.311359 g / cm^3
# Si number density = 23.166315 Si / 1000 Ang^3
#
#
#
# Elastic Constant Matrix: (Units=GPa)
#
#
# Indices 1 2 3 4 5 6 
#
# 1 140.0073 -5.2901 -20.5457 0.0000 0.0000 0.0000
# 2 -5.2901 161.1068 -2.4587 0.0000 0.0000 0.0000
# 3 -20.5457 -2.4587 36.6888 0.0000 0.0000 0.0000
# 4 0.0000 0.0000 0.0000 -16.1685 0.0000 0.0000
# 5 0.0000 0.0000 0.0000 0.0000 -41.4357 0.0000
# 6 0.0000 0.0000 0.0000 0.0000 0.0000 33.6815
#
#
#
# Elastic Compliance Matrix: (Units=1/GPa)
#
#
# Indices 1 2 3 4 5 6 
#
# 1 0.007799 0.000323 0.004389 0.000000 0.000000 0.000000
# 2 0.000323 0.006227 0.000598 0.000000 0.000000 0.000000
# 3 0.004389 0.000598 0.029754 0.000000 0.000000 0.000000
# 4 0.000000 0.000000 0.000000 -0.061848 0.000000 0.000000
# 5 0.000000 0.000000 0.000000 0.000000 -0.024134 0.000000
# 6 0.000000 0.000000 0.000000 0.000000 0.000000 0.029690
#
#
# Mechanical properties :
#
#
# Convention : Reuss Voigt Hill
#
# Bulk Modulus (GPa) = 18.38230 31.24600 24.81415
# Shear Modulus (GPa) = -1000.07686 19.62193 -490.22747
#
# Velocity S-wave (km/s) = -20.79980 2.91349 -14.56268
# Velocity P-wave (km/s) = 23.85141 4.98346 16.49326
#
# Compressibility (1/GPa) = 0.05440016
#
# Stress axis : x y z
#
# Youngs Moduli (GPa) = 128.22560 160.59614 33.60870
#
# Poissons Ratio (x) = -0.05188 -0.14751
# Poissons Ratio (y) = -0.04142 -0.02010
# Poissons Ratio (z) = -0.56278 -0.09607
#
# Static dielectric constant tensor:
#      x y z
#    x 1.974100 0.000000 0.000000 
#    y 0.000000 1.884240 0.000000 
#    z 0.000000 0.000000 1.872770 
# 
# From -- ./inp_files/21637.got.cif
#   From: 2010.05.17/outbox.cif.g08.bks.cpg/sg62_11_cif.got.tgz:21637.got - 2010.06.03 15:25:27.
