data_PCOD9461227
_publ_section_title
;
Structure prediction by ZEFSAII (Michael W. Deem and Ramdas Pophale) SiO2 
 PCOD9461227
Probable space group: P B C A
;
_chemical_formula_sum "Si O2"
_cell_formula_units_Z 40
_cell_length_a 21.189802
_cell_length_b 7.567089
_cell_length_c 9.464300
_cell_angle_alpha 90.000000
_cell_angle_beta 90.000000
_cell_angle_gamma 90.000000
_cell_volume 1517.554297
_symmetry_space_group_name_H-M "P B C A"
_symmetry_group_IT_number 61
_symmetry_cell_setting 'orthorhombic'
loop_
_space_group_symop_operation_xyz
x,y,z
1/2-x,-y,1/2+z
1/2+x,1/2-y,-z
-x,1/2+y,1/2-z
-x,-y,-z
1/2+x,y,1/2-z
1/2-x,1/2+y,z
x,1/2-y,1/2+z
loop_
_atom_site_type_symbol
_atom_site_label
_atom_site_fract_x
_atom_site_fract_y
_atom_site_fract_z
Si Si1 0.135224 0.864209 0.304038
Si Si2 0.823462 0.849617 0.900432
Si Si3 0.057977 0.429635 0.403489
Si Si4 0.818004 0.429740 0.899900
Si Si5 0.987864 0.546643 0.161253
O O1 0.062400 0.909734 0.273687
O O2 0.139367 0.859152 0.472219
O O3 0.169045 0.698720 0.231660
O O4 0.170073 0.039051 0.243948
O O5 0.828784 0.638807 0.878316
O O6 0.753629 0.897147 0.952317
O O7 0.878144 0.919860 0.005902
O O8 0.000000 0.500000 0.500000
O O9 0.049316 0.540327 0.259605
O O10 0.046148 0.233100 0.347395
O O11 0.000000 0.500000 0.000000
#
# Coordination Sequence:
#
# PCOD9461227 Si02
#       5
#     8   8   8   8   8
#     4  12  30  56  84 132 172 233 295 366 450 541
#     4  12  28  56  85 128 177 227 300 368 448 544
#     4  12  27  55  82 119 172 229 292 362 451 535
#     4  12  30  54  92 126 178 234 294 371 457 531
#     4  12  29  52  80 124 166 222 291 361 441 535
#
# _framework density 26.358201000000001
#
# number of rings (size 3 to 8) (size 9 to 14) (size 15 to 20)
#    0.000    0.000    6.000    1.200    5.600    3.200 
#    7.200    0.000    0.000    0.000    0.000    0.000 
#    0.000    0.000    0.000    0.000    0.000    0.000 
#
# Total GULP energy -224396.785456 kJ/mol
# GULP energy per Si atom -5609.919636 kJ/mol
# Density = 2.629821 g / cm^3
# Si number density = 26.358201 Si / 1000 Ang^3
#
#
#
# Elastic Constant Matrix: (Units=GPa)
#
#
# Indices 1 2 3 4 5 6 
#
# 1 152.3996 43.1011 2.6995 0.0000 0.0000 0.0000
# 2 43.1011 209.4213 50.1059 0.0000 0.0000 0.0000
# 3 2.6995 50.1059 111.7880 0.0000 0.0000 0.0000
# 4 0.0000 0.0000 0.0000 47.1843 0.0000 0.0000
# 5 0.0000 0.0000 0.0000 0.0000 52.0231 0.0000
# 6 0.0000 0.0000 0.0000 0.0000 0.0000 40.8174
#
#
#
# Elastic Compliance Matrix: (Units=1/GPa)
#
#
# Indices 1 2 3 4 5 6 
#
# 1 0.006996 -0.001567 0.000534 0.000000 0.000000 0.000000
# 2 -0.001567 0.005700 -0.002517 0.000000 0.000000 0.000000
# 3 0.000534 -0.002517 0.010061 0.000000 0.000000 0.000000
# 4 0.000000 0.000000 0.000000 0.021194 0.000000 0.000000
# 5 0.000000 0.000000 0.000000 0.000000 0.019222 0.000000
# 6 0.000000 0.000000 0.000000 0.000000 0.000000 0.024499
#
#
# Mechanical properties :
#
#
# Convention : Reuss Voigt Hill
#
# Bulk Modulus (GPa) = 63.87878 73.93578 68.90728
# Shear Modulus (GPa) = 50.00452 53.18513 51.59482
#
# Velocity S-wave (km/s) = 4.36031 4.49685 4.42911
# Velocity P-wave (km/s) = 7.04537 7.42115 7.23570
#
# Compressibility (1/GPa) = 0.01565465
#
# Stress axis : x y z
#
# Youngs Moduli (GPa) = 142.94825 175.44289 99.39598
#
# Poissons Ratio (x) = 0.27499 -0.05304
# Poissons Ratio (y) = 0.22406 0.25017
# Poissons Ratio (z) = -0.07628 0.44158
#
# Static dielectric constant tensor:
#      x y z
#    x 2.563480 0.000000 0.000000 
#    y 0.000000 1.719230 0.000000 
#    z 0.000000 0.000000 1.720630 
# 
# From -- ./inp_files/4161.got.cif
#   From: 2010.05.17/outbox.cif.g08.bks.cpg/sg61_3_cif.got.tgz:4161.got - 2010.06.03 15:17:17.
