data_PCOD9461128
_publ_section_title
;
Structure prediction by ZEFSAII (Michael W. Deem and Ramdas Pophale) SiO2 
 PCOD9461128
Probable space group: P B C A
;
_chemical_formula_sum "Si O2"
_cell_formula_units_Z 48
_cell_length_a 27.075109
_cell_length_b 9.675513
_cell_length_c 8.252425
_cell_angle_alpha 90.000000
_cell_angle_beta 90.000000
_cell_angle_gamma 90.000000
_cell_volume 2161.851212
_symmetry_space_group_name_H-M "P B C A"
_symmetry_group_IT_number 61
_symmetry_cell_setting 'orthorhombic'
loop_
_space_group_symop_operation_xyz
x,y,z
1/2-x,-y,1/2+z
1/2+x,1/2-y,-z
-x,1/2+y,1/2-z
-x,-y,-z
1/2+x,y,1/2-z
1/2-x,1/2+y,z
x,1/2-y,1/2+z
loop_
_atom_site_type_symbol
_atom_site_label
_atom_site_fract_x
_atom_site_fract_y
_atom_site_fract_z
Si Si1 0.315938 0.703007 0.986453
Si Si2 0.545779 0.618520 0.172230
Si Si3 0.954922 0.428801 0.285305
Si Si4 0.299248 0.198237 0.983939
Si Si5 0.656362 0.936038 0.700949
Si Si6 0.151045 0.453472 0.809025
O O1 0.257992 0.736043 0.977389
O O2 0.328545 0.588656 0.850608
O O3 0.346003 0.842448 0.953946
O O4 0.329206 0.629354 0.154040
O O5 0.501171 0.529085 0.243851
O O6 0.537693 0.779593 0.205807
O O7 0.598810 0.575198 0.243128
O O8 0.548633 0.591071 0.979606
O O9 0.903938 0.493247 0.222336
O O10 0.332265 0.332761 0.949318
O O11 0.314266 0.083048 0.851700
O O12 0.311913 0.127074 0.153811
#
# Coordination Sequence:
#
# PCOD9461128 Si02
#       6
#     8   8   8   8   8   8
#     4  12  25  43  67 100 142 184 237 278 344 417
#     4  11  25  48  72 107 134 184 227 293 349 419
#     4  11  26  48  76 101 141 177 235 286 356 417
#     4  12  24  43  69  99 139 189 229 284 347 413
#     4  12  24  44  71 100 142 181 229 291 344 415
#     4  12  26  46  67 104 140 183 233 292 347 412
#
# _framework density 22.203192999999999
#
# number of rings (size 3 to 8) (size 9 to 14) (size 15 to 20)
#    0.000    0.333    3.333    6.000    2.333    0.667 
#    0.000    0.000    0.000    0.000    0.000    0.000 
#    0.000    0.000    0.000    0.000    0.000    0.000 
#
# Total GULP energy -269120.392746 kJ/mol
# GULP energy per Si atom -5606.674849 kJ/mol
# Density = 2.215266 g / cm^3
# Si number density = 22.203193 Si / 1000 Ang^3
#
#
#
# Elastic Constant Matrix: (Units=GPa)
#
#
# Indices 1 2 3 4 5 6 
#
# 1 115.3628 51.7527 -12.5663 0.0000 0.0000 0.0000
# 2 51.7527 84.3303 1.6854 0.0000 0.0000 0.0000
# 3 -12.5663 1.6854 37.8018 0.0000 0.0000 0.0000
# 4 0.0000 0.0000 0.0000 28.0203 0.0000 0.0000
# 5 0.0000 0.0000 0.0000 0.0000 19.0572 0.0000
# 6 0.0000 0.0000 0.0000 0.0000 0.0000 39.6928
#
#
#
# Elastic Compliance Matrix: (Units=1/GPa)
#
#
# Indices 1 2 3 4 5 6 
#
# 1 0.012706 -0.007889 0.004575 0.000000 0.000000 0.000000
# 2 -0.007889 0.016767 -0.003370 0.000000 0.000000 0.000000
# 3 0.004575 -0.003370 0.028125 0.000000 0.000000 0.000000
# 4 0.000000 0.000000 0.000000 0.035688 0.000000 0.000000
# 5 0.000000 0.000000 0.000000 0.000000 0.052474 0.000000
# 6 0.000000 0.000000 0.000000 0.000000 0.000000 0.025193
#
#
# Mechanical properties :
#
#
# Convention : Reuss Voigt Hill
#
# Bulk Modulus (GPa) = 22.60875 35.47096 29.03985
# Shear Modulus (GPa) = 25.11767 30.46228 27.78997
#
# Velocity S-wave (km/s) = 3.36708 3.70804 3.54166
# Velocity P-wave (km/s) = 5.03200 5.86029 5.46187
#
# Compressibility (1/GPa) = 0.04423067
#
# Stress axis : x y z
#
# Youngs Moduli (GPa) = 78.70505 59.64187 35.55560
#
# Poissons Ratio (x) = 0.47050 -0.16268
# Poissons Ratio (y) = 0.62089 0.11982
# Poissons Ratio (z) = -0.36011 0.20099
#
# Static dielectric constant tensor:
#      x y z
#    x 1.750420 0.000000 0.000000 
#    y 0.000000 1.775120 0.000000 
#    z 0.000000 0.000000 1.880380 
# 
# From -- ./inp_files/4575.got.cif
#   From: 2010.05.17/outbox.cif.g08.bks.cpg/sg61_3_cif.got.tgz:4575.got - 2010.06.03 15:17:17.
