data_PCOD9461398
_publ_section_title
;
Structure prediction by ZEFSAII (Michael W. Deem and Ramdas Pophale) SiO2 
 PCOD9461398
Probable space group: P N M A
;
_chemical_formula_sum "Si O2"
_cell_formula_units_Z 56
_cell_length_a 18.384527
_cell_length_b 8.671778
_cell_length_c 22.773991
_cell_angle_alpha 90.000000
_cell_angle_beta 90.000000
_cell_angle_gamma 90.000000
_cell_volume 3630.778514
_symmetry_space_group_name_H-M "P N M A"
_symmetry_group_IT_number 62
_symmetry_cell_setting 'orthorhombic'
loop_
_space_group_symop_operation_xyz
x,y,z
1/2-x,-y,1/2+z
1/2+x,1/2-y,1/2-z
-x,1/2+y,-z
-x,-y,-z
1/2+x,y,1/2-z
1/2-x,1/2+y,1/2+z
x,1/2-y,z
loop_
_atom_site_type_symbol
_atom_site_label
_atom_site_fract_x
_atom_site_fract_y
_atom_site_fract_z
Si Si1 0.085245 0.066244 0.218619
Si Si2 0.719889 0.428158 0.677328
Si Si3 0.069403 0.063659 0.782716
Si Si4 0.125615 0.937336 0.346533
Si Si5 0.233848 0.928330 0.184796
Si Si6 0.502742 0.065055 0.934693
Si Si7 0.616458 0.933529 0.843812
O O1 0.083844 0.250000 0.218408
O O2 0.096523 0.006793 0.285537
O O3 0.154794 0.005094 0.182606
O O4 0.008392 0.998777 0.197737
O O5 0.713061 0.250000 0.658693
O O6 0.638377 0.493580 0.678613
O O7 0.790974 0.492967 0.644864
O O8 0.743780 0.430455 0.745993
O O9 0.069539 0.250000 0.782181
O O10 0.084335 0.007162 0.716144
O O11 0.127115 0.750000 0.339665
O O12 0.070646 0.975111 0.398617
O O13 0.230936 0.750000 0.166807
O O14 0.299357 0.015374 0.152719
O O15 0.508818 0.250000 0.935608
O O16 0.569438 0.995587 0.897777
O O17 0.500000 0.000000 0.000000
O O18 0.611052 0.750000 0.839607
#
# Coordination Sequence:
#
# PCOD9461398 Si02
#       7
#     8   8   8   8   8   8   8
#     4  11  19  26  41  66  93 119 151 188 223 264
#     4   7  13  25  42  61  79 108 149 183 213 263
#     4  10  17  27  43  63  90 123 153 180 220 273
#     4   9  17  31  47  60  82 118 155 189 230 275
#     4   9  17  30  45  61  85 118 152 181 222 276
#     4  11  22  34  49  66  89 121 160 199 237 275
#     4  11  20  31  46  65  89 115 151 194 235 273
#
# _framework density 15.423689
#
# number of rings (size 3 to 8) (size 9 to 14) (size 15 to 20)
#    0.000    2.286    1.429    5.571    0.000    0.571 
#    0.000    0.714    0.000    0.000    0.000    0.000 
#    0.000    1.143    0.000    3.143    0.000    4.571 
#
# Total GULP energy -311995.537995 kJ/mol
# GULP energy per Si atom -5571.348893 kJ/mol
# Density = 1.538858 g / cm^3
# Si number density = 15.423689 Si / 1000 Ang^3
#
#
#
# Elastic Constant Matrix: (Units=GPa)
#
#
# Indices 1 2 3 4 5 6 
#
# 1 176.2816 47.8565 42.0540 0.0000 0.0000 0.0000
# 2 47.8565 72.9764 21.1287 0.0000 0.0000 0.0000
# 3 42.0540 21.1287 45.6746 0.0000 0.0000 0.0000
# 4 0.0000 0.0000 0.0000 14.6407 0.0000 0.0000
# 5 0.0000 0.0000 0.0000 0.0000 13.0460 0.0000
# 6 0.0000 0.0000 0.0000 0.0000 0.0000 17.4546
#
#
#
# Elastic Compliance Matrix: (Units=1/GPa)
#
#
# Indices 1 2 3 4 5 6 
#
# 1 0.008013 -0.003601 -0.005712 0.000000 0.000000 0.000000
# 2 -0.003601 0.017440 -0.004752 0.000000 0.000000 0.000000
# 3 -0.005712 -0.004752 0.029352 0.000000 0.000000 0.000000
# 4 0.000000 0.000000 0.000000 0.068303 0.000000 0.000000
# 5 0.000000 0.000000 0.000000 0.000000 0.076652 0.000000
# 6 0.000000 0.000000 0.000000 0.000000 0.000000 0.057292
#
#
# Mechanical properties :
#
#
# Convention : Reuss Voigt Hill
#
# Bulk Modulus (GPa) = 37.48898 57.44565 47.46731
# Shear Modulus (GPa) = 17.00257 21.28782 19.14519
#
# Velocity S-wave (km/s) = 3.32379 3.71914 3.52701
# Velocity P-wave (km/s) = 6.25212 7.46784 6.88686
#
# Compressibility (1/GPa) = 0.02667451
#
# Stress axis : x y z
#
# Youngs Moduli (GPa) = 124.79729 57.33805 34.06966
#
# Poissons Ratio (x) = 0.20647 0.19461
# Poissons Ratio (y) = 0.44939 0.16191
# Poissons Ratio (z) = 0.71285 0.27249
#
# Static dielectric constant tensor:
#      x y z
#    x 1.569440 0.000000 0.000000 
#    y 0.000000 1.516090 0.000000 
#    z 0.000000 0.000000 1.469120 
# 
# From -- ./inp_files/27594.got.cif
#   From: 2010.05.17/outbox.cif.g08.bks.cpg/sg62_14_cif.got.tgz:27594.got - 2010.06.03 15:25:27.
