data_PCOD9461322
_publ_section_title
;
Structure prediction by ZEFSAII (Michael W. Deem and Ramdas Pophale) SiO2 
 PCOD9461322
Probable space group: P N M A
;
_chemical_formula_sum "Si O2"
_cell_formula_units_Z 64
_cell_length_a 22.449670
_cell_length_b 8.776701
_cell_length_c 17.787870
_cell_angle_alpha 90.000000
_cell_angle_beta 90.000000
_cell_angle_gamma 90.000000
_cell_volume 3504.815909
_symmetry_space_group_name_H-M "P N M A"
_symmetry_group_IT_number 62
_symmetry_cell_setting 'orthorhombic'
loop_
_space_group_symop_operation_xyz
x,y,z
1/2-x,-y,1/2+z
1/2+x,1/2-y,1/2-z
-x,1/2+y,-z
-x,-y,-z
1/2+x,y,1/2-z
1/2-x,1/2+y,1/2+z
x,1/2-y,z
loop_
_atom_site_type_symbol
_atom_site_label
_atom_site_fract_x
_atom_site_fract_y
_atom_site_fract_z
Si Si1 0.860294 0.069246 0.984465
Si Si2 0.119778 0.931617 0.398754
Si Si3 0.996586 0.067206 0.416082
Si Si4 0.561007 0.429424 0.352280
Si Si5 0.242386 0.567892 0.121107
Si Si6 0.038915 0.431907 0.930070
Si Si7 0.833104 0.571937 0.743076
Si Si8 0.864871 0.066801 0.426224
O O1 0.861795 0.250000 0.997781
O O2 0.795167 0.022250 0.954300
O O3 0.900702 0.026146 0.912230
O O4 0.893676 0.984743 0.052688
O O5 0.117330 0.750000 0.396729
O O6 0.133681 0.977353 0.485017
O O7 0.054538 0.996971 0.378147
O O8 0.166113 0.992459 0.337577
O O9 0.001711 0.250000 0.417573
O O10 0.929468 0.028908 0.390698
O O11 0.000000 0.000000 0.500000
O O12 0.560219 0.250000 0.373759
O O13 0.494469 0.495519 0.358206
O O14 0.599993 0.441993 0.277542
O O15 0.238924 0.750000 0.125773
O O16 0.210435 0.498554 0.194394
O O17 0.309411 0.511692 0.112920
O O18 0.034754 0.250000 0.929497
O O19 0.000000 0.500000 0.000000
O O20 0.819844 0.750000 0.735278
O O21 0.858162 0.250000 0.423246
#
# Coordination Sequence:
#
# PCOD9461322 Si02
#       8
#     8   8   8   8   8   8   8   8
#     4   9  16  26  39  59  87 118 155 198 241 285
#     4  10  20  34  54  80 108 137 171 215 264 314
#     4   9  17  31  52  79 107 133 164 204 254 308
#     4   9  16  26  40  60  86 118 156 197 243 291
#     4  10  20  32  50  75 103 138 178 218 258 307
#     4  10  16  22  36  57  81 113 151 194 243 287
#     4  10  20  33  51  74 103 139 175 215 263 315
#     4   9  19  34  53  78 107 138 170 209 257 309
#
# _framework density 18.260587000000001
#
# number of rings (size 3 to 8) (size 9 to 14) (size 15 to 20)
#    0.000    2.500    0.000    5.625    0.000    6.000 
#    0.000    0.000    0.000    1.500    0.000    8.750 
#    0.000    0.000    0.000    0.000    0.000    0.000 
#
# Total GULP energy -356388.648222 kJ/mol
# GULP energy per Si atom -5568.572628 kJ/mol
# Density = 1.821903 g / cm^3
# Si number density = 18.260587 Si / 1000 Ang^3
#
#
#
# Elastic Constant Matrix: (Units=GPa)
#
#
# Indices 1 2 3 4 5 6 
#
# 1 89.5272 31.2163 30.3416 0.0000 0.0000 0.0000
# 2 31.2163 65.3002 22.3854 0.0000 0.0000 0.0000
# 3 30.3416 22.3854 44.2957 0.0000 0.0000 0.0000
# 4 0.0000 0.0000 0.0000 20.5050 0.0000 0.0000
# 5 0.0000 0.0000 0.0000 0.0000 15.6335 0.0000
# 6 0.0000 0.0000 0.0000 0.0000 0.0000 25.6078
#
#
#
# Elastic Compliance Matrix: (Units=1/GPa)
#
#
# Indices 1 2 3 4 5 6 
#
# 1 0.015608 -0.004592 -0.008370 0.000000 0.000000 0.000000
# 2 -0.004592 0.019874 -0.006898 0.000000 0.000000 0.000000
# 3 -0.008370 -0.006898 0.031795 0.000000 0.000000 0.000000
# 4 0.000000 0.000000 0.000000 0.048769 0.000000 0.000000
# 5 0.000000 0.000000 0.000000 0.000000 0.063965 0.000000
# 6 0.000000 0.000000 0.000000 0.000000 0.000000 0.039051
#
#
# Mechanical properties :
#
#
# Convention : Reuss Voigt Hill
#
# Bulk Modulus (GPa) = 36.28992 40.77888 38.53440
# Shear Modulus (GPa) = 18.65902 20.02790 19.34346
#
# Velocity S-wave (km/s) = 3.20006 3.31536 3.25822
# Velocity P-wave (km/s) = 5.79399 6.08569 5.94163
#
# Compressibility (1/GPa) = 0.02755586
#
# Stress axis : x y z
#
# Youngs Moduli (GPa) = 64.07118 50.31780 31.45125
#
# Poissons Ratio (x) = 0.23104 0.26326
# Poissons Ratio (y) = 0.29419 0.21696
# Poissons Ratio (z) = 0.53630 0.34710
#
# Static dielectric constant tensor:
#      x y z
#    x 1.674910 0.000000 0.000000 
#    y 0.000000 1.608000 0.000000 
#    z 0.000000 0.000000 1.645240 
# 
# From -- ./inp_files/27923.got.cif
#   From: 2010.05.17/outbox.cif.g08.bks.cpg/sg62_14_cif.got.tgz:27923.got - 2010.06.03 15:25:27.
