data_PCOD9461302
_publ_section_title
;
Structure prediction by ZEFSAII (Michael W. Deem and Ramdas Pophale) SiO2 
 PCOD9461302
Probable space group: P B C A
;
_chemical_formula_sum "Si O2"
_cell_formula_units_Z 48
_cell_length_a 9.000000
_cell_length_b 9.000000
_cell_length_c 30.000000
_cell_angle_alpha 90.000000
_cell_angle_beta 90.000000
_cell_angle_gamma 90.000000
_cell_volume 2430.000000
_symmetry_space_group_name_H-M "P B C A"
_symmetry_group_IT_number 61
_symmetry_cell_setting 'orthorhombic'
loop_
_space_group_symop_operation_xyz
x,y,z
1/2-x,-y,1/2+z
1/2+x,1/2-y,-z
-x,1/2+y,1/2-z
-x,-y,-z
1/2+x,y,1/2-z
1/2-x,1/2+y,z
x,1/2-y,1/2+z
loop_
_atom_site_type_symbol
_atom_site_label
_atom_site_fract_x
_atom_site_fract_y
_atom_site_fract_z
Si Si1 0.146804 0.640228 0.902612
Si Si2 0.631205 0.337424 0.539624
Si Si3 0.524838 0.568980 0.212724
Si Si4 0.159318 0.593529 0.794386
Si Si5 0.177266 0.815237 0.053465
Si Si6 0.394259 0.613554 0.110490
O O1 0.288214 0.723977 0.925171
O O2 0.121583 0.497140 0.934787
O O3 0.144286 0.586116 0.849752
O O4 0.027268 0.774606 0.903017
O O5 0.465824 0.271659 0.534221
O O6 0.716703 0.343461 0.490905
O O7 0.428835 0.513199 0.257084
O O8 0.599079 0.736866 0.216432
O O9 0.666199 0.454427 0.210789
O O10 0.430278 0.574807 0.164241
O O11 0.254102 0.713472 0.092533
O O12 0.123781 0.965111 0.079861
#
# Coordination Sequence:
#
# PCOD9461302 Si02
#       6
#     8   8   8   8   8   8
#     4  11  24  45  69  99 135 181 225 277 337 396
#     4  12  25  43  70  98 135 178 226 278 335 400
#     4  11  25  45  71 102 137 178 224 276 333 398
#     4  11  24  44  69 101 137 176 224 276 335 395
#     4  12  26  45  68  99 135 177 225 278 335 402
#     4  11  26  46  69  99 135 176 224 275 335 399
#
# _framework density 19.753086
#
# number of rings (size 3 to 8) (size 9 to 14) (size 15 to 20)
#    0.000    0.667    0.000    8.000    0.000   10.667 
#    0.000    1.667    0.000    0.000    0.000    0.000 
#    0.000    0.000    0.000    0.000    0.000    0.000 
#
# Total GULP energy -267415.834185 kJ/mol
# GULP energy per Si atom -5571.163212 kJ/mol
# Density = 1.970813 g / cm^3
# Si number density = 19.753086 Si / 1000 Ang^3
#
#
#
# Elastic Constant Matrix: (Units=GPa)
#
#
# Indices 1 2 3 4 5 6 
#
# 1 126.6834 41.0895 62.3962 0.0000 0.0000 0.0000
# 2 41.0895 142.2426 62.2650 0.0000 0.0000 0.0000
# 3 62.3962 62.2650 183.9165 0.0000 0.0000 0.0000
# 4 0.0000 0.0000 0.0000 50.7815 0.0000 0.0000
# 5 0.0000 0.0000 0.0000 0.0000 48.0119 0.0000
# 6 0.0000 0.0000 0.0000 0.0000 0.0000 47.3899
#
#
#
# Elastic Compliance Matrix: (Units=1/GPa)
#
#
# Indices 1 2 3 4 5 6 
#
# 1 0.009782 -0.001612 -0.002773 0.000000 0.000000 0.000000
# 2 -0.001612 0.008519 -0.002337 0.000000 0.000000 0.000000
# 3 -0.002773 -0.002337 0.007169 0.000000 0.000000 0.000000
# 4 0.000000 0.000000 0.000000 0.019692 0.000000 0.000000
# 5 0.000000 0.000000 0.000000 0.000000 0.020828 0.000000
# 6 0.000000 0.000000 0.000000 0.000000 0.000000 0.021102
#
#
# Mechanical properties :
#
#
# Convention : Reuss Voigt Hill
#
# Bulk Modulus (GPa) = 83.15202 87.14933 85.15068
# Shear Modulus (GPa) = 47.82592 48.37611 48.10102
#
# Velocity S-wave (km/s) = 4.92589 4.95415 4.94004
# Velocity P-wave (km/s) = 8.63364 8.77154 8.70286
#
# Compressibility (1/GPa) = 0.01202617
#
# Stress axis : x y z
#
# Youngs Moduli (GPa) = 102.22477 117.38498 139.48316
#
# Poissons Ratio (x) = 0.18922 0.38680
# Poissons Ratio (y) = 0.16478 0.32600
# Poissons Ratio (z) = 0.28348 0.27436
#
# Static dielectric constant tensor:
#      x y z
#    x 1.763720 0.000000 0.000000 
#    y 0.000000 1.721170 0.000000 
#    z 0.000000 0.000000 1.717760 
# 
# From -- ./inp_files/11687.got.cif
#   From: 2010.05.17/outbox.ucp.g08.bks.cvg/sg61_6_cif.got.tgz:11687.got - 2010.06.11 16:28:26.
