data_PCOD9461249
_publ_section_title
;
Structure prediction by ZEFSAII (Michael W. Deem and Ramdas Pophale) SiO2 
 PCOD9461249
Probable space group: P B C A
;
_chemical_formula_sum "Si O2"
_cell_formula_units_Z 64
_cell_length_a 18.000000
_cell_length_b 12.000000
_cell_length_c 15.000000
_cell_angle_alpha 90.000000
_cell_angle_beta 90.000000
_cell_angle_gamma 90.000000
_cell_volume 3240.000000
_symmetry_space_group_name_H-M "P B C A"
_symmetry_group_IT_number 61
_symmetry_cell_setting 'orthorhombic'
loop_
_space_group_symop_operation_xyz
x,y,z
1/2-x,-y,1/2+z
1/2+x,1/2-y,-z
-x,1/2+y,1/2-z
-x,-y,-z
1/2+x,y,1/2-z
1/2-x,1/2+y,z
x,1/2-y,1/2+z
loop_
_atom_site_type_symbol
_atom_site_label
_atom_site_fract_x
_atom_site_fract_y
_atom_site_fract_z
Si Si1 0.459327 0.010371 0.835283
Si Si2 0.873833 0.309939 0.076999
Si Si3 0.201863 0.358530 0.372440
Si Si4 0.388853 0.399190 0.163390
Si Si5 0.840708 0.428826 0.528812
Si Si6 0.606333 0.860240 0.867589
Si Si7 0.689225 0.391993 0.602820
Si Si8 0.233441 0.499684 0.225350
O O1 0.444571 0.134535 0.874906
O O2 0.440616 0.030786 0.730743
O O3 0.534032 0.939313 0.850823
O O4 0.390394 0.950358 0.887308
O O5 0.792256 0.355800 0.109717
O O6 0.867615 0.176609 0.087186
O O7 0.881795 0.338308 0.972699
O O8 0.158696 0.449552 0.429822
O O9 0.173956 0.237794 0.393928
O O10 0.190179 0.397438 0.271406
O O11 0.391345 0.423272 0.058497
O O12 0.397939 0.264961 0.174907
O O13 0.305466 0.443141 0.183093
O O14 0.749670 0.410609 0.523219
O O15 0.678990 0.925044 0.832091
O O16 0.735623 0.427460 0.691254
#
# Coordination Sequence:
#
# PCOD9461249 Si02
#       8
#     8   8   8   8   8   8   8   8
#     4  11  22  40  61  87 131 162 195 251 319 372
#     4  10  19  37  57  87 117 158 201 249 302 366
#     4  10  17  33  61  87 118 151 209 250 297 349
#     4  10  21  39  60  88 125 153 206 259 295 361
#     4   9  18  32  61  88 110 157 206 252 294 343
#     4  11  24  36  63  91 122 162 203 256 315 369
#     4   9  19  34  60  88 119 162 198 252 303 363
#     4  10  19  33  59  88 113 158 205 252 303 355
#
# _framework density 19.753086
#
# number of rings (size 3 to 8) (size 9 to 14) (size 15 to 20)
#    0.000    2.000    3.750    1.875    3.500    1.000 
#    0.000    0.000    5.500    4.500    0.000    0.000 
#    0.000    0.000    0.000    0.000    0.000    0.000 
#
# Total GULP energy -356315.202044 kJ/mol
# GULP energy per Si atom -5567.425032 kJ/mol
# Density = 1.970813 g / cm^3
# Si number density = 19.753086 Si / 1000 Ang^3
#
#
#
# Elastic Constant Matrix: (Units=GPa)
#
#
# Indices 1 2 3 4 5 6 
#
# 1 56.9115 22.2497 3.3216 0.0000 0.0000 0.0000
# 2 22.2497 107.5998 8.5899 0.0000 0.0000 0.0000
# 3 3.3216 8.5899 28.9691 0.0000 0.0000 0.0000
# 4 0.0000 0.0000 0.0000 22.6232 0.0000 0.0000
# 5 0.0000 0.0000 0.0000 0.0000 14.3908 0.0000
# 6 0.0000 0.0000 0.0000 0.0000 0.0000 23.8791
#
#
#
# Elastic Compliance Matrix: (Units=1/GPa)
#
#
# Indices 1 2 3 4 5 6 
#
# 1 0.019147 -0.003876 -0.001046 0.000000 0.000000 0.000000
# 2 -0.003876 0.010304 -0.002611 0.000000 0.000000 0.000000
# 3 -0.001046 -0.002611 0.035414 0.000000 0.000000 0.000000
# 4 0.000000 0.000000 0.000000 0.044202 0.000000 0.000000
# 5 0.000000 0.000000 0.000000 0.000000 0.069489 0.000000
# 6 0.000000 0.000000 0.000000 0.000000 0.000000 0.041878
#
#
# Mechanical properties :
#
#
# Convention : Reuss Voigt Hill
#
# Bulk Modulus (GPa) = 20.08069 29.08919 24.58494
# Shear Modulus (GPa) = 19.83349 22.79991 21.31670
#
# Velocity S-wave (km/s) = 3.17214 3.40110 3.28862
# Velocity P-wave (km/s) = 4.85846 5.49379 5.18586
#
# Compressibility (1/GPa) = 0.04979908
#
# Stress axis : x y z
#
# Youngs Moduli (GPa) = 52.22629 97.05376 28.23769
#
# Poissons Ratio (x) = 0.37616 0.02954
# Poissons Ratio (y) = 0.20242 0.07372
# Poissons Ratio (z) = 0.05464 0.25339
#
# Static dielectric constant tensor:
#      x y z
#    x 1.686030 0.000000 0.000000 
#    y 0.000000 1.755510 0.000000 
#    z 0.000000 0.000000 1.775590 
# 
# From -- ./inp_files/8210.got.cif
#   From: 2010.05.17/outbox.ucp.g08.bks.cvg/sg61_5_cif.got.tgz:8210.got - 2010.06.11 16:28:26.
