data_PCOD9461507
_publ_section_title
;
Structure prediction by ZEFSAII (Michael W. Deem and Ramdas Pophale) SiO2 
 PCOD9461507
Probable space group: P N M A
;
_chemical_formula_sum "Si O2"
_cell_formula_units_Z 64
_cell_length_a 17.148124
_cell_length_b 7.427522
_cell_length_c 19.770187
_cell_angle_alpha 90.000000
_cell_angle_beta 90.000000
_cell_angle_gamma 90.000000
_cell_volume 2518.090528
_symmetry_space_group_name_H-M "P N M A"
_symmetry_group_IT_number 62
_symmetry_cell_setting 'orthorhombic'
loop_
_space_group_symop_operation_xyz
x,y,z
1/2-x,-y,1/2+z
1/2+x,1/2-y,1/2-z
-x,1/2+y,-z
-x,-y,-z
1/2+x,y,1/2-z
1/2-x,1/2+y,1/2+z
x,1/2-y,z
loop_
_atom_site_type_symbol
_atom_site_label
_atom_site_fract_x
_atom_site_fract_y
_atom_site_fract_z
Si Si1 0.093027 0.033859 0.090845
Si Si2 0.500329 0.970153 0.798774
Si Si3 0.829544 0.039766 0.043754
Si Si4 0.247447 0.531283 0.665913
Si Si5 0.097904 0.970375 0.580002
Si Si6 0.336930 0.451954 0.946390
Si Si7 0.671170 0.459016 0.207273
Si Si8 0.067018 0.970130 0.837913
O O1 0.091451 0.250000 0.093810
O O2 0.171812 0.977595 0.129471
O O3 0.013597 0.972905 0.125930
O O4 0.104568 0.979799 0.013189
O O5 0.499027 0.750000 0.799047
O O6 0.524921 0.024192 0.874005
O O7 0.414723 0.036038 0.778964
O O8 0.560732 0.022982 0.740245
O O9 0.811507 0.250000 0.050446
O O10 0.862421 0.969078 0.114823
O O11 0.749647 0.948271 0.020926
O O12 0.239834 0.750000 0.664272
O O13 0.172653 0.469108 0.624225
O O14 0.260852 0.471866 0.743843
O O15 0.098789 0.750000 0.576088
O O16 0.107264 0.035581 0.503123
O O17 0.363038 0.250000 0.932656
O O18 0.321935 0.535548 0.873313
O O19 0.665488 0.250000 0.226434
O O20 0.070067 0.750000 0.839113
#
# Coordination Sequence:
#
# PCOD9461507 Si02
#       8
#     8   8   8   8   8   8   8   8
#     4  10  17  33  57  80 111 150 183 218 275 344
#     4   9  17  32  55  83 109 137 184 237 275 318
#     4  11  22  34  52  84 117 146 185 234 278 323
#     4   9  16  30  55  82 106 140 184 222 265 326
#     4   9  18  32  54  80 105 143 188 225 265 323
#     4  11  23  39  56  78 111 151 189 227 280 339
#     4  10  20  35  59  87 109 136 181 234 278 322
#     4   9  18  31  52  84 115 141 180 231 279 330
#
# _framework density 25.416083
#
# number of rings (size 3 to 8) (size 9 to 14) (size 15 to 20)
#    0.000    2.250    2.500    1.125    1.750    0.500 
#    0.000    1.250    0.000    2.250    0.000    0.000 
#    0.000    0.000    0.000    0.000    0.000    0.000 
#
# Total GULP energy -357736.445547 kJ/mol
# GULP energy per Si atom -5589.631962 kJ/mol
# Density = 2.535824 g / cm^3
# Si number density = 25.416083 Si / 1000 Ang^3
#
#
#
# Elastic Constant Matrix: (Units=GPa)
#
#
# Indices 1 2 3 4 5 6 
#
# 1 34.3587 -0.0841 7.0463 0.0000 0.0000 0.0000
# 2 -0.0841 80.9624 -5.0078 0.0000 0.0000 0.0000
# 3 7.0463 -5.0078 136.7736 0.0000 0.0000 0.0000
# 4 0.0000 0.0000 0.0000 9.2927 0.0000 0.0000
# 5 0.0000 0.0000 0.0000 0.0000 44.1109 0.0000
# 6 0.0000 0.0000 0.0000 0.0000 0.0000 -0.3285
#
#
#
# Elastic Compliance Matrix: (Units=1/GPa)
#
#
# Indices 1 2 3 4 5 6 
#
# 1 0.029416 -0.000063 -0.001518 0.000000 0.000000 0.000000
# 2 -0.000063 0.012380 0.000457 0.000000 0.000000 0.000000
# 3 -0.001518 0.000457 0.007406 0.000000 0.000000 0.000000
# 4 0.000000 0.000000 0.000000 0.107611 0.000000 0.000000
# 5 0.000000 0.000000 0.000000 0.000000 0.022670 0.000000
# 6 0.000000 0.000000 0.000000 0.000000 0.000000 -3.044191
#
#
# Mechanical properties :
#
#
# Convention : Reuss Voigt Hill
#
# Bulk Modulus (GPa) = 21.29813 28.44485 24.87149
# Shear Modulus (GPa) = -1.75635 27.29106 12.76735
#
# Velocity S-wave (km/s) = -0.83219 3.28040 2.24371
# Velocity P-wave (km/s) = 2.73397 5.05609 4.06439
#
# Compressibility (1/GPa) = 0.04695249
#
# Stress axis : x y z
#
# Youngs Moduli (GPa) = 33.99534 80.77820 135.02096
#
# Poissons Ratio (x) = 0.00512 0.20493
# Poissons Ratio (y) = 0.00215 -0.06164
# Poissons Ratio (z) = 0.05160 -0.03688
#
# Static dielectric constant tensor:
#      x y z
#    x 2.004360 0.000000 0.000000 
#    y 0.000000 2.003690 0.000000 
#    z 0.000000 0.000000 2.032020 
# 
# From -- ./inp_files/27756.got.cif
#   From: 2010.05.17/outbox.cif.g08.bks.cpg/sg62_14_cif.got.tgz:27756.got - 2010.06.03 15:25:27.
