data_PCOD9461123
_publ_section_title
;
Structure prediction by ZEFSAII (Michael W. Deem and Ramdas Pophale) SiO2 
 PCOD9461123
Probable space group: P B C A
;
_chemical_formula_sum "Si O2"
_cell_formula_units_Z 40
_cell_length_a 12.098562
_cell_length_b 10.859062
_cell_length_c 13.360162
_cell_angle_alpha 90.000000
_cell_angle_beta 90.000000
_cell_angle_gamma 90.000000
_cell_volume 1755.245189
_symmetry_space_group_name_H-M "P B C A"
_symmetry_group_IT_number 61
_symmetry_cell_setting 'orthorhombic'
loop_
_space_group_symop_operation_xyz
x,y,z
1/2-x,-y,1/2+z
1/2+x,1/2-y,-z
-x,1/2+y,1/2-z
-x,-y,-z
1/2+x,y,1/2-z
1/2-x,1/2+y,z
x,1/2-y,1/2+z
loop_
_atom_site_type_symbol
_atom_site_label
_atom_site_fract_x
_atom_site_fract_y
_atom_site_fract_z
Si Si1 0.968712 0.255545 0.660700
Si Si2 0.602772 0.809952 0.375775
Si Si3 0.104315 0.023988 0.874023
Si Si4 0.659703 0.400669 0.352500
Si Si5 0.334867 0.091730 0.976681
O O1 0.941747 0.259489 0.777662
O O2 0.920469 0.379715 0.615017
O O3 0.910730 0.132356 0.616718
O O4 0.098024 0.231387 0.641567
O O5 0.649262 0.709941 0.452448
O O6 0.500323 0.894888 0.406949
O O7 0.708600 0.891292 0.348211
O O8 0.121110 0.046369 0.754561
O O9 0.213346 0.065357 0.933386
O O10 0.631991 0.478068 0.452226
#
# Coordination Sequence:
#
# PCOD9461123 Si02
#       5
#     8   8   8   8   8
#     4  11  25  48  74 109 145 191 250 306 368 435
#     4  11  26  47  75 108 148 193 244 304 369 440
#     4  11  26  49  75 108 150 193 246 309 367 441
#     4  11  25  47  74 106 146 194 246 310 365 438
#     4  12  25  47  76 108 145 198 244 301 377 439
#
# _framework density 22.788841000000001
#
# number of rings (size 3 to 8) (size 9 to 14) (size 15 to 20)
#    0.000    0.800    4.000    1.800    5.600    1.600 
#    3.600    0.000    0.000    0.000    0.000    0.000 
#    0.000    0.000    0.000    0.000    0.000    0.000 
#
# Total GULP energy -223663.267928 kJ/mol
# GULP energy per Si atom -5591.581698 kJ/mol
# Density = 2.273697 g / cm^3
# Si number density = 22.788841 Si / 1000 Ang^3
#
#
#
# Elastic Constant Matrix: (Units=GPa)
#
#
# Indices 1 2 3 4 5 6 
#
# 1 149.3202 45.4432 32.7754 0.0000 0.0000 0.0000
# 2 45.4432 82.0747 23.5959 0.0000 0.0000 0.0000
# 3 32.7754 23.5959 103.1899 0.0000 0.0000 0.0000
# 4 0.0000 0.0000 0.0000 38.7900 0.0000 0.0000
# 5 0.0000 0.0000 0.0000 0.0000 34.8581 0.0000
# 6 0.0000 0.0000 0.0000 0.0000 0.0000 31.4874
#
#
#
# Elastic Compliance Matrix: (Units=1/GPa)
#
#
# Indices 1 2 3 4 5 6 
#
# 1 0.008324 -0.004120 -0.001702 0.000000 0.000000 0.000000
# 2 -0.004120 0.015080 -0.002140 0.000000 0.000000 0.000000
# 3 -0.001702 -0.002140 0.010721 0.000000 0.000000 0.000000
# 4 0.000000 0.000000 0.000000 0.025780 0.000000 0.000000
# 5 0.000000 0.000000 0.000000 0.000000 0.028688 0.000000
# 6 0.000000 0.000000 0.000000 0.000000 0.000000 0.031759
#
#
# Mechanical properties :
#
#
# Convention : Reuss Voigt Hill
#
# Bulk Modulus (GPa) = 54.93800 59.80154 57.36977
# Shear Modulus (GPa) = 35.12665 36.54513 35.83589
#
# Velocity S-wave (km/s) = 3.93032 4.00889 3.96980
# Velocity P-wave (km/s) = 6.69002 6.90846 6.80012
#
# Compressibility (1/GPa) = 0.01820234
#
# Stress axis : x y z
#
# Youngs Moduli (GPa) = 120.12914 66.31195 93.27703
#
# Poissons Ratio (x) = 0.27319 0.15875
# Poissons Ratio (y) = 0.49490 0.19959
# Poissons Ratio (z) = 0.20446 0.14189
#
# Static dielectric constant tensor:
#      x y z
#    x 1.819300 0.000000 0.000000 
#    y 0.000000 1.824630 0.000000 
#    z 0.000000 0.000000 1.893400 
# 
# From -- ./inp_files/5642.got.cif
#   From: 2010.05.17/outbox.cif.g08.bks.cpg/sg61_3_cif.got.tgz:5642.got - 2010.06.03 15:17:17.
