data_PCOD9461767
_publ_section_title
;
Structure prediction by ZEFSAII (Michael W. Deem and Ramdas Pophale) SiO2 
 PCOD9461767
Probable space group: P N M A
;
_chemical_formula_sum "Si O2"
_cell_formula_units_Z 48
_cell_length_a 8.416854
_cell_length_b 20.084844
_cell_length_c 14.634346
_cell_angle_alpha 90.000000
_cell_angle_beta 90.000000
_cell_angle_gamma 90.000000
_cell_volume 2473.953746
_symmetry_space_group_name_H-M "P N M A"
_symmetry_group_IT_number 62
_symmetry_cell_setting 'orthorhombic'
loop_
_space_group_symop_operation_xyz
x,y,z
1/2-x,-y,1/2+z
1/2+x,1/2-y,1/2-z
-x,1/2+y,-z
-x,-y,-z
1/2+x,y,1/2-z
1/2-x,1/2+y,1/2+z
x,1/2-y,z
loop_
_atom_site_type_symbol
_atom_site_label
_atom_site_fract_x
_atom_site_fract_y
_atom_site_fract_z
Si Si1 0.316750 0.963273 0.370699
Si Si2 0.912901 0.061822 0.373224
Si Si3 0.824166 0.174027 0.657833
Si Si4 0.159161 0.063049 0.514692
Si Si5 0.113114 0.472428 0.208885
Si Si6 0.704881 0.324608 0.864504
O O1 0.270203 0.886931 0.388635
O O2 0.256915 0.013449 0.449414
O O3 0.498932 0.980169 0.349165
O O4 0.223361 0.984923 0.277780
O O5 0.727888 0.072171 0.353820
O O6 0.016946 0.093887 0.453177
O O7 0.004097 0.069610 0.277962
O O8 0.914138 0.984053 0.406329
O O9 0.781109 0.250000 0.629515
O O10 0.782766 0.168649 0.765377
O O11 0.013859 0.166600 0.646780
O O12 0.256159 0.120572 0.562947
O O13 0.735582 0.250000 0.897248
#
# Coordination Sequence:
#
# PCOD9461767 Si02
#       6
#     8   8   8   8   8   8
#     4  10  18  30  48  71 101 132 168 210 252 297
#     4   9  17  29  45  67  94 122 157 199 247 293
#     4  10  19  31  49  71  99 135 171 202 238 298
#     4  10  19  30  46  70 100 129 162 212 258 295
#     4   9  17  29  46  67  93 128 163 198 245 301
#     4  10  20  34  51  72 100 136 171 204 248 300
#
# _framework density 19.402141
#
# number of rings (size 3 to 8) (size 9 to 14) (size 15 to 20)
#    0.000    2.333    0.000    6.000    0.000    0.667 
#    0.000    1.667    0.000    0.000    0.000   18.667 
#    0.000    9.333    0.000    0.500    0.000    0.167 
#
# Total GULP energy -267689.341067 kJ/mol
# GULP energy per Si atom -5576.861272 kJ/mol
# Density = 1.935798 g / cm^3
# Si number density = 19.402141 Si / 1000 Ang^3
#
#
#
# Elastic Constant Matrix: (Units=GPa)
#
#
# Indices 1 2 3 4 5 6 
#
# 1 73.6901 17.9637 34.8276 0.0000 0.0000 0.0000
# 2 17.9637 86.7611 40.9086 0.0000 0.0000 0.0000
# 3 34.8276 40.9086 79.6367 0.0000 0.0000 0.0000
# 4 0.0000 0.0000 0.0000 30.7021 0.0000 0.0000
# 5 0.0000 0.0000 0.0000 0.0000 26.0917 0.0000
# 6 0.0000 0.0000 0.0000 0.0000 0.0000 15.2551
#
#
#
# Elastic Compliance Matrix: (Units=1/GPa)
#
#
# Indices 1 2 3 4 5 6 
#
# 1 0.017106 -0.000019 -0.007471 0.000000 0.000000 0.000000
# 2 -0.000019 0.015210 -0.007805 0.000000 0.000000 0.000000
# 3 -0.007471 -0.007805 0.019834 0.000000 0.000000 0.000000
# 4 0.000000 0.000000 0.000000 0.032571 0.000000 0.000000
# 5 0.000000 0.000000 0.000000 0.000000 0.038326 0.000000
# 6 0.000000 0.000000 0.000000 0.000000 0.000000 0.065552
#
#
# Mechanical properties :
#
#
# Convention : Reuss Voigt Hill
#
# Bulk Modulus (GPa) = 46.38342 47.49863 46.94102
# Shear Modulus (GPa) = 22.08719 24.16898 23.12808
#
# Velocity S-wave (km/s) = 3.37766 3.53326 3.45634
# Velocity P-wave (km/s) = 6.25857 6.41712 6.33834
#
# Compressibility (1/GPa) = 0.02155943
#
# Stress axis : x y z
#
# Youngs Moduli (GPa) = 58.45887 65.74665 50.41922
#
# Poissons Ratio (x) = 0.00125 0.37669
# Poissons Ratio (y) = 0.00111 0.39351
# Poissons Ratio (z) = 0.43676 0.51314
#
# Static dielectric constant tensor:
#      x y z
#    x 1.780980 0.000000 0.000000 
#    y 0.000000 1.675470 0.000000 
#    z 0.000000 0.000000 1.715520 
# 
# From -- ./inp_files/17078.got.cif
#   From: 2010.05.17/outbox.cif.g08.bks.cpg/sg62_9_cif.got.tgz:17078.got - 2010.06.03 15:25:27.
