data_PCOD9461390
_publ_section_title
;
Structure prediction by ZEFSAII (Michael W. Deem and Ramdas Pophale) SiO2 
 PCOD9461390
Probable space group: P N M A
;
_chemical_formula_sum "Si O2"
_cell_formula_units_Z 64
_cell_length_a 21.643362
_cell_length_b 9.264422
_cell_length_c 14.787497
_cell_angle_alpha 90.000000
_cell_angle_beta 90.000000
_cell_angle_gamma 90.000000
_cell_volume 2965.088921
_symmetry_space_group_name_H-M "P N M A"
_symmetry_group_IT_number 62
_symmetry_cell_setting 'orthorhombic'
loop_
_space_group_symop_operation_xyz
x,y,z
1/2-x,-y,1/2+z
1/2+x,1/2-y,1/2-z
-x,1/2+y,-z
-x,-y,-z
1/2+x,y,1/2-z
1/2-x,1/2+y,1/2+z
x,1/2-y,z
loop_
_atom_site_type_symbol
_atom_site_label
_atom_site_fract_x
_atom_site_fract_y
_atom_site_fract_z
Si Si1 0.811915 0.576530 0.473681
Si Si2 0.190504 0.924397 0.719994
Si Si3 0.063858 0.914189 0.013994
Si Si4 0.938783 0.091879 0.770653
Si Si5 0.936282 0.083644 0.480723
Si Si6 0.813636 0.917857 0.984062
Si Si7 0.822972 0.913436 0.762545
Si Si8 0.441515 0.089812 0.236465
O O1 0.812268 0.750000 0.482394
O O2 0.811089 0.526189 0.368070
O O3 0.875101 0.504177 0.510779
O O4 0.748262 0.505567 0.509184
O O5 0.192108 0.750000 0.695633
O O6 0.254656 0.955116 0.769780
O O7 0.126611 0.946854 0.772152
O O8 0.061438 0.750000 0.977630
O O9 0.071219 0.900997 0.121977
O O10 0.123824 0.004049 0.983456
O O11 0.000000 0.000000 0.000000
O O12 0.941757 0.250000 0.731224
O O13 0.879985 0.008610 0.732744
O O14 0.003670 0.015416 0.758150
O O15 0.936796 0.250000 0.513163
O O16 0.933269 0.091822 0.371642
O O17 0.000000 0.000000 0.500000
O O18 0.810394 0.750000 0.011687
O O19 0.817606 0.916705 0.872923
O O20 0.835620 0.750000 0.734996
O O21 0.459346 0.250000 0.266430
#
# Coordination Sequence:
#
# PCOD9461390 Si02
#       8
#     8   8   8   8   8   8   8   8
#     4  10  17  26  44  70  97 125 157 196 239 284
#     4   8  15  28  45  67  92 120 157 199 238 279
#     4  10  20  33  49  72  99 128 162 202 245 292
#     4  10  20  31  46  71 100 126 158 197 237 283
#     4  10  20  34  51  73  99 128 162 201 242 287
#     4   9  16  28  46  68  94 124 158 200 242 281
#     4   8  14  26  45  66  90 120 154 193 239 281
#     4   9  18  32  50  71  97 127 159 194 237 287
#
# _framework density 21.584513000000001
#
# number of rings (size 3 to 8) (size 9 to 14) (size 15 to 20)
#    0.000    2.750    0.000    4.125    0.000    7.000 
#    0.000    0.000    0.000    1.500    0.000    1.750 
#    0.000    0.000    0.000    0.000    0.000    0.000 
#
# Total GULP energy -357068.243026 kJ/mol
# GULP energy per Si atom -5579.191297 kJ/mol
# Density = 2.153539 g / cm^3
# Si number density = 21.584513 Si / 1000 Ang^3
#
#
#
# Elastic Constant Matrix: (Units=GPa)
#
#
# Indices 1 2 3 4 5 6 
#
# 1 248.2567 152.8661 -2.5710 0.0000 0.0000 0.0000
# 2 152.8661 196.0587 10.6107 0.0000 0.0000 0.0000
# 3 -2.5710 10.6107 56.0671 0.0000 0.0000 0.0000
# 4 0.0000 0.0000 0.0000 8.5480 0.0000 0.0000
# 5 0.0000 0.0000 0.0000 0.0000 18.6796 0.0000
# 6 0.0000 0.0000 0.0000 0.0000 0.0000 29.5062
#
#
#
# Elastic Compliance Matrix: (Units=1/GPa)
#
#
# Indices 1 2 3 4 5 6 
#
# 1 0.007877 -0.006225 0.001539 0.000000 0.000000 0.000000
# 2 -0.006225 0.010073 -0.002192 0.000000 0.000000 0.000000
# 3 0.001539 -0.002192 0.018321 0.000000 0.000000 0.000000
# 4 0.000000 0.000000 0.000000 0.116986 0.000000 0.000000
# 5 0.000000 0.000000 0.000000 0.000000 0.053534 0.000000
# 6 0.000000 0.000000 0.000000 0.000000 0.000000 0.033891
#
#
# Mechanical properties :
#
#
# Convention : Reuss Voigt Hill
#
# Bulk Modulus (GPa) = 44.41268 91.35489 67.88379
# Shear Modulus (GPa) = 19.08810 33.97856 26.53333
#
# Velocity S-wave (km/s) = 2.97702 3.97194 3.50991
# Velocity P-wave (km/s) = 5.69541 7.96563 6.92419
#
# Compressibility (1/GPa) = 0.02251609
#
# Stress axis : x y z
#
# Youngs Moduli (GPa) = 126.94863 99.27693 54.58172
#
# Poissons Ratio (x) = 0.61801 -0.08402
# Poissons Ratio (y) = 0.79027 0.11963
# Poissons Ratio (z) = -0.19542 0.21759
#
# Static dielectric constant tensor:
#      x y z
#    x 1.798230 0.000000 0.000000 
#    y 0.000000 1.753690 0.000000 
#    z 0.000000 0.000000 1.869600 
# 
# From -- ./inp_files/24746.got.cif
#   From: 2010.05.17/outbox.cif.g08.bks.cpg/sg62_13_cif.got.tgz:24746.got - 2010.06.03 15:25:27.
