data_PCOD9461086
_publ_section_title
;
Structure prediction by ZEFSAII (Michael W. Deem and Ramdas Pophale) SiO2 
 PCOD9461086
Probable space group: P B C A
;
_chemical_formula_sum "Si O2"
_cell_formula_units_Z 40
_cell_length_a 19.035350
_cell_length_b 8.810227
_cell_length_c 8.922452
_cell_angle_alpha 90.000000
_cell_angle_beta 90.000000
_cell_angle_gamma 90.000000
_cell_volume 1496.346545
_symmetry_space_group_name_H-M "P B C A"
_symmetry_group_IT_number 61
_symmetry_cell_setting 'orthorhombic'
loop_
_space_group_symop_operation_xyz
x,y,z
1/2-x,-y,1/2+z
1/2+x,1/2-y,-z
-x,1/2+y,1/2-z
-x,-y,-z
1/2+x,y,1/2-z
1/2-x,1/2+y,z
x,1/2-y,1/2+z
loop_
_atom_site_type_symbol
_atom_site_label
_atom_site_fract_x
_atom_site_fract_y
_atom_site_fract_z
Si Si1 0.085380 0.391631 0.565297
Si Si2 0.238447 0.955077 0.853964
Si Si3 0.599702 0.561222 0.657089
Si Si4 0.282806 0.697351 0.649058
Si Si5 0.945058 0.224766 0.927695
O O1 0.066867 0.426314 0.742068
O O2 0.153646 0.286943 0.572431
O O3 0.092836 0.567324 0.511352
O O4 0.024582 0.310677 0.474459
O O5 0.236273 0.819531 0.735376
O O6 0.317769 0.025841 0.842243
O O7 0.191237 0.084707 0.779670
O O8 0.239892 0.890476 0.021272
O O9 0.577715 0.613765 0.493332
O O10 0.574638 0.706620 0.754245
#
# Coordination Sequence:
#
# PCOD9461086 Si02
#       5
#     8   8   8   8   8
#     4   8  20  42  67  97 139 180 229 289 359 419
#     4  11  25  46  69  98 139 185 237 289 355 420
#     4   9  20  39  64  94 136 175 225 287 345 417
#     4  11  24  48  69 101 140 188 236 293 351 425
#     4   9  18  41  67  98 137 176 229 289 349 424
#
# _framework density 26.731776
#
# number of rings (size 3 to 8) (size 9 to 14) (size 15 to 20)
#    1.200    1.200    0.000    1.200    0.000    6.400 
#    7.200    2.000    0.000    0.000    0.000    0.000 
#    0.000    0.000    0.000    0.000    0.000    0.000 
#
# Total GULP energy -223470.759782 kJ/mol
# GULP energy per Si atom -5586.768995 kJ/mol
# Density = 2.667093 g / cm^3
# Si number density = 26.731776 Si / 1000 Ang^3
#
#
#
# Elastic Constant Matrix: (Units=GPa)
#
#
# Indices 1 2 3 4 5 6 
#
# 1 42.7865 25.2224 6.4192 0.0000 0.0000 0.0000
# 2 25.2224 114.9882 54.1453 0.0000 0.0000 0.0000
# 3 6.4192 54.1453 134.5175 0.0000 0.0000 0.0000
# 4 0.0000 0.0000 0.0000 54.6394 0.0000 0.0000
# 5 0.0000 0.0000 0.0000 0.0000 12.8448 0.0000
# 6 0.0000 0.0000 0.0000 0.0000 0.0000 37.4842
#
#
#
# Elastic Compliance Matrix: (Units=1/GPa)
#
#
# Indices 1 2 3 4 5 6 
#
# 1 0.027041 -0.006569 0.001354 0.000000 0.000000 0.000000
# 2 -0.006569 0.012326 -0.004648 0.000000 0.000000 0.000000
# 3 0.001354 -0.004648 0.009240 0.000000 0.000000 0.000000
# 4 0.000000 0.000000 0.000000 0.018302 0.000000 0.000000
# 5 0.000000 0.000000 0.000000 0.000000 0.077853 0.000000
# 6 0.000000 0.000000 0.000000 0.000000 0.000000 0.026678
#
#
# Mechanical properties :
#
#
# Convention : Reuss Voigt Hill
#
# Bulk Modulus (GPa) = 34.62475 51.54068 43.08272
# Shear Modulus (GPa) = 24.90130 34.76070 29.83100
#
# Velocity S-wave (km/s) = 3.05540 3.60995 3.34419
# Velocity P-wave (km/s) = 5.04262 6.05790 5.57343
#
# Compressibility (1/GPa) = 0.02888108
#
# Stress axis : x y z
#
# Youngs Moduli (GPa) = 36.98085 81.12929 108.22230
#
# Poissons Ratio (x) = 0.53292 -0.14649
# Poissons Ratio (y) = 0.24292 0.50301
# Poissons Ratio (z) = -0.05006 0.37708
#
# Static dielectric constant tensor:
#      x y z
#    x 2.144390 0.000000 0.000000 
#    y 0.000000 2.080840 0.000000 
#    z 0.000000 0.000000 2.123630 
# 
# From -- ./inp_files/4172.got.cif
#   From: 2010.05.17/outbox.cif.g08.bks.cpg/sg61_3_cif.got.tgz:4172.got - 2010.06.03 15:17:17.
