data_PCOD9461951
_publ_section_title
;
Structure prediction by ZEFSAII (Michael W. Deem and Ramdas Pophale) SiO2 
 PCOD9461951
Probable space group: P N M A
;
_chemical_formula_sum "Si O2"
_cell_formula_units_Z 36
_cell_length_a 13.433638
_cell_length_b 8.077806
_cell_length_c 15.170230
_cell_angle_alpha 90.000000
_cell_angle_beta 90.000000
_cell_angle_gamma 90.000000
_cell_volume 1646.187218
_symmetry_space_group_name_H-M "P N M A"
_symmetry_group_IT_number 62
_symmetry_cell_setting 'orthorhombic'
loop_
_space_group_symop_operation_xyz
x,y,z
1/2-x,-y,1/2+z
1/2+x,1/2-y,1/2-z
-x,1/2+y,-z
-x,-y,-z
1/2+x,y,1/2-z
1/2-x,1/2+y,1/2+z
x,1/2-y,z
loop_
_atom_site_type_symbol
_atom_site_label
_atom_site_fract_x
_atom_site_fract_y
_atom_site_fract_z
Si Si1 0.836608 0.441864 0.446341
Si Si2 0.705024 0.936205 0.610209
Si Si3 0.861726 0.750000 0.190529
Si Si4 0.041928 0.250000 0.616024
Si Si5 0.125801 0.750000 0.267515
Si Si6 0.326963 0.573379 0.707546
O O1 0.871840 0.250000 0.449109
O O2 0.772829 0.495628 0.531027
O O3 0.919232 0.583195 0.429856
O O4 0.759502 0.450631 0.364226
O O5 0.667448 0.750000 0.590213
O O6 0.774517 0.918722 0.696839
O O7 0.627329 0.080996 0.635104
O O8 0.917131 0.750000 0.283322
O O9 0.744485 0.750000 0.218282
O O10 0.925731 0.250000 0.637773
O O11 0.103032 0.584822 0.213305
O O12 0.377003 0.750000 0.690554
#
# Coordination Sequence:
#
# PCOD9461951 Si02
#       6
#     8   8   4   4   4   8
#     4  11  20  33  58  88 109 146 190 225 275 336
#     4  10  18  31  58  82 109 148 184 226 278 328
#     4  10  20  40  54  81 114 147 183 230 279 329
#     4  12  22  36  60  87 109 147 192 226 277 335
#     4  10  20  36  60  78 111 150 183 230 282 320
#     4   9  19  36  55  80 111 148 185 226 279 330
#
# _framework density 21.868715999999999
#
# number of rings (size 3 to 8) (size 9 to 14) (size 15 to 20)
#    0.000    1.778    6.667    0.000    0.000    0.889 
#    0.000    4.444    0.000    1.333    0.000    0.000 
#    0.000    0.000    0.000    0.000    0.000    0.000 
#
# Total GULP energy -200825.984899 kJ/mol
# GULP energy per Si atom -5578.499581 kJ/mol
# Density = 2.181894 g / cm^3
# Si number density = 21.868716 Si / 1000 Ang^3
#
#
#
# Elastic Constant Matrix: (Units=GPa)
#
#
# Indices 1 2 3 4 5 6 
#
# 1 34.9568 18.5617 12.3368 0.0000 0.0000 0.0000
# 2 18.5617 251.4661 28.0603 0.0000 0.0000 0.0000
# 3 12.3368 28.0603 226.3845 0.0000 0.0000 0.0000
# 4 0.0000 0.0000 0.0000 19.4084 0.0000 0.0000
# 5 0.0000 0.0000 0.0000 0.0000 28.1565 0.0000
# 6 0.0000 0.0000 0.0000 0.0000 0.0000 11.6282
#
#
#
# Elastic Compliance Matrix: (Units=1/GPa)
#
#
# Indices 1 2 3 4 5 6 
#
# 1 0.030198 -0.002074 -0.001389 0.000000 0.000000 0.000000
# 2 -0.002074 0.004175 -0.000404 0.000000 0.000000 0.000000
# 3 -0.001389 -0.000404 0.004543 0.000000 0.000000 0.000000
# 4 0.000000 0.000000 0.000000 0.051524 0.000000 0.000000
# 5 0.000000 0.000000 0.000000 0.000000 0.035516 0.000000
# 6 0.000000 0.000000 0.000000 0.000000 0.000000 0.085998
#
#
# Mechanical properties :
#
#
# Convention : Reuss Voigt Hill
#
# Bulk Modulus (GPa) = 32.06995 70.08056 51.07525
# Shear Modulus (GPa) = 21.73137 42.09519 31.91328
#
# Velocity S-wave (km/s) = 3.15575 4.39213 3.82424
# Velocity P-wave (km/s) = 5.28914 7.60505 6.55025
#
# Compressibility (1/GPa) = 0.03118184
#
# Stress axis : x y z
#
# Youngs Moduli (GPa) = 33.11470 239.52624 220.11573
#
# Poissons Ratio (x) = 0.49680 0.30564
# Poissons Ratio (y) = 0.06868 0.08903
# Poissons Ratio (z) = 0.04598 0.09688
#
# Static dielectric constant tensor:
#      x y z
#    x 1.796010 0.000000 0.000000 
#    y 0.000000 1.964550 0.000000 
#    z 0.000000 0.000000 1.788440 
# 
# From -- ./inp_files/18553.got.cif
#   From: 2010.05.17/outbox.cif.g08.bks.cpg/sg62_10_cif.got.tgz:18553.got - 2010.06.03 15:25:27.
