data_PCOD9461102
_publ_section_title
;
Structure prediction by ZEFSAII (Michael W. Deem and Ramdas Pophale) SiO2 
 PCOD9461102
Probable space group: P B C A
;
_chemical_formula_sum "Si O2"
_cell_formula_units_Z 52
_cell_length_a 7.602053
_cell_length_b 10.099937
_cell_length_c 27.653637
_cell_angle_alpha 90.000000
_cell_angle_beta 90.000000
_cell_angle_gamma 90.000000
_cell_volume 2123.253338
_symmetry_space_group_name_H-M "P B C A"
_symmetry_group_IT_number 61
_symmetry_cell_setting 'orthorhombic'
loop_
_space_group_symop_operation_xyz
x,y,z
1/2-x,-y,1/2+z
1/2+x,1/2-y,-z
-x,1/2+y,1/2-z
-x,-y,-z
1/2+x,y,1/2-z
1/2-x,1/2+y,z
x,1/2-y,1/2+z
loop_
_atom_site_type_symbol
_atom_site_label
_atom_site_fract_x
_atom_site_fract_y
_atom_site_fract_z
Si Si1 0.296874 0.156307 0.049059
Si Si2 0.500000 0.500000 0.000000
Si Si3 0.278436 0.469056 0.703895
Si Si4 0.694418 0.147985 0.037635
Si Si5 0.793310 0.318475 0.129308
Si Si6 0.691266 0.225808 0.853017
Si Si7 0.692437 0.430886 0.686809
O O1 0.492164 0.106832 0.037690
O O2 0.300212 0.217559 0.102294
O O3 0.249372 0.270979 0.010535
O O4 0.142171 0.052005 0.041375
O O5 0.666454 0.530673 0.036502
O O6 0.227973 0.603166 0.676058
O O7 0.166435 0.346145 0.684281
O O8 0.481277 0.440335 0.690550
O O9 0.263120 0.476335 0.761293
O O10 0.717840 0.250589 0.081487
O O11 0.743916 0.465586 0.145972
O O12 0.004739 0.317274 0.125002
O O13 0.744900 0.216764 0.172332
#
# Coordination Sequence:
#
# PCOD9461102 Si02
#       7
#     8   4   8   8   8   8   8
#     4  12  26  46  72 105 144 189 241 297 356 428
#     4  12  26  48  72 100 144 192 234 296 354 426
#     4  11  25  44  69 101 138 182 234 293 358 426
#     4  12  26  46  72 105 144 189 241 297 356 428
#     4  11  25  45  70 103 140 184 236 294 355 428
#     4  11  25  45  70 103 140 184 236 294 355 428
#     4  11  25  44  69 101 138 182 234 293 358 426
#
# _framework density 24.49072
#
# number of rings (size 3 to 8) (size 9 to 14) (size 15 to 20)
#    0.000    0.615    3.077    3.231    4.308    7.385 
#    0.000    0.000    0.000    0.000    0.000    0.000 
#    0.000    0.000    0.000    0.000    0.000    0.000 
#
# Total GULP energy -290373.911375 kJ/mol
# GULP energy per Si atom -5584.113680 kJ/mol
# Density = 2.443498 g / cm^3
# Si number density = 24.490720 Si / 1000 Ang^3
#
#
#
# Elastic Constant Matrix: (Units=GPa)
#
#
# Indices 1 2 3 4 5 6 
#
# 1 140.7212 3.9339 0.1769 0.0000 0.0000 0.0000
# 2 3.9339 70.2168 3.7033 0.0000 0.0000 0.0000
# 3 0.1769 3.7033 108.4622 0.0000 0.0000 0.0000
# 4 0.0000 0.0000 0.0000 42.7514 0.0000 0.0000
# 5 0.0000 0.0000 0.0000 0.0000 451.8293 0.0000
# 6 0.0000 0.0000 0.0000 0.0000 0.0000 6.8723
#
#
#
# Elastic Compliance Matrix: (Units=1/GPa)
#
#
# Indices 1 2 3 4 5 6 
#
# 1 0.007117 -0.000399 0.000002 0.000000 0.000000 0.000000
# 2 -0.000399 0.014290 -0.000487 0.000000 0.000000 0.000000
# 3 0.000002 -0.000487 0.009236 0.000000 0.000000 0.000000
# 4 0.000000 0.000000 0.000000 0.023391 0.000000 0.000000
# 5 0.000000 0.000000 0.000000 0.000000 0.002213 0.000000
# 6 0.000000 0.000000 0.000000 0.000000 0.000000 0.145512
#
#
# Mechanical properties :
#
#
# Convention : Reuss Voigt Hill
#
# Bulk Modulus (GPa) = 34.63170 37.22538 35.92854
# Shear Modulus (GPa) = 23.45730 121.06299 72.26015
#
# Velocity S-wave (km/s) = 3.09820 7.03843 5.43775
# Velocity P-wave (km/s) = 5.19325 9.01584 7.35715
#
# Compressibility (1/GPa) = 0.02887528
#
# Stress axis : x y z
#
# Youngs Moduli (GPa) = 140.50075 69.98073 108.26689
#
# Poissons Ratio (x) = 0.02791 -0.00022
# Poissons Ratio (y) = 0.05604 0.05275
# Poissons Ratio (z) = -0.00028 0.03410
#
# Static dielectric constant tensor:
#      x y z
#    x 1.932160 0.000000 0.000000 
#    y 0.000000 2.079910 0.000000 
#    z 0.000000 0.000000 1.924940 
# 
# From -- ./inp_files/11350.got.cif
#   From: 2010.05.17/outbox.cif.g08.bks.cpg/sg61_6_cif.got.tgz:11350.got - 2010.06.03 15:17:17.
