data_PCOD9461359
_publ_section_title
;
Structure prediction by ZEFSAII (Michael W. Deem and Ramdas Pophale) SiO2 
 PCOD9461359
Probable space group: P N M A
;
_chemical_formula_sum "Si O2"
_cell_formula_units_Z 52
_cell_length_a 9.676120
_cell_length_b 26.136025
_cell_length_c 7.827483
_cell_angle_alpha 90.000000
_cell_angle_beta 90.000000
_cell_angle_gamma 90.000000
_cell_volume 1979.533773
_symmetry_space_group_name_H-M "P N M A"
_symmetry_group_IT_number 62
_symmetry_cell_setting 'orthorhombic'
loop_
_space_group_symop_operation_xyz
x,y,z
1/2-x,-y,1/2+z
1/2+x,1/2-y,1/2-z
-x,1/2+y,-z
-x,-y,-z
1/2+x,y,1/2-z
1/2-x,1/2+y,1/2+z
x,1/2-y,z
loop_
_atom_site_type_symbol
_atom_site_label
_atom_site_fract_x
_atom_site_fract_y
_atom_site_fract_z
Si Si1 0.159078 0.750000 0.644339
Si Si2 0.109824 0.250000 0.560830
Si Si3 0.159618 0.863472 0.627673
Si Si4 0.885474 0.857964 0.429764
Si Si5 0.356746 0.032096 0.994804
Si Si6 0.557813 0.250000 0.551041
Si Si7 0.675096 0.557929 0.407076
Si Si8 0.945845 0.639320 0.043264
O O1 0.130830 0.807795 0.715794
O O2 0.318124 0.750000 0.585567
O O3 0.053284 0.750000 0.483247
O O4 0.164973 0.303856 0.497390
O O5 0.127886 0.250000 0.762934
O O6 0.137268 0.924870 0.646108
O O7 0.322516 0.861744 0.590972
O O8 0.046642 0.859415 0.474365
O O9 0.797252 0.906031 0.483440
O O10 0.872658 0.860408 0.226875
O O11 0.337795 0.053230 0.800289
O O12 0.500000 0.000000 0.000000
O O13 0.221443 0.997534 0.029872
O O14 0.483575 0.304588 0.542380
O O15 0.541936 0.590114 0.465982
#
# Coordination Sequence:
#
# PCOD9461359 Si02
#       8
#     4   4   8   8   8   4   8   8
#     4   8  16  28  48  80 114 154 189 235 300 372
#     4   8  16  22  46  78 115 147 184 223 298 369
#     4  10  18  34  56  83 121 156 198 243 303 363
#     4  10  16  32  51  82 118 156 184 240 300 361
#     4  12  25  43  62  87 125 163 207 259 305 361
#     4   8  16  24  44  76 121 149 177 230 304 365
#     4  12  24  39  61  84 122 163 206 249 302 353
#     4  10  17  31  51  84 118 156 189 238 301 366
#
# _framework density 26.268812
#
# number of rings (size 3 to 8) (size 9 to 14) (size 15 to 20)
#    0.000    1.846    4.615    0.000    0.000    1.231 
#    0.000    0.000    0.000    0.000    0.000    3.231 
#    0.000    0.000    0.000    0.000    0.000    0.000 
#
# Total GULP energy -289523.251507 kJ/mol
# GULP energy per Si atom -5567.754837 kJ/mol
# Density = 2.620902 g / cm^3
# Si number density = 26.268812 Si / 1000 Ang^3
#
#
#
# Elastic Constant Matrix: (Units=GPa)
#
#
# Indices 1 2 3 4 5 6 
#
# 1 86.0232 53.9484 23.2951 0.0000 0.0000 0.0000
# 2 53.9484 210.7752 17.8984 0.0000 0.0000 0.0000
# 3 23.2951 17.8984 72.0855 0.0000 0.0000 0.0000
# 4 0.0000 0.0000 0.0000 -35.4061 0.0000 0.0000
# 5 0.0000 0.0000 0.0000 0.0000 33.2757 0.0000
# 6 0.0000 0.0000 0.0000 0.0000 0.0000 145.6155
#
#
#
# Elastic Compliance Matrix: (Units=1/GPa)
#
#
# Indices 1 2 3 4 5 6 
#
# 1 0.014869 -0.003471 -0.003943 0.000000 0.000000 0.000000
# 2 -0.003471 0.005657 -0.000283 0.000000 0.000000 0.000000
# 3 -0.003943 -0.000283 0.015217 0.000000 0.000000 0.000000
# 4 0.000000 0.000000 0.000000 -0.028244 0.000000 0.000000
# 5 0.000000 0.000000 0.000000 0.000000 0.030052 0.000000
# 6 0.000000 0.000000 0.000000 0.000000 0.000000 0.006867
#
#
# Mechanical properties :
#
#
# Convention : Reuss Voigt Hill
#
# Bulk Modulus (GPa) = 49.14303 62.12973 55.63638
# Shear Modulus (GPa) = 75.07924 46.94648 61.01286
#
# Velocity S-wave (km/s) = 5.35193 4.23206 4.82460
# Velocity P-wave (km/s) = 7.54581 6.89807 7.22920
#
# Compressibility (1/GPa) = 0.02034877
#
# Stress axis : x y z
#
# Youngs Moduli (GPa) = 67.25203 176.77762 65.71610
#
# Poissons Ratio (x) = 0.61360 0.25914
# Poissons Ratio (y) = 0.23343 0.01859
# Poissons Ratio (z) = 0.26520 0.05000
#
# Static dielectric constant tensor:
#      x y z
#    x 2.034360 0.000000 0.000000 
#    y 0.000000 2.127910 0.000000 
#    z 0.000000 0.000000 2.107570 
# 
# From -- ./inp_files/11428.got.cif
#   From: 2010.05.17/outbox.cif.g08.bks.cpg/sg62_6_cif.got.tgz:11428.got - 2010.06.03 15:25:27.
