data_PCOD9461078
_publ_section_title
;
Structure prediction by ZEFSAII (Michael W. Deem and Ramdas Pophale) SiO2 
 PCOD9461078
Probable space group: P B C A
;
_chemical_formula_sum "Si O2"
_cell_formula_units_Z 64
_cell_length_a 22.291449
_cell_length_b 8.538527
_cell_length_c 15.558120
_cell_angle_alpha 90.000000
_cell_angle_beta 90.000000
_cell_angle_gamma 90.000000
_cell_volume 2961.272493
_symmetry_space_group_name_H-M "P B C A"
_symmetry_group_IT_number 61
_symmetry_cell_setting 'orthorhombic'
loop_
_space_group_symop_operation_xyz
x,y,z
1/2-x,-y,1/2+z
1/2+x,1/2-y,-z
-x,1/2+y,1/2-z
-x,-y,-z
1/2+x,y,1/2-z
1/2-x,1/2+y,z
x,1/2-y,1/2+z
loop_
_atom_site_type_symbol
_atom_site_label
_atom_site_fract_x
_atom_site_fract_y
_atom_site_fract_z
Si Si1 0.307682 0.145680 0.219338
Si Si2 0.049833 0.364438 0.417137
Si Si3 0.003913 0.786111 0.910730
Si Si4 0.584557 0.195090 0.256608
Si Si5 0.227086 0.454785 0.880614
Si Si6 0.802374 0.819863 0.344862
Si Si7 0.817738 0.848167 0.024962
Si Si8 0.388351 0.364176 0.314569
O O1 0.265782 0.281664 0.181143
O O2 0.368777 0.219215 0.254583
O O3 0.270929 0.071845 0.299646
O O4 0.314075 0.004732 0.152212
O O5 0.016586 0.528029 0.403965
O O6 0.057489 0.273124 0.328431
O O7 0.115978 0.405260 0.452860
O O8 0.018072 0.262929 0.491782
O O9 0.062993 0.691749 0.883414
O O10 0.953131 0.754091 0.839762
O O11 0.652222 0.252841 0.273366
O O12 0.586763 0.009073 0.240810
O O13 0.173311 0.573144 0.857561
O O14 0.268318 0.520589 0.957192
O O15 0.198595 0.292721 0.910614
O O16 0.815721 0.724544 0.430761
#
# Coordination Sequence:
#
# PCOD9461078 Si02
#       8
#     8   8   8   8   8   8   8   8
#     4  12  22  43  67 100 136 183 222 282 349 422
#     4  11  24  47  71  96 143 184 229 296 343 406
#     4  11  26  46  69 103 134 191 243 281 346 414
#     4  12  23  46  71  99 139 183 232 293 341 408
#     4  12  22  40  67  96 136 175 225 276 349 413
#     4  12  23  41  66 101 142 174 230 278 345 418
#     4  12  24  42  66 103 138 179 221 285 349 412
#     4  12  24  41  72 100 133 184 236 282 353 415
#
# _framework density 21.612331000000001
#
# number of rings (size 3 to 8) (size 9 to 14) (size 15 to 20)
#    0.000    0.250    6.250    3.750    0.000    0.500 
#    0.000    3.750    0.000    0.000    0.000    0.000 
#    0.000    0.000    0.000    0.000    0.000    0.000 
#
# Total GULP energy -358267.943612 kJ/mol
# GULP energy per Si atom -5597.936619 kJ/mol
# Density = 2.156314 g / cm^3
# Si number density = 21.612331 Si / 1000 Ang^3
#
#
#
# Elastic Constant Matrix: (Units=GPa)
#
#
# Indices 1 2 3 4 5 6 
#
# 1 45.8017 -10.8860 1.5778 0.0000 0.0000 0.0000
# 2 -10.8860 30.7554 -6.7621 0.0000 0.0000 0.0000
# 3 1.5778 -6.7621 67.1107 0.0000 0.0000 0.0000
# 4 0.0000 0.0000 0.0000 25.1554 0.0000 0.0000
# 5 0.0000 0.0000 0.0000 0.0000 34.1351 0.0000
# 6 0.0000 0.0000 0.0000 0.0000 0.0000 36.0989
#
#
#
# Elastic Compliance Matrix: (Units=1/GPa)
#
#
# Indices 1 2 3 4 5 6 
#
# 1 0.023844 0.008505 0.000296 0.000000 0.000000 0.000000
# 2 0.008505 0.036285 0.003456 0.000000 0.000000 0.000000
# 3 0.000296 0.003456 0.015242 0.000000 0.000000 0.000000
# 4 0.000000 0.000000 0.000000 0.039753 0.000000 0.000000
# 5 0.000000 0.000000 0.000000 0.000000 0.029295 0.000000
# 6 0.000000 0.000000 0.000000 0.000000 0.000000 0.027702
#
#
# Mechanical properties :
#
#
# Convention : Reuss Voigt Hill
#
# Bulk Modulus (GPa) = 10.01137 12.39191 11.20164
# Shear Modulus (GPa) = 27.63932 29.72710 28.68321
#
# Velocity S-wave (km/s) = 3.58001 3.71276 3.64698
# Velocity P-wave (km/s) = 4.66164 4.91178 4.78834
#
# Compressibility (1/GPa) = 0.09988638
#
# Stress axis : x y z
#
# Youngs Moduli (GPa) = 41.93842 27.55971 65.60811
#
# Poissons Ratio (x) = -0.23440 -0.01944
# Poissons Ratio (y) = -0.35669 -0.22675
# Poissons Ratio (z) = -0.01243 -0.09525
#
# Static dielectric constant tensor:
#      x y z
#    x 1.771140 0.000000 0.000000 
#    y 0.000000 1.778600 0.000000 
#    z 0.000000 0.000000 1.788830 
# 
# From -- ./inp_files/8519.got.cif
#   From: 2010.05.17/outbox.cif.g08.bks.cpg/sg61_5_cif.got.tgz:8519.got - 2010.06.03 15:17:17.
