data_PCOD9461163
_publ_section_title
;
Structure prediction by ZEFSAII (Michael W. Deem and Ramdas Pophale) SiO2 
 PCOD9461163
Probable space group: P B C A
;
_chemical_formula_sum "Si O2"
_cell_formula_units_Z 48
_cell_length_a 9.098362
_cell_length_b 8.667804
_cell_length_c 22.845861
_cell_angle_alpha 90.000000
_cell_angle_beta 90.000000
_cell_angle_gamma 90.000000
_cell_volume 1801.688990
_symmetry_space_group_name_H-M "P B C A"
_symmetry_group_IT_number 61
_symmetry_cell_setting 'orthorhombic'
loop_
_space_group_symop_operation_xyz
x,y,z
1/2-x,-y,1/2+z
1/2+x,1/2-y,-z
-x,1/2+y,1/2-z
-x,-y,-z
1/2+x,y,1/2-z
1/2-x,1/2+y,z
x,1/2-y,1/2+z
loop_
_atom_site_type_symbol
_atom_site_label
_atom_site_fract_x
_atom_site_fract_y
_atom_site_fract_z
Si Si1 0.653506 0.714832 0.639506
Si Si2 0.470129 0.535198 0.099526
Si Si3 0.384191 0.799746 0.463357
Si Si4 0.144335 0.074392 0.287555
Si Si5 0.792898 0.225203 0.923196
Si Si6 0.597519 0.816707 0.304471
O O1 0.761039 0.736502 0.584467
O O2 0.622949 0.540711 0.657753
O O3 0.503602 0.797579 0.621717
O O4 0.727256 0.810388 0.692865
O O5 0.582524 0.481092 0.049428
O O6 0.455433 0.227405 0.051266
O O7 0.509574 0.420246 0.153806
O O8 0.325905 0.761900 0.527477
O O9 0.312491 0.036451 0.582322
O O10 0.167447 0.951027 0.235452
O O11 0.005817 0.186236 0.276748
O O12 0.797931 0.262359 0.853346
#
# Coordination Sequence:
#
# PCOD9461163 Si02
#       6
#     8   8   8   8   8   8
#     4  12  20  36  67  97 129 188 234 288 368 444
#     4   8  19  38  58  99 126 181 232 279 366 429
#     4   9  18  36  67  93 138 180 241 297 356 441
#     4  12  20  40  66  97 141 179 244 295 368 443
#     4   8  18  39  64  97 139 178 242 294 371 431
#     4   9  21  37  64  96 131 181 233 298 359 428
#
# _framework density 26.641670000000001
#
# number of rings (size 3 to 8) (size 9 to 14) (size 15 to 20)
#    2.000    0.000    5.000    1.000    0.000    0.667 
#    0.000    3.333   18.333    0.000    0.000    0.000 
#    0.000    0.000    0.000    0.000    0.000    0.000 
#
# Total GULP energy -267582.399708 kJ/mol
# GULP energy per Si atom -5574.633327 kJ/mol
# Density = 2.658103 g / cm^3
# Si number density = 26.641670 Si / 1000 Ang^3
#
#
#
# Elastic Constant Matrix: (Units=GPa)
#
#
# Indices 1 2 3 4 5 6 
#
# 1 81.8646 9.3807 40.1928 0.0000 0.0000 0.0000
# 2 9.3807 96.1992 25.2569 0.0000 0.0000 0.0000
# 3 40.1928 25.2569 135.8172 0.0000 0.0000 0.0000
# 4 0.0000 0.0000 0.0000 52.3308 0.0000 0.0000
# 5 0.0000 0.0000 0.0000 0.0000 43.0933 0.0000
# 6 0.0000 0.0000 0.0000 0.0000 0.0000 34.0545
#
#
#
# Elastic Compliance Matrix: (Units=1/GPa)
#
#
# Indices 1 2 3 4 5 6 
#
# 1 0.014300 -0.000298 -0.004176 0.000000 0.000000 0.000000
# 2 -0.000298 0.010935 -0.001945 0.000000 0.000000 0.000000
# 3 -0.004176 -0.001945 0.008961 0.000000 0.000000 0.000000
# 4 0.000000 0.000000 0.000000 0.019109 0.000000 0.000000
# 5 0.000000 0.000000 0.000000 0.000000 0.023205 0.000000
# 6 0.000000 0.000000 0.000000 0.000000 0.000000 0.029365
#
#
# Mechanical properties :
#
#
# Convention : Reuss Voigt Hill
#
# Bulk Modulus (GPa) = 46.82521 51.50466 49.16494
# Shear Modulus (GPa) = 39.73531 41.83243 40.78387
#
# Velocity S-wave (km/s) = 3.86615 3.96686 3.91683
# Velocity P-wave (km/s) = 6.12728 6.35261 6.24096
#
# Compressibility (1/GPa) = 0.02135602
#
# Stress axis : x y z
#
# Youngs Moduli (GPa) = 69.93054 91.45045 111.60050
#
# Poissons Ratio (x) = 0.02725 0.46609
# Poissons Ratio (y) = 0.02083 0.21710
# Poissons Ratio (z) = 0.29206 0.17790
#
# Static dielectric constant tensor:
#      x y z
#    x 2.187750 0.000000 0.000000 
#    y 0.000000 2.150940 0.000000 
#    z 0.000000 0.000000 2.292710 
# 
# From -- ./inp_files/10412.got.cif
#   From: 2010.05.17/outbox.cif.g08.bks.cpg/sg61_6_cif.got.tgz:10412.got - 2010.06.03 15:17:17.
