data_PCOD9461923
_publ_section_title
;
Structure prediction by ZEFSAII (Michael W. Deem and Ramdas Pophale) SiO2 
 PCOD9461923
Probable space group: P N M A
;
_chemical_formula_sum "Si O2"
_cell_formula_units_Z 48
_cell_length_a 20.212087
_cell_length_b 14.691700
_cell_length_c 6.952384
_cell_angle_alpha 90.000000
_cell_angle_beta 90.000000
_cell_angle_gamma 90.000000
_cell_volume 2064.509863
_symmetry_space_group_name_H-M "P N M A"
_symmetry_group_IT_number 62
_symmetry_cell_setting 'orthorhombic'
loop_
_space_group_symop_operation_xyz
x,y,z
1/2-x,-y,1/2+z
1/2+x,1/2-y,1/2-z
-x,1/2+y,-z
-x,-y,-z
1/2+x,y,1/2-z
1/2-x,1/2+y,1/2+z
x,1/2-y,z
loop_
_atom_site_type_symbol
_atom_site_label
_atom_site_fract_x
_atom_site_fract_y
_atom_site_fract_z
Si Si1 0.875628 0.250000 0.111159
Si Si2 0.954290 0.049281 0.721780
Si Si3 0.768573 0.250000 0.575858
Si Si4 0.225375 0.250000 0.378892
Si Si5 0.170952 0.061861 0.351822
Si Si6 0.076545 0.750000 0.315194
Si Si7 0.415494 0.052541 0.321631
Si Si8 0.704819 0.063968 0.593061
O O1 0.799623 0.250000 0.037567
O O2 0.892439 0.343983 0.220536
O O3 0.917970 0.250000 0.916845
O O4 0.958136 0.152849 0.642945
O O5 0.894902 0.995501 0.620051
O O6 0.933181 0.054729 0.948795
O O7 0.020144 0.988714 0.720684
O O8 0.748199 0.250000 0.348671
O O9 0.847624 0.250000 0.606567
O O10 0.735084 0.159294 0.659058
O O11 0.181718 0.162748 0.427805
O O12 0.234247 0.004787 0.416065
O O13 0.177136 0.074833 0.121364
O O14 0.354007 0.984240 0.292498
#
# Coordination Sequence:
#
# PCOD9461923 Si02
#       8
#     4   8   4   4   8   4   8   8
#     4  10  18  31  53  75  97 133 172 208 252 304
#     4   9  18  31  49  75 103 130 165 209 254 300
#     4  10  20  31  49  77 105 133 166 210 256 298
#     4  10  20  31  49  77 105 133 166 210 256 298
#     4  10  19  32  51  75 102 132 168 208 252 299
#     4  10  18  31  53  75  97 133 172 208 252 304
#     4   9  18  31  49  75 103 130 165 209 254 300
#     4  10  19  32  51  75 102 132 168 208 252 299
#
# _framework density 23.250070000000001
#
# number of rings (size 3 to 8) (size 9 to 14) (size 15 to 20)
#    0.000    2.333    3.333    0.000    0.000    1.333 
#    0.000    6.667    0.000    4.000    0.000    2.333 
#    0.000    0.000    0.000    0.000    0.000    0.000 
#
# Total GULP energy -268375.266111 kJ/mol
# GULP energy per Si atom -5591.151377 kJ/mol
# Density = 2.319715 g / cm^3
# Si number density = 23.250070 Si / 1000 Ang^3
#
#
#
# Elastic Constant Matrix: (Units=GPa)
#
#
# Indices 1 2 3 4 5 6 
#
# 1 113.1885 74.5589 -9.9397 0.0000 0.0000 0.0000
# 2 74.5589 243.5422 -7.6840 0.0000 0.0000 0.0000
# 3 -9.9397 -7.6840 67.7860 0.0000 0.0000 0.0000
# 4 0.0000 0.0000 0.0000 5.3676 0.0000 0.0000
# 5 0.0000 0.0000 0.0000 0.0000 42.4076 0.0000
# 6 0.0000 0.0000 0.0000 0.0000 0.0000 34.0613
#
#
#
# Elastic Compliance Matrix: (Units=1/GPa)
#
#
# Indices 1 2 3 4 5 6 
#
# 1 0.011172 -0.003381 0.001255 0.000000 0.000000 0.000000
# 2 -0.003381 0.005144 0.000087 0.000000 0.000000 0.000000
# 3 0.001255 0.000087 0.014946 0.000000 0.000000 0.000000
# 4 0.000000 0.000000 0.000000 0.186303 0.000000 0.000000
# 5 0.000000 0.000000 0.000000 0.000000 0.023581 0.000000
# 6 0.000000 0.000000 0.000000 0.000000 0.000000 0.029359
#
#
# Mechanical properties :
#
#
# Convention : Reuss Voigt Hill
#
# Bulk Modulus (GPa) = 36.78454 59.82077 48.30265
# Shear Modulus (GPa) = 17.62782 40.87272 29.25027
#
# Velocity S-wave (km/s) = 2.75650 4.19735 3.55078
# Velocity P-wave (km/s) = 5.09771 7.01965 6.13442
#
# Compressibility (1/GPa) = 0.02718534
#
# Stress axis : x y z
#
# Youngs Moduli (GPa) = 89.51043 194.40981 66.90649
#
# Poissons Ratio (x) = 0.65722 -0.08396
# Poissons Ratio (y) = 0.30260 -0.00585
# Poissons Ratio (z) = -0.11233 -0.01699
#
# Static dielectric constant tensor:
#      x y z
#    x 1.783700 0.000000 0.000000 
#    y 0.000000 1.707410 0.000000 
#    z 0.000000 0.000000 1.981830 
# 
# From -- ./inp_files/7710.got.cif
#   From: 2010.05.17/outbox.cif.g08.bks.cpg/sg62_4_cif.got.tgz:7710.got - 2010.06.03 15:25:27.
