data_PCOD9461093
_publ_section_title
;
Structure prediction by ZEFSAII (Michael W. Deem and Ramdas Pophale) SiO2 
 PCOD9461093
Probable space group: P B C A
;
_chemical_formula_sum "Si O2"
_cell_formula_units_Z 60
_cell_length_a 8.312960
_cell_length_b 13.578266
_cell_length_c 20.717774
_cell_angle_alpha 90.000000
_cell_angle_beta 90.000000
_cell_angle_gamma 90.000000
_cell_volume 2338.530801
_symmetry_space_group_name_H-M "P B C A"
_symmetry_group_IT_number 61
_symmetry_cell_setting 'orthorhombic'
loop_
_space_group_symop_operation_xyz
x,y,z
1/2-x,-y,1/2+z
1/2+x,1/2-y,-z
-x,1/2+y,1/2-z
-x,-y,-z
1/2+x,y,1/2-z
1/2-x,1/2+y,z
x,1/2-y,1/2+z
loop_
_atom_site_type_symbol
_atom_site_label
_atom_site_fract_x
_atom_site_fract_y
_atom_site_fract_z
Si Si1 0.790979 0.926152 0.917552
Si Si2 0.032782 0.073237 0.852184
Si Si3 0.500000 0.000000 0.000000
Si Si4 0.972440 0.805023 0.023521
Si Si5 0.255480 0.819046 0.809372
Si Si6 0.259965 0.891987 0.245390
Si Si7 0.909180 0.078418 0.302424
Si Si8 0.720887 0.133549 0.051163
O O1 0.717984 0.877093 0.853293
O O2 0.846690 0.853384 0.973913
O O3 0.947221 0.987440 0.893672
O O4 0.640386 0.989302 0.943805
O O5 0.905660 0.099565 0.794713
O O6 0.201514 0.059835 0.815565
O O7 0.050717 0.160303 0.903430
O O8 0.651169 0.024418 0.052137
O O9 0.143053 0.844487 0.000847
O O10 0.941661 0.688071 0.023945
O O11 0.285678 0.720637 0.767227
O O12 0.416858 0.881959 0.815823
O O13 0.126634 0.877577 0.767881
O O14 0.209753 0.815058 0.884680
O O15 0.374246 0.961396 0.200650
#
# Coordination Sequence:
#
# PCOD9461093 Si02
#       8
#     8   8   4   8   8   8   8   8
#     4  11  25  49  77 109 155 199 249 327 383 471
#     4  11  24  49  73 110 146 198 251 317 386 468
#     4  12  24  48  76 114 148 202 248 324 384 458
#     4  12  27  51  74 112 153 200 257 313 394 466
#     4  12  26  47  75 108 155 199 257 323 386 468
#     4  11  25  47  74 104 149 199 250 318 387 464
#     4  11  26  47  72 111 151 195 259 313 392 466
#     4  12  28  48  75 112 153 203 262 319 390 473
#
# _framework density 25.657136999999999
#
# number of rings (size 3 to 8) (size 9 to 14) (size 15 to 20)
#    0.000    0.533    4.000    3.600    3.733    0.000 
#    9.600    0.000    0.000    0.000    0.000    0.000 
#    0.000    0.000    0.000    0.000    0.000    0.000 
#
# Total GULP energy -334064.466781 kJ/mol
# GULP energy per Si atom -5567.741113 kJ/mol
# Density = 2.559874 g / cm^3
# Si number density = 25.657137 Si / 1000 Ang^3
#
#
#
# Elastic Constant Matrix: (Units=GPa)
#
#
# Indices 1 2 3 4 5 6 
#
# 1 29.4619 7.4199 17.5494 0.0000 0.0000 0.0000
# 2 7.4199 58.6391 17.6698 0.0000 0.0000 0.0000
# 3 17.5494 17.6698 148.1557 0.0000 0.0000 0.0000
# 4 0.0000 0.0000 0.0000 24.3402 0.0000 0.0000
# 5 0.0000 0.0000 0.0000 0.0000 66.4574 0.0000
# 6 0.0000 0.0000 0.0000 0.0000 0.0000 37.3367
#
#
#
# Elastic Compliance Matrix: (Units=1/GPa)
#
#
# Indices 1 2 3 4 5 6 
#
# 1 0.037201 -0.003505 -0.003988 0.000000 0.000000 0.000000
# 2 -0.003505 0.018019 -0.001734 0.000000 0.000000 0.000000
# 3 -0.003988 -0.001734 0.007429 0.000000 0.000000 0.000000
# 4 0.000000 0.000000 0.000000 0.041084 0.000000 0.000000
# 5 0.000000 0.000000 0.000000 0.000000 0.015047 0.000000
# 6 0.000000 0.000000 0.000000 0.000000 0.000000 0.026783
#
#
# Mechanical properties :
#
#
# Convention : Reuss Voigt Hill
#
# Bulk Modulus (GPa) = 22.62764 35.72612 29.17688
# Shear Modulus (GPa) = 27.97192 38.53468 33.25330
#
# Velocity S-wave (km/s) = 3.30543 3.87965 3.60399
# Velocity P-wave (km/s) = 4.83800 5.83297 5.35863
#
# Compressibility (1/GPa) = 0.04419374
#
# Stress axis : x y z
#
# Youngs Moduli (GPa) = 26.88117 55.49547 134.60964
#
# Poissons Ratio (x) = 0.19453 0.53688
# Poissons Ratio (y) = 0.09423 0.23340
# Poissons Ratio (z) = 0.10721 0.09622
#
# Static dielectric constant tensor:
#      x y z
#    x 2.007410 0.000000 0.000000 
#    y 0.000000 2.347180 0.000000 
#    z 0.000000 0.000000 2.165870 
# 
# From -- ./inp_files/8995.got.cif
#   From: 2010.05.17/outbox.cif.g08.bks.cpg/sg61_5_cif.got.tgz:8995.got - 2010.06.03 15:17:17.
