data_PCOD9461935
_publ_section_title
;
Structure prediction by ZEFSAII (Michael W. Deem and Ramdas Pophale) SiO2 
 PCOD9461935
Probable space group: P N M A
;
_chemical_formula_sum "Si O2"
_cell_formula_units_Z 48
_cell_length_a 10.342308
_cell_length_b 19.206417
_cell_length_c 12.687067
_cell_angle_alpha 90.000000
_cell_angle_beta 90.000000
_cell_angle_gamma 90.000000
_cell_volume 2520.142244
_symmetry_space_group_name_H-M "P N M A"
_symmetry_group_IT_number 62
_symmetry_cell_setting 'orthorhombic'
loop_
_space_group_symop_operation_xyz
x,y,z
1/2-x,-y,1/2+z
1/2+x,1/2-y,1/2-z
-x,1/2+y,-z
-x,-y,-z
1/2+x,y,1/2-z
1/2-x,1/2+y,1/2+z
x,1/2-y,z
loop_
_atom_site_type_symbol
_atom_site_label
_atom_site_fract_x
_atom_site_fract_y
_atom_site_fract_z
Si Si1 0.750719 0.503120 0.284581
Si Si2 0.653612 0.109801 0.604902
Si Si3 0.356265 0.562083 0.899400
Si Si4 0.887420 0.423592 0.472664
Si Si5 0.376665 0.399275 0.543369
Si Si6 0.814991 0.250000 0.867005
Si Si7 0.423546 0.750000 0.272460
O O1 0.819869 0.550824 0.194760
O O2 0.661529 0.447383 0.224084
O O3 0.840878 0.460820 0.364996
O O4 0.669635 0.556141 0.355936
O O5 0.775311 0.120975 0.527470
O O6 0.529511 0.088959 0.534493
O O7 0.617150 0.180441 0.665063
O O8 0.472571 0.608130 0.946405
O O9 0.396311 0.485496 0.941232
O O10 0.217620 0.579257 0.949097
O O11 0.347609 0.318975 0.568401
O O12 0.666952 0.250000 0.829896
O O13 0.919699 0.250000 0.769721
#
# Coordination Sequence:
#
# PCOD9461935 Si02
#       7
#     8   8   8   8   8   4   4
#     4  10  18  31  54  75 102 132 168 204 252 300
#     4  10  20  33  51  75 103 133 167 206 250 299
#     4   9  19  32  48  73 103 134 167 204 247 299
#     4   9  19  32  48  73 103 134 167 204 247 299
#     4  10  20  33  51  75 103 133 167 206 250 299
#     4  10  20  34  52  75 100 133 170 205 250 300
#     4  10  20  34  52  75 100 133 170 205 250 300
#
# _framework density 19.046544999999998
#
# number of rings (size 3 to 8) (size 9 to 14) (size 15 to 20)
#    0.000    2.333    1.667    1.000    0.000   10.000 
#    0.000    0.000    0.000    1.000    0.000    0.000 
#    0.000    0.000    0.000    0.000    0.000    0.000 
#
# Total GULP energy -267299.066561 kJ/mol
# GULP energy per Si atom -5568.730553 kJ/mol
# Density = 1.900319 g / cm^3
# Si number density = 19.046545 Si / 1000 Ang^3
#
#
#
# Elastic Constant Matrix: (Units=GPa)
#
#
# Indices 1 2 3 4 5 6 
#
# 1 38.2980 -16.7305 1.6196 0.0000 0.0000 0.0000
# 2 -16.7305 13.7666 -2.0775 0.0000 0.0000 0.0000
# 3 1.6196 -2.0775 58.0848 0.0000 0.0000 0.0000
# 4 0.0000 0.0000 0.0000 6.8794 0.0000 0.0000
# 5 0.0000 0.0000 0.0000 0.0000 10.8877 0.0000
# 6 0.0000 0.0000 0.0000 0.0000 0.0000 -125.9463
#
#
#
# Elastic Compliance Matrix: (Units=1/GPa)
#
#
# Indices 1 2 3 4 5 6 
#
# 1 0.055706 0.067831 0.000873 0.000000 0.000000 0.000000
# 2 0.067831 0.155629 0.003675 0.000000 0.000000 0.000000
# 3 0.000873 0.003675 0.017323 0.000000 0.000000 0.000000
# 4 0.000000 0.000000 0.000000 0.145362 0.000000 0.000000
# 5 0.000000 0.000000 0.000000 0.000000 0.091847 0.000000
# 6 0.000000 0.000000 0.000000 0.000000 0.000000 -0.007940
#
#
# Mechanical properties :
#
#
# Convention : Reuss Voigt Hill
#
# Bulk Modulus (GPa) = 2.67798 8.41918 5.54858
# Shear Modulus (GPa) = 11.42489 -13.14665 -0.86088
#
# Velocity S-wave (km/s) = 2.45182 -2.63009 -0.67303
# Velocity P-wave (km/s) = 3.06990 2.18935 1.52169
#
# Compressibility (1/GPa) = 0.37341633
#
# Stress axis : x y z
#
# Youngs Moduli (GPa) = 17.95131 6.42555 57.72566
#
# Poissons Ratio (x) = -0.43585 -0.05038
# Poissons Ratio (y) = -1.21766 -0.21214
# Poissons Ratio (z) = -0.01567 -0.02361
#
# Static dielectric constant tensor:
#      x y z
#    x 1.788680 0.000000 0.000000 
#    y 0.000000 1.665650 0.000000 
#    z 0.000000 0.000000 1.638540 
# 
# From -- ./inp_files/11343.got.cif
#   From: 2010.05.17/outbox.cif.g08.bks.cpg/sg62_6_cif.got.tgz:11343.got - 2010.06.03 15:25:27.
