data_PCOD9461399
_publ_section_title
;
Structure prediction by ZEFSAII (Michael W. Deem and Ramdas Pophale) SiO2 
 PCOD9461399
Probable space group: P N M A
;
_chemical_formula_sum "Si O2"
_cell_formula_units_Z 40
_cell_length_a 13.805077
_cell_length_b 10.106829
_cell_length_c 12.855191
_cell_angle_alpha 90.000000
_cell_angle_beta 90.000000
_cell_angle_gamma 90.000000
_cell_volume 1793.627628
_symmetry_space_group_name_H-M "P N M A"
_symmetry_group_IT_number 62
_symmetry_cell_setting 'orthorhombic'
loop_
_space_group_symop_operation_xyz
x,y,z
1/2-x,-y,1/2+z
1/2+x,1/2-y,1/2-z
-x,1/2+y,-z
-x,-y,-z
1/2+x,y,1/2-z
1/2-x,1/2+y,1/2+z
x,1/2-y,z
loop_
_atom_site_type_symbol
_atom_site_label
_atom_site_fract_x
_atom_site_fract_y
_atom_site_fract_z
Si Si1 0.408291 0.408098 0.814984
Si Si2 0.984382 0.097596 0.156901
Si Si3 0.652192 0.018960 0.496586
Si Si4 0.230756 0.396460 0.674840
Si Si5 0.359538 0.103208 0.040883
O O1 0.426528 0.250000 0.801569
O O2 0.473796 0.502744 0.745552
O O3 0.298804 0.431513 0.771783
O O4 0.415367 0.440152 0.937120
O O5 0.971561 0.250000 0.187649
O O6 0.066073 0.090686 0.065417
O O7 0.889251 0.036404 0.103452
O O8 0.747671 0.107885 0.499974
O O9 0.691708 0.901614 0.421343
O O10 0.190047 0.250000 0.687422
O O11 0.152014 0.501900 0.635955
O O12 0.390801 0.250000 0.071543
#
# Coordination Sequence:
#
# PCOD9461399 Si02
#       5
#     8   8   8   8   8
#     4   9  18  29  41  62  90 115 142 177 214 253
#     4  10  17  27  43  65  88 114 143 175 214 261
#     4   8  17  26  43  60  89 113 141 171 212 255
#     4   8  15  27  42  60  84 110 139 173 210 245
#     4   9  17  29  43  60  86 118 147 172 208 257
#
# _framework density 22.301172999999999
#
# number of rings (size 3 to 8) (size 9 to 14) (size 15 to 20)
#    1.200    2.000    0.000    1.200    0.000    6.400 
#    0.000    0.000    0.000    0.000    0.000    1.400 
#    0.000    0.000    0.000    0.000    0.000    0.000 
#
# Total GULP energy -222901.680101 kJ/mol
# GULP energy per Si atom -5572.542003 kJ/mol
# Density = 2.225041 g / cm^3
# Si number density = 22.301173 Si / 1000 Ang^3
#
#
#
# Elastic Constant Matrix: (Units=GPa)
#
#
# Indices 1 2 3 4 5 6 
#
# 1 48.7861 15.9730 41.0440 0.0000 0.0000 0.0000
# 2 15.9730 100.3980 63.6578 0.0000 0.0000 0.0000
# 3 41.0440 63.6578 105.1292 0.0000 0.0000 0.0000
# 4 0.0000 0.0000 0.0000 -1.9248 0.0000 0.0000
# 5 0.0000 0.0000 0.0000 0.0000 52.3390 0.0000
# 6 0.0000 0.0000 0.0000 0.0000 0.0000 -10.3852
#
#
#
# Elastic Compliance Matrix: (Units=1/GPa)
#
#
# Indices 1 2 3 4 5 6 
#
# 1 0.031759 0.004560 -0.015160 0.000000 0.000000 0.000000
# 2 0.004560 0.016822 -0.011966 0.000000 0.000000 0.000000
# 3 -0.015160 -0.011966 0.022677 0.000000 0.000000 0.000000
# 4 0.000000 0.000000 0.000000 -0.519521 0.000000 0.000000
# 5 0.000000 0.000000 0.000000 0.000000 0.019106 0.000000
# 6 0.000000 0.000000 0.000000 0.000000 0.000000 -0.096291
#
#
# Mechanical properties :
#
#
# Convention : Reuss Voigt Hill
#
# Bulk Modulus (GPa) = 38.27855 55.07364 46.67610
# Shear Modulus (GPa) = -10.60206 16.91502 3.15648
#
# Velocity S-wave (km/s) = -2.18274 2.75704 1.19099
# Velocity P-wave (km/s) = 3.29380 5.90627 4.78190
#
# Compressibility (1/GPa) = 0.02612429
#
# Stress axis : x y z
#
# Youngs Moduli (GPa) = 31.48700 59.44515 44.09814
#
# Poissons Ratio (x) = -0.27105 0.66853
# Poissons Ratio (y) = -0.14357 0.52769
# Poissons Ratio (z) = 0.47735 0.71134
#
# Static dielectric constant tensor:
#      x y z
#    x 1.853960 0.000000 0.000000 
#    y 0.000000 1.778650 0.000000 
#    z 0.000000 0.000000 1.821970 
# 
# From -- ./inp_files/19988.got.cif
#   From: 2010.05.17/outbox.cif.g08.bks.cpg/sg62_10_cif.got.tgz:19988.got - 2010.06.03 15:25:27.
