data_PCOD9461817
_publ_section_title
;
Structure prediction by ZEFSAII (Michael W. Deem and Ramdas Pophale) SiO2 
 PCOD9461817
Probable space group: P N M A
;
_chemical_formula_sum "Si O2"
_cell_formula_units_Z 48
_cell_length_a 18.877248
_cell_length_b 8.978037
_cell_length_c 16.713116
_cell_angle_alpha 90.000000
_cell_angle_beta 90.000000
_cell_angle_gamma 90.000000
_cell_volume 2832.549446
_symmetry_space_group_name_H-M "P N M A"
_symmetry_group_IT_number 62
_symmetry_cell_setting 'orthorhombic'
loop_
_space_group_symop_operation_xyz
x,y,z
1/2-x,-y,1/2+z
1/2+x,1/2-y,1/2-z
-x,1/2+y,-z
-x,-y,-z
1/2+x,y,1/2-z
1/2-x,1/2+y,1/2+z
x,1/2-y,z
loop_
_atom_site_type_symbol
_atom_site_label
_atom_site_fract_x
_atom_site_fract_y
_atom_site_fract_z
Si Si1 0.330398 0.927542 0.665413
Si Si2 0.424637 0.573251 0.511973
Si Si3 0.657767 0.924876 0.171584
Si Si4 0.795145 0.573515 0.420348
Si Si5 0.077232 0.928370 0.495720
Si Si6 0.785234 0.926481 0.066519
O O1 0.321851 0.750000 0.661490
O O2 0.384118 0.972175 0.593782
O O3 0.358779 0.978695 0.751117
O O4 0.254547 0.004547 0.648353
O O5 0.500000 0.500000 0.500000
O O6 0.434664 0.750000 0.516241
O O7 0.368503 0.543691 0.440220
O O8 0.647996 0.750000 0.189762
O O9 0.612280 0.958747 0.091800
O O10 0.740119 0.947947 0.146282
O O11 0.801908 0.750000 0.411455
O O12 0.870925 0.497916 0.437110
O O13 0.751504 0.528957 0.500211
O O14 0.074573 0.750000 0.504856
O O15 0.000000 0.000000 0.500000
O O16 0.774908 0.750000 0.043932
#
# Coordination Sequence:
#
# PCOD9461817 Si02
#       6
#     8   8   8   8   8   8
#     4  10  20  34  51  73 102 133 167 212 260 302
#     4   9  18  32  50  72  99 131 164 201 246 295
#     4   9  18  33  53  75  99 130 168 210 254 301
#     4  10  18  30  51  75  97 127 168 207 247 299
#     4  10  20  35  54  77 106 137 171 210 253 305
#     4   8  16  32  50  70  98 128 160 202 248 294
#
# _framework density 16.945865000000001
#
# number of rings (size 3 to 8) (size 9 to 14) (size 15 to 20)
#    0.000    2.667    0.000    4.500    0.000    6.667 
#    0.000    1.667    0.000    6.000    0.000    0.000 
#    0.000    0.000    0.000    0.000    0.000    0.000 
#
# Total GULP energy -267308.970186 kJ/mol
# GULP energy per Si atom -5568.936879 kJ/mol
# Density = 1.690730 g / cm^3
# Si number density = 16.945865 Si / 1000 Ang^3
#
#
#
# Elastic Constant Matrix: (Units=GPa)
#
#
# Indices 1 2 3 4 5 6 
#
# 1 142.8798 50.2706 33.6513 0.0000 0.0000 0.0000
# 2 50.2706 64.1870 34.3831 0.0000 0.0000 0.0000
# 3 33.6513 34.3831 62.7626 0.0000 0.0000 0.0000
# 4 0.0000 0.0000 0.0000 26.3267 0.0000 0.0000
# 5 0.0000 0.0000 0.0000 0.0000 12.8612 0.0000
# 6 0.0000 0.0000 0.0000 0.0000 0.0000 33.6681
#
#
#
# Elastic Compliance Matrix: (Units=1/GPa)
#
#
# Indices 1 2 3 4 5 6 
#
# 1 0.009757 -0.006849 -0.001479 0.000000 0.000000 0.000000
# 2 -0.006849 0.026858 -0.011041 0.000000 0.000000 0.000000
# 3 -0.001479 -0.011041 0.022775 0.000000 0.000000 0.000000
# 4 0.000000 0.000000 0.000000 0.037984 0.000000 0.000000
# 5 0.000000 0.000000 0.000000 0.000000 0.077753 0.000000
# 6 0.000000 0.000000 0.000000 0.000000 0.000000 0.029702
#
#
# Mechanical properties :
#
#
# Convention : Reuss Voigt Hill
#
# Bulk Modulus (GPa) = 48.42470 56.27105 52.34788
# Shear Modulus (GPa) = 19.96383 24.67283 22.31833
#
# Velocity S-wave (km/s) = 3.43606 3.81987 3.63304
# Velocity P-wave (km/s) = 6.66185 7.26179 6.96828
#
# Compressibility (1/GPa) = 0.02065062
#
# Stress axis : x y z
#
# Youngs Moduli (GPa) = 102.48914 37.23239 43.90796
#
# Poissons Ratio (x) = 0.25502 0.06495
# Poissons Ratio (y) = 0.70198 0.48480
# Poissons Ratio (z) = 0.15160 0.41110
#
# Static dielectric constant tensor:
#      x y z
#    x 1.587560 0.000000 0.000000 
#    y 0.000000 1.564660 0.000000 
#    z 0.000000 0.000000 1.592260 
# 
# From -- ./inp_files/24224.got.cif
#   From: 2010.05.17/outbox.cif.g08.bks.cpg/sg62_13_cif.got.tgz:24224.got - 2010.06.03 15:25:27.
