data_PCOD9461205
_publ_section_title
;
Structure prediction by ZEFSAII (Michael W. Deem and Ramdas Pophale) SiO2 
 PCOD9461205
Probable space group: P B C A
;
_chemical_formula_sum "Si O2"
_cell_formula_units_Z 32
_cell_length_a 8.140869
_cell_length_b 11.204255
_cell_length_c 14.424664
_cell_angle_alpha 90.000000
_cell_angle_beta 90.000000
_cell_angle_gamma 90.000000
_cell_volume 1315.707822
_symmetry_space_group_name_H-M "P B C A"
_symmetry_group_IT_number 61
_symmetry_cell_setting 'orthorhombic'
loop_
_space_group_symop_operation_xyz
x,y,z
1/2-x,-y,1/2+z
1/2+x,1/2-y,-z
-x,1/2+y,1/2-z
-x,-y,-z
1/2+x,y,1/2-z
1/2-x,1/2+y,z
x,1/2-y,1/2+z
loop_
_atom_site_type_symbol
_atom_site_label
_atom_site_fract_x
_atom_site_fract_y
_atom_site_fract_z
Si Si1 0.576837 0.256869 0.375675
Si Si2 0.063339 0.981686 0.896855
Si Si3 0.572641 0.706185 0.804341
Si Si4 0.926922 0.890196 0.561365
O O1 0.564191 0.116093 0.358241
O O2 0.745203 0.313409 0.341151
O O3 0.435951 0.302267 0.306611
O O4 0.565020 0.285852 0.483604
O O5 0.245353 0.926794 0.905330
O O6 0.046842 0.104106 0.842536
O O7 0.000000 0.000000 0.000000
O O8 0.519972 0.833312 0.850328
O O9 0.000000 0.000000 0.500000
#
# Coordination Sequence:
#
# PCOD9461205 Si02
#       4
#     8   8   8   8
#     4  12  27  47  74 108 146 194 246 305 368 442
#     4  12  25  49  76 103 150 193 246 305 368 441
#     4  12  29  47  74 110 149 192 249 304 373 442
#     4  12  27  47  76 106 149 195 247 304 374 437
#
# _framework density 24.321508999999999
#
# number of rings (size 3 to 8) (size 9 to 14) (size 15 to 20)
#    0.000    0.000    5.000    3.000   10.500    0.000 
#    0.000    0.000    0.000    0.000    0.000    0.000 
#    0.000    0.000    0.000    0.000    0.000    0.000 
#
# Total GULP energy -178953.256122 kJ/mol
# GULP energy per Si atom -5592.289254 kJ/mol
# Density = 2.426615 g / cm^3
# Si number density = 24.321509 Si / 1000 Ang^3
#
#
#
# Elastic Constant Matrix: (Units=GPa)
#
#
# Indices 1 2 3 4 5 6 
#
# 1 70.6658 12.4013 7.1956 0.0000 0.0000 0.0000
# 2 12.4013 98.7006 2.3763 0.0000 0.0000 0.0000
# 3 7.1956 2.3763 82.6009 0.0000 0.0000 0.0000
# 4 0.0000 0.0000 0.0000 22.4290 0.0000 0.0000
# 5 0.0000 0.0000 0.0000 0.0000 25.0702 0.0000
# 6 0.0000 0.0000 0.0000 0.0000 0.0000 33.5692
#
#
#
# Elastic Compliance Matrix: (Units=1/GPa)
#
#
# Indices 1 2 3 4 5 6 
#
# 1 0.014592 -0.001804 -0.001219 0.000000 0.000000 0.000000
# 2 -0.001804 0.010362 -0.000141 0.000000 0.000000 0.000000
# 3 -0.001219 -0.000141 0.012217 0.000000 0.000000 0.000000
# 4 0.000000 0.000000 0.000000 0.044585 0.000000 0.000000
# 5 0.000000 0.000000 0.000000 0.000000 0.039888 0.000000
# 6 0.000000 0.000000 0.000000 0.000000 0.000000 0.029789
#
#
# Mechanical properties :
#
#
# Convention : Reuss Voigt Hill
#
# Bulk Modulus (GPa) = 32.42351 32.87929 32.65140
# Shear Modulus (GPa) = 29.75454 31.54663 30.65058
#
# Velocity S-wave (km/s) = 3.50148 3.60539 3.55382
# Velocity P-wave (km/s) = 5.45044 5.55695 5.50396
#
# Compressibility (1/GPa) = 0.03084181
#
# Stress axis : x y z
#
# Youngs Moduli (GPa) = 68.53133 96.50913 81.85537
#
# Poissons Ratio (x) = 0.17411 0.09980
# Poissons Ratio (y) = 0.12363 0.01154
# Poissons Ratio (z) = 0.08356 0.01360
#
# Static dielectric constant tensor:
#      x y z
#    x 1.937820 0.000000 0.000000 
#    y 0.000000 2.026330 0.000000 
#    z 0.000000 0.000000 1.919220 
# 
# From -- ./inp_files/1988.got.cif
#   From: 2010.05.17/outbox.cif.g08.bks.cpg/sg61_1_cif.got.tgz:1988.got - 2010.06.03 15:17:17.
