data_PCOD9461676
_publ_section_title
;
Structure prediction by ZEFSAII (Michael W. Deem and Ramdas Pophale) SiO2 
 PCOD9461676
Probable space group: P N M A
;
_chemical_formula_sum "Si O2"
_cell_formula_units_Z 64
_cell_length_a 23.571432
_cell_length_b 7.735401
_cell_length_c 19.969959
_cell_angle_alpha 90.000000
_cell_angle_beta 90.000000
_cell_angle_gamma 90.000000
_cell_volume 3641.212063
_symmetry_space_group_name_H-M "P N M A"
_symmetry_group_IT_number 62
_symmetry_cell_setting 'orthorhombic'
loop_
_space_group_symop_operation_xyz
x,y,z
1/2-x,-y,1/2+z
1/2+x,1/2-y,1/2-z
-x,1/2+y,-z
-x,-y,-z
1/2+x,y,1/2-z
1/2-x,1/2+y,1/2+z
x,1/2-y,z
loop_
_atom_site_type_symbol
_atom_site_label
_atom_site_fract_x
_atom_site_fract_y
_atom_site_fract_z
Si Si1 0.342488 0.543478 0.268796
Si Si2 0.938275 0.538233 0.135215
Si Si3 0.566689 0.951114 0.377371
Si Si4 0.723322 0.039948 0.858768
Si Si5 0.271443 0.540256 0.847777
Si Si6 0.162127 0.455298 0.219594
Si Si7 0.737434 0.050226 0.004857
Si Si8 0.865718 0.949764 0.007184
O O1 0.347994 0.750000 0.262373
O O2 0.400185 0.478069 0.302273
O O3 0.321859 0.477236 0.196506
O O4 0.290496 0.509660 0.319785
O O5 0.938967 0.750000 0.136516
O O6 0.905197 0.486481 0.067705
O O7 0.003289 0.480470 0.133843
O O8 0.562205 0.750000 0.396305
O O9 0.605820 0.966170 0.311937
O O10 0.599576 0.039823 0.438404
O O11 0.721780 0.250000 0.860314
O O12 0.785142 0.991002 0.830230
O O13 0.716527 0.973984 0.934411
O O14 0.272689 0.750000 0.848888
O O15 0.316768 0.481101 0.792213
O O16 0.279644 0.474475 0.923199
O O17 0.154034 0.250000 0.223240
O O18 0.718851 0.250000 0.005628
O O19 0.805987 0.045760 0.002253
O O20 0.851368 0.750000 0.021158
#
# Coordination Sequence:
#
# PCOD9461676 Si02
#       8
#     8   8   8   8   8   8   8   8
#     4   9  16  30  47  65  87 114 149 187 225 267
#     4   9  19  32  46  64  89 120 156 192 225 261
#     4  11  21  33  46  62  88 123 158 192 225 262
#     4   9  17  28  47  68  89 115 145 182 226 274
#     4   9  18  30  45  65  92 119 145 183 226 268
#     4  10  19  31  45  64  89 118 152 188 225 265
#     4  10  18  29  45  69  95 121 148 177 221 273
#     4  11  20  31  45  65  92 123 155 187 219 261
#
# _framework density 17.576564000000001
#
# number of rings (size 3 to 8) (size 9 to 14) (size 15 to 20)
#    0.000    2.250    2.500    1.500    0.000    0.500 
#    0.000    3.125    0.000    0.000    0.000    0.875 
#    0.000    0.000    0.000    0.000    0.000    0.000 
#
# Total GULP energy -356963.133623 kJ/mol
# GULP energy per Si atom -5577.548963 kJ/mol
# Density = 1.753656 g / cm^3
# Si number density = 17.576564 Si / 1000 Ang^3
#
#
#
# Elastic Constant Matrix: (Units=GPa)
#
#
# Indices 1 2 3 4 5 6 
#
# 1 58.5570 -6.1475 40.0401 0.0000 0.0000 0.0000
# 2 -6.1475 30.2801 -5.3080 0.0000 0.0000 0.0000
# 3 40.0401 -5.3080 149.2653 0.0000 0.0000 0.0000
# 4 0.0000 0.0000 0.0000 7.8564 0.0000 0.0000
# 5 0.0000 0.0000 0.0000 0.0000 19.4817 0.0000
# 6 0.0000 0.0000 0.0000 0.0000 0.0000 8.2025
#
#
#
# Elastic Compliance Matrix: (Units=1/GPa)
#
#
# Indices 1 2 3 4 5 6 
#
# 1 0.021243 0.003335 -0.005580 0.000000 0.000000 0.000000
# 2 0.003335 0.033756 0.000306 0.000000 0.000000 0.000000
# 3 -0.005580 0.000306 0.008207 0.000000 0.000000 0.000000
# 4 0.000000 0.000000 0.000000 0.127285 0.000000 0.000000
# 5 0.000000 0.000000 0.000000 0.000000 0.051330 0.000000
# 6 0.000000 0.000000 0.000000 0.000000 0.000000 0.121913
#
#
# Mechanical properties :
#
#
# Convention : Reuss Voigt Hill
#
# Bulk Modulus (GPa) = 16.85573 32.80796 24.83185
# Shear Modulus (GPa) = 12.90694 21.07598 16.99146
#
# Velocity S-wave (km/s) = 2.71279 3.46655 3.11257
# Velocity P-wave (km/s) = 4.40715 5.89312 5.20346
#
# Compressibility (1/GPa) = 0.05932699
#
# Stress axis : x y z
#
# Youngs Moduli (GPa) = 47.07482 29.62468 121.84551
#
# Poissons Ratio (x) = -0.09879 0.67987
# Poissons Ratio (y) = -0.15698 -0.03727
# Poissons Ratio (z) = 0.26267 -0.00906
#
# Static dielectric constant tensor:
#      x y z
#    x 1.569400 0.000000 0.000000 
#    y 0.000000 1.638690 0.000000 
#    z 0.000000 0.000000 1.638730 
# 
# From -- ./inp_files/27872.got.cif
#   From: 2010.05.17/outbox.cif.g08.bks.cpg/sg62_14_cif.got.tgz:27872.got - 2010.06.03 15:25:27.
