data_PCOD9461272
_publ_section_title
;
Structure prediction by ZEFSAII (Michael W. Deem and Ramdas Pophale) SiO2 
 PCOD9461272
Probable space group: P B C A
;
_chemical_formula_sum "Si O2"
_cell_formula_units_Z 60
_cell_length_a 15.000000
_cell_length_b 9.000000
_cell_length_c 21.000000
_cell_angle_alpha 90.000000
_cell_angle_beta 90.000000
_cell_angle_gamma 90.000000
_cell_volume 2835.000000
_symmetry_space_group_name_H-M "P B C A"
_symmetry_group_IT_number 61
_symmetry_cell_setting 'orthorhombic'
loop_
_space_group_symop_operation_xyz
x,y,z
1/2-x,-y,1/2+z
1/2+x,1/2-y,-z
-x,1/2+y,1/2-z
-x,-y,-z
1/2+x,y,1/2-z
1/2-x,1/2+y,z
x,1/2-y,1/2+z
loop_
_atom_site_type_symbol
_atom_site_label
_atom_site_fract_x
_atom_site_fract_y
_atom_site_fract_z
Si Si1 0.314594 0.888923 0.585011
Si Si2 0.353339 0.386492 0.423682
Si Si3 0.737292 0.144697 0.002632
Si Si4 0.197764 0.818998 0.279852
Si Si5 0.437538 0.063248 0.675562
Si Si6 0.890472 0.379228 0.878733
Si Si7 0.625061 0.010650 0.745327
Si Si8 0.500000 0.000000 0.000000
O O1 0.327826 0.743809 0.541409
O O2 0.217552 0.860098 0.617278
O O3 0.294299 0.031221 0.540024
O O4 0.393904 0.934921 0.631730
O O5 0.318159 0.547381 0.447711
O O6 0.300372 0.259356 0.461375
O O7 0.329899 0.365870 0.350561
O O8 0.455121 0.393152 0.444636
O O9 0.133696 0.908179 0.231737
O O10 0.174335 0.644964 0.271804
O O11 0.300512 0.862017 0.265300
O O12 0.435233 0.220833 0.638205
O O13 0.535913 0.031144 0.703007
O O14 0.903608 0.490542 0.819139
O O15 0.929304 0.431835 0.945895
#
# Coordination Sequence:
#
# PCOD9461272 Si02
#       8
#     8   8   8   8   8   8   8   4
#     4  11  19  42  70  96 136 188 235 292 361 424
#     4  11  23  40  64  97 138 177 232 288 360 421
#     4  10  21  39  63  96 129 183 228 288 354 424
#     4  11  25  46  71 100 150 191 236 311 361 438
#     4  11  24  45  73 106 145 186 250 302 361 446
#     4  11  23  44  69 104 143 187 244 305 364 435
#     4  11  26  46  71 108 141 198 244 302 375 435
#     4  12  22  40  70 102 134 180 242 290 360 440
#
# _framework density 21.164021000000002
#
# number of rings (size 3 to 8) (size 9 to 14) (size 15 to 20)
#    0.000    1.067    5.333    1.600    0.000    5.333 
#    4.800    0.000    0.000    5.600    0.000    1.867 
#    0.000    0.000    0.000    0.000    0.000    0.000 
#
# Total GULP energy -334586.764635 kJ/mol
# GULP energy per Si atom -5576.446077 kJ/mol
# Density = 2.111585 g / cm^3
# Si number density = 21.164021 Si / 1000 Ang^3
#
#
#
# Elastic Constant Matrix: (Units=GPa)
#
#
# Indices 1 2 3 4 5 6 
#
# 1 99.4535 33.7127 40.8963 0.0000 0.0000 0.0000
# 2 33.7127 86.6778 22.2964 0.0000 0.0000 0.0000
# 3 40.8963 22.2964 91.9873 0.0000 0.0000 0.0000
# 4 0.0000 0.0000 0.0000 31.1092 0.0000 0.0000
# 5 0.0000 0.0000 0.0000 0.0000 23.1922 0.0000
# 6 0.0000 0.0000 0.0000 0.0000 0.0000 17.5468
#
#
#
# Elastic Compliance Matrix: (Units=1/GPa)
#
#
# Indices 1 2 3 4 5 6 
#
# 1 0.013459 -0.003941 -0.005028 0.000000 0.000000 0.000000
# 2 -0.003941 0.013458 -0.001510 0.000000 0.000000 0.000000
# 3 -0.005028 -0.001510 0.013473 0.000000 0.000000 0.000000
# 4 0.000000 0.000000 0.000000 0.032145 0.000000 0.000000
# 5 0.000000 0.000000 0.000000 0.000000 0.043118 0.000000
# 6 0.000000 0.000000 0.000000 0.000000 0.000000 0.056990
#
#
# Mechanical properties :
#
#
# Convention : Reuss Voigt Hill
#
# Bulk Modulus (GPa) = 51.46477 52.43662 51.95070
# Shear Modulus (GPa) = 24.99025 26.45053 25.72039
#
# Velocity S-wave (km/s) = 3.43999 3.53907 3.48988
# Velocity P-wave (km/s) = 6.33624 6.44439 6.39054
#
# Compressibility (1/GPa) = 0.01943077
#
# Stress axis : x y z
#
# Youngs Moduli (GPa) = 74.30203 74.30378 74.22522
#
# Poissons Ratio (x) = 0.29285 0.37322
# Poissons Ratio (y) = 0.29284 0.11207
# Poissons Ratio (z) = 0.37361 0.11219
#
# Static dielectric constant tensor:
#      x y z
#    x 1.830830 0.000000 0.000000 
#    y 0.000000 1.772990 0.000000 
#    z 0.000000 0.000000 1.789190 
# 
# From -- ./inp_files/10479.got.cif
#   From: 2010.05.17/outbox.ucp.g08.bks.cvg/sg61_6_cif.got.tgz:10479.got - 2010.06.11 16:28:26.
