data_PCOD9461748
_publ_section_title
;
Structure prediction by ZEFSAII (Michael W. Deem and Ramdas Pophale) SiO2 
 PCOD9461748
Probable space group: P N M A
;
_chemical_formula_sum "Si O2"
_cell_formula_units_Z 64
_cell_length_a 24.054095
_cell_length_b 7.525785
_cell_length_c 19.775108
_cell_angle_alpha 90.000000
_cell_angle_beta 90.000000
_cell_angle_gamma 90.000000
_cell_volume 3579.807659
_symmetry_space_group_name_H-M "P N M A"
_symmetry_group_IT_number 62
_symmetry_cell_setting 'orthorhombic'
loop_
_space_group_symop_operation_xyz
x,y,z
1/2-x,-y,1/2+z
1/2+x,1/2-y,1/2-z
-x,1/2+y,-z
-x,-y,-z
1/2+x,y,1/2-z
1/2-x,1/2+y,1/2+z
x,1/2-y,z
loop_
_atom_site_type_symbol
_atom_site_label
_atom_site_fract_x
_atom_site_fract_y
_atom_site_fract_z
Si Si1 0.232290 0.533885 0.335602
Si Si2 0.060107 0.045607 0.842005
Si Si3 0.223783 0.463942 0.626071
Si Si4 0.166951 0.533374 0.208911
Si Si5 0.842458 0.967075 0.247810
Si Si6 0.561918 0.531683 0.376427
Si Si7 0.761211 0.541801 0.018018
Si Si8 0.888556 0.454544 0.017909
O O1 0.230093 0.750000 0.335676
O O2 0.183875 0.475133 0.284352
O O3 0.290856 0.483733 0.300779
O O4 0.233470 0.473117 0.412926
O O5 0.050285 0.250000 0.822037
O O6 0.100530 0.966730 0.784986
O O7 0.999324 0.968947 0.856341
O O8 0.094017 0.044976 0.912389
O O9 0.223851 0.250000 0.627187
O O10 0.282115 0.521581 0.660175
O O11 0.175014 0.523278 0.676782
O O12 0.224254 0.519354 0.548541
O O13 0.166668 0.750000 0.208685
O O14 0.108920 0.476176 0.177074
O O15 0.844051 0.750000 0.247251
O O16 0.561979 0.750000 0.378543
O O17 0.580766 0.473499 0.451327
O O18 0.772025 0.750000 0.027894
O O19 0.822264 0.460324 0.007101
O O20 0.905430 0.250000 0.025926
#
# Coordination Sequence:
#
# PCOD9461748 Si02
#       8
#     8   8   8   8   8   8   8   8
#     4   8  14  24  41  61  82 109 139 172 213 254
#     4  10  18  30  46  64  85 112 149 183 210 244
#     4   9  16  28  46  62  83 113 142 172 215 263
#     4   8  13  25  43  62  82 107 141 176 212 252
#     4   8  14  26  44  63  82 110 142 174 211 251
#     4   9  17  27  43  64  85 111 145 182 212 246
#     4  11  19  28  44  67  89 113 145 181 217 252
#     4  11  20  30  41  61  92 123 149 172 208 255
#
# _framework density 17.878055
#
# number of rings (size 3 to 8) (size 9 to 14) (size 15 to 20)
#    0.000    2.750    2.500    2.625    0.000    0.000 
#    0.000    1.250    0.000    0.000    0.000    0.875 
#    0.000    0.000    0.000    0.000    0.000    0.000 
#
# Total GULP energy -356841.914124 kJ/mol
# GULP energy per Si atom -5575.654908 kJ/mol
# Density = 1.783736 g / cm^3
# Si number density = 17.878055 Si / 1000 Ang^3
#
#
#
# Elastic Constant Matrix: (Units=GPa)
#
#
# Indices 1 2 3 4 5 6 
#
# 1 49.5651 -0.8869 25.5785 0.0000 0.0000 0.0000
# 2 -0.8869 44.3033 -3.4641 0.0000 0.0000 0.0000
# 3 25.5785 -3.4641 107.5393 0.0000 0.0000 0.0000
# 4 0.0000 0.0000 0.0000 11.2342 0.0000 0.0000
# 5 0.0000 0.0000 0.0000 0.0000 21.2557 0.0000
# 6 0.0000 0.0000 0.0000 0.0000 0.0000 3.8538
#
#
#
# Elastic Compliance Matrix: (Units=1/GPa)
#
#
# Indices 1 2 3 4 5 6 
#
# 1 0.022998 0.000033 -0.005469 0.000000 0.000000 0.000000
# 2 0.000033 0.022629 0.000721 0.000000 0.000000 0.000000
# 3 -0.005469 0.000721 0.010623 0.000000 0.000000 0.000000
# 4 0.000000 0.000000 0.000000 0.089014 0.000000 0.000000
# 5 0.000000 0.000000 0.000000 0.000000 0.047046 0.000000
# 6 0.000000 0.000000 0.000000 0.000000 0.000000 0.259486
#
#
# Mechanical properties :
#
#
# Convention : Reuss Voigt Hill
#
# Bulk Modulus (GPa) = 21.35856 27.09586 24.22721
# Shear Modulus (GPa) = 10.48584 19.28075 14.88329
#
# Velocity S-wave (km/s) = 2.42445 3.28755 2.88842
# Velocity P-wave (km/s) = 4.45084 5.44054 4.97039
#
# Compressibility (1/GPa) = 0.04681964
#
# Stress axis : x y z
#
# Youngs Moduli (GPa) = 43.48114 44.19162 94.13526
#
# Poissons Ratio (x) = -0.00145 0.51484
# Poissons Ratio (y) = -0.00142 -0.06788
# Poissons Ratio (z) = 0.23781 -0.03187
#
# Static dielectric constant tensor:
#      x y z
#    x 1.593760 0.000000 0.000000 
#    y 0.000000 1.691840 0.000000 
#    z 0.000000 0.000000 1.624060 
# 
# From -- ./inp_files/27991.got.cif
#   From: 2010.05.17/outbox.cif.g08.bks.cpg/sg62_14_cif.got.tgz:27991.got - 2010.06.03 15:25:27.
