data_PCOD9461626
_publ_section_title
;
Structure prediction by ZEFSAII (Michael W. Deem and Ramdas Pophale) SiO2 
 PCOD9461626
Probable space group: P N M A
;
_chemical_formula_sum "Si O2"
_cell_formula_units_Z 64
_cell_length_a 21.663500
_cell_length_b 20.884299
_cell_length_c 8.853829
_cell_angle_alpha 90.000000
_cell_angle_beta 90.000000
_cell_angle_gamma 90.000000
_cell_volume 4005.711394
_symmetry_space_group_name_H-M "P N M A"
_symmetry_group_IT_number 62
_symmetry_cell_setting 'orthorhombic'
loop_
_space_group_symop_operation_xyz
x,y,z
1/2-x,-y,1/2+z
1/2+x,1/2-y,1/2-z
-x,1/2+y,-z
-x,-y,-z
1/2+x,y,1/2-z
1/2-x,1/2+y,1/2+z
x,1/2-y,z
loop_
_atom_site_type_symbol
_atom_site_label
_atom_site_fract_x
_atom_site_fract_y
_atom_site_fract_z
Si Si1 0.562078 0.416297 0.053566
Si Si2 0.399820 0.067011 0.340998
Si Si3 0.652070 0.824243 0.068344
Si Si4 0.812041 0.531225 0.650656
Si Si5 0.210582 0.937058 0.611966
Si Si6 0.036960 0.823717 0.658709
Si Si7 0.120553 0.915764 0.172831
Si Si8 0.007095 0.470587 0.741910
O O1 0.633971 0.422577 0.090533
O O2 0.528043 0.351721 0.103160
O O3 0.527296 0.472808 0.147764
O O4 0.546532 0.431073 0.879861
O O5 0.352440 0.051344 0.206064
O O6 0.437510 0.129603 0.288628
O O7 0.365631 0.082028 0.496214
O O8 0.446656 0.007256 0.353927
O O9 0.670420 0.750000 0.069447
O O10 0.640699 0.853418 0.234041
O O11 0.699090 0.871200 0.979684
O O12 0.587207 0.829480 0.976778
O O13 0.764583 0.563788 0.765155
O O14 0.781330 0.494287 0.508857
O O15 0.846136 0.474616 0.743373
O O16 0.033792 0.750000 0.704207
O O17 0.046956 0.927726 0.188941
#
# Coordination Sequence:
#
# PCOD9461626 Si02
#       8
#     8   8   8   8   8   8   8   8
#     4   9  15  28  48  67  93 125 156 195 245 297
#     4  10  18  28  45  72 102 126 155 201 251 295
#     4   9  18  32  49  68  95 132 166 200 243 292
#     4  10  19  31  48  70  97 125 161 206 252 296
#     4  10  19  32  48  70  98 126 164 206 250 296
#     4   9  17  30  48  68  93 126 162 196 234 287
#     4  10  18  28  47  73  99 126 160 199 250 307
#     4   9  15  27  45  70  97 123 151 194 250 305
#
# _framework density 15.977186
#
# number of rings (size 3 to 8) (size 9 to 14) (size 15 to 20)
#    0.000    2.500    2.500    1.125    0.000    0.500 
#    0.000    0.625    0.000    0.000    0.000    3.500 
#    0.000    0.000    0.000    0.000    0.000    0.000 
#
# Total GULP energy -356490.963445 kJ/mol
# GULP energy per Si atom -5570.171304 kJ/mol
# Density = 1.594082 g / cm^3
# Si number density = 15.977186 Si / 1000 Ang^3
#
#
#
# Elastic Constant Matrix: (Units=GPa)
#
#
# Indices 1 2 3 4 5 6 
#
# 1 63.3860 28.4237 13.5025 0.0000 0.0000 0.0000
# 2 28.4237 59.5010 21.4044 0.0000 0.0000 0.0000
# 3 13.5025 21.4044 76.9748 0.0000 0.0000 0.0000
# 4 0.0000 0.0000 0.0000 13.8218 0.0000 0.0000
# 5 0.0000 0.0000 0.0000 0.0000 27.8708 0.0000
# 6 0.0000 0.0000 0.0000 0.0000 0.0000 12.4917
#
#
#
# Elastic Compliance Matrix: (Units=1/GPa)
#
#
# Indices 1 2 3 4 5 6 
#
# 1 0.020140 -0.009278 -0.000953 0.000000 0.000000 0.000000
# 2 -0.009278 0.022949 -0.004754 0.000000 0.000000 0.000000
# 3 -0.000953 -0.004754 0.014480 0.000000 0.000000 0.000000
# 4 0.000000 0.000000 0.000000 0.072349 0.000000 0.000000
# 5 0.000000 0.000000 0.000000 0.000000 0.035880 0.000000
# 6 0.000000 0.000000 0.000000 0.000000 0.000000 0.080053
#
#
# Mechanical properties :
#
#
# Convention : Reuss Voigt Hill
#
# Bulk Modulus (GPa) = 36.23278 36.28032 36.25655
# Shear Modulus (GPa) = 17.54259 19.93895 18.74077
#
# Velocity S-wave (km/s) = 3.31717 3.53649 3.42858
# Velocity P-wave (km/s) = 6.11543 6.27953 6.19803
#
# Compressibility (1/GPa) = 0.02759932
#
# Stress axis : x y z
#
# Youngs Moduli (GPa) = 49.65289 43.57547 69.05927
#
# Poissons Ratio (x) = 0.40430 0.06580
# Poissons Ratio (y) = 0.46068 0.32830
# Poissons Ratio (z) = 0.04731 0.20715
#
# Static dielectric constant tensor:
#      x y z
#    x 1.544440 0.000000 0.000000 
#    y 0.000000 1.515380 0.000000 
#    z 0.000000 0.000000 1.544550 
# 
# From -- ./inp_files/8972.got.cif
#   From: 2010.05.17/outbox.cif.g08.bks.cpg/sg62_5_cif.got.tgz:8972.got - 2010.06.03 15:25:27.
