data_PCOD9461953
_publ_section_title
;
Structure prediction by ZEFSAII (Michael W. Deem and Ramdas Pophale) SiO2 
 PCOD9461953
Probable space group: P N M A
;
_chemical_formula_sum "Si O2"
_cell_formula_units_Z 44
_cell_length_a 5.130782
_cell_length_b 16.575246
_cell_length_c 26.027574
_cell_angle_alpha 90.000000
_cell_angle_beta 90.000000
_cell_angle_gamma 90.000000
_cell_volume 2213.488322
_symmetry_space_group_name_H-M "P N M A"
_symmetry_group_IT_number 62
_symmetry_cell_setting 'orthorhombic'
loop_
_space_group_symop_operation_xyz
x,y,z
1/2-x,-y,1/2+z
1/2+x,1/2-y,1/2-z
-x,1/2+y,-z
-x,-y,-z
1/2+x,y,1/2-z
1/2-x,1/2+y,1/2+z
x,1/2-y,z
loop_
_atom_site_type_symbol
_atom_site_label
_atom_site_fract_x
_atom_site_fract_y
_atom_site_fract_z
Si Si1 0.929677 0.584028 0.583313
Si Si2 0.402889 0.409394 0.515300
Si Si3 0.668235 0.250000 0.092836
Si Si4 0.906461 0.573192 0.785337
Si Si5 0.074621 0.506403 0.111748
Si Si6 0.338341 0.750000 0.523882
Si Si7 0.313739 0.750000 0.715969
O O1 0.837120 0.599367 0.524528
O O2 0.727589 0.516897 0.603243
O O3 0.879056 0.663640 0.617261
O O4 0.227035 0.559681 0.587696
O O5 0.500000 0.500000 0.500000
O O6 0.356626 0.416993 0.576405
O O7 0.588173 0.332553 0.505656
O O8 0.957986 0.250000 0.071119
O O9 0.447668 0.250000 0.047730
O O10 0.683785 0.567636 0.742323
O O11 0.874641 0.504264 0.828146
O O12 0.874374 0.663623 0.809433
O O13 0.517232 0.750000 0.764072
#
# Coordination Sequence:
#
# PCOD9461953 Si02
#       7
#     8   8   4   8   8   4   4
#     4  10  20  32  49  75 105 136 170 208 252 304
#     4   9  19  35  53  76 108 139 173 211 252 305
#     4  10  18  32  47  72 106 138 170 208 244 289
#     4  10  20  35  50  70  96 127 169 213 257 308
#     4  11  21  33  52  74  98 137 173 211 261 306
#     4  10  20  32  51  74 104 144 174 203 250 302
#     4   8  16  30  48  64  90 124 156 203 254 295
#
# _framework density 19.878126999999999
#
# number of rings (size 3 to 8) (size 9 to 14) (size 15 to 20)
#    0.000    2.182    0.000    4.909    0.000    5.818 
#    0.000    2.727    0.000    0.000    0.000    1.273 
#    0.000    0.000    0.000    0.000    0.000    0.000 
#
# Total GULP energy -245156.188740 kJ/mol
# GULP energy per Si atom -5571.731562 kJ/mol
# Density = 1.983288 g / cm^3
# Si number density = 19.878127 Si / 1000 Ang^3
#
#
#
# Elastic Constant Matrix: (Units=GPa)
#
#
# Indices 1 2 3 4 5 6 
#
# 1 55.7572 19.7453 18.3637 0.0000 0.0000 0.0000
# 2 19.7453 54.8969 17.5759 0.0000 0.0000 0.0000
# 3 18.3637 17.5759 78.2499 0.0000 0.0000 0.0000
# 4 0.0000 0.0000 0.0000 9.8833 0.0000 0.0000
# 5 0.0000 0.0000 0.0000 0.0000 28.1573 0.0000
# 6 0.0000 0.0000 0.0000 0.0000 0.0000 18.8224
#
#
#
# Elastic Compliance Matrix: (Units=1/GPa)
#
#
# Indices 1 2 3 4 5 6 
#
# 1 0.021432 -0.006571 -0.003554 0.000000 0.000000 0.000000
# 2 -0.006571 0.021642 -0.003319 0.000000 0.000000 0.000000
# 3 -0.003554 -0.003319 0.014359 0.000000 0.000000 0.000000
# 4 0.000000 0.000000 0.000000 0.101181 0.000000 0.000000
# 5 0.000000 0.000000 0.000000 0.000000 0.035515 0.000000
# 6 0.000000 0.000000 0.000000 0.000000 0.000000 0.053128
#
#
# Mechanical properties :
#
#
# Convention : Reuss Voigt Hill
#
# Bulk Modulus (GPa) = 32.73767 33.36375 33.05071
# Shear Modulus (GPa) = 17.58537 20.25385 18.91961
#
# Velocity S-wave (km/s) = 2.97755 3.19549 3.08844
# Velocity P-wave (km/s) = 5.32222 5.51683 5.42040
#
# Compressibility (1/GPa) = 0.03054585
#
# Stress axis : x y z
#
# Youngs Moduli (GPa) = 46.65847 46.20632 69.64238
#
# Poissons Ratio (x) = 0.30362 0.24750
# Poissons Ratio (y) = 0.30659 0.23114
# Poissons Ratio (z) = 0.16582 0.15336
#
# Static dielectric constant tensor:
#      x y z
#    x 1.710200 0.000000 0.000000 
#    y 0.000000 1.771100 0.000000 
#    z 0.000000 0.000000 1.803640 
# 
# From -- ./inp_files/28297.got.cif
#   From: 2010.05.17/outbox.cif.g08.bks.cpg/sg62_15_cif.got.tgz:28297.got - 2010.06.03 15:25:27.
