data_PCOD9461652
_publ_section_title
;
Structure prediction by ZEFSAII (Michael W. Deem and Ramdas Pophale) SiO2 
 PCOD9461652
Probable space group: P N M A
;
_chemical_formula_sum "Si O2"
_cell_formula_units_Z 64
_cell_length_a 11.978487
_cell_length_b 9.505147
_cell_length_c 33.978377
_cell_angle_alpha 90.000000
_cell_angle_beta 90.000000
_cell_angle_gamma 90.000000
_cell_volume 3868.685576
_symmetry_space_group_name_H-M "P N M A"
_symmetry_group_IT_number 62
_symmetry_cell_setting 'orthorhombic'
loop_
_space_group_symop_operation_xyz
x,y,z
1/2-x,-y,1/2+z
1/2+x,1/2-y,1/2-z
-x,1/2+y,-z
-x,-y,-z
1/2+x,y,1/2-z
1/2-x,1/2+y,1/2+z
x,1/2-y,z
loop_
_atom_site_type_symbol
_atom_site_label
_atom_site_fract_x
_atom_site_fract_y
_atom_site_fract_z
Si Si1 0.182456 0.417583 0.631482
Si Si2 0.017479 0.084618 0.332233
Si Si3 0.883581 0.417478 0.813328
Si Si4 0.814392 0.916954 0.737581
Si Si5 0.352589 0.084624 0.966049
Si Si6 0.888182 0.416145 0.177798
Si Si7 0.720903 0.415053 0.107181
Si Si8 0.380638 0.916027 0.043771
O O1 0.161815 0.250000 0.633059
O O2 0.304236 0.444575 0.649175
O O3 0.166531 0.460802 0.586106
O O4 0.090109 0.494113 0.657985
O O5 0.988898 0.250000 0.331856
O O6 0.081125 0.053111 0.291499
O O7 0.109690 0.062469 0.366456
O O8 0.893625 0.250000 0.808072
O O9 0.824440 0.488382 0.775784
O O10 0.003389 0.489595 0.817945
O O11 0.817710 0.750000 0.747140
O O12 0.702359 0.942077 0.712312
O O13 0.329115 0.250000 0.968871
O O14 0.484723 0.067964 0.955962
O O15 0.285135 0.011498 0.930961
O O16 0.335586 0.006578 0.007483
O O17 0.916986 0.250000 0.179589
O O18 0.823366 0.441750 0.136770
O O19 0.722495 0.250000 0.096120
O O20 0.357232 0.750000 0.037702
#
# Coordination Sequence:
#
# PCOD9461652 Si02
#       8
#     8   8   8   8   8   8   8   8
#     4  10  21  36  51  74 109 144 173 210 265 318
#     4   9  18  32  53  78 101 131 173 215 255 306
#     4  11  24  37  53  78 107 139 176 220 267 314
#     4   9  20  38  57  77 102 135 176 221 263 309
#     4  10  18  28  49  80 108 138 172 212 260 312
#     4   9  20  39  58  76 103 139 181 221 259 313
#     4   9  17  32  54  78 104 135 171 214 262 310
#     4   9  18  32  48  70 108 146 172 207 258 316
#
# _framework density 16.543085999999999
#
# number of rings (size 3 to 8) (size 9 to 14) (size 15 to 20)
#    0.000    2.500    1.250    2.250    1.750    3.500 
#    0.000    2.500    0.000    0.750    0.000    0.000 
#    0.000    0.000    0.000    0.000    0.000    0.000 
#
# Total GULP energy -357026.706914 kJ/mol
# GULP energy per Si atom -5578.542296 kJ/mol
# Density = 1.650543 g / cm^3
# Si number density = 16.543086 Si / 1000 Ang^3
#
#
#
# Elastic Constant Matrix: (Units=GPa)
#
#
# Indices 1 2 3 4 5 6 
#
# 1 80.5306 57.0682 47.3754 0.0000 0.0000 0.0000
# 2 57.0682 69.1395 68.7497 0.0000 0.0000 0.0000
# 3 47.3754 68.7497 108.4399 0.0000 0.0000 0.0000
# 4 0.0000 0.0000 0.0000 29.1595 0.0000 0.0000
# 5 0.0000 0.0000 0.0000 0.0000 13.5986 0.0000
# 6 0.0000 0.0000 0.0000 0.0000 0.0000 25.5754
#
#
#
# Elastic Compliance Matrix: (Units=1/GPa)
#
#
# Indices 1 2 3 4 5 6 
#
# 1 0.032015 -0.033869 0.007486 0.000000 0.000000 0.000000
# 2 -0.033869 0.074965 -0.032730 0.000000 0.000000 0.000000
# 3 0.007486 -0.032730 0.026702 0.000000 0.000000 0.000000
# 4 0.000000 0.000000 0.000000 0.034294 0.000000 0.000000
# 5 0.000000 0.000000 0.000000 0.000000 0.073537 0.000000
# 6 0.000000 0.000000 0.000000 0.000000 0.000000 0.039100
#
#
# Mechanical properties :
#
#
# Convention : Reuss Voigt Hill
#
# Bulk Modulus (GPa) = 64.70389 67.16628 65.93508
# Shear Modulus (GPa) = 12.37644 19.32781 15.85213
#
# Velocity S-wave (km/s) = 2.73817 3.42179 3.09889
# Velocity P-wave (km/s) = 7.01385 7.50337 7.26273
#
# Compressibility (1/GPa) = 0.01545502
#
# Stress axis : x y z
#
# Youngs Moduli (GPa) = 31.23498 13.33948 37.45051
#
# Poissons Ratio (x) = 0.45180 -0.28035
# Poissons Ratio (y) = 1.05791 1.22577
# Poissons Ratio (z) = -0.23382 0.43661
#
# Static dielectric constant tensor:
#      x y z
#    x 1.535720 0.000000 0.000000 
#    y 0.000000 1.542120 0.000000 
#    z 0.000000 0.000000 1.553450 
# 
# From -- ./inp_files/32560.got.cif
#   From: 2010.05.17/outbox.cif.g08.bks.cpg/sg62_17_cif.got.tgz:32560.got - 2010.06.03 15:25:27.
