data_PCOD9461108
_publ_section_title
;
Structure prediction by ZEFSAII (Michael W. Deem and Ramdas Pophale) SiO2 
 PCOD9461108
Probable space group: P B C A
;
_chemical_formula_sum "Si O2"
_cell_formula_units_Z 48
_cell_length_a 17.438879
_cell_length_b 10.353060
_cell_length_c 12.774721
_cell_angle_alpha 90.000000
_cell_angle_beta 90.000000
_cell_angle_gamma 90.000000
_cell_volume 2306.421720
_symmetry_space_group_name_H-M "P B C A"
_symmetry_group_IT_number 61
_symmetry_cell_setting 'orthorhombic'
loop_
_space_group_symop_operation_xyz
x,y,z
1/2-x,-y,1/2+z
1/2+x,1/2-y,-z
-x,1/2+y,1/2-z
-x,-y,-z
1/2+x,y,1/2-z
1/2-x,1/2+y,z
x,1/2-y,1/2+z
loop_
_atom_site_type_symbol
_atom_site_label
_atom_site_fract_x
_atom_site_fract_y
_atom_site_fract_z
Si Si1 0.452519 0.629787 0.985817
Si Si2 0.311721 0.674962 0.131921
Si Si3 0.217697 0.936977 0.811008
Si Si4 0.791007 0.170157 0.562911
Si Si5 0.969120 0.114755 0.571819
Si Si6 0.089753 0.393426 0.248802
O O1 0.428851 0.653090 0.865782
O O2 0.500000 0.500000 0.000000
O O3 0.378156 0.619015 0.058896
O O4 0.501155 0.750249 0.026022
O O5 0.280426 0.579710 0.220288
O O6 0.350910 0.798530 0.188296
O O7 0.241200 0.701015 0.052885
O O8 0.215026 0.802479 0.872225
O O9 0.240927 0.056232 0.884826
O O10 0.135132 0.972116 0.762101
O O11 0.877755 0.119535 0.568814
O O12 0.011493 0.097936 0.683289
O O13 0.000000 0.000000 0.500000
#
# Coordination Sequence:
#
# PCOD9461108 Si02
#       6
#     8   8   8   8   8   8
#     4  11  25  46  69 102 144 196 243 299 367 438
#     4  11  25  45  72 101 149 190 242 309 364 433
#     4  12  25  46  74 108 140 193 244 305 365 446
#     4  12  28  46  75 109 146 190 252 301 374 445
#     4  11  28  44  73 105 147 190 240 303 364 443
#     4  11  25  47  71 104 146 193 240 298 371 435
#
# _framework density 20.811458999999999
#
# number of rings (size 3 to 8) (size 9 to 14) (size 15 to 20)
#    0.000    0.667    3.333    2.000   11.667    4.000 
#    0.000    0.000    0.000    0.000    0.000    0.000 
#    0.000    0.000    0.000    0.000    0.000    0.000 
#
# Total GULP energy -268505.286870 kJ/mol
# GULP energy per Si atom -5593.860143 kJ/mol
# Density = 2.076409 g / cm^3
# Si number density = 20.811459 Si / 1000 Ang^3
#
#
#
# Elastic Constant Matrix: (Units=GPa)
#
#
# Indices 1 2 3 4 5 6 
#
# 1 115.7921 30.9327 33.1640 0.0000 0.0000 0.0000
# 2 30.9327 118.9000 34.6482 0.0000 0.0000 0.0000
# 3 33.1640 34.6482 118.4350 0.0000 0.0000 0.0000
# 4 0.0000 0.0000 0.0000 28.7084 0.0000 0.0000
# 5 0.0000 0.0000 0.0000 0.0000 32.5046 0.0000
# 6 0.0000 0.0000 0.0000 0.0000 0.0000 22.5352
#
#
#
# Elastic Compliance Matrix: (Units=1/GPa)
#
#
# Indices 1 2 3 4 5 6 
#
# 1 0.009769 -0.001907 -0.002178 0.000000 0.000000 0.000000
# 2 -0.001907 0.009566 -0.002265 0.000000 0.000000 0.000000
# 3 -0.002178 -0.002265 0.009716 0.000000 0.000000 0.000000
# 4 0.000000 0.000000 0.000000 0.034833 0.000000 0.000000
# 5 0.000000 0.000000 0.000000 0.000000 0.030765 0.000000
# 6 0.000000 0.000000 0.000000 0.000000 0.000000 0.044375
#
#
# Mechanical properties :
#
#
# Convention : Reuss Voigt Hill
#
# Bulk Modulus (GPa) = 61.15139 61.17966 61.16553
# Shear Modulus (GPa) = 31.81186 33.70847 32.76017
#
# Velocity S-wave (km/s) = 3.91394 4.02892 3.97185
# Velocity P-wave (km/s) = 7.06205 7.14870 7.10551
#
# Compressibility (1/GPa) = 0.01635286
#
# Stress axis : x y z
#
# Youngs Moduli (GPa) = 102.36142 104.53160 102.92532
#
# Poissons Ratio (x) = 0.19934 0.22414
# Poissons Ratio (y) = 0.19520 0.23309
# Poissons Ratio (z) = 0.22291 0.23673
#
# Static dielectric constant tensor:
#      x y z
#    x 1.767770 0.000000 0.000000 
#    y 0.000000 1.708940 0.000000 
#    z 0.000000 0.000000 1.745380 
# 
# From -- ./inp_files/6146.got.cif
#   From: 2010.05.17/outbox.cif.g08.bks.cpg/sg61_4_cif.got.tgz:6146.got - 2010.06.03 15:17:17.
