data_PCOD9461129
_publ_section_title
;
Structure prediction by ZEFSAII (Michael W. Deem and Ramdas Pophale) SiO2 
 PCOD9461129
Probable space group: P B C A
;
_chemical_formula_sum "Si O2"
_cell_formula_units_Z 32
_cell_length_a 13.036149
_cell_length_b 10.019742
_cell_length_c 9.394761
_cell_angle_alpha 90.000000
_cell_angle_beta 90.000000
_cell_angle_gamma 90.000000
_cell_volume 1227.132875
_symmetry_space_group_name_H-M "P B C A"
_symmetry_group_IT_number 61
_symmetry_cell_setting 'orthorhombic'
loop_
_space_group_symop_operation_xyz
x,y,z
1/2-x,-y,1/2+z
1/2+x,1/2-y,-z
-x,1/2+y,1/2-z
-x,-y,-z
1/2+x,y,1/2-z
1/2-x,1/2+y,z
x,1/2-y,1/2+z
loop_
_atom_site_type_symbol
_atom_site_label
_atom_site_fract_x
_atom_site_fract_y
_atom_site_fract_z
Si Si1 0.977011 0.329649 0.340822
Si Si2 0.795685 0.008673 0.904392
Si Si3 0.701649 0.245075 0.714004
Si Si4 0.629322 0.651537 0.545696
O O1 0.911583 0.438776 0.428251
O O2 0.926851 0.192616 0.401071
O O3 0.097238 0.307707 0.355577
O O4 0.950963 0.359221 0.174946
O O5 0.811411 0.873653 0.811633
O O6 0.707217 0.969314 0.016644
O O7 0.745573 0.124378 0.808555
O O8 0.790856 0.265341 0.598172
#
# Coordination Sequence:
#
# PCOD9461129 Si02
#       4
#     8   8   8   8
#     4  11  28  44  79 107 148 198 247 296 380 438
#     4  11  25  48  72 107 152 190 240 313 358 435
#     4  11  28  49  74 111 150 195 245 307 367 441
#     4  11  25  49  72 108 152 189 250 302 367 435
#
# _framework density 26.077045999999999
#
# number of rings (size 3 to 8) (size 9 to 14) (size 15 to 20)
#    0.000    1.000    5.000    0.000   14.000    2.000 
#    0.000    0.000    0.000    0.000    0.000    0.000 
#    0.000    0.000    0.000    0.000    0.000    0.000 
#
# Total GULP energy -179003.504271 kJ/mol
# GULP energy per Si atom -5593.859508 kJ/mol
# Density = 2.601769 g / cm^3
# Si number density = 26.077046 Si / 1000 Ang^3
#
#
#
# Elastic Constant Matrix: (Units=GPa)
#
#
# Indices 1 2 3 4 5 6 
#
# 1 156.1603 16.1130 20.0373 0.0000 0.0000 0.0000
# 2 16.1130 98.5203 9.5750 0.0000 0.0000 0.0000
# 3 20.0373 9.5750 102.5940 0.0000 0.0000 0.0000
# 4 0.0000 0.0000 0.0000 38.7696 0.0000 0.0000
# 5 0.0000 0.0000 0.0000 0.0000 34.3803 0.0000
# 6 0.0000 0.0000 0.0000 0.0000 0.0000 23.6595
#
#
#
# Elastic Compliance Matrix: (Units=1/GPa)
#
#
# Indices 1 2 3 4 5 6 
#
# 1 0.006659 -0.000972 -0.001210 0.000000 0.000000 0.000000
# 2 -0.000972 0.010385 -0.000779 0.000000 0.000000 0.000000
# 3 -0.001210 -0.000779 0.010056 0.000000 0.000000 0.000000
# 4 0.000000 0.000000 0.000000 0.025793 0.000000 0.000000
# 5 0.000000 0.000000 0.000000 0.000000 0.029086 0.000000
# 6 0.000000 0.000000 0.000000 0.000000 0.000000 0.042266
#
#
# Mechanical properties :
#
#
# Convention : Reuss Voigt Hill
#
# Bulk Modulus (GPa) = 47.21783 49.85834 48.53809
# Shear Modulus (GPa) = 36.43581 40.13183 38.28382
#
# Velocity S-wave (km/s) = 3.74202 3.92723 3.83574
# Velocity P-wave (km/s) = 6.06767 6.30280 6.18635
#
# Compressibility (1/GPa) = 0.02117844
#
# Stress axis : x y z
#
# Youngs Moduli (GPa) = 150.16897 96.29419 99.44102
#
# Poissons Ratio (x) = 0.09355 0.12031
# Poissons Ratio (y) = 0.14589 0.07751
# Poissons Ratio (z) = 0.18169 0.07506
#
# Static dielectric constant tensor:
#      x y z
#    x 2.025250 0.000000 0.000000 
#    y 0.000000 2.076540 0.000000 
#    z 0.000000 0.000000 2.139560 
# 
# From -- ./inp_files/5503.got.cif
#   From: 2010.05.17/outbox.cif.g08.bks.cpg/sg61_3_cif.got.tgz:5503.got - 2010.06.03 15:17:17.
