data_PCOD9461200
_publ_section_title
;
Structure prediction by ZEFSAII (Michael W. Deem and Ramdas Pophale) SiO2 
 PCOD9461200
Probable space group: P B C A
;
_chemical_formula_sum "Si O2"
_cell_formula_units_Z 32
_cell_length_a 9.707696
_cell_length_b 8.995667
_cell_length_c 15.840246
_cell_angle_alpha 90.000000
_cell_angle_beta 90.000000
_cell_angle_gamma 90.000000
_cell_volume 1383.284339
_symmetry_space_group_name_H-M "P B C A"
_symmetry_group_IT_number 61
_symmetry_cell_setting 'orthorhombic'
loop_
_space_group_symop_operation_xyz
x,y,z
1/2-x,-y,1/2+z
1/2+x,1/2-y,-z
-x,1/2+y,1/2-z
-x,-y,-z
1/2+x,y,1/2-z
1/2-x,1/2+y,z
x,1/2-y,1/2+z
loop_
_atom_site_type_symbol
_atom_site_label
_atom_site_fract_x
_atom_site_fract_y
_atom_site_fract_z
Si Si1 0.826578 0.047550 0.446962
Si Si2 0.219181 0.684585 0.437604
Si Si3 0.963890 0.963732 0.856567
Si Si4 0.469118 0.803188 0.820833
O O1 0.836122 0.163130 0.524153
O O2 0.680885 0.066865 0.400432
O O3 0.944064 0.084981 0.380079
O O4 0.815927 0.887271 0.490132
O O5 0.313161 0.702765 0.355414
O O6 0.091667 0.577326 0.416970
O O7 0.975828 0.862531 0.773643
O O8 0.971386 0.137468 0.832025
#
# Coordination Sequence:
#
# PCOD9461200 Si02
#       4
#     8   8   8   8
#     4  12  25  47  74 100 138 182 230 285 341 404
#     4  12  25  47  74 100 138 182 230 285 341 404
#     4  12  28  47  68 105 143 178 231 283 341 414
#     4  12  28  46  70 103 141 183 227 283 347 408
#
# _framework density 23.133351000000001
#
# number of rings (size 3 to 8) (size 9 to 14) (size 15 to 20)
#    0.000    0.000    5.000    4.500    7.000    4.000 
#    0.000    0.000    0.000    0.000    0.000    0.000 
#    0.000    0.000    0.000    0.000    0.000    0.000 
#
# Total GULP energy -179417.104059 kJ/mol
# GULP energy per Si atom -5606.784502 kJ/mol
# Density = 2.308070 g / cm^3
# Si number density = 23.133351 Si / 1000 Ang^3
#
#
#
# Elastic Constant Matrix: (Units=GPa)
#
#
# Indices 1 2 3 4 5 6 
#
# 1 97.5919 -8.6321 37.9459 0.0000 0.0000 0.0000
# 2 -8.6321 60.2521 -1.8962 0.0000 0.0000 0.0000
# 3 37.9459 -1.8962 67.1654 0.0000 0.0000 0.0000
# 4 0.0000 0.0000 0.0000 48.9969 0.0000 0.0000
# 5 0.0000 0.0000 0.0000 0.0000 37.7262 0.0000
# 6 0.0000 0.0000 0.0000 0.0000 0.0000 26.1549
#
#
#
# Elastic Compliance Matrix: (Units=1/GPa)
#
#
# Indices 1 2 3 4 5 6 
#
# 1 0.013297 0.001670 -0.007465 0.000000 0.000000 0.000000
# 2 0.001670 0.016821 -0.000469 0.000000 0.000000 0.000000
# 3 -0.007465 -0.000469 0.019093 0.000000 0.000000 0.000000
# 4 0.000000 0.000000 0.000000 0.020409 0.000000 0.000000
# 5 0.000000 0.000000 0.000000 0.000000 0.026507 0.000000
# 6 0.000000 0.000000 0.000000 0.000000 0.000000 0.038234
#
#
# Mechanical properties :
#
#
# Convention : Reuss Voigt Hill
#
# Bulk Modulus (GPa) = 27.25984 31.09385 29.17684
# Shear Modulus (GPa) = 31.42341 35.74839 33.58590
#
# Velocity S-wave (km/s) = 3.68959 3.93532 3.81443
# Velocity P-wave (km/s) = 5.47359 5.84117 5.66036
#
# Compressibility (1/GPa) = 0.03668400
#
# Stress axis : x y z
#
# Youngs Moduli (GPa) = 75.20422 59.44788 52.37534
#
# Poissons Ratio (x) = -0.09928 0.39099
# Poissons Ratio (y) = -0.12560 0.02454
# Poissons Ratio (z) = 0.56142 0.02786
#
# Static dielectric constant tensor:
#      x y z
#    x 1.842060 0.000000 0.000000 
#    y 0.000000 1.822830 0.000000 
#    z 0.000000 0.000000 1.814780 
# 
# From -- ./inp_files/2503.got.cif
#   From: 2010.05.17/outbox.cif.g08.bks.cpg/sg61_2_cif.got.tgz:2503.got - 2010.06.03 15:17:17.
