data_PCOD9461700
_publ_section_title
;
Structure prediction by ZEFSAII (Michael W. Deem and Ramdas Pophale) SiO2 
 PCOD9461700
Probable space group: P N M A
;
_chemical_formula_sum "Si O2"
_cell_formula_units_Z 64
_cell_length_a 16.877849
_cell_length_b 7.711289
_cell_length_c 23.712431
_cell_angle_alpha 90.000000
_cell_angle_beta 90.000000
_cell_angle_gamma 90.000000
_cell_volume 3086.172215
_symmetry_space_group_name_H-M "P N M A"
_symmetry_group_IT_number 62
_symmetry_cell_setting 'orthorhombic'
loop_
_space_group_symop_operation_xyz
x,y,z
1/2-x,-y,1/2+z
1/2+x,1/2-y,1/2-z
-x,1/2+y,-z
-x,-y,-z
1/2+x,y,1/2-z
1/2-x,1/2+y,1/2+z
x,1/2-y,z
loop_
_atom_site_type_symbol
_atom_site_label
_atom_site_fract_x
_atom_site_fract_y
_atom_site_fract_z
Si Si1 0.930225 0.039931 0.854004
Si Si2 0.549588 0.542801 0.226615
Si Si3 0.269632 0.536598 0.469181
Si Si4 0.257027 0.958118 0.597868
Si Si5 0.891272 0.050955 0.339508
Si Si6 0.986727 0.947279 0.563147
Si Si7 0.052144 0.457779 0.945851
Si Si8 0.656548 0.943411 0.128804
O O1 0.933127 0.250000 0.853100
O O2 0.939135 0.977528 0.789885
O O3 0.003553 0.976674 0.891972
O O4 0.846790 0.991271 0.882422
O O5 0.560973 0.750000 0.226676
O O6 0.460545 0.515898 0.202150
O O7 0.618581 0.471631 0.184840
O O8 0.265175 0.750000 0.469734
O O9 0.245780 0.480420 0.532802
O O10 0.359275 0.479993 0.456953
O O11 0.218020 0.476534 0.415538
O O12 0.245096 0.750000 0.596233
O O13 0.194453 0.027838 0.644739
O O14 0.879032 0.250000 0.321807
O O15 0.934047 0.045382 0.400391
O O16 0.957074 0.750000 0.566789
O O17 0.922409 0.068200 0.591284
O O18 0.000000 0.000000 0.500000
O O19 0.058015 0.250000 0.940362
O O20 0.000000 0.500000 0.000000
O O21 0.686759 0.750000 0.143411
#
# Coordination Sequence:
#
# PCOD9461700 Si02
#       8
#     8   8   8   8   8   8   8   8
#     4  10  21  36  53  79 108 137 176 222 268 314
#     4   9  19  36  54  76 107 141 177 215 261 317
#     4   9  17  31  53  78 102 135 175 213 258 316
#     4  10  19  33  54  78 103 134 176 217 262 317
#     4   9  19  34  52  75 103 137 178 219 254 305
#     4  10  18  29  47  72 103 137 171 208 255 305
#     4  10  19  34  55  76 103 135 173 217 265 316
#     4   9  17  32  52  72 100 136 174 212 254 309
#
# _framework density 20.737662
#
# number of rings (size 3 to 8) (size 9 to 14) (size 15 to 20)
#    0.000    2.500    1.250    1.125    0.000    3.500 
#    2.250    2.500    0.000    0.000    0.000    0.000 
#    0.000    0.000    0.000    0.000    0.000    0.000 
#
# Total GULP energy -356535.722784 kJ/mol
# GULP energy per Si atom -5570.870668 kJ/mol
# Density = 2.069046 g / cm^3
# Si number density = 20.737662 Si / 1000 Ang^3
#
#
#
# Elastic Constant Matrix: (Units=GPa)
#
#
# Indices 1 2 3 4 5 6 
#
# 1 103.2692 0.4374 42.0406 0.0000 0.0000 0.0000
# 2 0.4374 40.2620 1.0529 0.0000 0.0000 0.0000
# 3 42.0406 1.0529 151.7330 0.0000 0.0000 0.0000
# 4 0.0000 0.0000 0.0000 -6.8377 0.0000 0.0000
# 5 0.0000 0.0000 0.0000 0.0000 26.6883 0.0000
# 6 0.0000 0.0000 0.0000 0.0000 0.0000 19.5215
#
#
#
# Elastic Compliance Matrix: (Units=1/GPa)
#
#
# Indices 1 2 3 4 5 6 
#
# 1 0.010915 -0.000039 -0.003024 0.000000 0.000000 0.000000
# 2 -0.000039 0.024842 -0.000161 0.000000 0.000000 0.000000
# 3 -0.003024 -0.000161 0.007429 0.000000 0.000000 0.000000
# 4 0.000000 0.000000 0.000000 -0.146249 0.000000 0.000000
# 5 0.000000 0.000000 0.000000 0.000000 0.037470 0.000000
# 6 0.000000 0.000000 0.000000 0.000000 0.000000 0.051226
#
#
# Mechanical properties :
#
#
# Convention : Reuss Voigt Hill
#
# Bulk Modulus (GPa) = 27.22091 42.48067 34.85079
# Shear Modulus (GPa) = 1155.39995 24.65665 590.02830
#
# Velocity S-wave (km/s) = 23.62964 3.45190 16.88602
# Velocity P-wave (km/s) = 27.52517 6.03463 19.92551
#
# Compressibility (1/GPa) = 0.03673646
#
# Stress axis : x y z
#
# Youngs Moduli (GPa) = 91.62051 40.25447 134.59944
#
# Poissons Ratio (x) = 0.00159 0.40700
# Poissons Ratio (y) = 0.00362 0.02173
# Poissons Ratio (z) = 0.27704 0.00650
#
# Static dielectric constant tensor:
#      x y z
#    x 1.764000 0.000000 0.000000 
#    y 0.000000 1.793840 0.000000 
#    z 0.000000 0.000000 1.749400 
# 
# From -- ./inp_files/29853.got.cif
#   From: 2010.05.17/outbox.cif.g08.bks.cpg/sg62_15_cif.got.tgz:29853.got - 2010.06.03 15:25:27.
