data_PCOD9461918
_publ_section_title
;
Structure prediction by ZEFSAII (Michael W. Deem and Ramdas Pophale) SiO2 
 PCOD9461918
Probable space group: P N M A
;
_chemical_formula_sum "Si O2"
_cell_formula_units_Z 64
_cell_length_a 12.268495
_cell_length_b 8.199185
_cell_length_c 30.270369
_cell_angle_alpha 90.000000
_cell_angle_beta 90.000000
_cell_angle_gamma 90.000000
_cell_volume 3044.946672
_symmetry_space_group_name_H-M "P N M A"
_symmetry_group_IT_number 62
_symmetry_cell_setting 'orthorhombic'
loop_
_space_group_symop_operation_xyz
x,y,z
1/2-x,-y,1/2+z
1/2+x,1/2-y,1/2-z
-x,1/2+y,-z
-x,-y,-z
1/2+x,y,1/2-z
1/2-x,1/2+y,1/2+z
x,1/2-y,z
loop_
_atom_site_type_symbol
_atom_site_label
_atom_site_fract_x
_atom_site_fract_y
_atom_site_fract_z
Si Si1 0.038389 0.053512 0.819523
Si Si2 0.780052 0.443863 0.666370
Si Si3 0.516562 0.552443 0.223557
Si Si4 0.300990 0.559542 0.932578
Si Si5 0.632112 0.443994 0.388748
Si Si6 0.638582 0.945222 0.847624
Si Si7 0.234713 0.946693 0.024117
Si Si8 0.535480 0.442197 0.934931
O O1 0.041780 0.250000 0.818837
O O2 0.979723 0.999228 0.774424
O O3 0.162108 0.990771 0.819672
O O4 0.973479 0.003612 0.863080
O O5 0.779753 0.250000 0.674148
O O6 0.881370 0.510047 0.694674
O O7 0.790929 0.471780 0.614067
O O8 0.516292 0.750000 0.222483
O O9 0.405554 0.494237 0.200089
O O10 0.278584 0.750000 0.925438
O O11 0.426827 0.537474 0.947459
O O12 0.227207 0.498117 0.973341
O O13 0.632403 0.250000 0.388729
O O14 0.739622 0.499381 0.361053
O O15 0.648278 0.500514 0.439176
O O16 0.631718 0.750000 0.853059
O O17 0.558652 0.029885 0.883048
O O18 0.237201 0.750000 0.023582
O O19 0.353246 0.002026 0.042312
O O20 0.520343 0.250000 0.943527
#
# Coordination Sequence:
#
# PCOD9461918 Si02
#       8
#     8   8   8   8   8   8   8   8
#     4  10  23  41  63  86 114 154 197 245 291 346
#     4  10  22  40  59  87 120 152 197 244 291 347
#     4  10  21  37  61  88 114 149 193 239 290 351
#     4  11  21  34  55  85 119 156 196 243 298 351
#     4  10  22  39  59  86 119 153 195 245 294 348
#     4  10  20  34  54  84 118 150 186 234 288 342
#     4   9  20  36  56  83 116 156 201 242 291 353
#     4  10  18  31  52  80 116 156 191 234 287 344
#
# _framework density 21.018429999999999
#
# number of rings (size 3 to 8) (size 9 to 14) (size 15 to 20)
#    0.000    2.000    1.250    1.875    1.750    4.000 
#    0.000    0.625    0.000    0.000    0.000    0.000 
#    0.000    0.000    0.000    0.000    0.000    0.000 
#
# Total GULP energy -357365.901400 kJ/mol
# GULP energy per Si atom -5583.842209 kJ/mol
# Density = 2.097059 g / cm^3
# Si number density = 21.018430 Si / 1000 Ang^3
#
#
#
# Elastic Constant Matrix: (Units=GPa)
#
#
# Indices 1 2 3 4 5 6 
#
# 1 53.0560 7.5235 15.7046 0.0000 0.0000 0.0000
# 2 7.5235 13.2989 0.2563 0.0000 0.0000 0.0000
# 3 15.7046 0.2563 80.2350 0.0000 0.0000 0.0000
# 4 0.0000 0.0000 0.0000 19.0262 0.0000 0.0000
# 5 0.0000 0.0000 0.0000 0.0000 14.8686 0.0000
# 6 0.0000 0.0000 0.0000 0.0000 0.0000 18.4306
#
#
#
# Elastic Compliance Matrix: (Units=1/GPa)
#
#
# Indices 1 2 3 4 5 6 
#
# 1 0.021843 -0.012275 -0.004236 0.000000 0.000000 0.000000
# 2 -0.012275 0.082097 0.002140 0.000000 0.000000 0.000000
# 3 -0.004236 0.002140 0.013286 0.000000 0.000000 0.000000
# 4 0.000000 0.000000 0.000000 0.052559 0.000000 0.000000
# 5 0.000000 0.000000 0.000000 0.000000 0.067256 0.000000
# 6 0.000000 0.000000 0.000000 0.000000 0.000000 0.054258
#
#
# Mechanical properties :
#
#
# Convention : Reuss Voigt Hill
#
# Bulk Modulus (GPa) = 11.30147 21.50649 16.40398
# Shear Modulus (GPa) = 14.30474 18.67212 16.48843
#
# Velocity S-wave (km/s) = 2.61162 2.98379 2.80389
# Velocity P-wave (km/s) = 3.80562 4.70373 4.27830
#
# Compressibility (1/GPa) = 0.08848404
#
# Stress axis : x y z
#
# Youngs Moduli (GPa) = 45.78219 12.18064 75.26894
#
# Poissons Ratio (x) = 0.14952 0.31885
# Poissons Ratio (y) = 0.56198 -0.16111
# Poissons Ratio (z) = 0.19394 -0.02607
#
# Static dielectric constant tensor:
#      x y z
#    x 1.766260 0.000000 0.000000 
#    y 0.000000 1.723740 0.000000 
#    z 0.000000 0.000000 1.778600 
# 
# From -- ./inp_files/32469.got.cif
#   From: 2010.05.17/outbox.cif.g08.bks.cpg/sg62_17_cif.got.tgz:32469.got - 2010.06.03 15:25:27.
