data_PCOD9461350
_publ_section_title
;
Structure prediction by ZEFSAII (Michael W. Deem and Ramdas Pophale) SiO2 
 PCOD9461350
Probable space group: P N M A
;
_chemical_formula_sum "Si O2"
_cell_formula_units_Z 64
_cell_length_a 13.949838
_cell_length_b 18.188007
_cell_length_c 13.241850
_cell_angle_alpha 90.000000
_cell_angle_beta 90.000000
_cell_angle_gamma 90.000000
_cell_volume 3359.718887
_symmetry_space_group_name_H-M "P N M A"
_symmetry_group_IT_number 62
_symmetry_cell_setting 'orthorhombic'
loop_
_space_group_symop_operation_xyz
x,y,z
1/2-x,-y,1/2+z
1/2+x,1/2-y,1/2-z
-x,1/2+y,-z
-x,-y,-z
1/2+x,y,1/2-z
1/2-x,1/2+y,1/2+z
x,1/2-y,z
loop_
_atom_site_type_symbol
_atom_site_label
_atom_site_fract_x
_atom_site_fract_y
_atom_site_fract_z
Si Si1 0.220041 0.333610 0.801168
Si Si2 0.437181 0.420954 0.604244
Si Si3 0.562478 0.662317 0.183627
Si Si4 0.104351 0.526024 0.826532
Si Si5 0.313308 0.833655 0.520637
Si Si6 0.739018 0.003622 0.491816
Si Si7 0.114582 0.429706 0.635887
Si Si8 0.477722 0.333833 0.403505
O O1 0.222418 0.250000 0.766103
O O2 0.326286 0.350100 0.843393
O O3 0.155022 0.337993 0.901632
O O4 0.183528 0.379741 0.707251
O O5 0.440391 0.372284 0.704563
O O6 0.523264 0.479329 0.613707
O O7 0.341862 0.468104 0.581892
O O8 0.445838 0.365597 0.511464
O O9 0.542856 0.750000 0.182346
O O10 0.482893 0.616598 0.122504
O O11 0.101974 0.497368 0.712986
O O12 0.072884 0.610245 0.828269
O O13 0.199578 0.510053 0.893836
O O14 0.271986 0.750000 0.531359
O O15 0.406843 0.837983 0.591142
O O16 0.255809 0.909585 0.533794
O O17 0.834699 0.959387 0.464059
O O18 0.449585 0.250000 0.389143
#
# Coordination Sequence:
#
# PCOD9461350 Si02
#       8
#     8   8   8   8   8   8   8   8
#     4  10  19  33  52  77 110 140 173 219 266 313
#     4  10  16  29  50  76 106 132 163 210 271 321
#     4  10  20  33  49  78 113 141 171 214 269 331
#     4  10  19  33  49  75 108 135 171 225 266 310
#     4  10  18  31  53  77 101 134 177 224 265 307
#     4  11  18  32  51  77 107 134 175 219 265 317
#     4  11  21  33  53  77 105 146 178 216 271 324
#     4  10  17  27  47  75  99 130 163 210 271 316
#
# _framework density 19.049213000000002
#
# number of rings (size 3 to 8) (size 9 to 14) (size 15 to 20)
#    0.000    1.750    5.000    2.250    0.000    1.000 
#    0.000    1.875    0.000    0.000    0.000    0.000 
#    0.000    0.000    0.000    0.000    0.000    0.000 
#
# Total GULP energy -356626.527888 kJ/mol
# GULP energy per Si atom -5572.289498 kJ/mol
# Density = 1.900586 g / cm^3
# Si number density = 19.049213 Si / 1000 Ang^3
#
#
#
# Elastic Constant Matrix: (Units=GPa)
#
#
# Indices 1 2 3 4 5 6 
#
# 1 37.7265 32.6760 -4.0016 0.0000 0.0000 0.0000
# 2 32.6760 136.7777 0.1337 0.0000 0.0000 0.0000
# 3 -4.0016 0.1337 10.8187 0.0000 0.0000 0.0000
# 4 0.0000 0.0000 0.0000 16.6679 0.0000 0.0000
# 5 0.0000 0.0000 0.0000 0.0000 21.0586 0.0000
# 6 0.0000 0.0000 0.0000 0.0000 0.0000 27.0262
#
#
#
# Elastic Compliance Matrix: (Units=1/GPa)
#
#
# Indices 1 2 3 4 5 6 
#
# 1 0.035191 -0.008420 0.013120 0.000000 0.000000 0.000000
# 2 -0.008420 0.009326 -0.003230 0.000000 0.000000 0.000000
# 3 0.013120 -0.003230 0.097326 0.000000 0.000000 0.000000
# 4 0.000000 0.000000 0.000000 0.059995 0.000000 0.000000
# 5 0.000000 0.000000 0.000000 0.000000 0.047486 0.000000
# 6 0.000000 0.000000 0.000000 0.000000 0.000000 0.037001
#
#
# Mechanical properties :
#
#
# Convention : Reuss Voigt Hill
#
# Bulk Modulus (GPa) = 6.90682 26.99322 16.95002
# Shear Modulus (GPa) = 15.07636 23.38487 19.23062
#
# Velocity S-wave (km/s) = 2.81631 3.50752 3.18075
# Velocity P-wave (km/s) = 3.76950 5.53214 4.73359
#
# Compressibility (1/GPa) = 0.14478434
#
# Stress axis : x y z
#
# Youngs Moduli (GPa) = 28.41637 107.22947 10.27478
#
# Poissons Ratio (x) = 0.90286 -0.13481
# Poissons Ratio (y) = 0.23926 0.03318
# Poissons Ratio (z) = -0.37284 0.34631
#
# Static dielectric constant tensor:
#      x y z
#    x 1.744990 0.000000 0.000000 
#    y 0.000000 1.693890 0.000000 
#    z 0.000000 0.000000 1.658580 
# 
# From -- ./inp_files/19239.got.cif
#   From: 2010.05.17/outbox.cif.g08.bks.cpg/sg62_10_cif.got.tgz:19239.got - 2010.06.03 15:25:27.
