data_PCOD9461396
_publ_section_title
;
Structure prediction by ZEFSAII (Michael W. Deem and Ramdas Pophale) SiO2 
 PCOD9461396
Probable space group: P N M A
;
_chemical_formula_sum "Si O2"
_cell_formula_units_Z 64
_cell_length_a 35.555862
_cell_length_b 8.740626
_cell_length_c 14.000361
_cell_angle_alpha 90.000000
_cell_angle_beta 90.000000
_cell_angle_gamma 90.000000
_cell_volume 4351.039078
_symmetry_space_group_name_H-M "P N M A"
_symmetry_group_IT_number 62
_symmetry_cell_setting 'orthorhombic'
loop_
_space_group_symop_operation_xyz
x,y,z
1/2-x,-y,1/2+z
1/2+x,1/2-y,1/2-z
-x,1/2+y,-z
-x,-y,-z
1/2+x,y,1/2-z
1/2-x,1/2+y,1/2+z
x,1/2-y,z
loop_
_atom_site_type_symbol
_atom_site_label
_atom_site_fract_x
_atom_site_fract_y
_atom_site_fract_z
Si Si1 0.808348 0.565018 0.712015
Si Si2 0.693764 0.066721 0.792983
Si Si3 0.879912 0.065357 0.388390
Si Si4 0.734169 0.434651 0.399772
Si Si5 0.540453 0.574963 0.113527
Si Si6 0.618366 0.067079 0.101617
Si Si7 0.463214 0.073036 0.118548
Si Si8 0.231566 0.934219 0.892037
O O1 0.809510 0.750000 0.713342
O O2 0.795840 0.517796 0.818139
O O3 0.848193 0.513025 0.671101
O O4 0.773964 0.522988 0.641796
O O5 0.695040 0.250000 0.795289
O O6 0.653607 0.006053 0.827827
O O7 0.725852 0.999343 0.863294
O O8 0.704401 0.004430 0.688185
O O9 0.878381 0.250000 0.386839
O O10 0.921671 0.018124 0.352449
O O11 0.876381 0.009364 0.497850
O O12 0.736084 0.250000 0.402382
O O13 0.724853 0.500767 0.503070
O O14 0.546905 0.750000 0.140541
O O15 0.576970 0.476489 0.139037
O O16 0.500141 0.517424 0.150049
O O17 0.537920 0.568334 0.997539
O O18 0.620806 0.250000 0.089940
O O19 0.467525 0.250000 0.146249
O O20 0.228773 0.750000 0.890787
#
# Coordination Sequence:
#
# PCOD9461396 Si02
#       8
#     8   8   8   8   8   8   8   8
#     4   8  17  30  44  62  85 112 143 178 213 253
#     4  11  21  32  46  66  89 117 150 180 217 263
#     4  10  19  30  43  62  87 114 146 186 223 255
#     4  10  19  33  49  65  87 115 147 185 224 259
#     4   9  16  25  37  56  82 111 143 177 212 252
#     4  10  17  27  43  62  86 117 149 180 216 260
#     4   8  15  26  39  55  78 110 144 175 213 258
#     4  10  19  33  49  66  88 114 146 184 224 263
#
# _framework density 14.70913
#
# number of rings (size 3 to 8) (size 9 to 14) (size 15 to 20)
#    0.000    2.500    0.000    5.250    0.000    4.500 
#    0.000    6.875    0.000    0.000    0.000    0.000 
#    0.000    1.000    0.000    3.000    0.000    4.250 
#
# Total GULP energy -356640.734241 kJ/mol
# GULP energy per Si atom -5572.511473 kJ/mol
# Density = 1.467565 g / cm^3
# Si number density = 14.709130 Si / 1000 Ang^3
#
#
#
# Elastic Constant Matrix: (Units=GPa)
#
#
# Indices 1 2 3 4 5 6 
#
# 1 127.3090 40.7079 50.7924 0.0000 0.0000 0.0000
# 2 40.7079 69.2703 28.7131 0.0000 0.0000 0.0000
# 3 50.7924 28.7131 75.7040 0.0000 0.0000 0.0000
# 4 0.0000 0.0000 0.0000 18.7929 0.0000 0.0000
# 5 0.0000 0.0000 0.0000 0.0000 18.7267 0.0000
# 6 0.0000 0.0000 0.0000 0.0000 0.0000 22.3450
#
#
#
# Elastic Compliance Matrix: (Units=1/GPa)
#
#
# Indices 1 2 3 4 5 6 
#
# 1 0.011716 -0.004303 -0.006228 0.000000 0.000000 0.000000
# 2 -0.004303 0.018710 -0.004209 0.000000 0.000000 0.000000
# 3 -0.006228 -0.004209 0.018985 0.000000 0.000000 0.000000
# 4 0.000000 0.000000 0.000000 0.053211 0.000000 0.000000
# 5 0.000000 0.000000 0.000000 0.000000 0.053400 0.000000
# 6 0.000000 0.000000 0.000000 0.000000 0.000000 0.044753
#
#
# Mechanical properties :
#
#
# Convention : Reuss Voigt Hill
#
# Bulk Modulus (GPa) = 50.17875 56.96780 53.57327
# Shear Modulus (GPa) = 21.10609 22.11094 21.60852
#
# Velocity S-wave (km/s) = 3.79211 3.88133 3.83698
# Velocity P-wave (km/s) = 7.30490 7.67463 7.49205
#
# Compressibility (1/GPa) = 0.01992876
#
# Stress axis : x y z
#
# Youngs Moduli (GPa) = 85.35439 53.44792 52.67427
#
# Poissons Ratio (x) = 0.23000 0.32808
# Poissons Ratio (y) = 0.36731 0.22171
# Poissons Ratio (z) = 0.53162 0.22496
#
# Static dielectric constant tensor:
#      x y z
#    x 1.502800 0.000000 0.000000 
#    y 0.000000 1.493370 0.000000 
#    z 0.000000 0.000000 1.460690 
# 
# From -- ./inp_files/21248.got.cif
#   From: 2010.05.17/outbox.cif.g08.bks.cpg/sg62_11_cif.got.tgz:21248.got - 2010.06.03 15:25:27.
