data_PCOD9461201
_publ_section_title
;
Structure prediction by ZEFSAII (Michael W. Deem and Ramdas Pophale) SiO2 
 PCOD9461201
Probable space group: P B C A
;
_chemical_formula_sum "Si O2"
_cell_formula_units_Z 32
_cell_length_a 15.919699
_cell_length_b 9.679373
_cell_length_c 8.688833
_cell_angle_alpha 90.000000
_cell_angle_beta 90.000000
_cell_angle_gamma 90.000000
_cell_volume 1338.885777
_symmetry_space_group_name_H-M "P B C A"
_symmetry_group_IT_number 61
_symmetry_cell_setting 'orthorhombic'
loop_
_space_group_symop_operation_xyz
x,y,z
1/2-x,-y,1/2+z
1/2+x,1/2-y,-z
-x,1/2+y,1/2-z
-x,-y,-z
1/2+x,y,1/2-z
1/2-x,1/2+y,z
x,1/2-y,1/2+z
loop_
_atom_site_type_symbol
_atom_site_label
_atom_site_fract_x
_atom_site_fract_y
_atom_site_fract_z
Si Si1 0.190570 0.825091 0.971123
Si Si2 0.771371 0.055288 0.695209
Si Si3 0.001572 0.654144 0.435309
Si Si4 0.057782 0.398398 0.900438
O O1 0.236602 0.687821 0.914680
O O2 0.092641 0.788601 0.981756
O O3 0.200058 0.943589 0.840988
O O4 0.222778 0.889181 0.130991
O O5 0.857060 0.974399 0.650356
O O6 0.000000 0.500000 0.500000
O O7 0.932299 0.757655 0.503129
O O8 0.989511 0.645221 0.254422
O O9 0.000000 0.500000 0.000000
#
# Coordination Sequence:
#
# PCOD9461201 Si02
#       4
#     8   8   8   8
#     4  12  27  50  73 112 150 196 242 309 364 447
#     4  12  28  48  75 107 152 192 248 299 376 437
#     4  12  25  47  76 108 149 188 248 299 363 435
#     4  12  26  47  76 108 143 198 242 306 363 432
#
# _framework density 23.900471
#
# number of rings (size 3 to 8) (size 9 to 14) (size 15 to 20)
#    0.000    0.000    5.000    4.500    7.000    2.000 
#    0.000    0.000    0.000    0.000    0.000    0.000 
#    0.000    0.000    0.000    0.000    0.000    0.000 
#
# Total GULP energy -179415.948917 kJ/mol
# GULP energy per Si atom -5606.748404 kJ/mol
# Density = 2.384607 g / cm^3
# Si number density = 23.900471 Si / 1000 Ang^3
#
#
#
# Elastic Constant Matrix: (Units=GPa)
#
#
# Indices 1 2 3 4 5 6 
#
# 1 54.2671 9.2646 14.1683 0.0000 0.0000 0.0000
# 2 9.2646 156.3894 47.0948 0.0000 0.0000 0.0000
# 3 14.1683 47.0948 154.6328 0.0000 0.0000 0.0000
# 4 0.0000 0.0000 0.0000 31.0671 0.0000 0.0000
# 5 0.0000 0.0000 0.0000 0.0000 31.6430 0.0000
# 6 0.0000 0.0000 0.0000 0.0000 0.0000 29.1235
#
#
#
# Elastic Compliance Matrix: (Units=1/GPa)
#
#
# Indices 1 2 3 4 5 6 
#
# 1 0.018941 -0.000660 -0.001534 0.000000 0.000000 0.000000
# 2 -0.000660 0.007063 -0.002091 0.000000 0.000000 0.000000
# 3 -0.001534 -0.002091 0.007244 0.000000 0.000000 0.000000
# 4 0.000000 0.000000 0.000000 0.032188 0.000000 0.000000
# 5 0.000000 0.000000 0.000000 0.000000 0.031603 0.000000
# 6 0.000000 0.000000 0.000000 0.000000 0.000000 0.034337
#
#
# Mechanical properties :
#
#
# Convention : Reuss Voigt Hill
#
# Bulk Modulus (GPa) = 40.52227 56.26051 48.39139
# Shear Modulus (GPa) = 33.74473 38.01751 35.88112
#
# Velocity S-wave (km/s) = 3.76158 3.99263 3.87883
# Velocity P-wave (km/s) = 5.98811 6.69667 6.35228
#
# Compressibility (1/GPa) = 0.02467779
#
# Stress axis : x y z
#
# Youngs Moduli (GPa) = 52.79650 141.58373 138.04069
#
# Poissons Ratio (x) = 0.09344 0.21182
# Poissons Ratio (y) = 0.03484 0.28859
# Poissons Ratio (z) = 0.08101 0.29600
#
# Static dielectric constant tensor:
#      x y z
#    x 1.718550 0.000000 0.000000 
#    y 0.000000 1.902940 0.000000 
#    z 0.000000 0.000000 2.253750 
# 
# From -- ./inp_files/1645.got.cif
#   From: 2010.05.17/outbox.cif.g08.bks.cpg/sg61_1_cif.got.tgz:1645.got - 2010.06.03 15:17:17.
