data_PCOD9461831
_publ_section_title
;
Structure prediction by ZEFSAII (Michael W. Deem and Ramdas Pophale) SiO2 
 PCOD9461831
Probable space group: P N M A
;
_chemical_formula_sum "Si O2"
_cell_formula_units_Z 64
_cell_length_a 21.914038
_cell_length_b 18.865898
_cell_length_c 9.042680
_cell_angle_alpha 90.000000
_cell_angle_beta 90.000000
_cell_angle_gamma 90.000000
_cell_volume 3738.497158
_symmetry_space_group_name_H-M "P N M A"
_symmetry_group_IT_number 62
_symmetry_cell_setting 'orthorhombic'
loop_
_space_group_symop_operation_xyz
x,y,z
1/2-x,-y,1/2+z
1/2+x,1/2-y,1/2-z
-x,1/2+y,-z
-x,-y,-z
1/2+x,y,1/2-z
1/2-x,1/2+y,1/2+z
x,1/2-y,z
loop_
_atom_site_type_symbol
_atom_site_label
_atom_site_fract_x
_atom_site_fract_y
_atom_site_fract_z
Si Si1 0.636427 0.830455 0.562139
Si Si2 0.314251 0.034250 0.944932
Si Si3 0.802673 0.033374 0.907461
Si Si4 0.941961 0.954271 0.559085
Si Si5 0.020481 0.886636 0.082654
Si Si6 0.867449 0.168140 0.414231
Si Si7 0.495042 0.333142 0.914839
Si Si8 0.923350 0.543700 0.904911
O O1 0.658763 0.750000 0.533457
O O2 0.674096 0.893039 0.481407
O O3 0.566994 0.836769 0.504271
O O4 0.634405 0.842540 0.738089
O O5 0.301977 0.040415 0.769952
O O6 0.379134 0.995154 0.971633
O O7 0.322526 0.112361 0.011171
O O8 0.260975 0.990835 0.024138
O O9 0.852239 0.970448 0.933558
O O10 0.941078 0.941609 0.735074
O O11 0.950082 0.879306 0.479657
O O12 0.000000 0.000000 0.500000
O O13 0.018772 0.862451 0.251526
O O14 0.049523 0.964929 0.070473
O O15 0.954681 0.898198 0.008909
O O16 0.851808 0.250000 0.445601
O O17 0.935138 0.156319 0.482230
O O18 0.507853 0.250000 0.908445
#
# Coordination Sequence:
#
# PCOD9461831 Si02
#       8
#     8   8   8   8   8   8   8   8
#     4  10  20  34  54  82 115 148 188 232 282 339
#     4  11  22  37  60  82 113 149 190 238 278 340
#     4  10  22  38  56  84 110 149 192 232 285 337
#     4  11  19  35  58  83 108 144 185 236 281 333
#     4  10  18  30  52  80 111 145 176 233 282 328
#     4  10  20  34  56  83 111 145 184 234 285 335
#     4  11  21  33  51  82 117 146 184 232 291 344
#     4   9  19  33  53  81 110 140 186 229 278 330
#
# _framework density 17.119178999999999
#
# number of rings (size 3 to 8) (size 9 to 14) (size 15 to 20)
#    0.000    1.750    2.500    3.375    0.000    3.500 
#    0.000    1.250    0.000    6.000    0.000    0.000 
#    0.000    0.000    0.000    0.000    0.000    0.000 
#
# Total GULP energy -356885.334615 kJ/mol
# GULP energy per Si atom -5576.333353 kJ/mol
# Density = 1.708021 g / cm^3
# Si number density = 17.119179 Si / 1000 Ang^3
#
#
#
# Elastic Constant Matrix: (Units=GPa)
#
#
# Indices 1 2 3 4 5 6 
#
# 1 99.9246 51.6467 65.4789 0.0000 0.0000 0.0000
# 2 51.6467 98.6504 52.4931 0.0000 0.0000 0.0000
# 3 65.4789 52.4931 84.2680 0.0000 0.0000 0.0000
# 4 0.0000 0.0000 0.0000 25.3932 0.0000 0.0000
# 5 0.0000 0.0000 0.0000 0.0000 25.2850 0.0000
# 6 0.0000 0.0000 0.0000 0.0000 0.0000 11.5173
#
#
#
# Elastic Compliance Matrix: (Units=1/GPa)
#
#
# Indices 1 2 3 4 5 6 
#
# 1 0.021161 -0.003484 -0.014272 0.000000 0.000000 0.000000
# 2 -0.003484 0.015736 -0.007096 0.000000 0.000000 0.000000
# 3 -0.014272 -0.007096 0.027377 0.000000 0.000000 0.000000
# 4 0.000000 0.000000 0.000000 0.039381 0.000000 0.000000
# 5 0.000000 0.000000 0.000000 0.000000 0.039549 0.000000
# 6 0.000000 0.000000 0.000000 0.000000 0.000000 0.086826
#
#
# Mechanical properties :
#
#
# Convention : Reuss Voigt Hill
#
# Bulk Modulus (GPa) = 68.63173 69.12003 68.87588
# Shear Modulus (GPa) = 17.56914 19.98739 18.77826
#
# Velocity S-wave (km/s) = 3.20704 3.42064 3.31556
# Velocity P-wave (km/s) = 7.34105 7.48762 7.41470
#
# Compressibility (1/GPa) = 0.01457052
#
# Stress axis : x y z
#
# Youngs Moduli (GPa) = 47.25777 63.54709 36.52703
#
# Poissons Ratio (x) = 0.22138 0.52132
# Poissons Ratio (y) = 0.16464 0.25918
# Poissons Ratio (z) = 0.67448 0.45091
#
# Static dielectric constant tensor:
#      x y z
#    x 1.593110 0.000000 0.000000 
#    y 0.000000 1.580010 0.000000 
#    z 0.000000 0.000000 1.584010 
# 
# From -- ./inp_files/8870.got.cif
#   From: 2010.05.17/outbox.cif.g08.bks.cpg/sg62_5_cif.got.tgz:8870.got - 2010.06.03 15:25:27.
