data_PCOD9461488
_publ_section_title
;
Structure prediction by ZEFSAII (Michael W. Deem and Ramdas Pophale) SiO2 
 PCOD9461488
Probable space group: P N M A
;
_chemical_formula_sum "Si O2"
_cell_formula_units_Z 48
_cell_length_a 14.357466
_cell_length_b 14.539860
_cell_length_c 9.968913
_cell_angle_alpha 90.000000
_cell_angle_beta 90.000000
_cell_angle_gamma 90.000000
_cell_volume 2081.065872
_symmetry_space_group_name_H-M "P N M A"
_symmetry_group_IT_number 62
_symmetry_cell_setting 'orthorhombic'
loop_
_space_group_symop_operation_xyz
x,y,z
1/2-x,-y,1/2+z
1/2+x,1/2-y,1/2-z
-x,1/2+y,-z
-x,-y,-z
1/2+x,y,1/2-z
1/2-x,1/2+y,1/2+z
x,1/2-y,z
loop_
_atom_site_type_symbol
_atom_site_label
_atom_site_fract_x
_atom_site_fract_y
_atom_site_fract_z
Si Si1 0.859599 0.357211 0.545834
Si Si2 0.518491 0.443189 0.819285
Si Si3 0.957427 0.650564 0.749410
Si Si4 0.474403 0.896689 0.463563
Si Si5 0.196830 0.049876 0.820670
Si Si6 0.267583 0.352777 0.248760
O O1 0.860821 0.250000 0.576140
O O2 0.962116 0.400507 0.559441
O O3 0.798256 0.410272 0.657855
O O4 0.813275 0.366965 0.398668
O O5 0.492851 0.550262 0.797130
O O6 0.486559 0.384599 0.686086
O O7 0.631257 0.433849 0.810648
O O8 0.982181 0.750000 0.682964
O O9 0.844899 0.644658 0.753933
O O10 0.993295 0.657208 0.902836
O O11 0.363977 0.899085 0.433917
O O12 0.500000 0.000000 0.500000
O O13 0.200433 0.939896 0.836120
O O14 0.294235 0.250000 0.294234
#
# Coordination Sequence:
#
# PCOD9461488 Si02
#       6
#     8   8   8   8   8   8
#     4  11  22  36  57  79 106 144 184 220 267 327
#     4   9  20  35  54  80 110 142 179 219 273 314
#     4  10  17  31  57  83 108 140 180 225 266 317
#     4   8  17  33  52  80 105 138 177 222 265 306
#     4  10  20  35  58  78 109 142 177 226 268 318
#     4  10  20  34  56  83 109 143 181 217 266 328
#
# _framework density 23.065104000000002
#
# number of rings (size 3 to 8) (size 9 to 14) (size 15 to 20)
#    1.000    1.333    3.333    0.000    0.000    2.667 
#    0.000    0.000    0.000    2.000    0.000    0.000 
#    0.000    0.000    0.000    0.000    0.000    0.000 
#
# Total GULP energy -267208.127935 kJ/mol
# GULP energy per Si atom -5566.835999 kJ/mol
# Density = 2.301261 g / cm^3
# Si number density = 23.065104 Si / 1000 Ang^3
#
#
#
# Elastic Constant Matrix: (Units=GPa)
#
#
# Indices 1 2 3 4 5 6 
#
# 1 48.5634 5.5965 2.5732 0.0000 0.0000 0.0000
# 2 5.5965 130.8732 21.6441 0.0000 0.0000 0.0000
# 3 2.5732 21.6441 45.9664 0.0000 0.0000 0.0000
# 4 0.0000 0.0000 0.0000 22.1167 0.0000 0.0000
# 5 0.0000 0.0000 0.0000 0.0000 17.2905 0.0000
# 6 0.0000 0.0000 0.0000 0.0000 0.0000 11.5167
#
#
#
# Elastic Compliance Matrix: (Units=1/GPa)
#
#
# Indices 1 2 3 4 5 6 
#
# 1 0.020721 -0.000753 -0.000805 0.000000 0.000000 0.000000
# 2 -0.000753 0.008314 -0.003872 0.000000 0.000000 0.000000
# 3 -0.000805 -0.003872 0.023624 0.000000 0.000000 0.000000
# 4 0.000000 0.000000 0.000000 0.045215 0.000000 0.000000
# 5 0.000000 0.000000 0.000000 0.000000 0.057835 0.000000
# 6 0.000000 0.000000 0.000000 0.000000 0.000000 0.086830
#
#
# Mechanical properties :
#
#
# Convention : Reuss Voigt Hill
#
# Bulk Modulus (GPa) = 23.92538 31.67006 27.79772
# Shear Modulus (GPa) = 18.70332 23.22407 20.96369
#
# Velocity S-wave (km/s) = 2.85071 3.17660 3.01805
# Velocity P-wave (km/s) = 4.60770 5.21679 4.92168
#
# Compressibility (1/GPa) = 0.04179662
#
# Stress axis : x y z
#
# Youngs Moduli (GPa) = 48.26005 120.28463 42.33071
#
# Poissons Ratio (x) = 0.09056 0.03410
# Poissons Ratio (y) = 0.03633 0.16392
# Poissons Ratio (z) = 0.03887 0.46580
#
# Static dielectric constant tensor:
#      x y z
#    x 1.762430 0.000000 0.000000 
#    y 0.000000 1.831790 0.000000 
#    z 0.000000 0.000000 1.939080 
# 
# From -- ./inp_files/14205.got.cif
#   From: 2010.05.17/outbox.cif.g08.bks.cpg/sg62_8_cif.got.tgz:14205.got - 2010.06.03 15:25:27.
