data_PCOD9462558
_publ_section_title
;
Structure prediction by ZEFSAII (Michael W. Deem and Ramdas Pophale) SiO2 
 PCOD9462558
Probable space group: P N M A
;
_chemical_formula_sum "Si O2"
_cell_formula_units_Z 64
_cell_length_a 17.421217
_cell_length_b 7.621865
_cell_length_c 21.248853
_cell_angle_alpha 90.000000
_cell_angle_beta 90.000000
_cell_angle_gamma 90.000000
_cell_volume 2821.468686
_symmetry_space_group_name_H-M "P N M A"
_symmetry_group_IT_number 62
_symmetry_cell_setting 'orthorhombic'
loop_
_space_group_symop_operation_xyz
x,y,z
1/2-x,-y,1/2+z
1/2+x,1/2-y,1/2-z
-x,1/2+y,-z
-x,-y,-z
1/2+x,y,1/2-z
1/2-x,1/2+y,1/2+z
x,1/2-y,z
loop_
_atom_site_type_symbol
_atom_site_label
_atom_site_fract_x
_atom_site_fract_y
_atom_site_fract_z
Si Si1 0.094635 0.466003 0.308864
Si Si2 0.059206 0.455456 0.168628
Si Si3 0.235327 0.045178 0.381610
Si Si4 0.891608 0.951912 0.161137
Si Si5 0.790346 0.954729 0.888077
Si Si6 0.836755 0.537585 0.296925
Si Si7 0.464758 0.453191 0.100157
Si Si8 0.336487 0.036611 0.013733
O O1 0.092142 0.250000 0.310482
O O2 0.065610 0.524784 0.240364
O O3 0.181036 0.522599 0.325350
O O4 0.038827 0.530390 0.365092
O O5 0.078134 0.250000 0.174597
O O6 0.125336 0.531294 0.123615
O O7 0.972836 0.466977 0.143797
O O8 0.247797 0.250000 0.371590
O O9 0.319560 0.963814 0.385187
O O10 0.186755 0.018616 0.444595
O O11 0.910036 0.750000 0.171985
O O12 0.859867 0.023618 0.227548
O O13 0.797890 0.750000 0.905124
O O14 0.731609 0.028873 0.939864
O O15 0.744781 0.971955 0.822242
O O16 0.837100 0.750000 0.299253
O O17 0.899653 0.464275 0.345461
O O18 0.482233 0.250000 0.086584
O O19 0.418885 0.527681 0.040023
O O20 0.339007 0.250000 0.016761
#
# Coordination Sequence:
#
# PCOD9462558 Si02
#       8
#     8   8   8   8   8   8   8   8
#     4   9  18  33  56  86 114 139 180 230 272 323
#     4  10  19  35  60  86 109 138 181 228 273 330
#     4  11  23  38  57  80 107 147 195 234 269 321
#     4  11  23  37  53  79 115 147 176 222 285 336
#     4   9  19  35  58  83 108 145 187 227 274 327
#     4  10  19  31  51  81 113 143 176 217 271 330
#     4   9  17  33  57  81 110 148 181 220 272 325
#     4   9  19  36  55  78 112 149 186 226 275 327
#
# _framework density 22.683221
#
# number of rings (size 3 to 8) (size 9 to 14) (size 15 to 20)
#    0.000    2.250    1.250    2.625    0.000    5.500 
#    0.000    3.125    0.000    0.000    0.000    0.000 
#    0.000    0.000    0.000    0.000    0.000    0.000 
#
# Total GULP energy -357279.815505 kJ/mol
# GULP energy per Si atom -5582.497117 kJ/mol
# Density = 2.263159 g / cm^3
# Si number density = 22.683221 Si / 1000 Ang^3
#
#
#
# Elastic Constant Matrix: (Units=GPa)
#
#
# Indices 1 2 3 4 5 6 
#
# 1 129.7261 -1.9157 14.1597 0.0000 0.0000 0.0000
# 2 -1.9157 50.5811 -0.1935 0.0000 0.0000 0.0000
# 3 14.1597 -0.1935 41.2914 0.0000 0.0000 0.0000
# 4 0.0000 0.0000 0.0000 16.6700 0.0000 0.0000
# 5 0.0000 0.0000 0.0000 0.0000 28.9215 0.0000
# 6 0.0000 0.0000 0.0000 0.0000 0.0000 181.2491
#
#
#
# Elastic Compliance Matrix: (Units=1/GPa)
#
#
# Indices 1 2 3 4 5 6 
#
# 1 0.008013 0.000293 -0.002746 0.000000 0.000000 0.000000
# 2 0.000293 0.019781 -0.000008 0.000000 0.000000 0.000000
# 3 -0.002746 -0.000008 0.025160 0.000000 0.000000 0.000000
# 4 0.000000 0.000000 0.000000 0.059988 0.000000 0.000000
# 5 0.000000 0.000000 0.000000 0.000000 0.034576 0.000000
# 6 0.000000 0.000000 0.000000 0.000000 0.000000 0.005517
#
#
# Mechanical properties :
#
#
# Convention : Reuss Voigt Hill
#
# Bulk Modulus (GPa) = 20.81964 27.29995 24.05979
# Shear Modulus (GPa) = 28.74084 59.33797 44.03941
#
# Velocity S-wave (km/s) = 3.56343 5.12018 4.41102
# Velocity P-wave (km/s) = 5.11166 6.85685 6.04754
#
# Compressibility (1/GPa) = 0.04803157
#
# Stress axis : x y z
#
# Youngs Moduli (GPa) = 124.80281 50.55277 39.74582
#
# Poissons Ratio (x) = -0.01481 0.10916
# Poissons Ratio (y) = -0.03656 0.00031
# Poissons Ratio (z) = 0.34275 0.00039
#
# Static dielectric constant tensor:
#      x y z
#    x 1.865950 0.000000 0.000000 
#    y 0.000000 1.860310 0.000000 
#    z 0.000000 0.000000 1.852260 
# 
# From -- ./inp_files/27728.got.cif
#   From: 2010.05.17/outbox.cif.g08.bks.cpg/sg62_14_cif.got.tgz:27728.got - 2010.06.03 15:25:27.
