data_PCOD9462554
_publ_section_title
;
Structure prediction by ZEFSAII (Michael W. Deem and Ramdas Pophale) SiO2 
 PCOD9462554
Probable space group: P N M A
;
_chemical_formula_sum "Si O2"
_cell_formula_units_Z 64
_cell_length_a 19.870706
_cell_length_b 8.891162
_cell_length_c 21.037607
_cell_angle_alpha 90.000000
_cell_angle_beta 90.000000
_cell_angle_gamma 90.000000
_cell_volume 3716.791155
_symmetry_space_group_name_H-M "P N M A"
_symmetry_group_IT_number 62
_symmetry_cell_setting 'orthorhombic'
loop_
_space_group_symop_operation_xyz
x,y,z
1/2-x,-y,1/2+z
1/2+x,1/2-y,1/2-z
-x,1/2+y,-z
-x,-y,-z
1/2+x,y,1/2-z
1/2-x,1/2+y,1/2+z
x,1/2-y,z
loop_
_atom_site_type_symbol
_atom_site_label
_atom_site_fract_x
_atom_site_fract_y
_atom_site_fract_z
Si Si1 0.459982 0.569130 0.810098
Si Si2 0.036274 0.568707 0.060705
Si Si3 0.179274 0.429982 0.759482
Si Si4 0.462654 0.931191 0.309285
Si Si5 0.320403 0.570399 0.755182
Si Si6 0.464150 0.069423 0.061183
Si Si7 0.670490 0.430233 0.890212
Si Si8 0.823014 0.431478 0.884672
O O1 0.465018 0.750000 0.806447
O O2 0.498651 0.499829 0.750402
O O3 0.381728 0.528313 0.801384
O O4 0.494126 0.521898 0.875857
O O5 0.033866 0.750000 0.056390
O O6 0.114537 0.524857 0.070812
O O7 0.996790 0.522898 0.124821
O O8 0.000000 0.500000 0.000000
O O9 0.188810 0.250000 0.762459
O O10 0.115566 0.473049 0.801948
O O11 0.248416 0.509707 0.777164
O O12 0.163538 0.465566 0.685262
O O13 0.466898 0.750000 0.304870
O O14 0.318319 0.750000 0.749370
O O15 0.333201 0.500792 0.685307
O O16 0.464779 0.250000 0.057255
O O17 0.388050 0.011714 0.071324
O O18 0.500000 0.000000 0.000000
O O19 0.663123 0.250000 0.897426
O O20 0.747628 0.471977 0.907217
O O21 0.824106 0.250000 0.877557
#
# Coordination Sequence:
#
# PCOD9462554 Si02
#       8
#     8   8   8   8   8   8   8   8
#     4  10  21  35  53  80 110 137 173 224 275 318
#     4  10  21  36  55  80 111 147 184 224 270 319
#     4   9  18  32  52  80 110 140 176 222 270 319
#     4  10  19  34  57  80 105 140 181 221 266 321
#     4  10  19  31  51  80 110 140 174 220 274 322
#     4  11  23  38  55  78 110 145 181 223 271 323
#     4   9  17  32  55  80 105 137 177 220 268 323
#     4   9  18  34  55  78 106 142 181 221 267 320
#
# _framework density 17.219152999999999
#
# number of rings (size 3 to 8) (size 9 to 14) (size 15 to 20)
#    0.000    2.250    2.500    1.500    0.000    4.500 
#    0.000    1.250    0.000    4.500    0.000    0.000 
#    0.000    0.000    0.000    0.000    0.000    0.000 
#
# Total GULP energy -356982.747468 kJ/mol
# GULP energy per Si atom -5577.855429 kJ/mol
# Density = 1.717996 g / cm^3
# Si number density = 17.219153 Si / 1000 Ang^3
#
#
#
# Elastic Constant Matrix: (Units=GPa)
#
#
# Indices 1 2 3 4 5 6 
#
# 1 180.5008 44.4785 85.0922 0.0000 0.0000 0.0000
# 2 44.4785 17.6157 31.6082 0.0000 0.0000 0.0000
# 3 85.0922 31.6082 113.5299 0.0000 0.0000 0.0000
# 4 0.0000 0.0000 0.0000 23.1826 0.0000 0.0000
# 5 0.0000 0.0000 0.0000 0.0000 28.9819 0.0000
# 6 0.0000 0.0000 0.0000 0.0000 0.0000 30.4157
#
#
#
# Elastic Compliance Matrix: (Units=1/GPa)
#
#
# Indices 1 2 3 4 5 6 
#
# 1 0.014770 -0.034829 -0.001374 0.000000 0.000000 0.000000
# 2 -0.034829 0.195567 -0.028343 0.000000 0.000000 0.000000
# 3 -0.001374 -0.028343 0.017729 0.000000 0.000000 0.000000
# 4 0.000000 0.000000 0.000000 0.043136 0.000000 0.000000
# 5 0.000000 0.000000 0.000000 0.000000 0.034504 0.000000
# 6 0.000000 0.000000 0.000000 0.000000 0.000000 0.032878
#
#
# Mechanical properties :
#
#
# Convention : Reuss Voigt Hill
#
# Bulk Modulus (GPa) = 10.10372 70.44490 40.27431
# Shear Modulus (GPa) = 9.98668 26.54721 18.26695
#
# Velocity S-wave (km/s) = 2.41088 3.93074 3.26060
# Velocity P-wave (km/s) = 3.69192 7.84860 6.13314
#
# Compressibility (1/GPa) = 0.09897340
#
# Stress axis : x y z
#
# Youngs Moduli (GPa) = 67.70394 5.11335 56.40520
#
# Poissons Ratio (x) = 0.17809 0.07747
# Poissons Ratio (y) = 2.35808 1.59871
# Poissons Ratio (z) = 0.09299 0.14493
#
# Static dielectric constant tensor:
#      x y z
#    x 1.607420 0.000000 0.000000 
#    y 0.000000 1.573060 0.000000 
#    z 0.000000 0.000000 1.547960 
# 
# From -- ./inp_files/27700.got.cif
#   From: 2010.05.17/outbox.cif.g08.bks.cpg/sg62_14_cif.got.tgz:27700.got - 2010.06.03 15:25:27.
