data_PCOD9462509
_publ_section_title
;
Structure prediction by ZEFSAII (Michael W. Deem and Ramdas Pophale) SiO2 
 PCOD9462509
Probable space group: P N M A
;
_chemical_formula_sum "Si O2"
_cell_formula_units_Z 64
_cell_length_a 14.408119
_cell_length_b 8.997760
_cell_length_c 29.480231
_cell_angle_alpha 90.000000
_cell_angle_beta 90.000000
_cell_angle_gamma 90.000000
_cell_volume 3821.840637
_symmetry_space_group_name_H-M "P N M A"
_symmetry_group_IT_number 62
_symmetry_cell_setting 'orthorhombic'
loop_
_space_group_symop_operation_xyz
x,y,z
1/2-x,-y,1/2+z
1/2+x,1/2-y,1/2-z
-x,1/2+y,-z
-x,-y,-z
1/2+x,y,1/2-z
1/2-x,1/2+y,1/2+z
x,1/2-y,z
loop_
_atom_site_type_symbol
_atom_site_label
_atom_site_fract_x
_atom_site_fract_y
_atom_site_fract_z
Si Si1 0.987019 0.071375 0.928894
Si Si2 0.356662 0.928635 0.993744
Si Si3 0.539455 0.570246 0.324602
Si Si4 0.895159 0.923183 0.342669
Si Si5 0.856877 0.071250 0.011927
Si Si6 0.522176 0.572940 0.927996
Si Si7 0.230323 0.073337 0.202325
Si Si8 0.122208 0.076346 0.757888
O O1 0.995839 0.250000 0.929712
O O2 0.967141 0.027034 0.877353
O O3 0.080163 0.000748 0.949223
O O4 0.904761 0.030467 0.963888
O O5 0.359873 0.750000 0.001292
O O6 0.250402 0.973206 0.986682
O O7 0.422695 0.961561 0.950787
O O8 0.402216 0.008915 0.036786
O O9 0.548498 0.750000 0.321744
O O10 0.629070 0.495594 0.302349
O O11 0.445699 0.528745 0.297759
O O12 0.880613 0.750000 0.353474
O O13 0.931383 0.933037 0.290739
O O14 0.959209 0.998484 0.379753
O O15 0.795833 0.005837 0.337758
O O16 0.861338 0.250000 0.016106
O O17 0.531034 0.750000 0.924503
O O18 0.228564 0.250000 0.200176
O O19 0.285569 0.017633 0.247239
O O20 0.147169 0.250000 0.764088
#
# Coordination Sequence:
#
# PCOD9462509 Si02
#       8
#     8   8   8   8   8   8   8   8
#     4   9  19  33  53  78 100 132 175 220 258 299
#     4   9  19  33  50  72 104 144 178 212 261 319
#     4  10  19  35  57  80 105 136 177 216 258 313
#     4   9  18  34  53  72  99 138 174 209 255 309
#     4   9  18  34  51  71 103 140 174 210 263 314
#     4  10  19  31  49  78 107 135 175 222 262 303
#     4  10  20  33  52  81 108 132 168 213 261 307
#     4   8  18  35  53  73 102 138 171 210 255 307
#
# _framework density 16.745857999999998
#
# number of rings (size 3 to 8) (size 9 to 14) (size 15 to 20)
#    0.750    2.000    0.000    1.500    1.750    2.000 
#    0.000    1.250    0.000    4.500    0.000    0.000 
#    0.000    0.000    0.000    0.000    0.000    0.000 
#
# Total GULP energy -356319.750775 kJ/mol
# GULP energy per Si atom -5567.496106 kJ/mol
# Density = 1.670774 g / cm^3
# Si number density = 16.745858 Si / 1000 Ang^3
#
#
#
# Elastic Constant Matrix: (Units=GPa)
#
#
# Indices 1 2 3 4 5 6 
#
# 1 122.7218 38.4108 41.5887 0.0000 0.0000 0.0000
# 2 38.4108 44.3118 27.8658 0.0000 0.0000 0.0000
# 3 41.5887 27.8658 57.8206 0.0000 0.0000 0.0000
# 4 0.0000 0.0000 0.0000 23.0208 0.0000 0.0000
# 5 0.0000 0.0000 0.0000 0.0000 12.4591 0.0000
# 6 0.0000 0.0000 0.0000 0.0000 0.0000 24.2074
#
#
#
# Elastic Compliance Matrix: (Units=1/GPa)
#
#
# Indices 1 2 3 4 5 6 
#
# 1 0.012212 -0.007264 -0.005283 0.000000 0.000000 0.000000
# 2 -0.007264 0.036701 -0.012463 0.000000 0.000000 0.000000
# 3 -0.005283 -0.012463 0.027102 0.000000 0.000000 0.000000
# 4 0.000000 0.000000 0.000000 0.043439 0.000000 0.000000
# 5 0.000000 0.000000 0.000000 0.000000 0.080263 0.000000
# 6 0.000000 0.000000 0.000000 0.000000 0.000000 0.041310
#
#
# Mechanical properties :
#
#
# Convention : Reuss Voigt Hill
#
# Bulk Modulus (GPa) = 38.46920 48.95385 43.71153
# Shear Modulus (GPa) = 16.68269 19.73671 18.20970
#
# Velocity S-wave (km/s) = 3.15973 3.43680 3.30118
# Velocity P-wave (km/s) = 6.02778 6.71161 6.37886
#
# Compressibility (1/GPa) = 0.02599482
#
# Stress axis : x y z
#
# Youngs Moduli (GPa) = 81.88380 27.24708 36.89822
#
# Poissons Ratio (x) = 0.19791 0.19495
# Poissons Ratio (y) = 0.59477 0.45987
# Poissons Ratio (z) = 0.43263 0.33958
#
# Static dielectric constant tensor:
#      x y z
#    x 1.547380 0.000000 0.000000 
#    y 0.000000 1.560140 0.000000 
#    z 0.000000 0.000000 1.564400 
# 
# From -- ./inp_files/32722.got.cif
#   From: 2010.05.17/outbox.cif.g08.bks.cpg/sg62_17_cif.got.tgz:32722.got - 2010.06.03 15:25:27.
