data_PCOD9462948
_publ_section_title
;
Structure prediction by ZEFSAII (Michael W. Deem and Ramdas Pophale) SiO2 
 PCOD9462948
Probable space group: P N M A
;
_chemical_formula_sum "Si O2"
_cell_formula_units_Z 56
_cell_length_a 18.564881
_cell_length_b 7.633394
_cell_length_c 19.752241
_cell_angle_alpha 90.000000
_cell_angle_beta 90.000000
_cell_angle_gamma 90.000000
_cell_volume 2799.150341
_symmetry_space_group_name_H-M "P N M A"
_symmetry_group_IT_number 62
_symmetry_cell_setting 'orthorhombic'
loop_
_space_group_symop_operation_xyz
x,y,z
1/2-x,-y,1/2+z
1/2+x,1/2-y,1/2-z
-x,1/2+y,-z
-x,-y,-z
1/2+x,y,1/2-z
1/2-x,1/2+y,1/2+z
x,1/2-y,z
loop_
_atom_site_type_symbol
_atom_site_label
_atom_site_fract_x
_atom_site_fract_y
_atom_site_fract_z
Si Si1 0.191479 0.956384 0.112733
Si Si2 0.470735 0.540896 0.574018
Si Si3 0.135523 0.959319 0.249764
Si Si4 0.525569 0.949973 0.711547
Si Si5 0.891654 0.539559 0.604792
Si Si6 0.826779 0.542658 0.465349
Si Si7 0.447711 0.463173 0.143998
O O1 0.207294 0.750000 0.117660
O O2 0.188512 0.021955 0.190363
O O3 0.252493 0.033071 0.064282
O O4 0.110861 0.976235 0.084075
O O5 0.500000 0.500000 0.500000
O O6 0.468565 0.750000 0.582292
O O7 0.520417 0.470977 0.636194
O O8 0.125380 0.750000 0.242151
O O9 0.058518 0.048072 0.234443
O O10 0.152920 0.996598 0.327452
O O11 0.551519 0.750000 0.704805
O O12 0.563234 0.027072 0.778413
O O13 0.896508 0.750000 0.599976
O O14 0.856608 0.469515 0.536118
O O15 0.973731 0.476590 0.617238
O O16 0.815840 0.750000 0.477733
O O17 0.886765 0.520812 0.407597
O O18 0.448716 0.250000 0.146162
#
# Coordination Sequence:
#
# PCOD9462948 Si02
#       7
#     8   8   8   8   8   8   8
#     4   9  19  35  51  70  98 130 165 203 247 297
#     4  10  19  33  55  78 100 128 164 207 251 293
#     4   9  16  28  49  71  90 117 156 202 243 281
#     4   8  16  31  49  70  96 124 155 193 238 290
#     4   9  18  32  49  70  97 130 166 200 239 292
#     4  10  20  33  49  70 100 135 164 198 248 299
#     4   9  17  30  48  71  98 126 162 205 241 284
#
# _framework density 20.006070999999999
#
# number of rings (size 3 to 8) (size 9 to 14) (size 15 to 20)
#    0.000    2.857    0.000    2.143    0.000    4.571 
#    0.000    1.429    0.000    5.143    0.000    0.000 
#    0.000    0.000    0.000    0.000    0.000    0.000 
#
# Total GULP energy -311947.771995 kJ/mol
# GULP energy per Si atom -5570.495928 kJ/mol
# Density = 1.996054 g / cm^3
# Si number density = 20.006071 Si / 1000 Ang^3
#
#
#
# Elastic Constant Matrix: (Units=GPa)
#
#
# Indices 1 2 3 4 5 6 
#
# 1 49.2260 -13.3756 51.6088 0.0000 0.0000 0.0000
# 2 -13.3756 34.2247 -20.7028 0.0000 0.0000 0.0000
# 3 51.6088 -20.7028 191.3747 0.0000 0.0000 0.0000
# 4 0.0000 0.0000 0.0000 17.2589 0.0000 0.0000
# 5 0.0000 0.0000 0.0000 0.0000 18.8286 0.0000
# 6 0.0000 0.0000 0.0000 0.0000 0.0000 9.6160
#
#
#
# Elastic Compliance Matrix: (Units=1/GPa)
#
#
# Indices 1 2 3 4 5 6 
#
# 1 0.029931 0.007292 -0.007283 0.000000 0.000000 0.000000
# 2 0.007292 0.033041 0.001608 0.000000 0.000000 0.000000
# 3 -0.007283 0.001608 0.007363 0.000000 0.000000 0.000000
# 4 0.000000 0.000000 0.000000 0.057941 0.000000 0.000000
# 5 0.000000 0.000000 0.000000 0.000000 0.053111 0.000000
# 6 0.000000 0.000000 0.000000 0.000000 0.000000 0.103993
#
#
# Mechanical properties :
#
#
# Convention : Reuss Voigt Hill
#
# Bulk Modulus (GPa) = 13.59243 34.43178 24.01210
# Shear Modulus (GPa) = 16.30421 26.29371 21.29896
#
# Velocity S-wave (km/s) = 2.85785 3.62924 3.26640
# Velocity P-wave (km/s) = 4.20698 5.89999 5.12389
#
# Compressibility (1/GPa) = 0.07357036
#
# Stress axis : x y z
#
# Youngs Moduli (GPa) = 33.40991 30.26521 135.80921
#
# Poissons Ratio (x) = -0.22070 0.98907
# Poissons Ratio (y) = -0.24363 -0.21836
# Poissons Ratio (z) = 0.24332 -0.04866
#
# Static dielectric constant tensor:
#      x y z
#    x 1.674300 0.000000 0.000000 
#    y 0.000000 1.762920 0.000000 
#    z 0.000000 0.000000 1.770900 
# 
# From -- ./inp_files/24578.got.cif
#   From: 2010.05.17/outbox.cif.g08.bks.cpg/sg62_13_cif.got.tgz:24578.got - 2010.06.03 15:25:27.
