data_PCOD9462770
_publ_section_title
;
Structure prediction by ZEFSAII (Michael W. Deem and Ramdas Pophale) SiO2 
 PCOD9462770
Probable space group: P N M A
;
_chemical_formula_sum "Si O2"
_cell_formula_units_Z 64
_cell_length_a 14.737740
_cell_length_b 14.146279
_cell_length_c 10.909101
_cell_angle_alpha 90.000000
_cell_angle_beta 90.000000
_cell_angle_gamma 90.000000
_cell_volume 2274.374997
_symmetry_space_group_name_H-M "P N M A"
_symmetry_group_IT_number 62
_symmetry_cell_setting 'orthorhombic'
loop_
_space_group_symop_operation_xyz
x,y,z
1/2-x,-y,1/2+z
1/2+x,1/2-y,1/2-z
-x,1/2+y,-z
-x,-y,-z
1/2+x,y,1/2-z
1/2-x,1/2+y,1/2+z
x,1/2-y,z
loop_
_atom_site_type_symbol
_atom_site_label
_atom_site_fract_x
_atom_site_fract_y
_atom_site_fract_z
Si Si1 0.633474 0.365722 0.717975
Si Si2 0.028054 0.860010 0.825294
Si Si3 0.744192 0.861697 0.439967
Si Si4 0.917237 0.116322 0.561157
Si Si5 0.805038 0.359372 0.312123
Si Si6 0.932487 0.356656 0.829832
Si Si7 0.412171 0.607743 0.917317
Si Si8 0.858915 0.634160 0.951387
O O1 0.630881 0.250000 0.728650
O O2 0.691027 0.401570 0.832380
O O3 0.529530 0.401056 0.704523
O O4 0.675910 0.389489 0.586183
O O5 0.047480 0.750000 0.851684
O O6 0.961013 0.861400 0.707069
O O7 0.962324 0.897335 0.930479
O O8 0.123588 0.902967 0.783166
O O9 0.732286 0.750000 0.418238
O O10 0.642004 0.899189 0.422265
O O11 0.807248 0.868079 0.559618
O O12 0.857178 0.142722 0.443883
O O13 0.887243 0.150694 0.694451
O O14 0.020347 0.145775 0.524387
O O15 0.916547 0.004186 0.573276
O O16 0.790604 0.250000 0.276948
O O17 0.708513 0.402076 0.346727
O O18 0.954350 0.250000 0.871803
O O19 0.859399 0.750000 0.944017
#
# Coordination Sequence:
#
# PCOD9462770 Si02
#       8
#     8   8   8   8   8   8   8   8
#     4   9  17  30  51  79 108 136 168 223 278 315
#     4   9  18  33  53  75 103 139 178 221 262 313
#     4  10  19  33  55  82 110 139 181 230 277 328
#     4  10  19  33  54  77 106 142 177 221 267 325
#     4   9  17  31  54  79  98 133 183 220 258 314
#     4  10  19  32  54  83 109 140 179 227 282 327
#     4  10  20  34  52  78 108 142 177 218 273 322
#     4   9  17  32  52  77 105 134 174 219 266 316
#
# _framework density 28.139597999999999
#
# number of rings (size 3 to 8) (size 9 to 14) (size 15 to 20)
#    0.000    2.500    1.250    1.500    0.000    3.000 
#    4.500    0.000    0.000    0.750    0.000    0.000 
#    0.000    0.000    0.000    0.000    0.000    0.000 
#
# Total GULP energy -358294.659062 kJ/mol
# GULP energy per Si atom -5598.354048 kJ/mol
# Density = 2.807555 g / cm^3
# Si number density = 28.139598 Si / 1000 Ang^3
#
#
#
# Elastic Constant Matrix: (Units=GPa)
#
#
# Indices 1 2 3 4 5 6 
#
# 1 172.0169 9.5983 18.1266 0.0000 0.0000 0.0000
# 2 9.5983 106.9615 -1.3751 0.0000 0.0000 0.0000
# 3 18.1266 -1.3751 114.6884 0.0000 0.0000 0.0000
# 4 0.0000 0.0000 0.0000 2.8948 0.0000 0.0000
# 5 0.0000 0.0000 0.0000 0.0000 52.8639 0.0000
# 6 0.0000 0.0000 0.0000 0.0000 0.0000 23.8120
#
#
#
# Elastic Compliance Matrix: (Units=1/GPa)
#
#
# Indices 1 2 3 4 5 6 
#
# 1 0.005944 -0.000546 -0.000946 0.000000 0.000000 0.000000
# 2 -0.000546 0.009401 0.000199 0.000000 0.000000 0.000000
# 3 -0.000946 0.000199 0.008871 0.000000 0.000000 0.000000
# 4 0.000000 0.000000 0.000000 0.345449 0.000000 0.000000
# 5 0.000000 0.000000 0.000000 0.000000 0.018916 0.000000
# 6 0.000000 0.000000 0.000000 0.000000 0.000000 0.041996
#
#
# Mechanical properties :
#
#
# Convention : Reuss Voigt Hill
#
# Bulk Modulus (GPa) = 46.23135 49.59627 47.91381
# Shear Modulus (GPa) = 11.35405 40.40194 25.87799
#
# Velocity S-wave (km/s) = 2.01089 3.79326 3.03583
# Velocity P-wave (km/s) = 4.67509 6.07029 5.41779
#
# Compressibility (1/GPa) = 0.02163034
#
# Stress axis : x y z
#
# Youngs Moduli (GPa) = 168.25102 106.37538 112.72479
#
# Poissons Ratio (x) = 0.05803 0.10663
# Poissons Ratio (y) = 0.09178 -0.02242
# Poissons Ratio (z) = 0.15915 -0.02116
#
# Static dielectric constant tensor:
#      x y z
#    x 2.206700 0.000000 0.000000 
#    y 0.000000 2.125500 0.000000 
#    z 0.000000 0.000000 2.201510 
# 
# From -- ./inp_files/13611.got.cif
#   From: 2010.05.17/outbox.cif.g08.bks.cpg/sg62_7_cif.got.tgz:13611.got - 2010.06.03 15:25:27.
