data_PCOD9462892
_publ_section_title
;
Structure prediction by ZEFSAII (Michael W. Deem and Ramdas Pophale) SiO2 
 PCOD9462892
Probable space group: P N M A
;
_chemical_formula_sum "Si O2"
_cell_formula_units_Z 64
_cell_length_a 9.509187
_cell_length_b 21.788592
_cell_length_c 14.746634
_cell_angle_alpha 90.000000
_cell_angle_beta 90.000000
_cell_angle_gamma 90.000000
_cell_volume 3055.381580
_symmetry_space_group_name_H-M "P N M A"
_symmetry_group_IT_number 62
_symmetry_cell_setting 'orthorhombic'
loop_
_space_group_symop_operation_xyz
x,y,z
1/2-x,-y,1/2+z
1/2+x,1/2-y,1/2-z
-x,1/2+y,-z
-x,-y,-z
1/2+x,y,1/2-z
1/2-x,1/2+y,1/2+z
x,1/2-y,z
loop_
_atom_site_type_symbol
_atom_site_label
_atom_site_fract_x
_atom_site_fract_y
_atom_site_fract_z
Si Si1 0.938754 0.400405 0.207353
Si Si2 0.070939 0.891347 0.326365
Si Si3 0.817149 0.679289 0.235454
Si Si4 0.077527 0.322671 0.048537
Si Si5 0.835791 0.525779 0.677978
Si Si6 0.623687 0.677222 0.878788
Si Si7 0.903648 0.601708 0.512084
Si Si8 0.335079 0.320034 0.570516
O O1 0.824354 0.452193 0.184605
O O2 0.869516 0.354830 0.281064
O O3 0.990797 0.361551 0.121965
O O4 0.070690 0.432633 0.255410
O O5 0.952542 0.861752 0.260535
O O6 0.991509 0.904946 0.420279
O O7 0.203892 0.845754 0.336320
O O8 0.136547 0.955793 0.295420
O O9 0.858641 0.750000 0.218703
O O10 0.721669 0.677493 0.327537
O O11 0.069474 0.250000 0.070074
O O12 0.239683 0.339889 0.061616
O O13 0.998962 0.330913 0.952235
O O14 0.885398 0.542611 0.575755
O O15 0.617137 0.750000 0.869294
O O16 0.486581 0.651453 0.927999
O O17 0.755137 0.630689 0.484459
O O18 0.304167 0.250000 0.539284
#
# Coordination Sequence:
#
# PCOD9462892 Si02
#       8
#     8   8   8   8   8   8   8   8
#     4  11  20  36  54  81 117 159 196 234 282 332
#     4  11  23  41  62  89 115 150 197 239 296 350
#     4  10  22  40  63  87 113 143 187 246 304 352
#     4  10  19  33  53  80 116 153 192 236 284 338
#     4  11  22  37  60  83 119 160 198 238 278 343
#     4  10  21  34  52  84 117 151 192 237 284 336
#     4  10  21  37  59  83 118 154 197 241 286 338
#     4   9  18  34  57  84 111 149 192 238 293 347
#
# _framework density 20.946646000000001
#
# number of rings (size 3 to 8) (size 9 to 14) (size 15 to 20)
#    0.000    1.750    2.500    2.250    0.000    2.500 
#    0.000    1.250    0.000    1.500    0.000    0.000 
#    0.000    0.000    0.000    0.000    0.000    0.000 
#
# Total GULP energy -357384.652317 kJ/mol
# GULP energy per Si atom -5584.135192 kJ/mol
# Density = 2.089897 g / cm^3
# Si number density = 20.946646 Si / 1000 Ang^3
#
#
#
# Elastic Constant Matrix: (Units=GPa)
#
#
# Indices 1 2 3 4 5 6 
#
# 1 61.6509 10.8834 0.3990 0.0000 0.0000 0.0000
# 2 10.8834 43.4030 -11.2090 0.0000 0.0000 0.0000
# 3 0.3990 -11.2090 34.6986 0.0000 0.0000 0.0000
# 4 0.0000 0.0000 0.0000 12.8989 0.0000 0.0000
# 5 0.0000 0.0000 0.0000 0.0000 29.9129 0.0000
# 6 0.0000 0.0000 0.0000 0.0000 0.0000 19.8367
#
#
#
# Elastic Compliance Matrix: (Units=1/GPa)
#
#
# Indices 1 2 3 4 5 6 
#
# 1 0.017065 -0.004724 -0.001722 0.000000 0.000000 0.000000
# 2 -0.004724 0.026445 0.008597 0.000000 0.000000 0.000000
# 3 -0.001722 0.008597 0.031617 0.000000 0.000000 0.000000
# 4 0.000000 0.000000 0.000000 0.077526 0.000000 0.000000
# 5 0.000000 0.000000 0.000000 0.000000 0.033430 0.000000
# 6 0.000000 0.000000 0.000000 0.000000 0.000000 0.050412
#
#
# Mechanical properties :
#
#
# Convention : Reuss Voigt Hill
#
# Bulk Modulus (GPa) = 12.58998 15.54435 14.06716
# Shear Modulus (GPa) = 19.32968 21.84163 20.58566
#
# Velocity S-wave (km/s) = 3.04107 3.23263 3.13831
# Velocity P-wave (km/s) = 4.28420 4.62280 4.45671
#
# Compressibility (1/GPa) = 0.07942827
#
# Stress axis : x y z
#
# Youngs Moduli (GPa) = 58.59792 37.81480 31.62892
#
# Poissons Ratio (x) = 0.17864 0.05447
# Poissons Ratio (y) = 0.27682 -0.27191
# Poissons Ratio (z) = 0.10092 -0.32509
#
# Static dielectric constant tensor:
#      x y z
#    x 1.742970 0.000000 0.000000 
#    y 0.000000 1.710280 0.000000 
#    z 0.000000 0.000000 1.774900 
# 
# From -- ./inp_files/17347.got.cif
#   From: 2010.05.17/outbox.cif.g08.bks.cpg/sg62_9_cif.got.tgz:17347.got - 2010.06.03 15:25:27.
