data_PCOD9462254
_publ_section_title
;
Structure prediction by ZEFSAII (Michael W. Deem and Ramdas Pophale) SiO2 
 PCOD9462254
Probable space group: P N M A
;
_chemical_formula_sum "Si O2"
_cell_formula_units_Z 48
_cell_length_a 16.764742
_cell_length_b 11.140808
_cell_length_c 10.784745
_cell_angle_alpha 90.000000
_cell_angle_beta 90.000000
_cell_angle_gamma 90.000000
_cell_volume 2014.296717
_symmetry_space_group_name_H-M "P N M A"
_symmetry_group_IT_number 62
_symmetry_cell_setting 'orthorhombic'
loop_
_space_group_symop_operation_xyz
x,y,z
1/2-x,-y,1/2+z
1/2+x,1/2-y,1/2-z
-x,1/2+y,-z
-x,-y,-z
1/2+x,y,1/2-z
1/2-x,1/2+y,1/2+z
x,1/2-y,z
loop_
_atom_site_type_symbol
_atom_site_label
_atom_site_fract_x
_atom_site_fract_y
_atom_site_fract_z
Si Si1 0.089788 0.107835 0.245927
Si Si2 0.173513 0.481697 0.497570
Si Si3 0.380079 0.750000 0.442554
Si Si4 0.804136 0.250000 0.517521
Si Si5 0.530608 0.464976 0.862817
Si Si6 0.562033 0.750000 0.515765
Si Si7 0.580468 0.750000 0.228916
Si Si8 0.860804 0.495549 0.019745
O O1 0.104233 0.250000 0.241276
O O2 0.111432 0.041850 0.117002
O O3 0.141797 0.056193 0.361469
O O4 0.998387 0.078058 0.282125
O O5 0.162605 0.623905 0.528525
O O6 0.120187 0.423286 0.605541
O O7 0.267830 0.464314 0.493330
O O8 0.290802 0.750000 0.501816
O O9 0.466433 0.750000 0.508195
O O10 0.377555 0.887901 0.392346
O O11 0.834730 0.250000 0.659880
O O12 0.474441 0.360866 0.810801
O O13 0.500000 0.500000 0.000000
O O14 0.591846 0.750000 0.373701
O O15 0.594614 0.623517 0.562655
#
# Coordination Sequence:
#
# PCOD9462254 Si02
#       8
#     8   8   4   4   8   4   4   8
#     4  11  22  39  64  89 129 167 206 261 323 374
#     4  10  23  37  64  94 122 163 209 262 317 374
#     4  10  24  44  66  89 123 176 205 260 311 378
#     4  10  18  40  64  83 123 156 206 253 327 352
#     4  10  21  35  60  89 123 156 201 259 318 376
#     4  12  24  43  63  89 127 168 222 248 303 379
#     4  12  20  39  57  89 121 162 201 257 317 363
#     4  11  23  45  66  91 129 168 211 262 313 370
#
# _framework density 23.829654999999999
#
# number of rings (size 3 to 8) (size 9 to 14) (size 15 to 20)
#    0.000    1.333    5.833    0.500    7.000    0.000 
#    9.000    0.000    0.000    0.000    0.000    0.000 
#    0.000    0.000    0.000    0.000    0.000    0.000 
#
# Total GULP energy -267665.928273 kJ/mol
# GULP energy per Si atom -5576.373506 kJ/mol
# Density = 2.377542 g / cm^3
# Si number density = 23.829655 Si / 1000 Ang^3
#
#
#
# Elastic Constant Matrix: (Units=GPa)
#
#
# Indices 1 2 3 4 5 6 
#
# 1 155.3643 37.4431 32.2387 0.0000 0.0000 0.0000
# 2 37.4431 160.8049 14.4565 0.0000 0.0000 0.0000
# 3 32.2387 14.4565 101.6018 0.0000 0.0000 0.0000
# 4 0.0000 0.0000 0.0000 239.5534 0.0000 0.0000
# 5 0.0000 0.0000 0.0000 0.0000 29.1976 0.0000
# 6 0.0000 0.0000 0.0000 0.0000 0.0000 -28.4371
#
#
#
# Elastic Compliance Matrix: (Units=1/GPa)
#
#
# Indices 1 2 3 4 5 6 
#
# 1 0.007229 -0.001496 -0.002081 0.000000 0.000000 0.000000
# 2 -0.001496 0.006609 -0.000466 0.000000 0.000000 0.000000
# 3 -0.002081 -0.000466 0.010569 0.000000 0.000000 0.000000
# 4 0.000000 0.000000 0.000000 0.004174 0.000000 0.000000
# 5 0.000000 0.000000 0.000000 0.000000 0.034249 0.000000
# 6 0.000000 0.000000 0.000000 0.000000 0.000000 -0.035165
#
#
# Mechanical properties :
#
#
# Convention : Reuss Voigt Hill
#
# Bulk Modulus (GPa) = 61.26932 65.11640 63.19286
# Shear Modulus (GPa) = 121.38589 70.30495 95.84542
#
# Velocity S-wave (km/s) = 7.14490 5.43757 6.34889
# Velocity P-wave (km/s) = 9.68676 8.17362 8.96218
#
# Compressibility (1/GPa) = 0.01632138
#
# Stress axis : x y z
#
# Youngs Moduli (GPa) = 138.33466 151.30991 94.61750
#
# Poissons Ratio (x) = 0.22638 0.19689
# Poissons Ratio (y) = 0.20697 0.04406
# Poissons Ratio (z) = 0.28786 0.07045
#
# Static dielectric constant tensor:
#      x y z
#    x 1.976010 0.000000 0.000000 
#    y 0.000000 2.008210 0.000000 
#    z 0.000000 0.000000 1.925580 
# 
# From -- ./inp_files/14164.got.cif
#   From: 2010.05.17/outbox.cif.g08.bks.cpg/sg62_8_cif.got.tgz:14164.got - 2010.06.03 15:25:27.
