data_PCOD9462645
_publ_section_title
;
Structure prediction by ZEFSAII (Michael W. Deem and Ramdas Pophale) SiO2 
 PCOD9462645
Probable space group: P N M A
;
_chemical_formula_sum "Si O2"
_cell_formula_units_Z 56
_cell_length_a 17.922674
_cell_length_b 7.365988
_cell_length_c 19.252078
_cell_angle_alpha 90.000000
_cell_angle_beta 90.000000
_cell_angle_gamma 90.000000
_cell_volume 2541.624715
_symmetry_space_group_name_H-M "P N M A"
_symmetry_group_IT_number 62
_symmetry_cell_setting 'orthorhombic'
loop_
_space_group_symop_operation_xyz
x,y,z
1/2-x,-y,1/2+z
1/2+x,1/2-y,1/2-z
-x,1/2+y,-z
-x,-y,-z
1/2+x,y,1/2-z
1/2-x,1/2+y,1/2+z
x,1/2-y,z
loop_
_atom_site_type_symbol
_atom_site_label
_atom_site_fract_x
_atom_site_fract_y
_atom_site_fract_z
Si Si1 0.821371 0.471784 0.625925
Si Si2 0.039114 0.471766 0.850614
Si Si3 0.735787 0.971679 0.278177
Si Si4 0.015185 0.966827 0.419199
Si Si5 0.877200 0.033018 0.896587
Si Si6 0.593744 0.471263 0.799485
Si Si7 0.174092 0.465841 0.947281
O O1 0.823652 0.250000 0.625293
O O2 0.795763 0.525826 0.703123
O O3 0.903434 0.534976 0.604326
O O4 0.756014 0.532493 0.573699
O O5 0.039440 0.250000 0.852480
O O6 0.049945 0.523546 0.770516
O O7 0.109407 0.534934 0.896051
O O8 0.960834 0.534255 0.882334
O O9 0.736829 0.750000 0.277978
O O10 0.680824 0.033447 0.338991
O O11 0.820594 0.030564 0.291920
O O12 0.016917 0.750000 0.409985
O O13 0.949980 0.033825 0.367902
O O14 0.000000 0.000000 0.500000
O O15 0.880402 0.250000 0.888420
O O16 0.848784 0.996829 0.973746
O O17 0.595495 0.250000 0.800781
O O18 0.176335 0.250000 0.936018
#
# Coordination Sequence:
#
# PCOD9462645 Si02
#       7
#     8   8   8   8   8   8   8
#     4   9  17  32  51  72  98 131 171 206 241 289
#     4   9  16  30  50  73  98 127 164 204 243 286
#     4   9  16  29  50  75  98 125 166 212 246 279
#     4  10  21  34  52  77 104 134 167 207 253 299
#     4  10  20  30  48  77 103 123 155 206 253 287
#     4   9  16  29  50  74  97 125 167 210 245 284
#     4  10  19  32  51  72  99 134 163 194 241 299
#
# _framework density 22.033149999999999
#
# number of rings (size 3 to 8) (size 9 to 14) (size 15 to 20)
#    0.000    2.571    1.429    1.286    2.000    3.429 
#    0.000    0.000    0.000    5.143    0.000    0.000 
#    0.000    0.000    0.000    0.000    0.000    0.000 
#
# Total GULP energy -312963.048574 kJ/mol
# GULP energy per Si atom -5588.625867 kJ/mol
# Density = 2.198300 g / cm^3
# Si number density = 22.033150 Si / 1000 Ang^3
#
#
#
# Elastic Constant Matrix: (Units=GPa)
#
#
# Indices 1 2 3 4 5 6 
#
# 1 194.9365 5.3644 129.6804 0.0000 0.0000 0.0000
# 2 5.3644 77.8847 0.7417 0.0000 0.0000 0.0000
# 3 129.6804 0.7417 144.5347 0.0000 0.0000 0.0000
# 4 0.0000 0.0000 0.0000 17.6582 0.0000 0.0000
# 5 0.0000 0.0000 0.0000 0.0000 19.9693 0.0000
# 6 0.0000 0.0000 0.0000 0.0000 0.0000 -2.3342
#
#
#
# Elastic Compliance Matrix: (Units=1/GPa)
#
#
# Indices 1 2 3 4 5 6 
#
# 1 0.012771 -0.000771 -0.011455 0.000000 0.000000 0.000000
# 2 -0.000771 0.012887 0.000625 0.000000 0.000000 0.000000
# 3 -0.011455 0.000625 0.017193 0.000000 0.000000 0.000000
# 4 0.000000 0.000000 0.000000 0.056631 0.000000 0.000000
# 5 0.000000 0.000000 0.000000 0.000000 0.050077 0.000000
# 6 0.000000 0.000000 0.000000 0.000000 0.000000 -0.428419
#
#
# Mechanical properties :
#
#
# Convention : Reuss Voigt Hill
#
# Bulk Modulus (GPa) = 50.88859 76.54764 63.71811
# Shear Modulus (GPa) = -20.07153 25.82995 2.87921
#
# Velocity S-wave (km/s) = -3.02150 3.42763 1.14438
# Velocity P-wave (km/s) = 3.31268 7.10509 5.54329
#
# Compressibility (1/GPa) = 0.01965077
#
# Stress axis : x y z
#
# Youngs Moduli (GPa) = 78.30035 77.59990 58.16280
#
# Poissons Ratio (x) = 0.05979 0.66624
# Poissons Ratio (y) = 0.06033 -0.03636
# Poissons Ratio (z) = 0.89692 -0.04852
#
# Static dielectric constant tensor:
#      x y z
#    x 1.778710 0.000000 0.000000 
#    y 0.000000 1.885970 0.000000 
#    z 0.000000 0.000000 1.748930 
# 
# From -- ./inp_files/24415.got.cif
#   From: 2010.05.17/outbox.cif.g08.bks.cpg/sg62_13_cif.got.tgz:24415.got - 2010.06.03 15:25:27.
