data_PCOD9462320
_publ_section_title
;
Structure prediction by ZEFSAII (Michael W. Deem and Ramdas Pophale) SiO2 
 PCOD9462320
Probable space group: P N M A
;
_chemical_formula_sum "Si O2"
_cell_formula_units_Z 64
_cell_length_a 12.419313
_cell_length_b 23.032121
_cell_length_c 11.088710
_cell_angle_alpha 90.000000
_cell_angle_beta 90.000000
_cell_angle_gamma 90.000000
_cell_volume 3171.849202
_symmetry_space_group_name_H-M "P N M A"
_symmetry_group_IT_number 62
_symmetry_cell_setting 'orthorhombic'
loop_
_space_group_symop_operation_xyz
x,y,z
1/2-x,-y,1/2+z
1/2+x,1/2-y,1/2-z
-x,1/2+y,-z
-x,-y,-z
1/2+x,y,1/2-z
1/2-x,1/2+y,1/2+z
x,1/2-y,z
loop_
_atom_site_type_symbol
_atom_site_label
_atom_site_fract_x
_atom_site_fract_y
_atom_site_fract_z
Si Si1 0.523620 0.185151 0.895091
Si Si2 0.874716 0.637142 0.846732
Si Si3 0.840536 0.508944 0.483341
Si Si4 0.095351 0.683060 0.866844
Si Si5 0.659894 0.816308 0.903631
Si Si6 0.188198 0.136528 0.424294
Si Si7 0.520527 0.941807 0.172199
Si Si8 0.405220 0.506862 0.597020
O O1 0.524279 0.250000 0.839994
O O2 0.508781 0.126229 0.819703
O O3 0.425508 0.182264 0.990382
O O4 0.629967 0.175141 0.975645
O O5 0.763907 0.644141 0.918870
O O6 0.846500 0.655856 0.709868
O O7 0.911594 0.571059 0.847398
O O8 0.972470 0.673322 0.901081
O O9 0.846833 0.570126 0.555381
O O10 0.897663 0.459096 0.562942
O O11 0.715601 0.499042 0.454821
O O12 0.912953 0.521641 0.364338
O O13 0.126475 0.750000 0.883811
O O14 0.103497 0.669062 0.723607
O O15 0.183392 0.643345 0.931197
O O16 0.699804 0.750000 0.892305
O O17 0.573157 0.962349 0.295380
O O18 0.500000 0.500000 0.500000
#
# Coordination Sequence:
#
# PCOD9462320 Si02
#       8
#     8   8   8   8   8   8   8   8
#     4  10  19  36  61  87 115 157 210 253 299 375
#     4  11  20  33  53  81 122 157 195 246 309 367
#     4  10  22  42  63  89 127 162 206 266 314 382
#     4  10  19  29  49  81 123 158 192 246 300 359
#     4   9  18  30  50  81 113 152 197 241 296 357
#     4  10  19  34  56  84 117 160 203 249 308 364
#     4  10  23  41  65  92 125 166 206 257 327 369
#     4  12  26  39  63  93 124 163 210 258 313 373
#
# _framework density 20.177503999999999
#
# number of rings (size 3 to 8) (size 9 to 14) (size 15 to 20)
#    0.000    1.750    2.500    2.250    1.750    3.000 
#    0.000    0.000    0.000    6.750    0.000    0.000 
#    0.000    0.000    0.000    0.000    0.000    0.000 
#
# Total GULP energy -357240.625610 kJ/mol
# GULP energy per Si atom -5581.884775 kJ/mol
# Density = 2.013158 g / cm^3
# Si number density = 20.177504 Si / 1000 Ang^3
#
#
#
# Elastic Constant Matrix: (Units=GPa)
#
#
# Indices 1 2 3 4 5 6 
#
# 1 110.4168 -0.9145 16.0835 0.0000 0.0000 0.0000
# 2 -0.9145 76.9912 8.5571 0.0000 0.0000 0.0000
# 3 16.0835 8.5571 28.3459 0.0000 0.0000 0.0000
# 4 0.0000 0.0000 0.0000 12.8345 0.0000 0.0000
# 5 0.0000 0.0000 0.0000 0.0000 12.2306 0.0000
# 6 0.0000 0.0000 0.0000 0.0000 0.0000 32.0203
#
#
#
# Elastic Compliance Matrix: (Units=1/GPa)
#
#
# Indices 1 2 3 4 5 6 
#
# 1 0.009916 0.000769 -0.005859 0.000000 0.000000 0.000000
# 2 0.000769 0.013499 -0.004511 0.000000 0.000000 0.000000
# 3 -0.005859 -0.004511 0.039965 0.000000 0.000000 0.000000
# 4 0.000000 0.000000 0.000000 0.077915 0.000000 0.000000
# 5 0.000000 0.000000 0.000000 0.000000 0.081762 0.000000
# 6 0.000000 0.000000 0.000000 0.000000 0.000000 0.031230
#
#
# Mechanical properties :
#
#
# Convention : Reuss Voigt Hill
#
# Bulk Modulus (GPa) = 22.63584 29.24512 25.94048
# Shear Modulus (GPa) = 17.34814 24.21894 20.78354
#
# Velocity S-wave (km/s) = 2.93538 3.46828 3.21290
# Velocity P-wave (km/s) = 4.76773 5.52848 5.16214
#
# Compressibility (1/GPa) = 0.04417772
#
# Stress axis : x y z
#
# Youngs Moduli (GPa) = 100.84352 74.07927 25.02212
#
# Poissons Ratio (x) = -0.05696 0.14660
# Poissons Ratio (y) = -0.07754 0.11289
# Poissons Ratio (z) = 0.59081 0.33420
#
# Static dielectric constant tensor:
#      x y z
#    x 1.727850 0.000000 0.000000 
#    y 0.000000 1.755540 0.000000 
#    z 0.000000 0.000000 1.696860 
# 
# From -- ./inp_files/12563.got.cif
#   From: 2010.05.17/outbox.cif.g08.bks.cpg/sg62_7_cif.got.tgz:12563.got - 2010.06.03 15:25:27.
