data_PCOD9462846
_publ_section_title
;
Structure prediction by ZEFSAII (Michael W. Deem and Ramdas Pophale) SiO2 
 PCOD9462846
Probable space group: P N M A
;
_chemical_formula_sum "Si O2"
_cell_formula_units_Z 48
_cell_length_a 15.324596
_cell_length_b 7.642363
_cell_length_c 19.842470
_cell_angle_alpha 90.000000
_cell_angle_beta 90.000000
_cell_angle_gamma 90.000000
_cell_volume 2323.873206
_symmetry_space_group_name_H-M "P N M A"
_symmetry_group_IT_number 62
_symmetry_cell_setting 'orthorhombic'
loop_
_space_group_symop_operation_xyz
x,y,z
1/2-x,-y,1/2+z
1/2+x,1/2-y,1/2-z
-x,1/2+y,-z
-x,-y,-z
1/2+x,y,1/2-z
1/2-x,1/2+y,1/2+z
x,1/2-y,z
loop_
_atom_site_type_symbol
_atom_site_label
_atom_site_fract_x
_atom_site_fract_y
_atom_site_fract_z
Si Si1 0.347831 0.538443 0.929773
Si Si2 0.637739 0.951529 0.422361
Si Si3 0.999943 0.964973 0.669800
Si Si4 0.148022 0.535363 0.926832
Si Si5 0.993400 0.452707 0.178305
Si Si6 0.163129 0.955465 0.582621
O O1 0.348456 0.750000 0.930238
O O2 0.417993 0.477536 0.875362
O O3 0.248309 0.483395 0.914762
O O4 0.368665 0.480107 0.005776
O O5 0.610219 0.750000 0.421862
O O6 0.621870 0.023617 0.497796
O O7 0.582250 0.040936 0.364331
O O8 0.741635 0.960301 0.411327
O O9 0.997943 0.750000 0.668864
O O10 0.996408 0.026551 0.746871
O O11 0.089371 0.020107 0.633526
O O12 0.146026 0.750000 0.928690
O O13 0.082128 0.472168 0.869724
O O14 0.968956 0.250000 0.188354
O O15 0.175847 0.750000 0.594818
#
# Coordination Sequence:
#
# PCOD9462846 Si02
#       6
#     8   8   8   8   8   8
#     4   9  17  33  53  75 102 134 168 210 258 304
#     4  10  20  35  52  74 102 135 171 213 259 302
#     4   9  19  32  51  78 106 133 167 208 255 304
#     4   8  16  30  51  73  97 129 166 204 249 298
#     4  10  19  33  52  76 102 133 169 208 252 307
#     4  10  19  33  53  78 102 132 173 215 252 299
#
# _framework density 20.655172
#
# number of rings (size 3 to 8) (size 9 to 14) (size 15 to 20)
#    0.000    2.667    0.000    3.000    0.000    1.333 
#    0.000   11.667    0.000    0.000    0.000    0.000 
#    0.000    0.000    0.000    0.000    0.000    0.000 
#
# Total GULP energy -267940.070563 kJ/mol
# GULP energy per Si atom -5582.084803 kJ/mol
# Density = 2.060816 g / cm^3
# Si number density = 20.655172 Si / 1000 Ang^3
#
#
#
# Elastic Constant Matrix: (Units=GPa)
#
#
# Indices 1 2 3 4 5 6 
#
# 1 89.0621 -7.7537 90.5906 0.0000 0.0000 0.0000
# 2 -7.7537 39.4529 -6.1877 0.0000 0.0000 0.0000
# 3 90.5906 -6.1877 166.0978 0.0000 0.0000 0.0000
# 4 0.0000 0.0000 0.0000 25.5018 0.0000 0.0000
# 5 0.0000 0.0000 0.0000 0.0000 -10.7509 0.0000
# 6 0.0000 0.0000 0.0000 0.0000 0.0000 12.7487
#
#
#
# Elastic Compliance Matrix: (Units=1/GPa)
#
#
# Indices 1 2 3 4 5 6 
#
# 1 0.025533 0.002851 -0.013820 0.000000 0.000000 0.000000
# 2 0.002851 0.025814 -0.000593 0.000000 0.000000 0.000000
# 3 -0.013820 -0.000593 0.013536 0.000000 0.000000 0.000000
# 4 0.000000 0.000000 0.000000 0.039213 0.000000 0.000000
# 5 0.000000 0.000000 0.000000 0.000000 -0.093015 0.000000
# 6 0.000000 0.000000 0.000000 0.000000 0.000000 0.078439
#
#
# Mechanical properties :
#
#
# Convention : Reuss Voigt Hill
#
# Bulk Modulus (GPa) = 23.94725 49.76792 36.85759
# Shear Modulus (GPa) = 39.50579 20.03083 29.76831
#
# Velocity S-wave (km/s) = 4.37811 3.11750 3.80044
# Velocity P-wave (km/s) = 6.09722 6.09142 6.09432
#
# Compressibility (1/GPa) = 0.04175845
#
# Stress axis : x y z
#
# Youngs Moduli (GPa) = 39.16464 38.73885 73.87799
#
# Poissons Ratio (x) = -0.11043 1.02098
# Poissons Ratio (y) = -0.11164 0.04382
# Poissons Ratio (z) = 0.54125 0.02298
#
# Static dielectric constant tensor:
#      x y z
#    x 1.712420 0.000000 0.000000 
#    y 0.000000 1.770700 0.000000 
#    z 0.000000 0.000000 1.715320 
# 
# From -- ./inp_files/23701.got.cif
#   From: 2010.05.17/outbox.cif.g08.bks.cpg/sg62_12_cif.got.tgz:23701.got - 2010.06.03 15:25:27.
