data_PCOD9462310
_publ_section_title
;
Structure prediction by ZEFSAII (Michael W. Deem and Ramdas Pophale) SiO2 
 PCOD9462310
Probable space group: P N M A
;
_chemical_formula_sum "Si O2"
_cell_formula_units_Z 48
_cell_length_a 8.365574
_cell_length_b 18.081538
_cell_length_c 14.492661
_cell_angle_alpha 90.000000
_cell_angle_beta 90.000000
_cell_angle_gamma 90.000000
_cell_volume 2192.195325
_symmetry_space_group_name_H-M "P N M A"
_symmetry_group_IT_number 62
_symmetry_cell_setting 'orthorhombic'
loop_
_space_group_symop_operation_xyz
x,y,z
1/2-x,-y,1/2+z
1/2+x,1/2-y,1/2-z
-x,1/2+y,-z
-x,-y,-z
1/2+x,y,1/2-z
1/2-x,1/2+y,1/2+z
x,1/2-y,z
loop_
_atom_site_type_symbol
_atom_site_label
_atom_site_fract_x
_atom_site_fract_y
_atom_site_fract_z
Si Si1 0.604269 0.664532 0.379404
Si Si2 0.803999 0.602593 0.227591
Si Si3 0.562783 0.078923 0.465277
Si Si4 0.382355 0.072357 0.287831
Si Si5 0.404094 0.415489 0.937396
Si Si6 0.060472 0.411619 0.389393
O O1 0.643876 0.750000 0.379628
O O2 0.747669 0.620240 0.330419
O O3 0.449563 0.648174 0.314948
O O4 0.546485 0.636659 0.478887
O O5 0.848331 0.515814 0.220615
O O6 0.655630 0.619250 0.158065
O O7 0.532558 0.082011 0.356668
O O8 0.743483 0.083475 0.499775
O O9 0.500000 0.000000 0.500000
O O10 0.428428 0.104300 0.188669
O O11 0.229948 0.104215 0.341943
O O12 0.446599 0.499537 0.908513
O O13 0.530336 0.380193 0.008310
#
# Coordination Sequence:
#
# PCOD9462310 Si02
#       6
#     8   8   8   8   8   8
#     4  11  23  37  55  80 117 155 188 226 284 348
#     4  10  20  33  53  78 112 148 185 219 276 337
#     4  11  20  36  53  80 110 147 191 238 281 330
#     4  11  20  31  52  80 110 146 180 243 279 337
#     4   9  19  30  48  74 111 143 177 225 275 337
#     4  10  19  29  46  77 113 138 173 222 295 321
#
# _framework density 21.895859000000002
#
# number of rings (size 3 to 8) (size 9 to 14) (size 15 to 20)
#    0.000    1.667    5.000    3.500    2.333    1.333 
#    0.000    0.000    0.000    0.000    0.000   11.667 
#    0.000    0.000    0.000    0.000    0.000    0.000 
#
# Total GULP energy -268017.616724 kJ/mol
# GULP energy per Si atom -5583.700348 kJ/mol
# Density = 2.184602 g / cm^3
# Si number density = 21.895859 Si / 1000 Ang^3
#
#
#
# Elastic Constant Matrix: (Units=GPa)
#
#
# Indices 1 2 3 4 5 6 
#
# 1 57.0304 2.6133 35.3254 0.0000 0.0000 0.0000
# 2 2.6133 22.7553 -1.2461 0.0000 0.0000 0.0000
# 3 35.3254 -1.2461 135.7275 0.0000 0.0000 0.0000
# 4 0.0000 0.0000 0.0000 7.4983 0.0000 0.0000
# 5 0.0000 0.0000 0.0000 0.0000 39.5634 0.0000
# 6 0.0000 0.0000 0.0000 0.0000 0.0000 7.5469
#
#
#
# Elastic Compliance Matrix: (Units=1/GPa)
#
#
# Indices 1 2 3 4 5 6 
#
# 1 0.021072 -0.002722 -0.005509 0.000000 0.000000 0.000000
# 2 -0.002722 0.044319 0.001115 0.000000 0.000000 0.000000
# 3 -0.005509 0.001115 0.008812 0.000000 0.000000 0.000000
# 4 0.000000 0.000000 0.000000 0.133364 0.000000 0.000000
# 5 0.000000 0.000000 0.000000 0.000000 0.025276 0.000000
# 6 0.000000 0.000000 0.000000 0.000000 0.000000 0.132506
#
#
# Mechanical properties :
#
#
# Convention : Reuss Voigt Hill
#
# Bulk Modulus (GPa) = 16.67457 32.09983 24.38720
# Shear Modulus (GPa) = 12.51346 22.84308 17.67827
#
# Velocity S-wave (km/s) = 2.39320 3.23346 2.84453
# Velocity P-wave (km/s) = 3.90749 5.35092 4.68513
#
# Compressibility (1/GPa) = 0.05997157
#
# Stress axis : x y z
#
# Youngs Moduli (GPa) = 47.45696 22.56349 113.48395
#
# Poissons Ratio (x) = 0.06141 0.62521
# Poissons Ratio (y) = 0.12916 -0.12656
# Poissons Ratio (z) = 0.26145 -0.02516
#
# Static dielectric constant tensor:
#      x y z
#    x 1.908040 0.000000 0.000000 
#    y 0.000000 1.745440 0.000000 
#    z 0.000000 0.000000 1.912490 
# 
# From -- ./inp_files/17083.got.cif
#   From: 2010.05.17/outbox.cif.g08.bks.cpg/sg62_9_cif.got.tgz:17083.got - 2010.06.03 15:25:27.
