data_PCOD9462196
_publ_section_title
;
Structure prediction by ZEFSAII (Michael W. Deem and Ramdas Pophale) SiO2 
 PCOD9462196
Probable space group: P N M A
;
_chemical_formula_sum "Si O2"
_cell_formula_units_Z 64
_cell_length_a 9.620978
_cell_length_b 24.955095
_cell_length_c 17.340094
_cell_angle_alpha 90.000000
_cell_angle_beta 90.000000
_cell_angle_gamma 90.000000
_cell_volume 4163.225131
_symmetry_space_group_name_H-M "P N M A"
_symmetry_group_IT_number 62
_symmetry_cell_setting 'orthorhombic'
loop_
_space_group_symop_operation_xyz
x,y,z
1/2-x,-y,1/2+z
1/2+x,1/2-y,1/2-z
-x,1/2+y,-z
-x,-y,-z
1/2+x,y,1/2-z
1/2-x,1/2+y,1/2+z
x,1/2-y,z
loop_
_atom_site_type_symbol
_atom_site_label
_atom_site_fract_x
_atom_site_fract_y
_atom_site_fract_z
Si Si1 0.333107 0.945197 0.957646
Si Si2 0.711810 0.494777 0.340450
Si Si3 0.609765 0.592593 0.444522
Si Si4 0.688057 0.057524 0.497912
Si Si5 0.560995 0.906257 0.078474
Si Si6 0.461628 0.505332 0.813387
Si Si7 0.385308 0.312519 0.668771
Si Si8 0.056974 0.187330 0.677621
O O1 0.398495 0.951009 0.873224
O O2 0.254258 0.001468 0.972561
O O3 0.215501 0.902964 0.983279
O O4 0.457883 0.935486 0.017913
O O5 0.680590 0.551552 0.383095
O O6 0.690085 0.449687 0.406025
O O7 0.607674 0.489002 0.269473
O O8 0.871384 0.492513 0.313121
O O9 0.465957 0.566707 0.471814
O O10 0.583855 0.648015 0.401450
O O11 0.793484 0.100503 0.534263
O O12 0.495912 0.852048 0.110990
O O13 0.576248 0.947373 0.149852
O O14 0.409524 0.250000 0.650251
O O15 0.477246 0.326189 0.743327
O O16 0.222047 0.319104 0.687962
O O17 0.029329 0.250000 0.660375
#
# Coordination Sequence:
#
# PCOD9462196 Si02
#       8
#     8   8   8   8   8   8   8   8
#     4  10  18  36  49  65  97 132 167 205 243 288
#     4  11  21  32  45  72 100 128 167 198 240 295
#     4  11  21  33  51  71  97 136 172 204 241 294
#     4  10  21  33  49  70  97 129 170 208 243 291
#     4  11  18  35  52  66  96 137 169 200 245 292
#     4  11  21  30  48  69  99 132 162 201 243 293
#     4  10  21  36  51  73 103 132 169 210 246 286
#     4  10  21  35  52  74 101 133 170 211 248 287
#
# _framework density 15.372698
#
# number of rings (size 3 to 8) (size 9 to 14) (size 15 to 20)
#    0.000    1.500    5.000    3.000    7.000    0.000 
#    0.000    0.000    0.000    0.000    0.000    0.000 
#    0.000    6.000    0.000    0.000    0.000    0.000 
#
# Total GULP energy -356855.499361 kJ/mol
# GULP energy per Si atom -5575.867178 kJ/mol
# Density = 1.533771 g / cm^3
# Si number density = 15.372698 Si / 1000 Ang^3
#
#
#
# Elastic Constant Matrix: (Units=GPa)
#
#
# Indices 1 2 3 4 5 6 
#
# 1 106.6043 18.4014 51.1813 0.0000 0.0000 0.0000
# 2 18.4014 41.4450 25.0080 0.0000 0.0000 0.0000
# 3 51.1813 25.0080 74.4456 0.0000 0.0000 0.0000
# 4 0.0000 0.0000 0.0000 22.9494 0.0000 0.0000
# 5 0.0000 0.0000 0.0000 0.0000 37.7156 0.0000
# 6 0.0000 0.0000 0.0000 0.0000 0.0000 17.4724
#
#
#
# Elastic Compliance Matrix: (Units=1/GPa)
#
#
# Indices 1 2 3 4 5 6 
#
# 1 0.014011 -0.000512 -0.009460 0.000000 0.000000 0.000000
# 2 -0.000512 0.030281 -0.009820 0.000000 0.000000 0.000000
# 3 -0.009460 -0.009820 0.023235 0.000000 0.000000 0.000000
# 4 0.000000 0.000000 0.000000 0.043574 0.000000 0.000000
# 5 0.000000 0.000000 0.000000 0.000000 0.026514 0.000000
# 6 0.000000 0.000000 0.000000 0.000000 0.000000 0.057233
#
#
# Mechanical properties :
#
#
# Convention : Reuss Voigt Hill
#
# Bulk Modulus (GPa) = 35.78821 45.74180 40.76500
# Shear Modulus (GPa) = 20.51299 24.15443 22.33371
#
# Velocity S-wave (km/s) = 3.65688 3.96821 3.81572
# Velocity P-wave (km/s) = 6.41570 7.12849 6.78147
#
# Compressibility (1/GPa) = 0.02794216
#
# Stress axis : x y z
#
# Youngs Moduli (GPa) = 71.37301 33.02386 43.03795
#
# Poissons Ratio (x) = 0.01692 0.40715
# Poissons Ratio (y) = 0.03657 0.42263
# Poissons Ratio (z) = 0.67521 0.32429
#
# Static dielectric constant tensor:
#      x y z
#    x 1.542780 0.000000 0.000000 
#    y 0.000000 1.517180 0.000000 
#    z 0.000000 0.000000 1.515090 
# 
# From -- ./inp_files/22630.got.cif
#   From: 2010.05.17/outbox.cif.g08.bks.cpg/sg62_12_cif.got.tgz:22630.got - 2010.06.03 15:25:27.
