data_PCOD9462776
_publ_section_title
;
Structure prediction by ZEFSAII (Michael W. Deem and Ramdas Pophale) SiO2 
 PCOD9462776
Probable space group: P N M A
;
_chemical_formula_sum "Si O2"
_cell_formula_units_Z 56
_cell_length_a 21.581050
_cell_length_b 8.884765
_cell_length_c 14.919374
_cell_angle_alpha 90.000000
_cell_angle_beta 90.000000
_cell_angle_gamma 90.000000
_cell_volume 2860.678930
_symmetry_space_group_name_H-M "P N M A"
_symmetry_group_IT_number 62
_symmetry_cell_setting 'orthorhombic'
loop_
_space_group_symop_operation_xyz
x,y,z
1/2-x,-y,1/2+z
1/2+x,1/2-y,1/2-z
-x,1/2+y,-z
-x,-y,-z
1/2+x,y,1/2-z
1/2-x,1/2+y,1/2+z
x,1/2-y,z
loop_
_atom_site_type_symbol
_atom_site_label
_atom_site_fract_x
_atom_site_fract_y
_atom_site_fract_z
Si Si1 0.785618 0.570195 0.408994
Si Si2 0.719469 0.925715 0.097817
Si Si3 0.138410 0.927592 0.105377
Si Si4 0.106907 0.067319 0.722997
Si Si5 0.008567 0.569310 0.402213
Si Si6 0.881363 0.571965 0.710180
Si Si7 0.132094 0.427715 0.917636
O O1 0.794203 0.750000 0.422985
O O2 0.802153 0.485071 0.500685
O O3 0.712915 0.545391 0.391067
O O4 0.829931 0.522122 0.327784
O O5 0.704512 0.750000 0.109618
O O6 0.793733 0.941358 0.098429
O O7 0.685735 0.019637 0.174417
O O8 0.127731 0.750000 0.114707
O O9 0.109528 0.014308 0.188897
O O10 0.116613 0.985326 0.008488
O O11 0.108955 0.250000 0.728533
O O12 0.049404 0.025944 0.660811
O O13 0.102022 0.014765 0.825442
O O14 0.010688 0.750000 0.408111
O O15 0.000000 0.500000 0.500000
O O16 0.069874 0.507179 0.355331
O O17 0.887259 0.750000 0.705008
O O18 0.118773 0.250000 0.930143
#
# Coordination Sequence:
#
# PCOD9462776 Si02
#       7
#     8   8   8   8   8   8   8
#     4   9  17  32  55  84 117 148 178 218 274 337
#     4  10  19  32  54  84 115 145 180 226 277 332
#     4  10  20  35  56  84 115 145 181 227 276 330
#     4   9  18  34  57  80 106 144 183 220 269 329
#     4  11  23  40  61  85 112 144 184 229 277 332
#     4  12  24  38  56  78 109 151 194 234 278 326
#     4   9  18  35  57  83 114 145 178 220 275 336
#
# _framework density 19.575772000000001
#
# number of rings (size 3 to 8) (size 9 to 14) (size 15 to 20)
#    0.000    2.000    0.000    4.286    0.000    4.571 
#    0.000    3.571    0.000    0.000    0.000    0.000 
#    0.000    0.000    0.000    0.000    0.000    0.000 
#
# Total GULP energy -312859.027271 kJ/mol
# GULP energy per Si atom -5586.768344 kJ/mol
# Density = 1.953122 g / cm^3
# Si number density = 19.575772 Si / 1000 Ang^3
#
#
#
# Elastic Constant Matrix: (Units=GPa)
#
#
# Indices 1 2 3 4 5 6 
#
# 1 20.2486 32.6169 27.8811 0.0000 0.0000 0.0000
# 2 32.6169 68.6134 57.3094 0.0000 0.0000 0.0000
# 3 27.8811 57.3094 154.4831 0.0000 0.0000 0.0000
# 4 0.0000 0.0000 0.0000 34.1365 0.0000 0.0000
# 5 0.0000 0.0000 0.0000 0.0000 22.5605 0.0000
# 6 0.0000 0.0000 0.0000 0.0000 0.0000 17.0258
#
#
#
# Elastic Compliance Matrix: (Units=1/GPa)
#
#
# Indices 1 2 3 4 5 6 
#
# 1 0.210987 -0.099243 -0.001262 0.000000 0.000000 0.000000
# 2 -0.099243 0.067800 -0.007241 0.000000 0.000000 0.000000
# 3 -0.001262 -0.007241 0.009387 0.000000 0.000000 0.000000
# 4 0.000000 0.000000 0.000000 0.029294 0.000000 0.000000
# 5 0.000000 0.000000 0.000000 0.000000 0.044325 0.000000
# 6 0.000000 0.000000 0.000000 0.000000 0.000000 0.058734
#
#
# Mechanical properties :
#
#
# Convention : Reuss Voigt Hill
#
# Bulk Modulus (GPa) = 13.75861 53.21779 33.48820
# Shear Modulus (GPa) = 7.57293 23.11374 15.34334
#
# Velocity S-wave (km/s) = 1.96899 3.43991 2.80267
# Velocity P-wave (km/s) = 3.49469 6.55910 5.25522
#
# Compressibility (1/GPa) = 0.07268179
#
# Stress axis : x y z
#
# Youngs Moduli (GPa) = 4.73963 14.74936 106.52963
#
# Poissons Ratio (x) = 1.46377 0.13446
# Poissons Ratio (y) = 0.47038 0.77133
# Poissons Ratio (z) = 0.00598 0.10679
#
# Static dielectric constant tensor:
#      x y z
#    x 1.698650 0.000000 0.000000 
#    y 0.000000 1.650860 0.000000 
#    z 0.000000 0.000000 1.684060 
# 
# From -- ./inp_files/20194.got.cif
#   From: 2010.05.17/outbox.cif.g08.bks.cpg/sg62_11_cif.got.tgz:20194.got - 2010.06.03 15:25:27.
