data_PCOD9462014
_publ_section_title
;
Structure prediction by ZEFSAII (Michael W. Deem and Ramdas Pophale) SiO2 
 PCOD9462014
Probable space group: P N M A
;
_chemical_formula_sum "Si O2"
_cell_formula_units_Z 56
_cell_length_a 15.736388
_cell_length_b 10.885774
_cell_length_c 17.487388
_cell_angle_alpha 90.000000
_cell_angle_beta 90.000000
_cell_angle_gamma 90.000000
_cell_volume 2995.637888
_symmetry_space_group_name_H-M "P N M A"
_symmetry_group_IT_number 62
_symmetry_cell_setting 'orthorhombic'
loop_
_space_group_symop_operation_xyz
x,y,z
1/2-x,-y,1/2+z
1/2+x,1/2-y,1/2-z
-x,1/2+y,-z
-x,-y,-z
1/2+x,y,1/2-z
1/2-x,1/2+y,1/2+z
x,1/2-y,z
loop_
_atom_site_type_symbol
_atom_site_label
_atom_site_fract_x
_atom_site_fract_y
_atom_site_fract_z
Si Si1 0.862374 0.605297 0.403090
Si Si2 0.182234 0.106993 0.772407
Si Si3 0.378336 0.398630 0.732967
Si Si4 0.381155 0.949511 0.427741
Si Si5 0.794997 0.389211 0.498353
Si Si6 0.925799 0.385528 0.931481
Si Si7 0.950822 0.102606 0.612023
O O1 0.845602 0.750000 0.423539
O O2 0.858001 0.598029 0.311251
O O3 0.801188 0.502937 0.439505
O O4 0.958953 0.567455 0.423526
O O5 0.172728 0.250000 0.797444
O O6 0.281655 0.082140 0.759137
O O7 0.141562 0.026021 0.839228
O O8 0.391291 0.250000 0.728805
O O9 0.396663 0.448428 0.648101
O O10 0.436295 0.446847 0.802156
O O11 0.296626 0.887087 0.461439
O O12 0.471823 0.882038 0.428157
O O13 0.398262 0.056388 0.488843
O O14 0.811661 0.250000 0.468174
O O15 0.867784 0.418811 0.561036
O O16 0.888503 0.250000 0.929791
O O17 0.956969 0.250000 0.619407
#
# Coordination Sequence:
#
# PCOD9462014 Si02
#       7
#     8   8   8   8   8   8   8
#     4  10  21  35  55  83 110 139 180 231 275 314
#     4  10  18  32  54  79 105 136 181 228 268 314
#     4   9  16  30  53  78 106 137 178 232 276 313
#     4  11  21  34  55  80 109 147 182 224 274 329
#     4  11  21  35  55  80 111 147 182 217 267 332
#     4  10  21  35  53  81 112 142 181 229 276 323
#     4   9  17  31  52  79 109 142 179 223 272 321
#
# _framework density 18.693849
#
# number of rings (size 3 to 8) (size 9 to 14) (size 15 to 20)
#    0.000    2.000    1.429    3.429    0.000    4.000 
#    0.000    0.714    0.000    0.000    0.000    1.000 
#    0.000    0.000    0.000    0.000    0.000    0.000 
#
# Total GULP energy -311821.051762 kJ/mol
# GULP energy per Si atom -5568.233067 kJ/mol
# Density = 1.865130 g / cm^3
# Si number density = 18.693849 Si / 1000 Ang^3
#
#
#
# Elastic Constant Matrix: (Units=GPa)
#
#
# Indices 1 2 3 4 5 6 
#
# 1 72.3112 13.6894 24.1008 0.0000 0.0000 0.0000
# 2 13.6894 47.8149 42.7929 0.0000 0.0000 0.0000
# 3 24.1008 42.7929 103.9905 0.0000 0.0000 0.0000
# 4 0.0000 0.0000 0.0000 6.4532 0.0000 0.0000
# 5 0.0000 0.0000 0.0000 0.0000 33.6263 0.0000
# 6 0.0000 0.0000 0.0000 0.0000 0.0000 2.8157
#
#
#
# Elastic Compliance Matrix: (Units=1/GPa)
#
#
# Indices 1 2 3 4 5 6 
#
# 1 0.015093 -0.001885 -0.002722 0.000000 0.000000 0.000000
# 2 -0.001885 0.033342 -0.013284 0.000000 0.000000 0.000000
# 3 -0.002722 -0.013284 0.015714 0.000000 0.000000 0.000000
# 4 0.000000 0.000000 0.000000 0.154961 0.000000 0.000000
# 5 0.000000 0.000000 0.000000 0.000000 0.029739 0.000000
# 6 0.000000 0.000000 0.000000 0.000000 0.000000 0.355156
#
#
# Mechanical properties :
#
#
# Convention : Reuss Voigt Hill
#
# Bulk Modulus (GPa) = 35.25200 42.80922 39.03061
# Shear Modulus (GPa) = 7.70128 18.14795 12.92462
#
# Velocity S-wave (km/s) = 2.03190 3.11914 2.63227
# Velocity P-wave (km/s) = 4.93997 5.99349 5.49205
#
# Compressibility (1/GPa) = 0.02836719
#
# Stress axis : x y z
#
# Youngs Moduli (GPa) = 66.25466 29.99214 63.63929
#
# Poissons Ratio (x) = 0.05653 0.17325
# Poissons Ratio (y) = 0.12487 0.84537
# Poissons Ratio (z) = 0.18037 0.39841
#
# Static dielectric constant tensor:
#      x y z
#    x 1.704870 0.000000 0.000000 
#    y 0.000000 1.638780 0.000000 
#    z 0.000000 0.000000 1.668570 
# 
# From -- ./inp_files/18974.got.cif
#   From: 2010.05.17/outbox.cif.g08.bks.cpg/sg62_10_cif.got.tgz:18974.got - 2010.06.03 15:25:27.
