data_PCOD9462797
_publ_section_title
;
Structure prediction by ZEFSAII (Michael W. Deem and Ramdas Pophale) SiO2 
 PCOD9462797
Probable space group: P N M A
;
_chemical_formula_sum "Si O2"
_cell_formula_units_Z 40
_cell_length_a 14.335716
_cell_length_b 9.907577
_cell_length_c 13.563001
_cell_angle_alpha 90.000000
_cell_angle_beta 90.000000
_cell_angle_gamma 90.000000
_cell_volume 1926.383008
_symmetry_space_group_name_H-M "P N M A"
_symmetry_group_IT_number 62
_symmetry_cell_setting 'orthorhombic'
loop_
_space_group_symop_operation_xyz
x,y,z
1/2-x,-y,1/2+z
1/2+x,1/2-y,1/2-z
-x,1/2+y,-z
-x,-y,-z
1/2+x,y,1/2-z
1/2-x,1/2+y,1/2+z
x,1/2-y,z
loop_
_atom_site_type_symbol
_atom_site_label
_atom_site_fract_x
_atom_site_fract_y
_atom_site_fract_z
Si Si1 0.722999 0.595339 0.853861
Si Si2 0.419344 0.897779 0.403769
Si Si3 0.093187 0.410710 0.510963
Si Si4 0.735953 0.898926 0.620738
Si Si5 0.558334 0.102997 0.370154
O O1 0.705739 0.750000 0.890943
O O2 0.658636 0.485730 0.907717
O O3 0.713183 0.598048 0.736086
O O4 0.833450 0.567645 0.863685
O O5 0.401761 0.750000 0.362220
O O6 0.461671 0.881305 0.513128
O O7 0.325084 0.980248 0.420411
O O8 0.489024 0.986138 0.337590
O O9 0.076673 0.250000 0.531259
O O10 0.156827 0.415559 0.411284
O O11 0.000000 0.500000 0.500000
O O12 0.707134 0.750000 0.582478
O O13 0.542930 0.250000 0.322395
#
# Coordination Sequence:
#
# PCOD9462797 Si02
#       5
#     8   8   8   8   8
#     4  10  21  40  63  87 117 160 208 253 302 365
#     4  10  19  32  55  85 115 146 186 237 293 351
#     4  11  24  42  64  92 127 167 210 258 314 375
#     4  10  22  39  61  87 119 159 204 251 307 370
#     4   9  18  33  55  82 113 148 187 233 291 354
#
# _framework density 20.764303000000002
#
# number of rings (size 3 to 8) (size 9 to 14) (size 15 to 20)
#    0.000    2.000    2.000    1.200    0.000    4.800 
#    0.000    4.000    0.000    0.000    0.000    0.000 
#    0.000    0.000    0.000    0.000    0.000    0.000 
#
# Total GULP energy -222853.394407 kJ/mol
# GULP energy per Si atom -5571.334860 kJ/mol
# Density = 2.071704 g / cm^3
# Si number density = 20.764303 Si / 1000 Ang^3
#
#
#
# Elastic Constant Matrix: (Units=GPa)
#
#
# Indices 1 2 3 4 5 6 
#
# 1 98.8709 113.0097 3.9728 0.0000 0.0000 0.0000
# 2 113.0097 189.2544 13.9559 0.0000 0.0000 0.0000
# 3 3.9728 13.9559 26.6204 0.0000 0.0000 0.0000
# 4 0.0000 0.0000 0.0000 12.4706 0.0000 0.0000
# 5 0.0000 0.0000 0.0000 0.0000 7.7244 0.0000
# 6 0.0000 0.0000 0.0000 0.0000 0.0000 26.8006
#
#
#
# Elastic Compliance Matrix: (Units=1/GPa)
#
#
# Indices 1 2 3 4 5 6 
#
# 1 0.032630 -0.019895 0.005560 0.000000 0.000000 0.000000
# 2 -0.019895 0.017626 -0.006272 0.000000 0.000000 0.000000
# 3 0.005560 -0.006272 0.040023 0.000000 0.000000 0.000000
# 4 0.000000 0.000000 0.000000 0.080189 0.000000 0.000000
# 5 0.000000 0.000000 0.000000 0.000000 0.129460 0.000000
# 6 0.000000 0.000000 0.000000 0.000000 0.000000 0.037313
#
#
# Mechanical properties :
#
#
# Convention : Reuss Voigt Hill
#
# Bulk Modulus (GPa) = 20.37998 64.06914 42.22456
# Shear Modulus (GPa) = 12.66434 21.65294 17.15864
#
# Velocity S-wave (km/s) = 2.47231 3.23274 2.87775
# Velocity P-wave (km/s) = 4.24099 6.69750 5.60547
#
# Compressibility (1/GPa) = 0.04906775
#
# Stress axis : x y z
#
# Youngs Moduli (GPa) = 30.64626 56.73418 24.98548
#
# Poissons Ratio (x) = 1.12871 -0.13892
# Poissons Ratio (y) = 0.60970 0.15670
# Poissons Ratio (z) = -0.17040 0.35581
#
# Static dielectric constant tensor:
#      x y z
#    x 1.740820 0.000000 0.000000 
#    y 0.000000 1.845500 0.000000 
#    z 0.000000 0.000000 1.805400 
# 
# From -- ./inp_files/18600.got.cif
#   From: 2010.05.17/outbox.cif.g08.bks.cpg/sg62_10_cif.got.tgz:18600.got - 2010.06.03 15:25:27.
