data_PCOD9462809
_publ_section_title
;
Structure prediction by ZEFSAII (Michael W. Deem and Ramdas Pophale) SiO2 
 PCOD9462809
Probable space group: P N M A
;
_chemical_formula_sum "Si O2"
_cell_formula_units_Z 48
_cell_length_a 14.390921
_cell_length_b 8.002569
_cell_length_c 18.092874
_cell_angle_alpha 90.000000
_cell_angle_beta 90.000000
_cell_angle_gamma 90.000000
_cell_volume 2083.653862
_symmetry_space_group_name_H-M "P N M A"
_symmetry_group_IT_number 62
_symmetry_cell_setting 'orthorhombic'
loop_
_space_group_symop_operation_xyz
x,y,z
1/2-x,-y,1/2+z
1/2+x,1/2-y,1/2-z
-x,1/2+y,-z
-x,-y,-z
1/2+x,y,1/2-z
1/2-x,1/2+y,1/2+z
x,1/2-y,z
loop_
_atom_site_type_symbol
_atom_site_label
_atom_site_fract_x
_atom_site_fract_y
_atom_site_fract_z
Si Si1 0.945076 0.445887 0.871610
Si Si2 0.825791 0.945243 0.742518
Si Si3 0.951431 0.953191 0.603469
Si Si4 0.858103 0.056554 0.451173
Si Si5 0.167319 0.555296 0.996029
Si Si6 0.856213 0.944046 0.166980
O O1 0.963902 0.250000 0.884639
O O2 0.860994 0.462159 0.814666
O O3 0.039219 0.516369 0.835758
O O4 0.911861 0.516718 0.950068
O O5 0.842402 0.750000 0.755112
O O6 0.891570 0.000130 0.674441
O O7 0.719783 0.970313 0.718415
O O8 0.945617 0.750000 0.594266
O O9 0.060716 0.997436 0.605226
O O10 0.906896 0.037295 0.531406
O O11 0.835327 0.250000 0.436870
O O12 0.763321 0.957097 0.458818
O O13 0.149837 0.750000 0.979097
O O14 0.176065 0.461818 0.918480
O O15 0.858662 0.750000 0.188202
#
# Coordination Sequence:
#
# PCOD9462809 Si02
#       6
#     8   8   8   8   8   8
#     4  10  25  44  62  89 125 163 207 257 308 369
#     4  11  23  40  64  92 125 164 205 255 313 373
#     4   9  19  35  54  83 121 157 198 247 299 358
#     4  10  19  32  56  88 119 156 199 248 301 360
#     4  11  22  39  62  90 124 162 206 259 311 363
#     4  11  23  42  67  92 121 162 208 254 309 370
#
# _framework density 23.036455
#
# number of rings (size 3 to 8) (size 9 to 14) (size 15 to 20)
#    0.000    1.667    1.667    2.500    0.000    5.333 
#    0.000    3.333    0.000    0.000    0.000    0.000 
#    0.000    0.000    0.000    0.000    0.000    0.000 
#
# Total GULP energy -268327.800398 kJ/mol
# GULP energy per Si atom -5590.162508 kJ/mol
# Density = 2.298402 g / cm^3
# Si number density = 23.036455 Si / 1000 Ang^3
#
#
#
# Elastic Constant Matrix: (Units=GPa)
#
#
# Indices 1 2 3 4 5 6 
#
# 1 113.8165 -5.2603 34.4536 0.0000 0.0000 0.0000
# 2 -5.2603 27.3316 -5.8618 0.0000 0.0000 0.0000
# 3 34.4536 -5.8618 19.1158 0.0000 0.0000 0.0000
# 4 0.0000 0.0000 0.0000 7.4023 0.0000 0.0000
# 5 0.0000 0.0000 0.0000 0.0000 20.2786 0.0000
# 6 0.0000 0.0000 0.0000 0.0000 0.0000 13.9227
#
#
#
# Elastic Compliance Matrix: (Units=1/GPa)
#
#
# Indices 1 2 3 4 5 6 
#
# 1 0.019756 -0.004104 -0.036867 0.000000 0.000000 0.000000
# 2 -0.004104 0.040016 0.019669 0.000000 0.000000 0.000000
# 3 -0.036867 0.019669 0.124791 0.000000 0.000000 0.000000
# 4 0.000000 0.000000 0.000000 0.135093 0.000000 0.000000
# 5 0.000000 0.000000 0.000000 0.000000 0.049313 0.000000
# 6 0.000000 0.000000 0.000000 0.000000 0.000000 0.071825
#
#
# Mechanical properties :
#
#
# Convention : Reuss Voigt Hill
#
# Bulk Modulus (GPa) = 7.04432 22.99187 15.01810
# Shear Modulus (GPa) = 9.42116 17.44955 13.43536
#
# Velocity S-wave (km/s) = 2.02449 2.75521 2.41762
# Velocity P-wave (km/s) = 2.92049 4.48597 3.78505
#
# Compressibility (1/GPa) = 0.14195834
#
# Stress axis : x y z
#
# Youngs Moduli (GPa) = 50.61658 24.98996 8.01338
#
# Poissons Ratio (x) = 0.10257 0.29543
# Poissons Ratio (y) = 0.20775 -0.15761
# Poissons Ratio (z) = 1.86607 -0.49152
#
# Static dielectric constant tensor:
#      x y z
#    x 1.911800 0.000000 0.000000 
#    y 0.000000 1.813380 0.000000 
#    z 0.000000 0.000000 1.836330 
# 
# From -- ./inp_files/23693.got.cif
#   From: 2010.05.17/outbox.cif.g08.bks.cpg/sg62_12_cif.got.tgz:23693.got - 2010.06.03 15:25:27.
