data_PCOD9462091
_publ_section_title
;
Structure prediction by ZEFSAII (Michael W. Deem and Ramdas Pophale) SiO2 
 PCOD9462091
Probable space group: P N M A
;
_chemical_formula_sum "Si O2"
_cell_formula_units_Z 64
_cell_length_a 12.321939
_cell_length_b 7.712798
_cell_length_c 31.546456
_cell_angle_alpha 90.000000
_cell_angle_beta 90.000000
_cell_angle_gamma 90.000000
_cell_volume 2998.068755
_symmetry_space_group_name_H-M "P N M A"
_symmetry_group_IT_number 62
_symmetry_cell_setting 'orthorhombic'
loop_
_space_group_symop_operation_xyz
x,y,z
1/2-x,-y,1/2+z
1/2+x,1/2-y,1/2-z
-x,1/2+y,-z
-x,-y,-z
1/2+x,y,1/2-z
1/2-x,1/2+y,1/2+z
x,1/2-y,z
loop_
_atom_site_type_symbol
_atom_site_label
_atom_site_fract_x
_atom_site_fract_y
_atom_site_fract_z
Si Si1 0.329821 0.036438 0.621663
Si Si2 0.772773 0.959951 0.165162
Si Si3 0.418401 0.542776 0.127058
Si Si4 0.490216 0.038311 0.696482
Si Si5 0.483094 0.054497 0.548213
Si Si6 0.282880 0.449157 0.428598
Si Si7 0.442144 0.543808 0.956140
Si Si8 0.554349 0.961567 0.208387
O O1 0.330436 0.250000 0.621468
O O2 0.205043 0.978528 0.622265
O O3 0.396741 0.984368 0.663634
O O4 0.396659 0.971152 0.580432
O O5 0.772117 0.750000 0.160335
O O6 0.892086 0.014362 0.179384
O O7 0.678328 0.006371 0.197677
O O8 0.745970 0.040814 0.119931
O O9 0.411111 0.750000 0.132055
O O10 0.488525 0.512280 0.084696
O O11 0.478858 0.477189 0.169463
O O12 0.489073 0.250000 0.696956
O O13 0.475680 0.978689 0.744685
O O14 0.445083 0.250000 0.545223
O O15 0.500000 0.000000 0.500000
O O16 0.602551 0.043927 0.568473
O O17 0.303806 0.250000 0.441303
O O18 0.181715 0.524760 0.454654
O O19 0.431463 0.750000 0.953094
O O20 0.500000 0.500000 0.000000
O O21 0.547744 0.750000 0.208650
#
# Coordination Sequence:
#
# PCOD9462091 Si02
#       8
#     8   8   8   8   8   8   8   8
#     4   9  19  34  54  81 117 151 184 232 288 336
#     4  10  18  33  57  83 112 150 195 241 289 346
#     4  10  20  36  57  84 117 151 187 232 284 342
#     4   9  17  30  51  84 118 147 184 239 288 331
#     4  11  23  40  60  87 118 154 195 240 291 348
#     4  11  23  40  61  84 113 150 194 244 293 344
#     4  11  25  42  61  85 113 149 190 238 291 347
#     4   9  18  29  51  86 116 146 190 236 284 339
#
# _framework density 21.347075
#
# number of rings (size 3 to 8) (size 9 to 14) (size 15 to 20)
#    0.000    2.000    2.500    1.125    3.500    1.500 
#    0.000    0.625    0.000    1.500    0.000    0.000 
#    0.000    0.000    0.000    0.000    0.000    0.000 
#
# Total GULP energy -357337.183951 kJ/mol
# GULP energy per Si atom -5583.393499 kJ/mol
# Density = 2.129849 g / cm^3
# Si number density = 21.347075 Si / 1000 Ang^3
#
#
#
# Elastic Constant Matrix: (Units=GPa)
#
#
# Indices 1 2 3 4 5 6 
#
# 1 109.2640 0.3455 24.5308 0.0000 0.0000 0.0000
# 2 0.3455 29.4169 -0.2901 0.0000 0.0000 0.0000
# 3 24.5308 -0.2901 109.6776 0.0000 0.0000 0.0000
# 4 0.0000 0.0000 0.0000 10.8690 0.0000 0.0000
# 5 0.0000 0.0000 0.0000 0.0000 38.5586 0.0000
# 6 0.0000 0.0000 0.0000 0.0000 0.0000 8.2930
#
#
#
# Elastic Compliance Matrix: (Units=1/GPa)
#
#
# Indices 1 2 3 4 5 6 
#
# 1 0.009637 -0.000134 -0.002156 0.000000 0.000000 0.000000
# 2 -0.000134 0.033997 0.000120 0.000000 0.000000 0.000000
# 3 -0.002156 0.000120 0.009600 0.000000 0.000000 0.000000
# 4 0.000000 0.000000 0.000000 0.092005 0.000000 0.000000
# 5 0.000000 0.000000 0.000000 0.000000 0.025935 0.000000
# 6 0.000000 0.000000 0.000000 0.000000 0.000000 0.120584
#
#
# Mechanical properties :
#
#
# Convention : Reuss Voigt Hill
#
# Bulk Modulus (GPa) = 20.45273 33.05898 26.75586
# Shear Modulus (GPa) = 16.00540 26.46226 21.23383
#
# Velocity S-wave (km/s) = 2.74116 3.52464 3.15730
# Velocity P-wave (km/s) = 4.42950 5.66429 5.08452
#
# Compressibility (1/GPa) = 0.04889322
#
# Stress axis : x y z
#
# Youngs Moduli (GPa) = 103.77164 29.41448 104.16565
#
# Poissons Ratio (x) = 0.00395 0.22455
# Poissons Ratio (y) = 0.01395 -0.01250
# Poissons Ratio (z) = 0.22370 -0.00353
#
# Static dielectric constant tensor:
#      x y z
#    x 1.811480 0.000000 0.000000 
#    y 0.000000 1.817730 0.000000 
#    z 0.000000 0.000000 1.796080 
# 
# From -- ./inp_files/32565.got.cif
#   From: 2010.05.17/outbox.cif.g08.bks.cpg/sg62_17_cif.got.tgz:32565.got - 2010.06.03 15:25:27.
