data_PCOD9462623
_publ_section_title
;
Structure prediction by ZEFSAII (Michael W. Deem and Ramdas Pophale) SiO2 
 PCOD9462623
Probable space group: P N M A
;
_chemical_formula_sum "Si O2"
_cell_formula_units_Z 64
_cell_length_a 24.059262
_cell_length_b 8.759910
_cell_length_c 19.502425
_cell_angle_alpha 90.000000
_cell_angle_beta 90.000000
_cell_angle_gamma 90.000000
_cell_volume 4110.271996
_symmetry_space_group_name_H-M "P N M A"
_symmetry_group_IT_number 62
_symmetry_cell_setting 'orthorhombic'
loop_
_space_group_symop_operation_xyz
x,y,z
1/2-x,-y,1/2+z
1/2+x,1/2-y,1/2-z
-x,1/2+y,-z
-x,-y,-z
1/2+x,y,1/2-z
1/2-x,1/2+y,1/2+z
x,1/2-y,z
loop_
_atom_site_type_symbol
_atom_site_label
_atom_site_fract_x
_atom_site_fract_y
_atom_site_fract_z
Si Si1 0.232122 0.568203 0.852365
Si Si2 0.839896 0.566859 0.741704
Si Si3 0.062196 0.064301 0.353896
Si Si4 0.619739 0.433535 0.003044
Si Si5 0.435860 0.065626 0.132672
Si Si6 0.829327 0.066513 0.282461
Si Si7 0.243985 0.930952 0.495813
Si Si8 0.725481 0.568761 0.364324
O O1 0.229894 0.750000 0.865945
O O2 0.290786 0.537965 0.813780
O O3 0.185496 0.528039 0.795970
O O4 0.230143 0.479803 0.923300
O O5 0.841015 0.750000 0.752255
O O6 0.897447 0.514999 0.707638
O O7 0.821721 0.488041 0.811918
O O8 0.062717 0.250000 0.352683
O O9 0.089496 0.019383 0.426419
O O10 0.998334 0.014914 0.350364
O O11 0.622556 0.250000 0.001225
O O12 0.585684 0.494202 0.938076
O O13 0.681984 0.498500 0.001427
O O14 0.436203 0.250000 0.125086
O O15 0.390456 0.028004 0.190826
O O16 0.821346 0.250000 0.289231
O O17 0.783517 0.987597 0.330515
O O18 0.239819 0.750000 0.501410
O O19 0.277328 0.996211 0.560591
O O20 0.725557 0.750000 0.369074
#
# Coordination Sequence:
#
# PCOD9462623 Si02
#       8
#     8   8   8   8   8   8   8   8
#     4   9  17  31  49  68  95 127 157 195 245 291
#     4   9  17  33  51  69  97 130 161 198 243 287
#     4   9  18  32  50  70  98 134 170 201 236 281
#     4  11  20  32  46  67  99 135 168 202 239 277
#     4  10  19  32  50  72  97 133 172 201 232 282
#     4   9  18  32  49  70  98 128 160 198 242 286
#     4  12  22  32  48  71  96 127 164 202 244 295
#     4  11  21  32  49  71  96 124 160 202 247 295
#
# _framework density 15.570746
#
# number of rings (size 3 to 8) (size 9 to 14) (size 15 to 20)
#    0.000    2.000    2.500    3.750    0.000    2.000 
#    0.000    1.250    0.000    0.000    0.000    0.875 
#    0.000    0.000    0.000    0.000    0.000    0.000 
#
# Total GULP energy -357120.263780 kJ/mol
# GULP energy per Si atom -5580.004122 kJ/mol
# Density = 1.553531 g / cm^3
# Si number density = 15.570746 Si / 1000 Ang^3
#
#
#
# Elastic Constant Matrix: (Units=GPa)
#
#
# Indices 1 2 3 4 5 6 
#
# 1 85.6321 28.4200 54.7658 0.0000 0.0000 0.0000
# 2 28.4200 44.8979 45.6762 0.0000 0.0000 0.0000
# 3 54.7658 45.6762 111.1279 0.0000 0.0000 0.0000
# 4 0.0000 0.0000 0.0000 26.2605 0.0000 0.0000
# 5 0.0000 0.0000 0.0000 0.0000 18.5165 0.0000
# 6 0.0000 0.0000 0.0000 0.0000 0.0000 14.8604
#
#
#
# Elastic Compliance Matrix: (Units=1/GPa)
#
#
# Indices 1 2 3 4 5 6 
#
# 1 0.017450 -0.003948 -0.006977 0.000000 0.000000 0.000000
# 2 -0.003948 0.039172 -0.014155 0.000000 0.000000 0.000000
# 3 -0.006977 -0.014155 0.018255 0.000000 0.000000 0.000000
# 4 0.000000 0.000000 0.000000 0.038080 0.000000 0.000000
# 5 0.000000 0.000000 0.000000 0.000000 0.054006 0.000000
# 6 0.000000 0.000000 0.000000 0.000000 0.000000 0.067293
#
#
# Mechanical properties :
#
#
# Convention : Reuss Voigt Hill
#
# Bulk Modulus (GPa) = 40.45718 55.48689 47.97203
# Shear Modulus (GPa) = 17.08491 19.44722 18.26606
#
# Velocity S-wave (km/s) = 3.31606 3.53789 3.42877
# Velocity P-wave (km/s) = 6.37973 7.23890 6.82285
#
# Compressibility (1/GPa) = 0.02471749
#
# Stress axis : x y z
#
# Youngs Moduli (GPa) = 57.30554 25.52833 54.77879
#
# Poissons Ratio (x) = 0.10078 0.38220
# Poissons Ratio (y) = 0.22623 0.77540
# Poissons Ratio (z) = 0.39983 0.36136
#
# Static dielectric constant tensor:
#      x y z
#    x 1.511100 0.000000 0.000000 
#    y 0.000000 1.522010 0.000000 
#    z 0.000000 0.000000 1.514190 
# 
# From -- ./inp_files/24971.got.cif
#   From: 2010.05.17/outbox.cif.g08.bks.cpg/sg62_13_cif.got.tgz:24971.got - 2010.06.03 15:25:27.
