data_PCOD9462300
_publ_section_title
;
Structure prediction by ZEFSAII (Michael W. Deem and Ramdas Pophale) SiO2 
 PCOD9462300
Probable space group: P N M A
;
_chemical_formula_sum "Si O2"
_cell_formula_units_Z 48
_cell_length_a 34.039668
_cell_length_b 7.443309
_cell_length_c 6.713007
_cell_angle_alpha 90.000000
_cell_angle_beta 90.000000
_cell_angle_gamma 90.000000
_cell_volume 1700.859595
_symmetry_space_group_name_H-M "P N M A"
_symmetry_group_IT_number 62
_symmetry_cell_setting 'orthorhombic'
loop_
_space_group_symop_operation_xyz
x,y,z
1/2-x,-y,1/2+z
1/2+x,1/2-y,1/2-z
-x,1/2+y,-z
-x,-y,-z
1/2+x,y,1/2-z
1/2-x,1/2+y,1/2+z
x,1/2-y,z
loop_
_atom_site_type_symbol
_atom_site_label
_atom_site_fract_x
_atom_site_fract_y
_atom_site_fract_z
Si Si1 0.031893 0.965465 0.721917
Si Si2 0.636549 0.534271 0.413277
Si Si3 0.303439 0.453334 0.005685
Si Si4 0.947694 0.464968 0.828240
Si Si5 0.884157 0.469897 0.372922
Si Si6 0.216399 0.462938 0.940130
O O1 0.034772 0.750000 0.719335
O O2 0.070639 0.029258 0.603041
O O3 0.040081 0.029104 0.950012
O O4 0.985843 0.004203 0.691175
O O5 0.636580 0.750000 0.401897
O O6 0.597143 0.471286 0.298204
O O7 0.625804 0.483680 0.642654
O O8 0.682781 0.482098 0.390086
O O9 0.303954 0.250000 0.926783
O O10 0.347288 0.533871 0.993641
O O11 0.299728 0.441768 0.246093
O O12 0.260655 0.535444 0.962886
O O13 0.944511 0.250000 0.834808
O O14 0.883578 0.250000 0.392194
O O15 0.219364 0.250000 0.906087
#
# Coordination Sequence:
#
# PCOD9462300 Si02
#       6
#     8   8   8   8   8   8
#     4   8  12  18  30  47  67  95 130 162 191 232
#     4   8  14  25  38  51  75 110 137 163 206 251
#     4   9  18  32  46  61  87 117 141 174 217 255
#     4   8  13  20  30  46  70 101 131 157 196 245
#     4   7  11  22  37  50  70 104 136 159 198 250
#     4  10  19  29  45  67  85 109 147 181 210 249
#
# _framework density 28.221025000000001
#
# number of rings (size 3 to 8) (size 9 to 14) (size 15 to 20)
#    0.000    3.667    0.000    3.500    0.000    2.000 
#    0.000    8.333    0.000    0.000    0.000    0.000 
#    0.000    1.333    0.000    3.000    0.000    9.667 
#
# Total GULP energy -267904.811579 kJ/mol
# GULP energy per Si atom -5581.350241 kJ/mol
# Density = 2.815679 g / cm^3
# Si number density = 28.221025 Si / 1000 Ang^3
#
#
#
# Elastic Constant Matrix: (Units=GPa)
#
#
# Indices 1 2 3 4 5 6 
#
# 1 406.1133 10.4630 78.6569 0.0000 0.0000 0.0000
# 2 10.4630 103.3289 -8.5204 0.0000 0.0000 0.0000
# 3 78.6569 -8.5204 63.1891 0.0000 0.0000 0.0000
# 4 0.0000 0.0000 0.0000 -13.7175 0.0000 0.0000
# 5 0.0000 0.0000 0.0000 0.0000 81.2873 0.0000
# 6 0.0000 0.0000 0.0000 0.0000 0.0000 28.1441
#
#
#
# Elastic Compliance Matrix: (Units=1/GPa)
#
#
# Indices 1 2 3 4 5 6 
#
# 1 0.003291 -0.000679 -0.004188 0.000000 0.000000 0.000000
# 2 -0.000679 0.009927 0.002183 0.000000 0.000000 0.000000
# 3 -0.004188 0.002183 0.021333 0.000000 0.000000 0.000000
# 4 0.000000 0.000000 0.000000 -0.072900 0.000000 0.000000
# 5 0.000000 0.000000 0.000000 0.000000 0.012302 0.000000
# 6 0.000000 0.000000 0.000000 0.000000 0.000000 0.035531
#
#
# Mechanical properties :
#
#
# Convention : Reuss Voigt Hill
#
# Bulk Modulus (GPa) = 34.26559 81.53671 57.90115
# Shear Modulus (GPa) = 203.42204 51.94491 127.68348
#
# Velocity S-wave (km/s) = 8.49931 4.29493 6.73367
# Velocity P-wave (km/s) = 10.41565 7.31780 9.00100
#
# Compressibility (1/GPa) = 0.02918379
#
# Stress axis : x y z
#
# Youngs Moduli (GPa) = 303.85793 100.73971 46.87530
#
# Poissons Ratio (x) = 0.06836 0.19632
# Poissons Ratio (y) = 0.20620 -0.10234
# Poissons Ratio (z) = 1.27259 -0.21994
#
# Static dielectric constant tensor:
#      x y z
#    x 2.299420 0.000000 0.000000 
#    y 0.000000 2.029770 0.000000 
#    z 0.000000 0.000000 2.327220 
# 
# From -- ./inp_files/15619.got.cif
#   From: 2010.05.17/outbox.cif.g08.bks.cpg/sg62_8_cif.got.tgz:15619.got - 2010.06.03 15:25:27.
