data_PCOD9462881
_publ_section_title
;
Structure prediction by ZEFSAII (Michael W. Deem and Ramdas Pophale) SiO2 
 PCOD9462881
Probable space group: P N M A
;
_chemical_formula_sum "Si O2"
_cell_formula_units_Z 48
_cell_length_a 13.280550
_cell_length_b 13.744827
_cell_length_c 10.884072
_cell_angle_alpha 90.000000
_cell_angle_beta 90.000000
_cell_angle_gamma 90.000000
_cell_volume 1986.766119
_symmetry_space_group_name_H-M "P N M A"
_symmetry_group_IT_number 62
_symmetry_cell_setting 'orthorhombic'
loop_
_space_group_symop_operation_xyz
x,y,z
1/2-x,-y,1/2+z
1/2+x,1/2-y,1/2-z
-x,1/2+y,-z
-x,-y,-z
1/2+x,y,1/2-z
1/2-x,1/2+y,1/2+z
x,1/2-y,z
loop_
_atom_site_type_symbol
_atom_site_label
_atom_site_fract_x
_atom_site_fract_y
_atom_site_fract_z
Si Si1 0.879124 0.983009 0.241316
Si Si2 0.359451 0.138189 0.598020
Si Si3 0.487984 0.637504 0.604340
Si Si4 0.790582 0.362200 0.629901
Si Si5 0.341988 0.952360 0.998946
Si Si6 0.200122 0.361179 0.252011
O O1 0.963675 0.049315 0.180827
O O2 0.903607 0.939213 0.375626
O O3 0.789567 0.062746 0.257357
O O4 0.822095 0.899853 0.163206
O O5 0.328830 0.250000 0.577600
O O6 0.465600 0.125006 0.531054
O O7 0.352915 0.123811 0.742820
O O8 0.273193 0.076433 0.532590
O O9 0.515414 0.750000 0.641495
O O10 0.370489 0.631276 0.632874
O O11 0.790472 0.250000 0.594902
O O12 0.840839 0.434677 0.534790
O O13 0.362576 0.891052 0.875363
O O14 0.234168 0.250000 0.265434
#
# Coordination Sequence:
#
# PCOD9462881 Si02
#       6
#     8   8   8   8   8   8
#     4  10  20  35  55  79 110 144 178 224 274 319
#     4   9  16  31  54  76 103 139 177 219 264 315
#     4  10  19  33  58  86 108 137 181 230 273 317
#     4   9  18  31  51  76 102 145 186 213 262 325
#     4  10  19  33  53  79 109 144 174 220 275 323
#     4  10  20  35  58  87 109 139 185 226 271 324
#
# _framework density 24.159865
#
# number of rings (size 3 to 8) (size 9 to 14) (size 15 to 20)
#    0.000    2.333    3.333    1.000    0.000    2.667 
#    0.000    7.500    0.000    4.000    0.000    0.000 
#    0.000    0.000    0.000    0.000    0.000    0.000 
#
# Total GULP energy -268399.188487 kJ/mol
# GULP energy per Si atom -5591.649760 kJ/mol
# Density = 2.410488 g / cm^3
# Si number density = 24.159865 Si / 1000 Ang^3
#
#
#
# Elastic Constant Matrix: (Units=GPa)
#
#
# Indices 1 2 3 4 5 6 
#
# 1 31.8717 11.2092 -10.1086 0.0000 0.0000 0.0000
# 2 11.2092 98.1254 8.2534 0.0000 0.0000 0.0000
# 3 -10.1086 8.2534 65.7313 0.0000 0.0000 0.0000
# 4 0.0000 0.0000 0.0000 31.4818 0.0000 0.0000
# 5 0.0000 0.0000 0.0000 0.0000 27.6165 0.0000
# 6 0.0000 0.0000 0.0000 0.0000 0.0000 24.2237
#
#
#
# Elastic Compliance Matrix: (Units=1/GPa)
#
#
# Indices 1 2 3 4 5 6 
#
# 1 0.034827 -0.004476 0.005918 0.000000 0.000000 0.000000
# 2 -0.004476 0.010875 -0.002054 0.000000 0.000000 0.000000
# 3 0.005918 -0.002054 0.016381 0.000000 0.000000 0.000000
# 4 0.000000 0.000000 0.000000 0.031764 0.000000 0.000000
# 5 0.000000 0.000000 0.000000 0.000000 0.036210 0.000000
# 6 0.000000 0.000000 0.000000 0.000000 0.000000 0.041282
#
#
# Mechanical properties :
#
#
# Convention : Reuss Voigt Hill
#
# Bulk Modulus (GPa) = 16.43133 23.82628 20.12881
# Shear Modulus (GPa) = 25.92680 29.08937 27.50809
#
# Velocity S-wave (km/s) = 3.27943 3.47369 3.37795
# Velocity P-wave (km/s) = 4.59950 5.09627 4.85425
#
# Compressibility (1/GPa) = 0.06085933
#
# Stress axis : x y z
#
# Youngs Moduli (GPa) = 28.71337 91.95291 61.04471
#
# Poissons Ratio (x) = 0.41160 -0.36126
# Poissons Ratio (y) = 0.12853 0.12538
# Poissons Ratio (z) = -0.16992 0.18886
#
# Static dielectric constant tensor:
#      x y z
#    x 1.934120 0.000000 0.000000 
#    y 0.000000 1.887950 0.000000 
#    z 0.000000 0.000000 1.997310 
# 
# From -- ./inp_files/13269.got.cif
#   From: 2010.05.17/outbox.cif.g08.bks.cpg/sg62_7_cif.got.tgz:13269.got - 2010.06.03 15:25:27.
