data_PCOD9462784
_publ_section_title
;
Structure prediction by ZEFSAII (Michael W. Deem and Ramdas Pophale) SiO2 
 PCOD9462784
Probable space group: P N M A
;
_chemical_formula_sum "Si O2"
_cell_formula_units_Z 64
_cell_length_a 25.022451
_cell_length_b 9.230255
_cell_length_c 14.439191
_cell_angle_alpha 90.000000
_cell_angle_beta 90.000000
_cell_angle_gamma 90.000000
_cell_volume 3334.927584
_symmetry_space_group_name_H-M "P N M A"
_symmetry_group_IT_number 62
_symmetry_cell_setting 'orthorhombic'
loop_
_space_group_symop_operation_xyz
x,y,z
1/2-x,-y,1/2+z
1/2+x,1/2-y,1/2-z
-x,1/2+y,-z
-x,-y,-z
1/2+x,y,1/2-z
1/2-x,1/2+y,1/2+z
x,1/2-y,z
loop_
_atom_site_type_symbol
_atom_site_label
_atom_site_fract_x
_atom_site_fract_y
_atom_site_fract_z
Si Si1 0.885356 0.922231 0.367820
Si Si2 0.824778 0.579418 0.541543
Si Si3 0.456542 0.076323 0.277275
Si Si4 0.334757 0.579439 0.738516
Si Si5 0.562849 0.577780 0.343976
Si Si6 0.892144 0.421544 0.037824
Si Si7 0.717038 0.083172 0.547320
Si Si8 0.271888 0.916394 0.229463
O O1 0.896730 0.750000 0.359436
O O2 0.873873 0.959840 0.474767
O O3 0.828077 0.949436 0.318569
O O4 0.929860 0.013039 0.315044
O O5 0.814357 0.750000 0.526595
O O6 0.836047 0.558680 0.649928
O O7 0.771154 0.494154 0.515377
O O8 0.461106 0.250000 0.273541
O O9 0.417728 0.037632 0.363808
O O10 0.513245 0.004242 0.298786
O O11 0.340904 0.750000 0.718709
O O12 0.382244 0.486333 0.695889
O O13 0.277053 0.521389 0.705951
O O14 0.559279 0.750000 0.328030
O O15 0.566509 0.552490 0.454542
O O16 0.880397 0.250000 0.039950
O O17 0.837350 0.505146 0.018819
O O18 0.716356 0.250000 0.518878
O O19 0.719147 0.076117 0.659778
O O20 0.257149 0.750000 0.206409
#
# Coordination Sequence:
#
# PCOD9462784 Si02
#       8
#     8   8   8   8   8   8   8   8
#     4  10  20  37  60  85 116 155 194 231 283 347
#     4   9  20  37  58  83 117 157 192 234 285 340
#     4  11  23  40  61  87 117 147 189 244 291 337
#     4  10  21  38  58  84 117 150 193 245 290 331
#     4  11  24  41  61  82 111 155 198 236 287 350
#     4  10  22  38  57  83 116 153 189 230 284 347
#     4  10  19  32  54  85 118 151 188 232 279 335
#     4   9  18  33  54  82 116 153 188 227 280 343
#
# _framework density 19.190823000000002
#
# number of rings (size 3 to 8) (size 9 to 14) (size 15 to 20)
#    0.000    2.000    1.250    1.875    1.750    3.500 
#    0.000    0.625    0.000    0.000    0.000    0.000 
#    0.000    0.000    0.000    0.000    0.000    0.000 
#
# Total GULP energy -357575.617152 kJ/mol
# GULP energy per Si atom -5587.119018 kJ/mol
# Density = 1.914714 g / cm^3
# Si number density = 19.190823 Si / 1000 Ang^3
#
#
#
# Elastic Constant Matrix: (Units=GPa)
#
#
# Indices 1 2 3 4 5 6 
#
# 1 54.4045 27.0887 -4.1205 0.0000 0.0000 0.0000
# 2 27.0887 42.9363 12.2261 0.0000 0.0000 0.0000
# 3 -4.1205 12.2261 33.2121 0.0000 0.0000 0.0000
# 4 0.0000 0.0000 0.0000 22.5413 0.0000 0.0000
# 5 0.0000 0.0000 0.0000 0.0000 23.7000 0.0000
# 6 0.0000 0.0000 0.0000 0.0000 0.0000 37.0464
#
#
#
# Elastic Compliance Matrix: (Units=1/GPa)
#
#
# Indices 1 2 3 4 5 6 
#
# 1 0.030671 -0.022827 0.012208 0.000000 0.000000 0.000000
# 2 -0.022827 0.043006 -0.018664 0.000000 0.000000 0.000000
# 3 0.012208 -0.018664 0.038495 0.000000 0.000000 0.000000
# 4 0.000000 0.000000 0.000000 0.044363 0.000000 0.000000
# 5 0.000000 0.000000 0.000000 0.000000 0.042194 0.000000
# 6 0.000000 0.000000 0.000000 0.000000 0.000000 0.026993
#
#
# Mechanical properties :
#
#
# Convention : Reuss Voigt Hill
#
# Bulk Modulus (GPa) = 18.65399 22.32683 20.49041
# Shear Modulus (GPa) = 16.54771 23.01478 19.78125
#
# Velocity S-wave (km/s) = 2.93963 3.46679 3.21404
# Velocity P-wave (km/s) = 4.61121 5.26158 4.94710
#
# Compressibility (1/GPa) = 0.05360785
#
# Stress axis : x y z
#
# Youngs Moduli (GPa) = 32.60372 23.25233 25.97766
#
# Poissons Ratio (x) = 0.53078 -0.31715
# Poissons Ratio (y) = 0.74425 0.48484
# Poissons Ratio (z) = -0.39804 0.43397
#
# Static dielectric constant tensor:
#      x y z
#    x 1.623850 0.000000 0.000000 
#    y 0.000000 1.640710 0.000000 
#    z 0.000000 0.000000 1.712990 
# 
# From -- ./inp_files/20774.got.cif
#   From: 2010.05.17/outbox.cif.g08.bks.cpg/sg62_11_cif.got.tgz:20774.got - 2010.06.03 15:25:27.
