data_PCOD9462844
_publ_section_title
;
Structure prediction by ZEFSAII (Michael W. Deem and Ramdas Pophale) SiO2 
 PCOD9462844
Probable space group: P N M A
;
_chemical_formula_sum "Si O2"
_cell_formula_units_Z 64
_cell_length_a 5.373236
_cell_length_b 21.265375
_cell_length_c 26.613650
_cell_angle_alpha 90.000000
_cell_angle_beta 90.000000
_cell_angle_gamma 90.000000
_cell_volume 3040.978870
_symmetry_space_group_name_H-M "P N M A"
_symmetry_group_IT_number 62
_symmetry_cell_setting 'orthorhombic'
loop_
_space_group_symop_operation_xyz
x,y,z
1/2-x,-y,1/2+z
1/2+x,1/2-y,1/2-z
-x,1/2+y,-z
-x,-y,-z
1/2+x,y,1/2-z
1/2-x,1/2+y,1/2+z
x,1/2-y,z
loop_
_atom_site_type_symbol
_atom_site_label
_atom_site_fract_x
_atom_site_fract_y
_atom_site_fract_z
Si Si1 0.538760 0.818493 0.942009
Si Si2 0.911784 0.453071 0.732346
Si Si3 0.495230 0.095659 0.272591
Si Si4 0.821622 0.603536 0.875980
Si Si5 0.313940 0.099297 0.567050
Si Si6 0.494531 0.009330 0.875064
Si Si7 0.188991 0.560443 0.954914
Si Si8 0.305523 0.177419 0.946860
O O1 0.417590 0.750000 0.941552
O O2 0.346462 0.875688 0.944990
O O3 0.708713 0.831191 0.893767
O O4 0.705713 0.821915 0.992298
O O5 0.179285 0.421343 0.740690
O O6 0.969596 0.521593 0.758100
O O7 0.860318 0.461951 0.673193
O O8 0.755678 0.123483 0.254102
O O9 0.478169 0.103886 0.332226
O O10 0.932352 0.571757 0.926065
O O11 0.603998 0.557447 0.857409
O O12 0.331387 0.059160 0.514917
O O13 0.571713 0.136924 0.572604
O O14 0.075473 0.146389 0.563549
O O15 0.229041 0.052428 0.610609
O O16 0.331527 0.995265 0.924998
O O17 0.295694 0.250000 0.929864
#
# Coordination Sequence:
#
# PCOD9462844 Si02
#       8
#     8   8   8   8   8   8   8   8
#     4   9  20  36  54  78 103 141 201 245 274 322
#     4  10  19  34  52  76 106 150 187 225 271 331
#     4  10  19  33  52  75 100 140 186 223 277 336
#     4  11  20  33  57  77 107 149 185 233 287 340
#     4  11  23  37  55  87 117 153 188 229 279 344
#     4  11  23  33  54  82 122 151 180 231 288 354
#     4  10  21  35  50  80 115 156 182 226 290 342
#     4  10  21  41  60  79 112 154 194 236 273 322
#
# _framework density 21.045855
#
# number of rings (size 3 to 8) (size 9 to 14) (size 15 to 20)
#    0.000    1.750    3.750    2.250    3.500    1.500 
#    0.000    0.000    0.000    0.750    0.000    0.000 
#    0.000   10.000    0.000    0.000    0.000    0.000 
#
# Total GULP energy -357205.023149 kJ/mol
# GULP energy per Si atom -5581.328487 kJ/mol
# Density = 2.099795 g / cm^3
# Si number density = 21.045855 Si / 1000 Ang^3
#
#
#
# Elastic Constant Matrix: (Units=GPa)
#
#
# Indices 1 2 3 4 5 6 
#
# 1 99.0415 11.5827 -5.9366 0.0000 0.0000 0.0000
# 2 11.5827 62.5873 5.7088 0.0000 0.0000 0.0000
# 3 -5.9366 5.7088 55.1326 0.0000 0.0000 0.0000
# 4 0.0000 0.0000 0.0000 9.4590 0.0000 0.0000
# 5 0.0000 0.0000 0.0000 0.0000 20.0521 0.0000
# 6 0.0000 0.0000 0.0000 0.0000 0.0000 18.7835
#
#
#
# Elastic Compliance Matrix: (Units=1/GPa)
#
#
# Indices 1 2 3 4 5 6 
#
# 1 0.010416 -0.002049 0.001334 0.000000 0.000000 0.000000
# 2 -0.002049 0.016533 -0.001933 0.000000 0.000000 0.000000
# 3 0.001334 -0.001933 0.018482 0.000000 0.000000 0.000000
# 4 0.000000 0.000000 0.000000 0.105719 0.000000 0.000000
# 5 0.000000 0.000000 0.000000 0.000000 0.049870 0.000000
# 6 0.000000 0.000000 0.000000 0.000000 0.000000 0.053238
#
#
# Mechanical properties :
#
#
# Convention : Reuss Voigt Hill
#
# Bulk Modulus (GPa) = 24.91583 26.60790 25.76187
# Shear Modulus (GPa) = 18.31947 23.35269 20.83608
#
# Velocity S-wave (km/s) = 2.95355 3.33469 3.14989
# Velocity P-wave (km/s) = 4.84725 5.24378 5.04941
#
# Compressibility (1/GPa) = 0.04013512
#
# Stress axis : x y z
#
# Youngs Moduli (GPa) = 96.00248 60.48426 54.10722
#
# Poissons Ratio (x) = 0.12395 -0.07217
# Poissons Ratio (y) = 0.19674 0.10457
# Poissons Ratio (z) = -0.12805 0.11689
#
# Static dielectric constant tensor:
#      x y z
#    x 1.869650 0.000000 0.000000 
#    y 0.000000 1.757870 0.000000 
#    z 0.000000 0.000000 1.769650 
# 
# From -- ./inp_files/28459.got.cif
#   From: 2010.05.17/outbox.cif.g08.bks.cpg/sg62_15_cif.got.tgz:28459.got - 2010.06.03 15:25:27.
