data_PCOD9462416
_publ_section_title
;
Structure prediction by ZEFSAII (Michael W. Deem and Ramdas Pophale) SiO2 
 PCOD9462416
Probable space group: P N M A
;
_chemical_formula_sum "Si O2"
_cell_formula_units_Z 32
_cell_length_a 21.289114
_cell_length_b 5.385164
_cell_length_c 10.713397
_cell_angle_alpha 90.000000
_cell_angle_beta 90.000000
_cell_angle_gamma 90.000000
_cell_volume 1228.241366
_symmetry_space_group_name_H-M "P N M A"
_symmetry_group_IT_number 62
_symmetry_cell_setting 'orthorhombic'
loop_
_space_group_symop_operation_xyz
x,y,z
1/2-x,-y,1/2+z
1/2+x,1/2-y,1/2-z
-x,1/2+y,-z
-x,-y,-z
1/2+x,y,1/2-z
1/2-x,1/2+y,1/2+z
x,1/2-y,z
loop_
_atom_site_type_symbol
_atom_site_label
_atom_site_fract_x
_atom_site_fract_y
_atom_site_fract_z
Si Si1 0.656833 0.250000 0.618395
Si Si2 0.234574 0.750000 0.927616
Si Si3 0.889857 0.250000 0.822080
Si Si4 0.408181 0.250000 0.979459
Si Si5 0.501493 0.250000 0.189152
Si Si6 0.647987 0.250000 0.262287
Si Si7 0.525126 0.250000 0.660708
Si Si8 0.345295 0.750000 0.086660
O O1 0.695124 0.500581 0.592626
O O2 0.584723 0.250000 0.570539
O O3 0.644582 0.250000 0.767082
O O4 0.293530 0.750000 0.830377
O O5 0.271665 0.750000 0.057309
O O6 0.905700 0.250000 0.670936
O O7 0.851537 0.498943 0.840211
O O8 0.954937 0.250000 0.897052
O O9 0.475915 0.250000 0.047617
O O10 0.373695 0.497234 0.028692
O O11 0.576895 0.250000 0.203917
O O12 0.476103 0.496335 0.257816
#
# Coordination Sequence:
#
# PCOD9462416 Si02
#       8
#     4   4   4   4   4   4   4   4
#     4  12  24  40  58  79 117 160 203 241 276 336
#     4  12  24  40  58  79 117 160 203 241 276 336
#     4  10  19  30  52  77 116 143 184 219 287 355
#     4  12  18  33  56  84 120 156 173 226 290 372
#     4  10  19  30  52  77 116 143 184 219 287 355
#     4  10  20  34  48  81 112 152 190 219 278 344
#     4  10  20  34  48  81 112 152 190 219 278 344
#     4  12  24  39  58  86 118 160 203 230 284 342
#
# _framework density 26.053508000000001
#
# number of rings (size 3 to 8) (size 9 to 14) (size 15 to 20)
#    0.000    1.000    5.000    3.000    0.000    5.000 
#    0.000    0.000    0.000    0.000    0.000    0.000 
#    0.000   80.000    0.000    0.000    0.000    0.000 
#
# Total GULP energy -179340.644260 kJ/mol
# GULP energy per Si atom -5604.395133 kJ/mol
# Density = 2.599421 g / cm^3
# Si number density = 26.053508 Si / 1000 Ang^3
#
#
#
# Elastic Constant Matrix: (Units=GPa)
#
#
# Indices 1 2 3 4 5 6 
#
# 1 185.1073 80.6411 43.8016 0.0000 0.0000 0.0000
# 2 80.6411 277.1884 31.9244 0.0000 0.0000 0.0000
# 3 43.8016 31.9244 80.0089 0.0000 0.0000 0.0000
# 4 0.0000 0.0000 0.0000 35.0858 0.0000 0.0000
# 5 0.0000 0.0000 0.0000 0.0000 49.2595 0.0000
# 6 0.0000 0.0000 0.0000 0.0000 0.0000 57.3129
#
#
#
# Elastic Compliance Matrix: (Units=1/GPa)
#
#
# Indices 1 2 3 4 5 6 
#
# 1 0.006847 -0.001635 -0.003096 0.000000 0.000000 0.000000
# 2 -0.001635 0.004172 -0.000769 0.000000 0.000000 0.000000
# 3 -0.003096 -0.000769 0.014501 0.000000 0.000000 0.000000
# 4 0.000000 0.000000 0.000000 0.028502 0.000000 0.000000
# 5 0.000000 0.000000 0.000000 0.000000 0.020301 0.000000
# 6 0.000000 0.000000 0.000000 0.000000 0.000000 0.017448
#
#
# Mechanical properties :
#
#
# Convention : Reuss Voigt Hill
#
# Bulk Modulus (GPa) = 68.87912 95.00433 81.94173
# Shear Modulus (GPa) = 46.46343 54.06081 50.26212
#
# Velocity S-wave (km/s) = 4.22760 4.56015 4.39702
# Velocity P-wave (km/s) = 7.09401 8.01691 7.56954
#
# Compressibility (1/GPa) = 0.01451819
#
# Stress axis : x y z
#
# Youngs Moduli (GPa) = 146.04115 239.68935 68.96291
#
# Poissons Ratio (x) = 0.39201 0.21351
# Poissons Ratio (y) = 0.23885 0.05306
# Poissons Ratio (z) = 0.45215 0.18440
#
# Static dielectric constant tensor:
#      x y z
#    x 2.106560 0.000000 0.000000 
#    y 0.000000 2.043270 0.000000 
#    z 0.000000 0.000000 2.057490 
# 
# From -- ./inp_files/14520.got.cif
#   From: 2010.05.17/outbox.cif.g08.bks.cpg/sg62_8_cif.got.tgz:14520.got - 2010.06.03 15:25:27.
