data_PCOD9462634
_publ_section_title
;
Structure prediction by ZEFSAII (Michael W. Deem and Ramdas Pophale) SiO2 
 PCOD9462634
Probable space group: P N M A
;
_chemical_formula_sum "Si O2"
_cell_formula_units_Z 64
_cell_length_a 19.595620
_cell_length_b 8.715008
_cell_length_c 23.741757
_cell_angle_alpha 90.000000
_cell_angle_beta 90.000000
_cell_angle_gamma 90.000000
_cell_volume 4054.521939
_symmetry_space_group_name_H-M "P N M A"
_symmetry_group_IT_number 62
_symmetry_cell_setting 'orthorhombic'
loop_
_space_group_symop_operation_xyz
x,y,z
1/2-x,-y,1/2+z
1/2+x,1/2-y,1/2-z
-x,1/2+y,-z
-x,-y,-z
1/2+x,y,1/2-z
1/2-x,1/2+y,1/2+z
x,1/2-y,z
loop_
_atom_site_type_symbol
_atom_site_label
_atom_site_fract_x
_atom_site_fract_y
_atom_site_fract_z
Si Si1 0.139781 0.066436 0.779026
Si Si2 0.722707 0.434179 0.833269
Si Si3 0.654169 0.434479 0.270348
Si Si4 0.867098 0.565104 0.438880
Si Si5 0.236674 0.066114 0.342846
Si Si6 0.995432 0.934457 0.614917
Si Si7 0.643836 0.566888 0.062682
Si Si8 0.498200 0.934894 0.752147
O O1 0.143008 0.250000 0.783481
O O2 0.172918 0.020463 0.718523
O O3 0.188340 0.991030 0.825729
O O4 0.062405 0.009697 0.778454
O O5 0.726855 0.250000 0.832930
O O6 0.796531 0.500740 0.818343
O O7 0.688369 0.481911 0.891708
O O8 0.655486 0.250000 0.272768
O O9 0.687967 0.478135 0.210195
O O10 0.575620 0.484224 0.271151
O O11 0.869275 0.750000 0.441506
O O12 0.850647 0.497214 0.499660
O O13 0.940206 0.503950 0.417745
O O14 0.235147 0.250000 0.347939
O O15 0.205623 0.990195 0.398178
O O16 0.995243 0.750000 0.609649
O O17 0.000437 0.973248 0.681236
O O18 0.925545 0.999680 0.589706
O O19 0.640500 0.750000 0.062151
O O20 0.502886 0.750000 0.747837
#
# Coordination Sequence:
#
# PCOD9462634 Si02
#       8
#     8   8   8   8   8   8   8   8
#     4  10  19  32  50  76 103 131 167 210 255 300
#     4   9  19  33  49  72  99 129 166 208 255 297
#     4   9  18  32  51  73  99 130 167 206 251 302
#     4  11  22  37  52  71 101 137 176 215 254 301
#     4  10  19  35  53  73  99 134 170 210 256 301
#     4  11  21  35  51  71 102 139 178 213 248 298
#     4  12  24  36  51  73 100 136 177 216 255 299
#     4  10  19  32  50  75 103 136 171 204 248 304
#
# _framework density 15.784845000000001
#
# number of rings (size 3 to 8) (size 9 to 14) (size 15 to 20)
#    0.000    1.750    2.500    3.000    0.000    3.000 
#    0.000    0.000    0.000    0.000    0.000    0.875 
#    0.000    0.000    0.000    0.000    0.000    0.000 
#
# Total GULP energy -357340.594056 kJ/mol
# GULP energy per Si atom -5583.446782 kJ/mol
# Density = 1.574892 g / cm^3
# Si number density = 15.784845 Si / 1000 Ang^3
#
#
#
# Elastic Constant Matrix: (Units=GPa)
#
#
# Indices 1 2 3 4 5 6 
#
# 1 110.3078 25.2262 42.2867 0.0000 0.0000 0.0000
# 2 25.2262 44.7278 24.5074 0.0000 0.0000 0.0000
# 3 42.2867 24.5074 70.5149 0.0000 0.0000 0.0000
# 4 0.0000 0.0000 0.0000 22.3469 0.0000 0.0000
# 5 0.0000 0.0000 0.0000 0.0000 18.9751 0.0000
# 6 0.0000 0.0000 0.0000 0.0000 0.0000 29.5783
#
#
#
# Elastic Compliance Matrix: (Units=1/GPa)
#
#
# Indices 1 2 3 4 5 6 
#
# 1 0.012212 -0.003551 -0.006089 0.000000 0.000000 0.000000
# 2 -0.003551 0.028649 -0.007827 0.000000 0.000000 0.000000
# 3 -0.006089 -0.007827 0.020553 0.000000 0.000000 0.000000
# 4 0.000000 0.000000 0.000000 0.044749 0.000000 0.000000
# 5 0.000000 0.000000 0.000000 0.000000 0.052701 0.000000
# 6 0.000000 0.000000 0.000000 0.000000 0.000000 0.033809
#
#
# Mechanical properties :
#
#
# Convention : Reuss Voigt Hill
#
# Bulk Modulus (GPa) = 37.76566 45.51013 41.63789
# Shear Modulus (GPa) = 21.14755 23.08208 22.11481
#
# Velocity S-wave (km/s) = 3.66421 3.82814 3.74707
# Velocity P-wave (km/s) = 6.47141 6.95943 6.71985
#
# Compressibility (1/GPa) = 0.02647908
#
# Stress axis : x y z
#
# Youngs Moduli (GPa) = 81.88736 34.90516 48.65385
#
# Poissons Ratio (x) = 0.12395 0.29626
# Poissons Ratio (y) = 0.29079 0.38084
# Poissons Ratio (z) = 0.49862 0.27322
#
# Static dielectric constant tensor:
#      x y z
#    x 1.517950 0.000000 0.000000 
#    y 0.000000 1.528740 0.000000 
#    z 0.000000 0.000000 1.508830 
# 
# From -- ./inp_files/27628.got.cif
#   From: 2010.05.17/outbox.cif.g08.bks.cpg/sg62_14_cif.got.tgz:27628.got - 2010.06.03 15:25:27.
