data_PCOD9462524
_publ_section_title
;
Structure prediction by ZEFSAII (Michael W. Deem and Ramdas Pophale) SiO2 
 PCOD9462524
Probable space group: P N M A
;
_chemical_formula_sum "Si O2"
_cell_formula_units_Z 48
_cell_length_a 5.365700
_cell_length_b 18.919273
_cell_length_c 22.028329
_cell_angle_alpha 90.000000
_cell_angle_beta 90.000000
_cell_angle_gamma 90.000000
_cell_volume 2236.208971
_symmetry_space_group_name_H-M "P N M A"
_symmetry_group_IT_number 62
_symmetry_cell_setting 'orthorhombic'
loop_
_space_group_symop_operation_xyz
x,y,z
1/2-x,-y,1/2+z
1/2+x,1/2-y,1/2-z
-x,1/2+y,-z
-x,-y,-z
1/2+x,y,1/2-z
1/2-x,1/2+y,1/2+z
x,1/2-y,z
loop_
_atom_site_type_symbol
_atom_site_label
_atom_site_fract_x
_atom_site_fract_y
_atom_site_fract_z
Si Si1 0.001129 0.169473 0.923794
Si Si2 0.980359 0.614430 0.481167
Si Si3 0.515503 0.673047 0.209425
Si Si4 0.494371 0.474009 0.094465
Si Si5 0.638002 0.949805 0.770135
Si Si6 0.339568 0.558960 0.337036
O O1 0.021734 0.250000 0.902723
O O2 0.256667 0.145598 0.957351
O O3 0.977895 0.115669 0.866752
O O4 0.757408 0.161877 0.965248
O O5 0.006761 0.593796 0.551642
O O6 0.915908 0.540166 0.447075
O O7 0.258632 0.671073 0.246208
O O8 0.518012 0.750000 0.178020
O O9 0.586366 0.606378 0.168739
O O10 0.350660 0.464875 0.158311
O O11 0.772161 0.496681 0.116426
O O12 0.379362 0.912069 0.755522
O O13 0.605821 0.020281 0.726517
#
# Coordination Sequence:
#
# PCOD9462524 Si02
#       6
#     8   8   8   8   8   8
#     4  11  23  39  58  81 113 153 197 238 274 326
#     4  10  22  38  58  81 109 148 195 242 285 327
#     4  10  20  32  45  65  98 143 188 219 251 310
#     4   9  20  36  57  82 113 150 189 235 288 337
#     4  10  19  31  50  77 112 145 176 217 276 337
#     4  10  20  34  53  79 112 145 179 227 284 337
#
# _framework density 21.464898000000002
#
# number of rings (size 3 to 8) (size 9 to 14) (size 15 to 20)
#    0.000    2.000    0.000    4.000    0.000   11.333 
#    0.000    5.000    0.000    2.000    0.000    0.000 
#    0.000   53.333    0.000    0.000    0.000    0.000 
#
# Total GULP energy -267817.525027 kJ/mol
# GULP energy per Si atom -5579.531771 kJ/mol
# Density = 2.141604 g / cm^3
# Si number density = 21.464898 Si / 1000 Ang^3
#
#
#
# Elastic Constant Matrix: (Units=GPa)
#
#
# Indices 1 2 3 4 5 6 
#
# 1 136.9759 20.5476 33.9853 0.0000 0.0000 0.0000
# 2 20.5476 22.8904 22.6250 0.0000 0.0000 0.0000
# 3 33.9853 22.6250 128.4338 0.0000 0.0000 0.0000
# 4 0.0000 0.0000 0.0000 23.8389 0.0000 0.0000
# 5 0.0000 0.0000 0.0000 0.0000 31.0410 0.0000
# 6 0.0000 0.0000 0.0000 0.0000 0.0000 12.9442
#
#
#
# Elastic Compliance Matrix: (Units=1/GPa)
#
#
# Indices 1 2 3 4 5 6 
#
# 1 0.008564 -0.006596 -0.001104 0.000000 0.000000 0.000000
# 2 -0.006596 0.057977 -0.008468 0.000000 0.000000 0.000000
# 3 -0.001104 -0.008468 0.009570 0.000000 0.000000 0.000000
# 4 0.000000 0.000000 0.000000 0.041948 0.000000 0.000000
# 5 0.000000 0.000000 0.000000 0.000000 0.032215 0.000000
# 6 0.000000 0.000000 0.000000 0.000000 0.000000 0.077255
#
#
# Mechanical properties :
#
#
# Convention : Reuss Voigt Hill
#
# Bulk Modulus (GPa) = 22.84416 49.17955 36.01185
# Shear Modulus (GPa) = 18.21776 27.64097 22.92936
#
# Velocity S-wave (km/s) = 2.91645 3.59239 3.27192
# Velocity P-wave (km/s) = 4.69111 6.33785 5.57561
#
# Compressibility (1/GPa) = 0.04377487
#
# Stress axis : x y z
#
# Youngs Moduli (GPa) = 116.76801 17.24815 104.49326
#
# Poissons Ratio (x) = 0.11377 0.11538
# Poissons Ratio (y) = 0.77022 0.88484
# Poissons Ratio (z) = 0.12893 0.14606
#
# Static dielectric constant tensor:
#      x y z
#    x 1.897060 0.000000 0.000000 
#    y 0.000000 1.797870 0.000000 
#    z 0.000000 0.000000 1.837110 
# 
# From -- ./inp_files/28308.got.cif
#   From: 2010.05.17/outbox.cif.g08.bks.cpg/sg62_15_cif.got.tgz:28308.got - 2010.06.03 15:25:27.
