data_PCOD9462580
_publ_section_title
;
Structure prediction by ZEFSAII (Michael W. Deem and Ramdas Pophale) SiO2 
 PCOD9462580
Probable space group: P N M A
;
_chemical_formula_sum "Si O2"
_cell_formula_units_Z 64
_cell_length_a 9.896845
_cell_length_b 29.460057
_cell_length_c 12.042228
_cell_angle_alpha 90.000000
_cell_angle_beta 90.000000
_cell_angle_gamma 90.000000
_cell_volume 3511.051478
_symmetry_space_group_name_H-M "P N M A"
_symmetry_group_IT_number 62
_symmetry_cell_setting 'orthorhombic'
loop_
_space_group_symop_operation_xyz
x,y,z
1/2-x,-y,1/2+z
1/2+x,1/2-y,1/2-z
-x,1/2+y,-z
-x,-y,-z
1/2+x,y,1/2-z
1/2-x,1/2+y,1/2+z
x,1/2-y,z
loop_
_atom_site_type_symbol
_atom_site_label
_atom_site_fract_x
_atom_site_fract_y
_atom_site_fract_z
Si Si1 0.341377 0.920983 0.109745
Si Si2 0.857860 0.866773 0.824617
Si Si3 0.536404 0.036883 0.376458
Si Si4 0.132124 0.800318 0.616916
Si Si5 0.226865 0.506667 0.949827
Si Si6 0.892431 0.049610 0.730292
Si Si7 0.646794 0.161315 0.064251
Si Si8 0.420693 0.298999 0.381455
O O1 0.480910 0.923967 0.178200
O O2 0.212172 0.922164 0.192948
O O3 0.321760 0.966840 0.036064
O O4 0.345179 0.879329 0.023823
O O5 0.888843 0.919683 0.828115
O O6 0.728483 0.844480 0.885161
O O7 0.853004 0.854923 0.693624
O O8 0.979217 0.841103 0.888104
O O9 0.376340 0.043456 0.395705
O O10 0.621186 0.025625 0.486570
O O11 0.549186 0.992067 0.302284
O O12 0.184897 0.750000 0.583683
O O13 0.105089 0.796389 0.749011
O O14 0.992670 0.811090 0.554971
O O15 0.308010 0.476105 0.864853
O O16 0.780705 0.191713 0.057145
O O17 0.478320 0.250000 0.414738
#
# Coordination Sequence:
#
# PCOD9462580 Si02
#       8
#     8   8   8   8   8   8   8   8
#     4  11  23  38  58  79 108 149 203 238 293 335
#     4  10  19  31  53  81 116 146 181 221 265 345
#     4  10  21  35  54  79 113 147 184 234 283 323
#     4   9  18  32  51  81 117 146 173 220 279 337
#     4  10  21  37  54  76 108 150 188 235 279 339
#     4  11  22  40  56  78 111 154 193 246 289 330
#     4  10  20  33  52  83 110 147 186 223 270 350
#     4   9  17  32  52  79 115 148 173 219 284 338
#
# _framework density 18.228159000000002
#
# number of rings (size 3 to 8) (size 9 to 14) (size 15 to 20)
#    0.000    2.000    1.250    2.625    1.750    5.000 
#    0.000    0.000    0.000    0.000    0.000    3.500 
#    0.000    0.000    0.000    0.000    0.000    0.000 
#
# Total GULP energy -356541.169981 kJ/mol
# GULP energy per Si atom -5570.955781 kJ/mol
# Density = 1.818667 g / cm^3
# Si number density = 18.228159 Si / 1000 Ang^3
#
#
#
# Elastic Constant Matrix: (Units=GPa)
#
#
# Indices 1 2 3 4 5 6 
#
# 1 99.3873 26.7443 35.6331 0.0000 0.0000 0.0000
# 2 26.7443 61.8988 21.4266 0.0000 0.0000 0.0000
# 3 35.6331 21.4266 52.7131 0.0000 0.0000 0.0000
# 4 0.0000 0.0000 0.0000 -1.1848 0.0000 0.0000
# 5 0.0000 0.0000 0.0000 0.0000 24.6542 0.0000
# 6 0.0000 0.0000 0.0000 0.0000 0.0000 29.6159
#
#
#
# Elastic Compliance Matrix: (Units=1/GPa)
#
#
# Indices 1 2 3 4 5 6 
#
# 1 0.013798 -0.003180 -0.008034 0.000000 0.000000 0.000000
# 2 -0.003180 0.019534 -0.005790 0.000000 0.000000 0.000000
# 3 -0.008034 -0.005790 0.026755 0.000000 0.000000 0.000000
# 4 0.000000 0.000000 0.000000 -0.844015 0.000000 0.000000
# 5 0.000000 0.000000 0.000000 0.000000 0.040561 0.000000
# 6 0.000000 0.000000 0.000000 0.000000 0.000000 0.033766
#
#
# Mechanical properties :
#
#
# Convention : Reuss Voigt Hill
#
# Bulk Modulus (GPa) = 38.34776 42.40080 40.37428
# Shear Modulus (GPa) = -7.49739 19.29675 5.89968
#
# Velocity S-wave (km/s) = -2.03027 3.25718 1.80100
# Velocity P-wave (km/s) = 3.94808 6.12023 5.14998
#
# Compressibility (1/GPa) = 0.02607714
#
# Stress axis : x y z
#
# Youngs Moduli (GPa) = 72.47395 51.19318 37.37581
#
# Poissons Ratio (x) = 0.16282 0.30029
# Poissons Ratio (y) = 0.23050 0.21641
# Poissons Ratio (z) = 0.58229 0.29641
#
# Static dielectric constant tensor:
#      x y z
#    x 1.685790 0.000000 0.000000 
#    y 0.000000 1.618750 0.000000 
#    z 0.000000 0.000000 1.630490 
# 
# From -- ./inp_files/11544.got.cif
#   From: 2010.05.17/outbox.cif.g08.bks.cpg/sg62_6_cif.got.tgz:11544.got - 2010.06.03 15:25:27.
