data_PCOD9462915
_publ_section_title
;
Structure prediction by ZEFSAII (Michael W. Deem and Ramdas Pophale) SiO2 
 PCOD9462915
Probable space group: P N M A
;
_chemical_formula_sum "Si O2"
_cell_formula_units_Z 40
_cell_length_a 26.134056
_cell_length_b 8.871080
_cell_length_c 9.887499
_cell_angle_alpha 90.000000
_cell_angle_beta 90.000000
_cell_angle_gamma 90.000000
_cell_volume 2292.291087
_symmetry_space_group_name_H-M "P N M A"
_symmetry_group_IT_number 62
_symmetry_cell_setting 'orthorhombic'
loop_
_space_group_symop_operation_xyz
x,y,z
1/2-x,-y,1/2+z
1/2+x,1/2-y,1/2-z
-x,1/2+y,-z
-x,-y,-z
1/2+x,y,1/2-z
1/2-x,1/2+y,1/2+z
x,1/2-y,z
loop_
_atom_site_type_symbol
_atom_site_label
_atom_site_fract_x
_atom_site_fract_y
_atom_site_fract_z
Si Si1 0.132950 0.930399 0.278798
Si Si2 0.141869 0.430483 0.702586
Si Si3 0.779831 0.069328 0.504659
Si Si4 0.832871 0.431104 0.019322
Si Si5 0.944404 0.929419 0.516262
O O1 0.125841 0.750000 0.286132
O O2 0.183964 0.965354 0.366257
O O3 0.141455 0.973228 0.123558
O O4 0.085798 0.008803 0.353393
O O5 0.148448 0.250000 0.707043
O O6 0.189915 0.504043 0.624351
O O7 0.092191 0.466002 0.611701
O O8 0.139233 0.497826 0.851811
O O9 0.774769 0.250000 0.494144
O O10 0.724910 0.993525 0.518677
O O11 0.832043 0.250000 0.029325
O O12 0.948481 0.750000 0.524816
O O13 0.000000 0.000000 0.500000
#
# Coordination Sequence:
#
# PCOD9462915 Si02
#       5
#     8   8   8   8   8
#     4   9  20  36  53  77 108 139 177 219 260 309
#     4  10  21  36  53  78 109 141 179 219 259 314
#     4  10  19  33  54  78 108 147 182 217 260 310
#     4  11  21  33  52  80 113 146 177 217 264 311
#     4  10  21  38  61  81 100 131 173 220 269 320
#
# _framework density 17.44979
#
# number of rings (size 3 to 8) (size 9 to 14) (size 15 to 20)
#    0.000    2.000    0.000    3.600    0.000    6.400 
#    0.000    1.000    0.000    0.000    0.000    0.000 
#    0.000    0.000    0.000    0.000    0.000    0.000 
#
# Total GULP energy -223432.598866 kJ/mol
# GULP energy per Si atom -5585.814972 kJ/mol
# Density = 1.741007 g / cm^3
# Si number density = 17.449790 Si / 1000 Ang^3
#
#
#
# Elastic Constant Matrix: (Units=GPa)
#
#
# Indices 1 2 3 4 5 6 
#
# 1 108.1075 45.1984 56.3221 0.0000 0.0000 0.0000
# 2 45.1984 51.0436 54.8876 0.0000 0.0000 0.0000
# 3 56.3221 54.8876 160.3289 0.0000 0.0000 0.0000
# 4 0.0000 0.0000 0.0000 31.7685 0.0000 0.0000
# 5 0.0000 0.0000 0.0000 0.0000 3.1146 0.0000
# 6 0.0000 0.0000 0.0000 0.0000 0.0000 32.7724
#
#
#
# Elastic Compliance Matrix: (Units=1/GPa)
#
#
# Indices 1 2 3 4 5 6 
#
# 1 0.014816 -0.011905 -0.001129 0.000000 0.000000 0.000000
# 2 -0.011905 0.040571 -0.009707 0.000000 0.000000 0.000000
# 3 -0.001129 -0.009707 0.009957 0.000000 0.000000 0.000000
# 4 0.000000 0.000000 0.000000 0.031478 0.000000 0.000000
# 5 0.000000 0.000000 0.000000 0.000000 0.321069 0.000000
# 6 0.000000 0.000000 0.000000 0.000000 0.000000 0.030513
#
#
# Mechanical properties :
#
#
# Convention : Reuss Voigt Hill
#
# Bulk Modulus (GPa) = 50.34913 70.25511 60.30212
# Shear Modulus (GPa) = 9.98989 24.40258 17.19624
#
# Velocity S-wave (km/s) = 2.39528 3.74364 3.14262
# Velocity P-wave (km/s) = 6.04700 7.68343 6.91380
#
# Compressibility (1/GPa) = 0.01986131
#
# Stress axis : x y z
#
# Youngs Moduli (GPa) = 67.49674 24.64827 100.43253
#
# Poissons Ratio (x) = 0.29344 0.11339
# Poissons Ratio (y) = 0.80354 0.97491
# Poissons Ratio (z) = 0.07620 0.23926
#
# Static dielectric constant tensor:
#      x y z
#    x 1.560310 0.000000 0.000000 
#    y 0.000000 1.582470 0.000000 
#    z 0.000000 0.000000 1.594920 
# 
# From -- ./inp_files/9073.got.cif
#   From: 2010.05.17/outbox.cif.g08.bks.cpg/sg62_5_cif.got.tgz:9073.got - 2010.06.03 15:25:27.
