data_PCOD9462396
_publ_section_title
;
Structure prediction by ZEFSAII (Michael W. Deem and Ramdas Pophale) SiO2 
 PCOD9462396
Probable space group: P N M A
;
_chemical_formula_sum "Si O2"
_cell_formula_units_Z 48
_cell_length_a 4.999420
_cell_length_b 24.265788
_cell_length_c 21.589391
_cell_angle_alpha 90.000000
_cell_angle_beta 90.000000
_cell_angle_gamma 90.000000
_cell_volume 2619.114073
_symmetry_space_group_name_H-M "P N M A"
_symmetry_group_IT_number 62
_symmetry_cell_setting 'orthorhombic'
loop_
_space_group_symop_operation_xyz
x,y,z
1/2-x,-y,1/2+z
1/2+x,1/2-y,1/2-z
-x,1/2+y,-z
-x,-y,-z
1/2+x,y,1/2-z
1/2-x,1/2+y,1/2+z
x,1/2-y,z
loop_
_atom_site_type_symbol
_atom_site_label
_atom_site_fract_x
_atom_site_fract_y
_atom_site_fract_z
Si Si1 0.162323 0.361322 0.586845
Si Si2 0.808988 0.550705 0.515855
Si Si3 0.245878 0.449498 0.208221
Si Si4 0.144827 0.186951 0.977365
Si Si5 0.699980 0.577944 0.290847
Si Si6 0.315854 0.595031 0.577631
O O1 0.229522 0.415818 0.547108
O O2 0.372658 0.317044 0.561641
O O3 0.209097 0.379223 0.657053
O O4 0.870320 0.341846 0.565469
O O5 0.520757 0.549123 0.548881
O O6 0.000000 0.500000 0.500000
O O7 0.006137 0.584814 0.560905
O O8 0.541053 0.441562 0.235207
O O9 0.228939 0.514046 0.187936
O O10 0.168347 0.410756 0.151106
O O11 0.214850 0.250000 0.990719
O O12 0.113000 0.150767 0.040147
O O13 0.396990 0.584690 0.267904
#
# Coordination Sequence:
#
# PCOD9462396 Si02
#       6
#     8   8   8   8   8   8
#     4  10  20  34  54  77 101 134 173 214 263 315
#     4  10  19  30  49  77 106 132 163 212 263 312
#     4  10  20  33  51  76 109 145 172 199 243 308
#     4  10  21  37  57  77  99 132 174 226 275 307
#     4  10  20  33  51  75 106 141 170 200 245 308
#     4  10  20  33  51  76 104 136 173 211 258 310
#
# _framework density 18.326806999999999
#
# number of rings (size 3 to 8) (size 9 to 14) (size 15 to 20)
#    0.000    2.000    0.000    4.000    0.000    5.333 
#    0.000    0.000    0.000   11.000    0.000    0.000 
#    0.000    0.000    0.000    0.000    0.000    0.000 
#
# Total GULP energy -267562.029049 kJ/mol
# GULP energy per Si atom -5574.208939 kJ/mol
# Density = 1.828509 g / cm^3
# Si number density = 18.326807 Si / 1000 Ang^3
#
#
#
# Elastic Constant Matrix: (Units=GPa)
#
#
# Indices 1 2 3 4 5 6 
#
# 1 73.0416 -3.4549 -2.8713 0.0000 0.0000 0.0000
# 2 -3.4549 67.0297 34.4170 0.0000 0.0000 0.0000
# 3 -2.8713 34.4170 71.1389 0.0000 0.0000 0.0000
# 4 0.0000 0.0000 0.0000 10.1535 0.0000 0.0000
# 5 0.0000 0.0000 0.0000 0.0000 13.8911 0.0000
# 6 0.0000 0.0000 0.0000 0.0000 0.0000 17.9526
#
#
#
# Elastic Compliance Matrix: (Units=1/GPa)
#
#
# Indices 1 2 3 4 5 6 
#
# 1 0.013729 0.000563 0.000282 0.000000 0.000000 0.000000
# 2 0.000563 0.019873 -0.009592 0.000000 0.000000 0.000000
# 3 0.000282 -0.009592 0.018709 0.000000 0.000000 0.000000
# 4 0.000000 0.000000 0.000000 0.098488 0.000000 0.000000
# 5 0.000000 0.000000 0.000000 0.000000 0.071989 0.000000
# 6 0.000000 0.000000 0.000000 0.000000 0.000000 0.055702
#
#
# Mechanical properties :
#
#
# Convention : Reuss Voigt Hill
#
# Bulk Modulus (GPa) = 28.72234 29.71019 29.21627
# Shear Modulus (GPa) = 16.25549 20.60741 18.43145
#
# Velocity S-wave (km/s) = 2.98145 3.35691 3.17473
# Velocity P-wave (km/s) = 5.24961 5.59210 5.42356
#
# Compressibility (1/GPa) = 0.03481610
#
# Stress axis : x y z
#
# Youngs Moduli (GPa) = 72.84099 50.32027 53.45072
#
# Poissons Ratio (x) = -0.02833 -0.01506
# Poissons Ratio (y) = -0.04100 0.51268
# Poissons Ratio (z) = -0.02052 0.48266
#
# Static dielectric constant tensor:
#      x y z
#    x 1.652760 0.000000 0.000000 
#    y 0.000000 1.662500 0.000000 
#    z 0.000000 0.000000 1.626990 
# 
# From -- ./inp_files/21586.got.cif
#   From: 2010.05.17/outbox.cif.g08.bks.cpg/sg62_11_cif.got.tgz:21586.got - 2010.06.03 15:25:27.
