data_PCOD9462148
_publ_section_title
;
Structure prediction by ZEFSAII (Michael W. Deem and Ramdas Pophale) SiO2 
 PCOD9462148
Probable space group: P N M A
;
_chemical_formula_sum "Si O2"
_cell_formula_units_Z 64
_cell_length_a 15.076045
_cell_length_b 7.533257
_cell_length_c 25.742801
_cell_angle_alpha 90.000000
_cell_angle_beta 90.000000
_cell_angle_gamma 90.000000
_cell_volume 2923.654227
_symmetry_space_group_name_H-M "P N M A"
_symmetry_group_IT_number 62
_symmetry_cell_setting 'orthorhombic'
loop_
_space_group_symop_operation_xyz
x,y,z
1/2-x,-y,1/2+z
1/2+x,1/2-y,1/2-z
-x,1/2+y,-z
-x,-y,-z
1/2+x,y,1/2-z
1/2-x,1/2+y,1/2+z
x,1/2-y,z
loop_
_atom_site_type_symbol
_atom_site_label
_atom_site_fract_x
_atom_site_fract_y
_atom_site_fract_z
Si Si1 0.952064 0.460654 0.445906
Si Si2 0.447081 0.032692 0.752082
Si Si3 0.297047 0.533182 0.385411
Si Si4 0.602156 0.036768 0.513092
Si Si5 0.853333 0.533385 0.230156
Si Si6 0.246498 0.542342 0.564309
Si Si7 0.713178 0.964885 0.317322
Si Si8 0.604183 0.959006 0.134345
O O1 0.945628 0.250000 0.439810
O O2 0.851994 0.534701 0.444619
O O3 0.000000 0.500000 0.500000
O O4 0.016618 0.522424 0.400002
O O5 0.447231 0.250000 0.753261
O O6 0.547275 0.975929 0.742714
O O7 0.381228 0.979908 0.706140
O O8 0.411157 0.969104 0.807791
O O9 0.300229 0.750000 0.386650
O O10 0.362554 0.472072 0.430887
O O11 0.324561 0.477902 0.327446
O O12 0.194494 0.475189 0.392730
O O13 0.608053 0.250000 0.513801
O O14 0.672647 0.969138 0.470135
O O15 0.500000 0.000000 0.500000
O O16 0.851326 0.750000 0.230063
O O17 0.786722 0.476614 0.275515
O O18 0.240018 0.750000 0.549842
O O19 0.268519 0.529150 0.624991
O O20 0.715338 0.750000 0.319022
O O21 0.619729 0.750000 0.141492
#
# Coordination Sequence:
#
# PCOD9462148 Si02
#       8
#     8   8   8   8   8   8   8   8
#     4  11  23  39  60  85 112 146 187 230 282 344
#     4   9  17  28  49  82 114 142 181 232 276 320
#     4   9  17  32  55  79 110 149 183 223 284 338
#     4  10  22  39  58  80 107 147 192 233 278 332
#     4   9  16  28  49  82 115 140 177 230 280 322
#     4  10  23  41  56  78 117 155 183 223 288 350
#     4  10  19  33  56  87 112 141 191 237 270 322
#     4  10  18  34  58  86 117 148 182 229 284 338
#
# _framework density 21.890414
#
# number of rings (size 3 to 8) (size 9 to 14) (size 15 to 20)
#    0.000    2.250    1.250    1.875    1.750    4.500 
#    0.000    2.500    0.000    1.500    0.000    0.000 
#    0.000    0.000    0.000    0.000    0.000    0.000 
#
# Total GULP energy -357530.743355 kJ/mol
# GULP energy per Si atom -5586.417865 kJ/mol
# Density = 2.184059 g / cm^3
# Si number density = 21.890414 Si / 1000 Ang^3
#
#
#
# Elastic Constant Matrix: (Units=GPa)
#
#
# Indices 1 2 3 4 5 6 
#
# 1 142.3939 -0.6864 48.9491 0.0000 0.0000 0.0000
# 2 -0.6864 47.9467 -8.8275 0.0000 0.0000 0.0000
# 3 48.9491 -8.8275 121.1607 0.0000 0.0000 0.0000
# 4 0.0000 0.0000 0.0000 12.0553 0.0000 0.0000
# 5 0.0000 0.0000 0.0000 0.0000 39.8714 0.0000
# 6 0.0000 0.0000 0.0000 0.0000 0.0000 12.8424
#
#
#
# Elastic Compliance Matrix: (Units=1/GPa)
#
#
# Indices 1 2 3 4 5 6 
#
# 1 0.008167 -0.000497 -0.003336 0.000000 0.000000 0.000000
# 2 -0.000497 0.021170 0.001743 0.000000 0.000000 0.000000
# 3 -0.003336 0.001743 0.009728 0.000000 0.000000 0.000000
# 4 0.000000 0.000000 0.000000 0.082951 0.000000 0.000000
# 5 0.000000 0.000000 0.000000 0.000000 0.025081 0.000000
# 6 0.000000 0.000000 0.000000 0.000000 0.000000 0.077867
#
#
# Mechanical properties :
#
#
# Convention : Reuss Voigt Hill
#
# Bulk Modulus (GPa) = 28.66457 43.37463 36.01960
# Shear Modulus (GPa) = 20.76649 31.09155 25.92902
#
# Velocity S-wave (km/s) = 3.08337 3.77281 3.44538
# Velocity P-wave (km/s) = 5.07929 6.23187 5.68487
#
# Compressibility (1/GPa) = 0.03488627
#
# Stress axis : x y z
#
# Youngs Moduli (GPa) = 122.44305 47.23587 102.79445
#
# Poissons Ratio (x) = 0.02349 0.34289
# Poissons Ratio (y) = 0.06088 -0.17920
# Poissons Ratio (z) = 0.40844 -0.08235
#
# Static dielectric constant tensor:
#      x y z
#    x 1.786730 0.000000 0.000000 
#    y 0.000000 1.847390 0.000000 
#    z 0.000000 0.000000 1.749420 
# 
# From -- ./inp_files/29836.got.cif
#   From: 2010.05.17/outbox.cif.g08.bks.cpg/sg62_15_cif.got.tgz:29836.got - 2010.06.03 15:25:27.
