data_PCOD9462720
_publ_section_title
;
Structure prediction by ZEFSAII (Michael W. Deem and Ramdas Pophale) SiO2 
 PCOD9462720
Probable space group: P N M A
;
_chemical_formula_sum "Si O2"
_cell_formula_units_Z 64
_cell_length_a 8.894034
_cell_length_b 11.223409
_cell_length_c 33.537419
_cell_angle_alpha 90.000000
_cell_angle_beta 90.000000
_cell_angle_gamma 90.000000
_cell_volume 3347.751488
_symmetry_space_group_name_H-M "P N M A"
_symmetry_group_IT_number 62
_symmetry_cell_setting 'orthorhombic'
loop_
_space_group_symop_operation_xyz
x,y,z
1/2-x,-y,1/2+z
1/2+x,1/2-y,1/2-z
-x,1/2+y,-z
-x,-y,-z
1/2+x,y,1/2-z
1/2-x,1/2+y,1/2+z
x,1/2-y,z
loop_
_atom_site_type_symbol
_atom_site_label
_atom_site_fract_x
_atom_site_fract_y
_atom_site_fract_z
Si Si1 0.786436 0.610976 0.388454
Si Si2 0.905945 0.891169 0.922198
Si Si3 0.779025 0.110390 0.116552
Si Si4 0.201894 0.884067 0.508047
Si Si5 0.534629 0.496053 0.062828
Si Si6 0.331649 0.994992 0.749805
Si Si7 0.583447 0.386430 0.800338
Si Si8 0.088740 0.613340 0.801281
O O1 0.730666 0.750000 0.389576
O O2 0.673799 0.500088 0.398059
O O3 0.856105 0.588555 0.344647
O O4 0.919623 0.595925 0.421112
O O5 0.864164 0.750000 0.912368
O O6 0.853661 0.910881 0.967757
O O7 0.082749 0.898958 0.914277
O O8 0.745007 0.250000 0.122626
O O9 0.843477 0.060962 0.158102
O O10 0.631903 0.049340 0.099567
O O11 0.208561 0.750000 0.493359
O O12 0.149070 0.963822 0.471564
O O13 0.073244 0.898979 0.542047
O O14 0.441163 0.949879 0.715123
O O15 0.218725 0.897901 0.768112
O O16 0.220274 0.091689 0.730578
O O17 0.442637 0.037954 0.784722
O O18 0.536333 0.250000 0.799158
O O19 0.050162 0.750000 0.809066
#
# Coordination Sequence:
#
# PCOD9462720 Si02
#       8
#     8   8   8   8   8   8   8   8
#     4  10  20  35  54  78 107 139 177 220 266 316
#     4   9  19  36  56  79 108 143 180 217 264 320
#     4  10  20  34  53  78 108 140 177 222 267 314
#     4   9  18  33  52  74 102 137 176 217 260 311
#     4  10  19  32  53  77 104 136 175 217 263 313
#     4  10  20  34  52  74 100 134 175 212 258 314
#     4  10  20  34  52  73 100 134 172 215 261 312
#     4  10  20  34  52  76 106 136 170 216 264 310
#
# _framework density 19.11731
#
# number of rings (size 3 to 8) (size 9 to 14) (size 15 to 20)
#    0.000    2.250    0.000    3.000    0.000    1.000 
#    0.000    5.000    0.000    6.000    0.000    0.000 
#    0.000    0.000    0.000    0.000    0.000    0.000 
#
# Total GULP energy -356444.470118 kJ/mol
# GULP energy per Si atom -5569.444846 kJ/mol
# Density = 1.907380 g / cm^3
# Si number density = 19.117310 Si / 1000 Ang^3
#
#
#
# Elastic Constant Matrix: (Units=GPa)
#
#
# Indices 1 2 3 4 5 6 
#
# 1 48.8862 6.7287 -1.1204 0.0000 0.0000 0.0000
# 2 6.7287 56.3459 -6.3403 0.0000 0.0000 0.0000
# 3 -1.1204 -6.3403 29.8446 0.0000 0.0000 0.0000
# 4 0.0000 0.0000 0.0000 18.4035 0.0000 0.0000
# 5 0.0000 0.0000 0.0000 0.0000 35.0324 0.0000
# 6 0.0000 0.0000 0.0000 0.0000 0.0000 11.0585
#
#
#
# Elastic Compliance Matrix: (Units=1/GPa)
#
#
# Indices 1 2 3 4 5 6 
#
# 1 0.020799 -0.002455 0.000259 0.000000 0.000000 0.000000
# 2 -0.002455 0.018472 0.003832 0.000000 0.000000 0.000000
# 3 0.000259 0.003832 0.034331 0.000000 0.000000 0.000000
# 4 0.000000 0.000000 0.000000 0.054337 0.000000 0.000000
# 5 0.000000 0.000000 0.000000 0.000000 0.028545 0.000000
# 6 0.000000 0.000000 0.000000 0.000000 0.000000 0.090429
#
#
# Mechanical properties :
#
#
# Convention : Reuss Voigt Hill
#
# Bulk Modulus (GPa) = 13.00803 14.84586 13.92694
# Shear Modulus (GPa) = 18.56910 21.95280 20.26095
#
# Velocity S-wave (km/s) = 3.11999 3.39236 3.25902
# Velocity P-wave (km/s) = 4.44952 4.80902 4.63276
#
# Compressibility (1/GPa) = 0.07687561
#
# Stress axis : x y z
#
# Youngs Moduli (GPa) = 48.07816 54.13643 29.12847
#
# Poissons Ratio (x) = 0.13289 -0.00756
# Poissons Ratio (y) = 0.11801 -0.11162
# Poissons Ratio (z) = -0.01247 -0.20745
#
# Static dielectric constant tensor:
#      x y z
#    x 1.648870 0.000000 0.000000 
#    y 0.000000 1.664160 0.000000 
#    z 0.000000 0.000000 1.683020 
# 
# From -- ./inp_files/32264.got.cif
#   From: 2010.05.17/outbox.cif.g08.bks.cpg/sg62_17_cif.got.tgz:32264.got - 2010.06.03 15:25:27.
