data_PCOD9462290
_publ_section_title
;
Structure prediction by ZEFSAII (Michael W. Deem and Ramdas Pophale) SiO2 
 PCOD9462290
Probable space group: P N M A
;
_chemical_formula_sum "Si O2"
_cell_formula_units_Z 48
_cell_length_a 8.272022
_cell_length_b 16.825707
_cell_length_c 13.338175
_cell_angle_alpha 90.000000
_cell_angle_beta 90.000000
_cell_angle_gamma 90.000000
_cell_volume 1856.442122
_symmetry_space_group_name_H-M "P N M A"
_symmetry_group_IT_number 62
_symmetry_cell_setting 'orthorhombic'
loop_
_space_group_symop_operation_xyz
x,y,z
1/2-x,-y,1/2+z
1/2+x,1/2-y,1/2-z
-x,1/2+y,-z
-x,-y,-z
1/2+x,y,1/2-z
1/2-x,1/2+y,1/2+z
x,1/2-y,z
loop_
_atom_site_type_symbol
_atom_site_label
_atom_site_fract_x
_atom_site_fract_y
_atom_site_fract_z
Si Si1 0.417648 0.250000 0.460178
Si Si2 0.891238 0.586998 0.352142
Si Si3 0.884124 0.084688 0.348361
Si Si4 0.239160 0.410186 0.420985
Si Si5 0.249116 0.579709 0.424222
Si Si6 0.280198 0.250000 0.123820
Si Si7 0.735871 0.750000 0.093582
Si Si8 0.282405 0.250000 0.688137
O O1 0.340594 0.330787 0.417253
O O2 0.599008 0.250000 0.417424
O O3 0.373717 0.250000 0.580487
O O4 0.840209 0.501960 0.305236
O O5 0.831844 0.586520 0.466705
O O6 0.818752 0.667801 0.310507
O O7 0.085049 0.583993 0.359117
O O8 0.811133 0.080747 0.460912
O O9 0.820513 0.170562 0.315489
O O10 0.078329 0.090917 0.353248
O O11 0.331561 0.494543 0.408775
O O12 0.330050 0.665354 0.408412
O O13 0.369290 0.250000 0.011139
O O14 0.641793 0.750000 0.199543
#
# Coordination Sequence:
#
# PCOD9462290 Si02
#       8
#     4   8   8   8   8   4   4   4
#     4  10  19  29  43  69  98 122 146 181 233 283
#     4   8  14  26  45  63  81 112 158 197 220 251
#     4   8  14  27  46  66  84 111 152 194 230 264
#     4   8  14  27  46  66  84 111 152 194 230 264
#     4   8  14  26  45  63  81 112 158 197 220 251
#     4  10  19  29  43  69  98 122 146 181 233 283
#     4  10  19  29  41  63  98 134 156 177 216 273
#     4  10  19  29  41  63  98 134 156 177 216 273
#
# _framework density 25.855912
#
# number of rings (size 3 to 8) (size 9 to 14) (size 15 to 20)
#    0.000    3.333    0.000    3.000    0.000    5.333 
#    0.000   13.333    0.000    0.000    0.000    1.167 
#    0.000    0.000    0.000    0.000    0.000    1.333 
#
# Total GULP energy -267625.087374 kJ/mol
# GULP energy per Si atom -5575.522654 kJ/mol
# Density = 2.579706 g / cm^3
# Si number density = 25.855912 Si / 1000 Ang^3
#
#
#
# Elastic Constant Matrix: (Units=GPa)
#
#
# Indices 1 2 3 4 5 6 
#
# 1 58.4996 69.5603 6.4029 0.0000 0.0000 0.0000
# 2 69.5603 331.2031 6.8314 0.0000 0.0000 0.0000
# 3 6.4029 6.8314 98.3741 0.0000 0.0000 0.0000
# 4 0.0000 0.0000 0.0000 -17.2306 0.0000 0.0000
# 5 0.0000 0.0000 0.0000 0.0000 2.7259 0.0000
# 6 0.0000 0.0000 0.0000 0.0000 0.0000 -258.6581
#
#
#
# Elastic Compliance Matrix: (Units=1/GPa)
#
#
# Indices 1 2 3 4 5 6 
#
# 1 0.022915 -0.004789 -0.001159 0.000000 0.000000 0.000000
# 2 -0.004789 0.004024 0.000032 0.000000 0.000000 0.000000
# 3 -0.001159 0.000032 0.010238 0.000000 0.000000 0.000000
# 4 0.000000 0.000000 0.000000 -0.058036 0.000000 0.000000
# 5 0.000000 0.000000 0.000000 0.000000 0.366856 0.000000
# 6 0.000000 0.000000 0.000000 0.000000 0.000000 -0.003866
#
#
# Mechanical properties :
#
#
# Convention : Reuss Voigt Hill
#
# Bulk Modulus (GPa) = 39.45231 72.62955 56.04093
# Shear Modulus (GPa) = 13.79647 -27.61376 -6.90864
#
# Velocity S-wave (km/s) = 2.31246 -3.27155 -1.63639
# Velocity P-wave (km/s) = 4.73515 3.72564 4.26040
#
# Compressibility (1/GPa) = 0.02534706
#
# Stress axis : x y z
#
# Youngs Moduli (GPa) = 43.63902 248.48449 97.67084
#
# Poissons Ratio (x) = 1.18995 0.11319
# Poissons Ratio (y) = 0.20898 -0.00315
# Poissons Ratio (z) = 0.05057 -0.00801
#
# Static dielectric constant tensor:
#      x y z
#    x 1.987360 0.000000 0.000000 
#    y 0.000000 2.089280 0.000000 
#    z 0.000000 0.000000 2.085680 
# 
# From -- ./inp_files/22376.got.cif
#   From: 2010.05.17/outbox.cif.g08.bks.cpg/sg62_12_cif.got.tgz:22376.got - 2010.06.03 15:25:27.
