data_PCOD9462413
_publ_section_title
;
Structure prediction by ZEFSAII (Michael W. Deem and Ramdas Pophale) SiO2 
 PCOD9462413
Probable space group: P N M A
;
_chemical_formula_sum "Si O2"
_cell_formula_units_Z 64
_cell_length_a 34.146714
_cell_length_b 8.803660
_cell_length_c 12.091706
_cell_angle_alpha 90.000000
_cell_angle_beta 90.000000
_cell_angle_gamma 90.000000
_cell_volume 3634.961018
_symmetry_space_group_name_H-M "P N M A"
_symmetry_group_IT_number 62
_symmetry_cell_setting 'orthorhombic'
loop_
_space_group_symop_operation_xyz
x,y,z
1/2-x,-y,1/2+z
1/2+x,1/2-y,1/2-z
-x,1/2+y,-z
-x,-y,-z
1/2+x,y,1/2-z
1/2-x,1/2+y,1/2+z
x,1/2-y,z
loop_
_atom_site_type_symbol
_atom_site_label
_atom_site_fract_x
_atom_site_fract_y
_atom_site_fract_z
Si Si1 0.321447 0.567757 0.111967
Si Si2 0.233300 0.930994 0.801526
Si Si3 0.549604 0.930858 0.388714
Si Si4 0.671063 0.068552 0.541501
Si Si5 0.684877 0.931060 0.131651
Si Si6 0.031940 0.930055 0.854745
Si Si7 0.892237 0.569793 0.231422
Si Si8 0.369147 0.931634 0.688688
O O1 0.316751 0.750000 0.109229
O O2 0.289789 0.498331 0.196432
O O3 0.364033 0.534733 0.165561
O O4 0.317486 0.497874 0.991486
O O5 0.235617 0.750000 0.793547
O O6 0.207876 0.979789 0.908969
O O7 0.275998 0.002271 0.812553
O O8 0.554117 0.750000 0.378735
O O9 0.545321 0.968661 0.519428
O O10 0.508910 0.985121 0.334866
O O11 0.587225 0.013888 0.339545
O O12 0.678908 0.250000 0.548708
O O13 0.634591 0.036459 0.623552
O O14 0.658028 0.030537 0.417825
O O15 0.686703 0.750000 0.128286
O O16 0.648505 0.987396 0.204672
O O17 0.025624 0.750000 0.849629
O O18 0.067377 0.980797 0.776752
O O19 0.900311 0.750000 0.230488
O O20 0.368347 0.750000 0.702327
#
# Coordination Sequence:
#
# PCOD9462413 Si02
#       8
#     8   8   8   8   8   8   8   8
#     4  10  22  42  62  84 113 148 193 239 287 341
#     4  11  23  39  61  86 114 148 188 238 290 338
#     4  10  20  33  51  80 119 155 191 234 284 340
#     4   9  19  35  56  82 114 149 187 231 282 340
#     4  12  26  42  60  83 114 152 195 238 287 343
#     4  10  19  30  51  83 117 153 190 231 280 337
#     4   9  17  33  57  83 112 146 183 230 282 335
#     4  11  22  38  59  83 116 154 193 236 289 345
#
# _framework density 17.606791000000001
#
# number of rings (size 3 to 8) (size 9 to 14) (size 15 to 20)
#    0.000    1.750    1.250    4.500    1.750    4.500 
#    0.000    0.000    0.000    0.750    0.000    0.000 
#    0.000    0.000    0.000    0.000    0.000    0.000 
#
# Total GULP energy -357565.454915 kJ/mol
# GULP energy per Si atom -5586.960233 kJ/mol
# Density = 1.756672 g / cm^3
# Si number density = 17.606791 Si / 1000 Ang^3
#
#
#
# Elastic Constant Matrix: (Units=GPa)
#
#
# Indices 1 2 3 4 5 6 
#
# 1 99.7638 53.6694 45.4287 0.0000 0.0000 0.0000
# 2 53.6694 88.9497 49.0918 0.0000 0.0000 0.0000
# 3 45.4287 49.0918 89.9357 0.0000 0.0000 0.0000
# 4 0.0000 0.0000 0.0000 25.3080 0.0000 0.0000
# 5 0.0000 0.0000 0.0000 0.0000 16.3444 0.0000
# 6 0.0000 0.0000 0.0000 0.0000 0.0000 34.1326
#
#
#
# Elastic Compliance Matrix: (Units=1/GPa)
#
#
# Indices 1 2 3 4 5 6 
#
# 1 0.015772 -0.007326 -0.003967 0.000000 0.000000 0.000000
# 2 -0.007326 0.019493 -0.006939 0.000000 0.000000 0.000000
# 3 -0.003967 -0.006939 0.016911 0.000000 0.000000 0.000000
# 4 0.000000 0.000000 0.000000 0.039513 0.000000 0.000000
# 5 0.000000 0.000000 0.000000 0.000000 0.061183 0.000000
# 6 0.000000 0.000000 0.000000 0.000000 0.000000 0.029297
#
#
# Mechanical properties :
#
#
# Convention : Reuss Voigt Hill
#
# Bulk Modulus (GPa) = 63.65880 63.89210 63.77545
# Shear Modulus (GPa) = 22.33416 23.85429 23.09423
#
# Velocity S-wave (km/s) = 3.56546 3.68480 3.62562
# Velocity P-wave (km/s) = 7.29276 7.38043 7.33673
#
# Compressibility (1/GPa) = 0.01570875
#
# Stress axis : x y z
#
# Youngs Moduli (GPa) = 63.40478 51.30102 59.13295
#
# Poissons Ratio (x) = 0.37585 0.23461
# Poissons Ratio (y) = 0.46453 0.41035
# Poissons Ratio (z) = 0.25156 0.35600
#
# Static dielectric constant tensor:
#      x y z
#    x 1.589210 0.000000 0.000000 
#    y 0.000000 1.569500 0.000000 
#    z 0.000000 0.000000 1.586220 
# 
# From -- ./inp_files/15801.got.cif
#   From: 2010.05.17/outbox.cif.g08.bks.cpg/sg62_8_cif.got.tgz:15801.got - 2010.06.03 15:25:27.
