data_PCOD9462606
_publ_section_title
;
Structure prediction by ZEFSAII (Michael W. Deem and Ramdas Pophale) SiO2 
 PCOD9462606
Probable space group: P N M A
;
_chemical_formula_sum "Si O2"
_cell_formula_units_Z 64
_cell_length_a 31.393857
_cell_length_b 8.756293
_cell_length_c 14.726548
_cell_angle_alpha 90.000000
_cell_angle_beta 90.000000
_cell_angle_gamma 90.000000
_cell_volume 4048.236892
_symmetry_space_group_name_H-M "P N M A"
_symmetry_group_IT_number 62
_symmetry_cell_setting 'orthorhombic'
loop_
_space_group_symop_operation_xyz
x,y,z
1/2-x,-y,1/2+z
1/2+x,1/2-y,1/2-z
-x,1/2+y,-z
-x,-y,-z
1/2+x,y,1/2-z
1/2-x,1/2+y,1/2+z
x,1/2-y,z
loop_
_atom_site_type_symbol
_atom_site_label
_atom_site_fract_x
_atom_site_fract_y
_atom_site_fract_z
Si Si1 0.953515 0.067368 0.893907
Si Si2 0.296304 0.431993 0.801014
Si Si3 0.545750 0.935080 0.606268
Si Si4 0.175130 0.575298 0.013814
Si Si5 0.788217 0.433815 0.295459
Si Si6 0.766604 0.068334 0.500105
Si Si7 0.630388 0.429087 0.318331
Si Si8 0.631922 0.928703 0.682891
O O1 0.954176 0.250000 0.889924
O O2 0.915706 0.004676 0.831739
O O3 0.945543 0.023974 0.000223
O O4 0.999697 0.000816 0.869717
O O5 0.296594 0.250000 0.788850
O O6 0.254266 0.496582 0.749888
O O7 0.292268 0.465764 0.908249
O O8 0.338860 0.501022 0.757860
O O9 0.544711 0.750000 0.609750
O O10 0.584247 0.991604 0.670263
O O11 0.171340 0.750000 0.047409
O O12 0.223644 0.529138 0.998441
O O13 0.151387 0.566314 0.918163
O O14 0.154909 0.464632 0.087627
O O15 0.785903 0.250000 0.280829
O O16 0.788467 0.461540 0.403293
O O17 0.831528 0.493454 0.248385
O O18 0.755987 0.250000 0.502346
O O19 0.625841 0.250000 0.304536
O O20 0.627167 0.750000 0.708662
#
# Coordination Sequence:
#
# PCOD9462606 Si02
#       8
#     8   8   8   8   8   8   8   8
#     4  10  19  32  49  72 100 129 163 204 249 298
#     4  11  22  34  48  71 100 133 169 210 250 292
#     4   9  17  31  48  71 101 132 164 197 240 299
#     4  11  19  30  49  73 100 134 169 205 247 291
#     4  10  19  33  51  72  97 132 170 207 246 292
#     4  10  21  34  48  71 102 132 169 211 249 290
#     4  12  23  34  49  71  98 135 173 208 249 298
#     4   9  17  30  49  72  99 133 169 199 238 293
#
# _framework density 15.809352000000001
#
# number of rings (size 3 to 8) (size 9 to 14) (size 15 to 20)
#    0.000    1.750    3.750    2.250    0.000    1.000 
#    0.000    0.625    0.000    0.000    0.000    0.875 
#    0.000    0.000    0.000    0.000    0.000    0.000 
#
# Total GULP energy -356970.989495 kJ/mol
# GULP energy per Si atom -5577.671711 kJ/mol
# Density = 1.577337 g / cm^3
# Si number density = 15.809352 Si / 1000 Ang^3
#
#
#
# Elastic Constant Matrix: (Units=GPa)
#
#
# Indices 1 2 3 4 5 6 
#
# 1 140.7750 36.1128 42.3698 0.0000 0.0000 0.0000
# 2 36.1128 34.2543 22.1414 0.0000 0.0000 0.0000
# 3 42.3698 22.1414 61.6846 0.0000 0.0000 0.0000
# 4 0.0000 0.0000 0.0000 11.4260 0.0000 0.0000
# 5 0.0000 0.0000 0.0000 0.0000 21.4739 0.0000
# 6 0.0000 0.0000 0.0000 0.0000 0.0000 8.2479
#
#
#
# Elastic Compliance Matrix: (Units=1/GPa)
#
#
# Indices 1 2 3 4 5 6 
#
# 1 0.010520 -0.008359 -0.004225 0.000000 0.000000 0.000000
# 2 -0.008359 0.044656 -0.010287 0.000000 0.000000 0.000000
# 3 -0.004225 -0.010287 0.022806 0.000000 0.000000 0.000000
# 4 0.000000 0.000000 0.000000 0.087520 0.000000 0.000000
# 5 0.000000 0.000000 0.000000 0.000000 0.046568 0.000000
# 6 0.000000 0.000000 0.000000 0.000000 0.000000 0.121242
#
#
# Mechanical properties :
#
#
# Convention : Reuss Voigt Hill
#
# Bulk Modulus (GPa) = 31.01902 48.66243 39.84072
# Shear Modulus (GPa) = 12.82705 17.30222 15.06464
#
# Velocity S-wave (km/s) = 2.85153 3.31180 3.09025
# Velocity P-wave (km/s) = 5.52312 6.74327 6.16346
#
# Compressibility (1/GPa) = 0.03223829
#
# Stress axis : x y z
#
# Youngs Moduli (GPa) = 95.06077 22.39358 43.84773
#
# Poissons Ratio (x) = 0.18719 0.18526
# Poissons Ratio (y) = 0.79464 0.45107
# Poissons Ratio (z) = 0.40165 0.23037
#
# Static dielectric constant tensor:
#      x y z
#    x 1.535490 0.000000 0.000000 
#    y 0.000000 1.534110 0.000000 
#    z 0.000000 0.000000 1.524150 
# 
# From -- ./inp_files/21232.got.cif
#   From: 2010.05.17/outbox.cif.g08.bks.cpg/sg62_11_cif.got.tgz:21232.got - 2010.06.03 15:25:27.
