data_PCOD9462852
_publ_section_title
;
Structure prediction by ZEFSAII (Michael W. Deem and Ramdas Pophale) SiO2 
 PCOD9462852
Probable space group: P N M A
;
_chemical_formula_sum "Si O2"
_cell_formula_units_Z 64
_cell_length_a 14.009821
_cell_length_b 8.596802
_cell_length_c 22.913412
_cell_angle_alpha 90.000000
_cell_angle_beta 90.000000
_cell_angle_gamma 90.000000
_cell_volume 2759.683486
_symmetry_space_group_name_H-M "P N M A"
_symmetry_group_IT_number 62
_symmetry_cell_setting 'orthorhombic'
loop_
_space_group_symop_operation_xyz
x,y,z
1/2-x,-y,1/2+z
1/2+x,1/2-y,1/2-z
-x,1/2+y,-z
-x,-y,-z
1/2+x,y,1/2-z
1/2-x,1/2+y,1/2+z
x,1/2-y,z
loop_
_atom_site_type_symbol
_atom_site_label
_atom_site_fract_x
_atom_site_fract_y
_atom_site_fract_z
Si Si1 0.689301 0.070952 0.277666
Si Si2 0.406028 0.936471 0.097973
Si Si3 0.480106 0.067249 0.662937
Si Si4 0.791949 0.426913 0.656910
Si Si5 0.740564 0.925949 0.471280
Si Si6 0.876829 0.063189 0.078271
Si Si7 0.410173 0.923833 0.934100
Si Si8 0.082093 0.931391 0.721998
O O1 0.662704 0.250000 0.286439
O O2 0.803143 0.058018 0.275665
O O3 0.629812 0.971696 0.323943
O O4 0.665258 0.013037 0.212647
O O5 0.410168 0.750000 0.088448
O O6 0.479587 0.034744 0.058660
O O7 0.438615 0.973611 0.163579
O O8 0.296737 0.992438 0.084739
O O9 0.495925 0.250000 0.661153
O O10 0.522981 0.994720 0.603746
O O11 0.535506 0.996541 0.719105
O O12 0.768385 0.250000 0.672249
O O13 0.700321 0.507869 0.626897
O O14 0.870311 0.440904 0.606855
O O15 0.708770 0.750000 0.456466
O O16 0.659777 0.995151 0.514432
O O17 0.833452 0.917056 0.514066
O O18 0.874416 0.250000 0.076241
O O19 0.404334 0.750000 0.907212
O O20 0.056155 0.750000 0.715657
#
# Coordination Sequence:
#
# PCOD9462852 Si02
#       8
#     8   8   8   8   8   8   8   8
#     4  11  23  39  59  80 111 154 195 234 285 348
#     4  11  21  35  54  80 114 148 189 238 289 338
#     4  12  24  38  60  89 118 147 187 240 293 340
#     4  11  20  32  52  80 112 144 185 233 282 329
#     4   8  18  34  55  80 109 150 191 234 284 337
#     4  10  19  36  58  81 111 147 187 226 275 340
#     4  10  19  33  52  77 112 152 194 231 278 343
#     4  11  24  41  60  83 116 157 196 233 284 348
#
# _framework density 23.191065999999999
#
# number of rings (size 3 to 8) (size 9 to 14) (size 15 to 20)
#    0.000    1.500    1.250    6.000    0.000    1.500 
#    0.000    6.875    0.000    0.750    0.000    0.000 
#    0.000    0.000    0.000    0.000    0.000    0.000 
#
# Total GULP energy -357284.449549 kJ/mol
# GULP energy per Si atom -5582.569524 kJ/mol
# Density = 2.313828 g / cm^3
# Si number density = 23.191066 Si / 1000 Ang^3
#
#
#
# Elastic Constant Matrix: (Units=GPa)
#
#
# Indices 1 2 3 4 5 6 
#
# 1 52.1750 3.5717 7.6885 0.0000 0.0000 0.0000
# 2 3.5717 80.4443 2.1546 0.0000 0.0000 0.0000
# 3 7.6885 2.1546 41.2679 0.0000 0.0000 0.0000
# 4 0.0000 0.0000 0.0000 17.7979 0.0000 0.0000
# 5 0.0000 0.0000 0.0000 0.0000 39.4479 0.0000
# 6 0.0000 0.0000 0.0000 0.0000 0.0000 17.3881
#
#
#
# Elastic Compliance Matrix: (Units=1/GPa)
#
#
# Indices 1 2 3 4 5 6 
#
# 1 0.019756 -0.000780 -0.003640 0.000000 0.000000 0.000000
# 2 -0.000780 0.012479 -0.000506 0.000000 0.000000 0.000000
# 3 -0.003640 -0.000506 0.024937 0.000000 0.000000 0.000000
# 4 0.000000 0.000000 0.000000 0.056186 0.000000 0.000000
# 5 0.000000 0.000000 0.000000 0.000000 0.025350 0.000000
# 6 0.000000 0.000000 0.000000 0.000000 0.000000 0.057511
#
#
# Mechanical properties :
#
#
# Convention : Reuss Voigt Hill
#
# Bulk Modulus (GPa) = 21.13282 22.30188 21.71735
# Shear Modulus (GPa) = 22.53839 25.62494 24.08166
#
# Velocity S-wave (km/s) = 3.12084 3.32768 3.22592
# Velocity P-wave (km/s) = 4.70303 4.93985 4.82289
#
# Compressibility (1/GPa) = 0.04731977
#
# Stress axis : x y z
#
# Youngs Moduli (GPa) = 50.61750 80.13369 40.10184
#
# Poissons Ratio (x) = 0.06248 0.14597
# Poissons Ratio (y) = 0.03946 0.02030
# Poissons Ratio (z) = 0.18425 0.04057
#
# Static dielectric constant tensor:
#      x y z
#    x 1.941750 0.000000 0.000000 
#    y 0.000000 1.787630 0.000000 
#    z 0.000000 0.000000 1.951760 
# 
# From -- ./inp_files/29817.got.cif
#   From: 2010.05.17/outbox.cif.g08.bks.cpg/sg62_15_cif.got.tgz:29817.got - 2010.06.03 15:25:27.
