data_PCOD9462101
_publ_section_title
;
Structure prediction by ZEFSAII (Michael W. Deem and Ramdas Pophale) SiO2 
 PCOD9462101
Probable space group: P N M A
;
_chemical_formula_sum "Si O2"
_cell_formula_units_Z 64
_cell_length_a 24.250101
_cell_length_b 8.123420
_cell_length_c 15.997937
_cell_angle_alpha 90.000000
_cell_angle_beta 90.000000
_cell_angle_gamma 90.000000
_cell_volume 3151.493689
_symmetry_space_group_name_H-M "P N M A"
_symmetry_group_IT_number 62
_symmetry_cell_setting 'orthorhombic'
loop_
_space_group_symop_operation_xyz
x,y,z
1/2-x,-y,1/2+z
1/2+x,1/2-y,1/2-z
-x,1/2+y,-z
-x,-y,-z
1/2+x,y,1/2-z
1/2-x,1/2+y,1/2+z
x,1/2-y,z
loop_
_atom_site_type_symbol
_atom_site_label
_atom_site_fract_x
_atom_site_fract_y
_atom_site_fract_z
Si Si1 0.690369 0.056615 0.994328
Si Si2 0.500937 0.551236 0.403537
Si Si3 0.005612 0.444820 0.403612
Si Si4 0.386650 0.550277 0.157379
Si Si5 0.881442 0.549079 0.157190
Si Si6 0.882297 0.446954 0.836955
Si Si7 0.685525 0.443559 0.496087
Si Si8 0.123462 0.943636 0.347143
O O1 0.700077 0.250000 0.980669
O O2 0.656469 0.031725 0.079349
O O3 0.652885 0.993938 0.917548
O O4 0.749465 0.971974 0.998699
O O5 0.500000 0.500000 0.500000
O O6 0.501708 0.750000 0.399957
O O7 0.444269 0.496374 0.360827
O O8 0.556862 0.488411 0.360868
O O9 0.015327 0.250000 0.401167
O O10 0.948526 0.488419 0.358432
O O11 0.000000 0.500000 0.500000
O O12 0.058271 0.533085 0.363159
O O13 0.388685 0.750000 0.154616
O O14 0.365985 0.498679 0.249038
O O15 0.880195 0.750000 0.156357
O O16 0.843271 0.491139 0.080916
O O17 0.887267 0.250000 0.828140
O O18 0.841620 0.481196 0.913320
O O19 0.863755 0.507797 0.745972
O O20 0.673647 0.250000 0.492421
O O21 0.137002 0.750000 0.352621
#
# Coordination Sequence:
#
# PCOD9462101 Si02
#       8
#     8   8   8   8   8   8   8   8
#     4  11  24  41  62  88 120 159 205 257 306 360
#     4  10  18  33  58  87 119 152 191 240 296 357
#     4  12  23  37  61  93 127 160 196 243 303 367
#     4  10  21  40  64  87 118 158 201 248 301 363
#     4   9  19  37  61  88 117 156 200 244 301 362
#     4  10  22  39  62  90 122 161 202 249 307 363
#     4  11  23  40  63  88 120 162 207 255 302 361
#     4  11  23  41  65  90 122 162 204 251 304 365
#
# _framework density 20.307829999999999
#
# number of rings (size 3 to 8) (size 9 to 14) (size 15 to 20)
#    0.000    1.500    2.500    3.000    0.000    4.500 
#    0.000    5.625    0.000    0.000    0.000    0.000 
#    0.000    0.000    0.000    0.000    0.000    0.000 
#
# Total GULP energy -357705.147171 kJ/mol
# GULP energy per Si atom -5589.142925 kJ/mol
# Density = 2.026161 g / cm^3
# Si number density = 20.307830 Si / 1000 Ang^3
#
#
#
# Elastic Constant Matrix: (Units=GPa)
#
#
# Indices 1 2 3 4 5 6 
#
# 1 97.9824 -17.1160 53.4530 0.0000 0.0000 0.0000
# 2 -17.1160 16.3538 -6.1432 0.0000 0.0000 0.0000
# 3 53.4530 -6.1432 179.1650 0.0000 0.0000 0.0000
# 4 0.0000 0.0000 0.0000 12.7134 0.0000 0.0000
# 5 0.0000 0.0000 0.0000 0.0000 -1.8266 0.0000
# 6 0.0000 0.0000 0.0000 0.0000 0.0000 27.7374
#
#
#
# Elastic Compliance Matrix: (Units=1/GPa)
#
#
# Indices 1 2 3 4 5 6 
#
# 1 0.014800 0.014012 -0.003935 0.000000 0.000000 0.000000
# 2 0.014012 0.075211 -0.001602 0.000000 0.000000 0.000000
# 3 -0.003935 -0.001602 0.006701 0.000000 0.000000 0.000000
# 4 0.000000 0.000000 0.000000 0.078657 0.000000 0.000000
# 5 0.000000 0.000000 0.000000 0.000000 -0.547453 0.000000
# 6 0.000000 0.000000 0.000000 0.000000 0.000000 0.036052
#
#
# Mechanical properties :
#
#
# Convention : Reuss Voigt Hill
#
# Bulk Modulus (GPa) = 8.79795 39.32096 24.05945
# Shear Modulus (GPa) = -15.86826 25.27867 4.70521
#
# Velocity S-wave (km/s) = -2.79836 3.53196 1.52380
# Velocity P-wave (km/s) = 2.46970 6.00313 3.86899
#
# Compressibility (1/GPa) = 0.11366289
#
# Stress axis : x y z
#
# Youngs Moduli (GPa) = 67.56585 13.29585 149.24095
#
# Poissons Ratio (x) = -0.18630 0.58729
# Poissons Ratio (y) = -0.94673 0.23902
# Poissons Ratio (z) = 0.26588 0.02129
#
# Static dielectric constant tensor:
#      x y z
#    x 1.684340 0.000000 0.000000 
#    y 0.000000 1.725720 0.000000 
#    z 0.000000 0.000000 1.722950 
# 
# From -- ./inp_files/20933.got.cif
#   From: 2010.05.17/outbox.cif.g08.bks.cpg/sg62_11_cif.got.tgz:20933.got - 2010.06.03 15:25:27.
