data_PCOD9462294
_publ_section_title
;
Structure prediction by ZEFSAII (Michael W. Deem and Ramdas Pophale) SiO2 
 PCOD9462294
Probable space group: P N M A
;
_chemical_formula_sum "Si O2"
_cell_formula_units_Z 64
_cell_length_a 27.018206
_cell_length_b 8.940391
_cell_length_c 18.499027
_cell_angle_alpha 90.000000
_cell_angle_beta 90.000000
_cell_angle_gamma 90.000000
_cell_volume 4468.501495
_symmetry_space_group_name_H-M "P N M A"
_symmetry_group_IT_number 62
_symmetry_cell_setting 'orthorhombic'
loop_
_space_group_symop_operation_xyz
x,y,z
1/2-x,-y,1/2+z
1/2+x,1/2-y,1/2-z
-x,1/2+y,-z
-x,-y,-z
1/2+x,y,1/2-z
1/2-x,1/2+y,1/2+z
x,1/2-y,z
loop_
_atom_site_type_symbol
_atom_site_label
_atom_site_fract_x
_atom_site_fract_y
_atom_site_fract_z
Si Si1 0.258382 0.928309 0.583176
Si Si2 0.552636 0.428298 0.413068
Si Si3 0.253962 0.073751 0.427741
Si Si4 0.853899 0.071974 0.164590
Si Si5 0.699721 0.422382 0.793302
Si Si6 0.853399 0.430187 0.838344
Si Si7 0.553712 0.428269 0.583866
Si Si8 0.699749 0.578510 0.197144
O O1 0.261060 0.750000 0.588330
O O2 0.251480 0.981565 0.501314
O O3 0.214639 0.990976 0.634227
O O4 0.309358 0.999047 0.613817
O O5 0.553011 0.250000 0.401729
O O6 0.594952 0.507324 0.366631
O O7 0.562888 0.456391 0.498377
O O8 0.498552 0.495358 0.397635
O O9 0.250844 0.250000 0.443018
O O10 0.306596 0.044885 0.387954
O O11 0.211795 0.023775 0.371089
O O12 0.860228 0.250000 0.170368
O O13 0.840032 0.002476 0.242221
O O14 0.901755 0.996474 0.129803
O O15 0.686727 0.250000 0.807927
O O16 0.750283 0.421883 0.745770
O O17 0.850915 0.250000 0.844592
O O18 0.842057 0.468604 0.754447
O O19 0.550546 0.250000 0.594057
O O20 0.691089 0.750000 0.174047
#
# Coordination Sequence:
#
# PCOD9462294 Si02
#       8
#     8   8   8   8   8   8   8   8
#     4  11  20  29  43  63  88 116 147 180 214 255
#     4  10  20  32  46  64  86 113 147 185 220 255
#     4  10  19  29  43  63  87 115 146 179 214 254
#     4  10  19  30  45  64  86 114 148 182 217 258
#     4   9  17  30  45  61  84 112 143 178 216 257
#     4  10  19  31  46  63  86 115 146 179 217 260
#     4  10  20  32  45  62  86 116 148 183 221 256
#     4   8  16  29  43  60  83 111 141 175 213 253
#
# _framework density 14.322475000000001
#
# number of rings (size 3 to 8) (size 9 to 14) (size 15 to 20)
#    0.000    2.250    0.000    4.875    0.000    8.500 
#    0.000    0.000    0.000    0.000    0.000    0.000 
#    0.000    1.000    0.000    3.750    0.000    5.750 
#
# Total GULP energy -356941.400924 kJ/mol
# GULP energy per Si atom -5577.209389 kJ/mol
# Density = 1.428988 g / cm^3
# Si number density = 14.322475 Si / 1000 Ang^3
#
#
#
# Elastic Constant Matrix: (Units=GPa)
#
#
# Indices 1 2 3 4 5 6 
#
# 1 89.6542 53.0753 52.9224 0.0000 0.0000 0.0000
# 2 53.0753 95.2478 61.3652 0.0000 0.0000 0.0000
# 3 52.9224 61.3652 80.7568 0.0000 0.0000 0.0000
# 4 0.0000 0.0000 0.0000 26.0055 0.0000 0.0000
# 5 0.0000 0.0000 0.0000 0.0000 28.0964 0.0000
# 6 0.0000 0.0000 0.0000 0.0000 0.0000 24.0454
#
#
#
# Elastic Compliance Matrix: (Units=1/GPa)
#
#
# Indices 1 2 3 4 5 6 
#
# 1 0.019391 -0.005129 -0.008810 0.000000 0.000000 0.000000
# 2 -0.005129 0.021925 -0.013299 0.000000 0.000000 0.000000
# 3 -0.008810 -0.013299 0.028262 0.000000 0.000000 0.000000
# 4 0.000000 0.000000 0.000000 0.038453 0.000000 0.000000
# 5 0.000000 0.000000 0.000000 0.000000 0.035592 0.000000
# 6 0.000000 0.000000 0.000000 0.000000 0.000000 0.041588
#
#
# Mechanical properties :
#
#
# Convention : Reuss Voigt Hill
#
# Bulk Modulus (GPa) = 66.21821 66.70941 66.46381
# Shear Modulus (GPa) = 20.43134 22.18251 21.30692
#
# Velocity S-wave (km/s) = 3.78103 3.93974 3.86120
# Velocity P-wave (km/s) = 8.08676 8.20812 8.14767
#
# Compressibility (1/GPa) = 0.01510159
#
# Stress axis : x y z
#
# Youngs Moduli (GPa) = 51.57045 45.60908 35.38336
#
# Poissons Ratio (x) = 0.23395 0.31172
# Poissons Ratio (y) = 0.26453 0.47057
# Poissons Ratio (z) = 0.45432 0.60656
#
# Static dielectric constant tensor:
#      x y z
#    x 1.449300 0.000000 0.000000 
#    y 0.000000 1.475870 0.000000 
#    z 0.000000 0.000000 1.464540 
# 
# From -- ./inp_files/24950.got.cif
#   From: 2010.05.17/outbox.cif.g08.bks.cpg/sg62_13_cif.got.tgz:24950.got - 2010.06.03 15:25:27.
