data_PCOD9462891
_publ_section_title
;
Structure prediction by ZEFSAII (Michael W. Deem and Ramdas Pophale) SiO2 
 PCOD9462891
Probable space group: P N M A
;
_chemical_formula_sum "Si O2"
_cell_formula_units_Z 64
_cell_length_a 25.560907
_cell_length_b 12.626216
_cell_length_c 11.269856
_cell_angle_alpha 90.000000
_cell_angle_beta 90.000000
_cell_angle_gamma 90.000000
_cell_volume 3637.205522
_symmetry_space_group_name_H-M "P N M A"
_symmetry_group_IT_number 62
_symmetry_cell_setting 'orthorhombic'
loop_
_space_group_symop_operation_xyz
x,y,z
1/2-x,-y,1/2+z
1/2+x,1/2-y,1/2-z
-x,1/2+y,-z
-x,-y,-z
1/2+x,y,1/2-z
1/2-x,1/2+y,1/2+z
x,1/2-y,z
loop_
_atom_site_type_symbol
_atom_site_label
_atom_site_fract_x
_atom_site_fract_y
_atom_site_fract_z
Si Si1 0.514217 0.952835 0.627827
Si Si2 0.404301 0.519858 0.698662
Si Si3 0.062707 0.625681 0.417898
Si Si4 0.802803 0.125454 0.230743
Si Si5 0.046497 0.371229 0.682722
Si Si6 0.138024 0.489281 0.573826
Si Si7 0.114815 0.868828 0.976703
Si Si8 0.815415 0.624794 0.652941
O O1 0.458538 0.916022 0.679638
O O2 0.562236 0.875457 0.603362
O O3 0.500000 0.000000 0.500000
O O4 0.534522 0.046491 0.712736
O O5 0.417560 0.431475 0.798126
O O6 0.389231 0.456516 0.579388
O O7 0.358134 0.591267 0.749199
O O8 0.074391 0.750000 0.416158
O O9 0.093739 0.569504 0.523402
O O10 0.999631 0.613991 0.415064
O O11 0.807070 0.250000 0.265139
O O12 0.837086 0.111927 0.111587
O O13 0.742593 0.102117 0.200936
O O14 0.826420 0.050486 0.331895
O O15 0.042228 0.250000 0.724125
O O16 0.103429 0.396595 0.632226
O O17 0.170836 0.441955 0.464712
O O18 0.118822 0.750000 0.027366
O O19 0.818909 0.750000 0.627687
#
# Coordination Sequence:
#
# PCOD9462891 Si02
#       8
#     8   8   8   8   8   8   8   8
#     4   9  18  33  52  82 114 145 182 220 271 327
#     4   9  19  34  58  80 112 148 183 222 274 332
#     4   9  18  32  53  84 115 144 179 223 273 327
#     4  10  22  38  58  81 108 142 185 236 280 321
#     4  10  19  33  53  80 115 148 179 222 273 330
#     4  11  20  36  60  79 110 145 187 228 277 334
#     4  10  19  34  56  82 110 142 186 228 273 325
#     4  10  23  40  57  81 110 146 186 231 280 326
#
# _framework density 17.595925999999999
#
# number of rings (size 3 to 8) (size 9 to 14) (size 15 to 20)
#    0.000    2.250    1.250    1.500    1.750    3.500 
#    0.000    1.875    0.000    2.250    0.000    0.000 
#    0.000    0.000    0.000    0.000    0.000    0.000 
#
# Total GULP energy -356837.786892 kJ/mol
# GULP energy per Si atom -5575.590420 kJ/mol
# Density = 1.755588 g / cm^3
# Si number density = 17.595926 Si / 1000 Ang^3
#
#
#
# Elastic Constant Matrix: (Units=GPa)
#
#
# Indices 1 2 3 4 5 6 
#
# 1 121.0943 25.8038 32.2557 0.0000 0.0000 0.0000
# 2 25.8038 41.1886 10.1068 0.0000 0.0000 0.0000
# 3 32.2557 10.1068 49.2572 0.0000 0.0000 0.0000
# 4 0.0000 0.0000 0.0000 18.9342 0.0000 0.0000
# 5 0.0000 0.0000 0.0000 0.0000 22.2002 0.0000
# 6 0.0000 0.0000 0.0000 0.0000 0.0000 24.1922
#
#
#
# Elastic Compliance Matrix: (Units=1/GPa)
#
#
# Indices 1 2 3 4 5 6 
#
# 1 0.011042 -0.005416 -0.006120 0.000000 0.000000 0.000000
# 2 -0.005416 0.028222 -0.002244 0.000000 0.000000 0.000000
# 3 -0.006120 -0.002244 0.024769 0.000000 0.000000 0.000000
# 4 0.000000 0.000000 0.000000 0.052815 0.000000 0.000000
# 5 0.000000 0.000000 0.000000 0.000000 0.045045 0.000000
# 6 0.000000 0.000000 0.000000 0.000000 0.000000 0.041336
#
#
# Mechanical properties :
#
#
# Convention : Reuss Voigt Hill
#
# Bulk Modulus (GPa) = 27.41650 38.65252 33.03451
# Shear Modulus (GPa) = 20.58067 22.62357 21.60212
#
# Velocity S-wave (km/s) = 3.42369 3.58959 3.50762
# Velocity P-wave (km/s) = 5.58962 6.26057 5.93458
#
# Compressibility (1/GPa) = 0.03647439
#
# Stress axis : x y z
#
# Youngs Moduli (GPa) = 90.56165 35.43297 40.37235
#
# Poissons Ratio (x) = 0.19191 0.24706
# Poissons Ratio (y) = 0.49049 0.09060
# Poissons Ratio (z) = 0.55420 0.07951
#
# Static dielectric constant tensor:
#      x y z
#    x 1.608540 0.000000 0.000000 
#    y 0.000000 1.579390 0.000000 
#    z 0.000000 0.000000 1.595680 
# 
# From -- ./inp_files/15334.got.cif
#   From: 2010.05.17/outbox.cif.g08.bks.cpg/sg62_8_cif.got.tgz:15334.got - 2010.06.03 15:25:27.
