data_PCOD9462160
_publ_section_title
;
Structure prediction by ZEFSAII (Michael W. Deem and Ramdas Pophale) SiO2 
 PCOD9462160
Probable space group: P N M A
;
_chemical_formula_sum "Si O2"
_cell_formula_units_Z 64
_cell_length_a 12.702371
_cell_length_b 17.537483
_cell_length_c 16.664488
_cell_angle_alpha 90.000000
_cell_angle_beta 90.000000
_cell_angle_gamma 90.000000
_cell_volume 3712.308255
_symmetry_space_group_name_H-M "P N M A"
_symmetry_group_IT_number 62
_symmetry_cell_setting 'orthorhombic'
loop_
_space_group_symop_operation_xyz
x,y,z
1/2-x,-y,1/2+z
1/2+x,1/2-y,1/2-z
-x,1/2+y,-z
-x,-y,-z
1/2+x,y,1/2-z
1/2-x,1/2+y,1/2+z
x,1/2-y,z
loop_
_atom_site_type_symbol
_atom_site_label
_atom_site_fract_x
_atom_site_fract_y
_atom_site_fract_z
Si Si1 0.692340 0.161406 0.858762
Si Si2 0.282515 0.038888 0.521153
Si Si3 0.795986 0.428707 0.724414
Si Si4 0.405723 0.956508 0.651592
Si Si5 0.653572 0.938926 0.660500
Si Si6 0.224145 0.659057 0.693387
Si Si7 0.586939 0.568429 0.932368
Si Si8 0.022829 0.915470 0.395999
O O1 0.695174 0.250000 0.875244
O O2 0.751326 0.112412 0.926830
O O3 0.749335 0.139889 0.775907
O O4 0.572957 0.130514 0.857425
O O5 0.305873 0.061692 0.430637
O O6 0.376955 0.994265 0.565785
O O7 0.183104 0.981967 0.531365
O O8 0.866878 0.481456 0.783073
O O9 0.700388 0.483083 0.697628
O O10 0.868978 0.404431 0.650896
O O11 0.527739 0.939282 0.660701
O O12 0.332074 0.882658 0.666016
O O13 0.696634 0.871980 0.717802
O O14 0.229600 0.750000 0.689653
O O15 0.134967 0.624813 0.633339
O O16 0.509019 0.505384 0.894515
O O17 0.533293 0.605575 0.010002
#
# Coordination Sequence:
#
# PCOD9462160 Si02
#       8
#     8   8   8   8   8   8   8   8
#     4  10  22  36  50  79 116 144 174 215 274 335
#     4   9  18  35  57  82 103 138 179 234 268 314
#     4  10  19  34  56  82 106 136 180 231 268 309
#     4   9  19  34  55  78 107 140 178 223 273 315
#     4  11  19  34  60  83 102 135 190 229 268 318
#     4  10  22  36  50  77 116 147 172 216 275 334
#     4   9  18  35  58  82 107 135 186 231 270 317
#     4  10  18  34  61  81 104 139 184 233 271 309
#
# _framework density 17.239948999999999
#
# number of rings (size 3 to 8) (size 9 to 14) (size 15 to 20)
#    0.000    2.250    1.250    4.125    0.000    2.000 
#    0.000    0.000    0.000    0.000    0.000    0.000 
#    0.000    0.000    0.000    0.000    0.000    0.000 
#
# Total GULP energy -357036.889291 kJ/mol
# GULP energy per Si atom -5578.701395 kJ/mol
# Density = 1.720071 g / cm^3
# Si number density = 17.239949 Si / 1000 Ang^3
#
#
#
# Elastic Constant Matrix: (Units=GPa)
#
#
# Indices 1 2 3 4 5 6 
#
# 1 74.4905 26.6285 28.0270 0.0000 0.0000 0.0000
# 2 26.6285 93.2395 39.5982 0.0000 0.0000 0.0000
# 3 28.0270 39.5982 96.7137 0.0000 0.0000 0.0000
# 4 0.0000 0.0000 0.0000 11.4815 0.0000 0.0000
# 5 0.0000 0.0000 0.0000 0.0000 28.5093 0.0000
# 6 0.0000 0.0000 0.0000 0.0000 0.0000 7.9514
#
#
#
# Elastic Compliance Matrix: (Units=1/GPa)
#
#
# Indices 1 2 3 4 5 6 
#
# 1 0.015776 -0.003104 -0.003301 0.000000 0.000000 0.000000
# 2 -0.003104 0.013593 -0.004666 0.000000 0.000000 0.000000
# 3 -0.003301 -0.004666 0.013207 0.000000 0.000000 0.000000
# 4 0.000000 0.000000 0.000000 0.087097 0.000000 0.000000
# 5 0.000000 0.000000 0.000000 0.000000 0.035076 0.000000
# 6 0.000000 0.000000 0.000000 0.000000 0.000000 0.125764
#
#
# Mechanical properties :
#
#
# Convention : Reuss Voigt Hill
#
# Bulk Modulus (GPa) = 48.93687 50.32790 49.63238
# Shear Modulus (GPa) = 15.65110 20.93443 18.29277
#
# Velocity S-wave (km/s) = 3.01631 3.48846 3.26094
# Velocity P-wave (km/s) = 6.37010 6.74402 6.55972
#
# Compressibility (1/GPa) = 0.02043449
#
# Stress axis : x y z
#
# Youngs Moduli (GPa) = 63.38737 73.56671 75.71795
#
# Poissons Ratio (x) = 0.22832 0.24995
# Poissons Ratio (y) = 0.19673 0.35331
# Poissons Ratio (z) = 0.20925 0.34327
#
# Static dielectric constant tensor:
#      x y z
#    x 1.588490 0.000000 0.000000 
#    y 0.000000 1.544190 0.000000 
#    z 0.000000 0.000000 1.609600 
# 
# From -- ./inp_files/18251.got.cif
#   From: 2010.05.17/outbox.cif.g08.bks.cpg/sg62_10_cif.got.tgz:18251.got - 2010.06.03 15:25:27.
