data_PCOD9462167
_publ_section_title
;
Structure prediction by ZEFSAII (Michael W. Deem and Ramdas Pophale) SiO2 
 PCOD9462167
Probable space group: P N M A
;
_chemical_formula_sum "Si O2"
_cell_formula_units_Z 28
_cell_length_a 13.682324
_cell_length_b 5.315131
_cell_length_c 16.820755
_cell_angle_alpha 90.000000
_cell_angle_beta 90.000000
_cell_angle_gamma 90.000000
_cell_volume 1223.261560
_symmetry_space_group_name_H-M "P N M A"
_symmetry_group_IT_number 62
_symmetry_cell_setting 'orthorhombic'
loop_
_space_group_symop_operation_xyz
x,y,z
1/2-x,-y,1/2+z
1/2+x,1/2-y,1/2-z
-x,1/2+y,-z
-x,-y,-z
1/2+x,y,1/2-z
1/2-x,1/2+y,1/2+z
x,1/2-y,z
loop_
_atom_site_type_symbol
_atom_site_label
_atom_site_fract_x
_atom_site_fract_y
_atom_site_fract_z
Si Si1 0.700351 0.750000 0.646903
Si Si2 0.450588 0.250000 0.533343
Si Si3 0.454242 0.750000 0.144163
Si Si4 0.584754 0.250000 0.667668
Si Si5 0.759905 0.250000 0.905401
Si Si6 0.077590 0.250000 0.346076
Si Si7 0.196020 0.250000 0.192911
O O1 0.641566 0.494191 0.635877
O O2 0.812842 0.750000 0.617873
O O3 0.717496 0.750000 0.743052
O O4 0.500000 0.500000 0.500000
O O5 0.479083 0.250000 0.626711
O O6 0.334138 0.250000 0.520455
O O7 0.421386 0.750000 0.237114
O O8 0.356971 0.750000 0.090277
O O9 0.518581 0.499978 0.132341
O O10 0.790378 0.502549 0.858855
O O11 0.100306 0.250000 0.249997
#
# Coordination Sequence:
#
# PCOD9462167 Si02
#       7
#     4   4   4   4   4   4   4
#     4  10  20  35  53  91 122 153 192 258 323 391
#     4  12  28  46  62  89 126 185 229 247 294 368
#     4  12  19  33  56  95 113 166 180 257 345 362
#     4  12  21  37  63  83 124 161 221 254 311 376
#     4  12  22  39  59  83 129 158 215 269 296 377
#     4  10  20  29  51  83 134 135 182 226 323 414
#     4  10  18  35  52  88 128 152 185 257 322 378
#
# _framework density 22.889627000000001
#
# number of rings (size 3 to 8) (size 9 to 14) (size 15 to 20)
#    0.857    0.000    2.857    6.857    0.000    0.000 
#    0.000    0.000    0.000    0.000    0.000   20.000 
#    0.000    0.000    0.000    0.000    0.000    0.000 
#
# Total GULP energy -156493.023354 kJ/mol
# GULP energy per Si atom -5589.036548 kJ/mol
# Density = 2.283753 g / cm^3
# Si number density = 22.889627 Si / 1000 Ang^3
#
#
#
# Elastic Constant Matrix: (Units=GPa)
#
#
# Indices 1 2 3 4 5 6 
#
# 1 193.3340 90.7673 14.3762 0.0000 0.0000 0.0000
# 2 90.7673 229.3541 2.7408 0.0000 0.0000 0.0000
# 3 14.3762 2.7408 22.7032 0.0000 0.0000 0.0000
# 4 0.0000 0.0000 0.0000 20.2375 0.0000 0.0000
# 5 0.0000 0.0000 0.0000 0.0000 44.4997 0.0000
# 6 0.0000 0.0000 0.0000 0.0000 0.0000 53.7349
#
#
#
# Elastic Compliance Matrix: (Units=1/GPa)
#
#
# Indices 1 2 3 4 5 6 
#
# 1 0.006684 -0.002598 -0.003919 0.000000 0.000000 0.000000
# 2 -0.002598 0.005376 0.000996 0.000000 0.000000 0.000000
# 3 -0.003919 0.000996 0.046408 0.000000 0.000000 0.000000
# 4 0.000000 0.000000 0.000000 0.049413 0.000000 0.000000
# 5 0.000000 0.000000 0.000000 0.000000 0.022472 0.000000
# 6 0.000000 0.000000 0.000000 0.000000 0.000000 0.018610
#
#
# Mechanical properties :
#
#
# Convention : Reuss Voigt Hill
#
# Bulk Modulus (GPa) = 21.08523 73.46222 47.27372
# Shear Modulus (GPa) = 28.43936 46.19491 37.31714
#
# Velocity S-wave (km/s) = 3.52867 4.49727 4.04209
# Velocity P-wave (km/s) = 5.08269 7.68967 6.51785
#
# Compressibility (1/GPa) = 0.04742656
#
# Stress axis : x y z
#
# Youngs Moduli (GPa) = 149.61998 185.99747 21.54816
#
# Poissons Ratio (x) = 0.48326 0.08444
# Poissons Ratio (y) = 0.38875 -0.02147
# Poissons Ratio (z) = 0.58629 -0.18529
#
# Static dielectric constant tensor:
#      x y z
#    x 1.865960 0.000000 0.000000 
#    y 0.000000 1.746810 0.000000 
#    z 0.000000 0.000000 1.904700 
# 
# From -- ./inp_files/22689.got.cif
#   From: 2010.05.17/outbox.cif.g08.bks.cpg/sg62_12_cif.got.tgz:22689.got - 2010.06.03 15:25:27.
