data_PCOD9462154
_publ_section_title
;
Structure prediction by ZEFSAII (Michael W. Deem and Ramdas Pophale) SiO2 
 PCOD9462154
Probable space group: P N M A
;
_chemical_formula_sum "Si O2"
_cell_formula_units_Z 56
_cell_length_a 14.343390
_cell_length_b 13.581763
_cell_length_c 11.952563
_cell_angle_alpha 90.000000
_cell_angle_beta 90.000000
_cell_angle_gamma 90.000000
_cell_volume 2328.461151
_symmetry_space_group_name_H-M "P N M A"
_symmetry_group_IT_number 62
_symmetry_cell_setting 'orthorhombic'
loop_
_space_group_symop_operation_xyz
x,y,z
1/2-x,-y,1/2+z
1/2+x,1/2-y,1/2-z
-x,1/2+y,-z
-x,-y,-z
1/2+x,y,1/2-z
1/2-x,1/2+y,1/2+z
x,1/2-y,z
loop_
_atom_site_type_symbol
_atom_site_label
_atom_site_fract_x
_atom_site_fract_y
_atom_site_fract_z
Si Si1 0.583919 0.063013 0.199540
Si Si2 0.903278 0.021522 0.369301
Si Si3 0.225832 0.962458 0.036746
Si Si4 0.211649 0.638573 0.811921
Si Si5 0.692401 0.861559 0.232649
Si Si6 0.417865 0.867712 0.565408
Si Si7 0.907041 0.863140 0.181072
O O1 0.501203 0.073662 0.109846
O O2 0.675833 0.130223 0.191928
O O3 0.536216 0.095633 0.319096
O O4 0.626089 0.952175 0.201273
O O5 0.835607 0.089281 0.294444
O O6 0.836151 0.984390 0.466903
O O7 0.928724 0.932273 0.285107
O O8 0.212918 0.884238 0.136730
O O9 0.172905 0.062754 0.065432
O O10 0.185468 0.919704 0.923469
O O11 0.181823 0.750000 0.821022
O O12 0.658031 0.750000 0.216563
O O13 0.793234 0.869389 0.171221
O O14 0.401499 0.750000 0.571000
O O15 0.455584 0.885815 0.438677
O O16 0.928341 0.750000 0.207400
#
# Coordination Sequence:
#
# PCOD9462154 Si02
#       7
#     8   8   8   8   8   8   8
#     4  11  23  37  60  90 127 162 203 253 308 375
#     4  11  23  40  63  91 123 162 205 257 312 374
#     4  10  20  39  63  89 118 161 209 253 307 363
#     4  12  24  43  64  88 125 166 207 260 316 368
#     4   9  17  35  59  87 120 162 206 253 306 365
#     4  10  18  34  59  86 119 156 202 250 302 363
#     4   9  17  34  61  86 115 156 201 250 308 365
#
# _framework density 24.050218999999998
#
# number of rings (size 3 to 8) (size 9 to 14) (size 15 to 20)
#    0.000    1.714    5.714    0.857    0.000    3.429 
#    0.000    0.000    0.000    1.714    0.000    0.000 
#    0.000    0.000    0.000    0.000    0.000    0.000 
#
# Total GULP energy -312835.948953 kJ/mol
# GULP energy per Si atom -5586.356231 kJ/mol
# Density = 2.399548 g / cm^3
# Si number density = 24.050219 Si / 1000 Ang^3
#
#
#
# Elastic Constant Matrix: (Units=GPa)
#
#
# Indices 1 2 3 4 5 6 
#
# 1 58.3810 -12.8277 -13.5534 0.0000 0.0000 0.0000
# 2 -12.8277 126.3727 23.4310 0.0000 0.0000 0.0000
# 3 -13.5534 23.4310 55.0582 0.0000 0.0000 0.0000
# 4 0.0000 0.0000 0.0000 18.0578 0.0000 0.0000
# 5 0.0000 0.0000 0.0000 0.0000 28.5831 0.0000
# 6 0.0000 0.0000 0.0000 0.0000 0.0000 7.3790
#
#
#
# Elastic Compliance Matrix: (Units=1/GPa)
#
#
# Indices 1 2 3 4 5 6 
#
# 1 0.018309 0.001110 0.004035 0.000000 0.000000 0.000000
# 2 0.001110 0.008658 -0.003411 0.000000 0.000000 0.000000
# 3 0.004035 -0.003411 0.020608 0.000000 0.000000 0.000000
# 4 0.000000 0.000000 0.000000 0.055378 0.000000 0.000000
# 5 0.000000 0.000000 0.000000 0.000000 0.034986 0.000000
# 6 0.000000 0.000000 0.000000 0.000000 0.000000 0.135521
#
#
# Mechanical properties :
#
#
# Convention : Reuss Voigt Hill
#
# Bulk Modulus (GPa) = 19.59143 25.99020 22.79081
# Shear Modulus (GPa) = 17.42123 26.98810 22.20466
#
# Velocity S-wave (km/s) = 2.69433 3.35349 3.04182
# Velocity P-wave (km/s) = 4.22409 5.08180 4.67267
#
# Compressibility (1/GPa) = 0.05104274
#
# Stress axis : x y z
#
# Youngs Moduli (GPa) = 54.61647 115.49568 48.52594
#
# Poissons Ratio (x) = -0.12826 -0.19578
# Poissons Ratio (y) = -0.06065 0.16554
# Poissons Ratio (z) = -0.22035 0.39400
#
# Static dielectric constant tensor:
#      x y z
#    x 1.974110 0.000000 0.000000 
#    y 0.000000 1.860220 0.000000 
#    z 0.000000 0.000000 1.978830 
# 
# From -- ./inp_files/19113.got.cif
#   From: 2010.05.17/outbox.cif.g08.bks.cpg/sg62_10_cif.got.tgz:19113.got - 2010.06.03 15:25:27.
