data_PCOD9462309
_publ_section_title
;
Structure prediction by ZEFSAII (Michael W. Deem and Ramdas Pophale) SiO2 
 PCOD9462309
Probable space group: P N M A
;
_chemical_formula_sum "Si O2"
_cell_formula_units_Z 52
_cell_length_a 5.182021
_cell_length_b 21.639922
_cell_length_c 26.197545
_cell_angle_alpha 90.000000
_cell_angle_beta 90.000000
_cell_angle_gamma 90.000000
_cell_volume 2937.754192
_symmetry_space_group_name_H-M "P N M A"
_symmetry_group_IT_number 62
_symmetry_cell_setting 'orthorhombic'
loop_
_space_group_symop_operation_xyz
x,y,z
1/2-x,-y,1/2+z
1/2+x,1/2-y,1/2-z
-x,1/2+y,-z
-x,-y,-z
1/2+x,y,1/2-z
1/2-x,1/2+y,1/2+z
x,1/2-y,z
loop_
_atom_site_type_symbol
_atom_site_label
_atom_site_fract_x
_atom_site_fract_y
_atom_site_fract_z
Si Si1 0.004070 0.750000 0.783821
Si Si2 0.942950 0.058641 0.434753
Si Si3 0.388699 0.881345 0.716800
Si Si4 0.552529 0.104171 0.609284
Si Si5 0.560129 0.543507 0.623918
Si Si6 0.009851 0.175870 0.784012
Si Si7 0.450951 0.910097 0.046597
O O1 0.297381 0.750000 0.763453
O O2 0.941862 0.685075 0.809933
O O3 0.652667 0.068546 0.415971
O O4 0.011753 0.095618 0.485972
O O5 0.159017 0.068609 0.391508
O O6 0.958123 0.984743 0.445520
O O7 0.097900 0.883624 0.737330
O O8 0.463004 0.935030 0.678616
O O9 0.522844 0.141291 0.661870
O O10 0.815182 0.118049 0.579058
O O11 0.314204 0.113516 0.570735
O O12 0.559606 0.030744 0.621436
O O13 0.253948 0.160265 0.748217
O O14 0.012010 0.250000 0.792661
#
# Coordination Sequence:
#
# PCOD9462309 Si02
#       7
#     4   8   8   8   8   8   8
#     4   8  16  30  46  62  82 114 158 188 206 252
#     4   9  17  30  46  70  99 124 153 191 235 283
#     4  10  19  31  46  67  93 123 158 191 226 270
#     4  10  19  31  49  74  95 123 160 193 241 285
#     4  10  19  29  46  73 100 124 154 193 242 290
#     4  10  21  36  52  71  97 130 168 204 242 290
#     4   9  17  30  49  71  96 122 156 196 230 281
#
# _framework density 17.700596000000001
#
# number of rings (size 3 to 8) (size 9 to 14) (size 15 to 20)
#    0.000    2.462    0.000    2.769    0.000    4.923 
#    0.000    0.000    0.000    0.000   12.000    0.000 
#    0.000    0.000    0.000    0.000    0.000    0.000 
#
# Total GULP energy -289769.608809 kJ/mol
# GULP energy per Si atom -5572.492477 kJ/mol
# Density = 1.766031 g / cm^3
# Si number density = 17.700596 Si / 1000 Ang^3
#
#
#
# Elastic Constant Matrix: (Units=GPa)
#
#
# Indices 1 2 3 4 5 6 
#
# 1 69.7763 3.2270 -5.7501 0.0000 0.0000 0.0000
# 2 3.2270 16.2102 9.3550 0.0000 0.0000 0.0000
# 3 -5.7501 9.3550 47.9348 0.0000 0.0000 0.0000
# 4 0.0000 0.0000 0.0000 5.1904 0.0000 0.0000
# 5 0.0000 0.0000 0.0000 0.0000 24.3914 0.0000
# 6 0.0000 0.0000 0.0000 0.0000 0.0000 8.7827
#
#
#
# Elastic Compliance Matrix: (Units=1/GPa)
#
#
# Indices 1 2 3 4 5 6 
#
# 1 0.014755 -0.004461 0.002641 0.000000 0.000000 0.000000
# 2 -0.004461 0.070868 -0.014366 0.000000 0.000000 0.000000
# 3 0.002641 -0.014366 0.023982 0.000000 0.000000 0.000000
# 4 0.000000 0.000000 0.000000 0.192664 0.000000 0.000000
# 5 0.000000 0.000000 0.000000 0.000000 0.040998 0.000000
# 6 0.000000 0.000000 0.000000 0.000000 0.000000 0.113861
#
#
# Mechanical properties :
#
#
# Convention : Reuss Voigt Hill
#
# Bulk Modulus (GPa) = 12.94787 16.39832 14.67310
# Shear Modulus (GPa) = 9.70412 16.14553 12.92483
#
# Velocity S-wave (km/s) = 2.34399 3.02345 2.70514
# Velocity P-wave (km/s) = 3.82838 4.63387 4.25025
#
# Compressibility (1/GPa) = 0.07723279
#
# Stress axis : x y z
#
# Youngs Moduli (GPa) = 67.77153 14.11074 41.69787
#
# Poissons Ratio (x) = 0.06295 -0.11011
# Poissons Ratio (y) = 0.30235 0.59902
# Poissons Ratio (z) = -0.17896 0.20271
#
# Static dielectric constant tensor:
#      x y z
#    x 1.616470 0.000000 0.000000 
#    y 0.000000 1.608930 0.000000 
#    z 0.000000 0.000000 1.594100 
# 
# From -- ./inp_files/25348.got.cif
#   From: 2010.05.17/outbox.cif.g08.bks.cpg/sg62_13_cif.got.tgz:25348.got - 2010.06.03 15:25:27.
