data_PCOD9462914
_publ_section_title
;
Structure prediction by ZEFSAII (Michael W. Deem and Ramdas Pophale) SiO2 
 PCOD9462914
Probable space group: P N M A
;
_chemical_formula_sum "Si O2"
_cell_formula_units_Z 48
_cell_length_a 28.732970
_cell_length_b 9.290309
_cell_length_c 7.812434
_cell_angle_alpha 90.000000
_cell_angle_beta 90.000000
_cell_angle_gamma 90.000000
_cell_volume 2085.436834
_symmetry_space_group_name_H-M "P N M A"
_symmetry_group_IT_number 62
_symmetry_cell_setting 'orthorhombic'
loop_
_space_group_symop_operation_xyz
x,y,z
1/2-x,-y,1/2+z
1/2+x,1/2-y,1/2-z
-x,1/2+y,-z
-x,-y,-z
1/2+x,y,1/2-z
1/2-x,1/2+y,1/2+z
x,1/2-y,z
loop_
_atom_site_type_symbol
_atom_site_label
_atom_site_fract_x
_atom_site_fract_y
_atom_site_fract_z
Si Si1 0.650354 0.919590 0.619903
Si Si2 0.685662 0.083982 0.084161
Si Si3 0.268167 0.583778 0.542606
Si Si4 0.564356 0.589131 0.399018
Si Si5 0.094643 0.079726 0.581805
Si Si6 0.988152 0.413580 0.270627
O O1 0.650959 0.750000 0.666959
O O2 0.617553 0.933522 0.451816
O O3 0.700423 0.980958 0.574638
O O4 0.625329 0.016666 0.761481
O O5 0.691084 0.250000 0.023501
O O6 0.630574 0.052222 0.073562
O O7 0.715994 0.976168 0.969191
O O8 0.708141 0.076199 0.271488
O O9 0.269492 0.750000 0.486047
O O10 0.558401 0.750000 0.328176
O O11 0.538489 0.586196 0.585411
O O12 0.537966 0.479150 0.277304
O O13 0.087464 0.250000 0.598520
O O14 0.045159 0.002445 0.603357
O O15 0.992185 0.250000 0.329041
#
# Coordination Sequence:
#
# PCOD9462914 Si02
#       6
#     8   8   8   8   8   8
#     4  10  20  34  53  79 109 138 174 218 260 308
#     4  10  23  40  56  78 106 136 173 214 257 310
#     4  11  23  38  57  79 104 135 171 213 260 310
#     4   8  15  27  44  69 102 138 172 210 257 304
#     4  10  19  33  54  78 107 142 177 215 261 309
#     4   9  16  26  44  73 106 137 173 217 259 302
#
# _framework density 23.016760000000001
#
# number of rings (size 3 to 8) (size 9 to 14) (size 15 to 20)
#    0.000    2.333    0.000    4.000    0.000   10.000 
#    0.000    0.000    0.000    1.000    0.000    0.000 
#    0.000    0.000    0.000    0.000    0.000    0.000 
#
# Total GULP energy -268357.362017 kJ/mol
# GULP energy per Si atom -5590.778375 kJ/mol
# Density = 2.296437 g / cm^3
# Si number density = 23.016760 Si / 1000 Ang^3
#
#
#
# Elastic Constant Matrix: (Units=GPa)
#
#
# Indices 1 2 3 4 5 6 
#
# 1 133.7675 51.3630 7.9944 0.0000 0.0000 0.0000
# 2 51.3630 94.7486 33.6195 0.0000 0.0000 0.0000
# 3 7.9944 33.6195 55.9579 0.0000 0.0000 0.0000
# 4 0.0000 0.0000 0.0000 5.8971 0.0000 0.0000
# 5 0.0000 0.0000 0.0000 0.0000 38.0731 0.0000
# 6 0.0000 0.0000 0.0000 0.0000 0.0000 31.4326
#
#
#
# Elastic Compliance Matrix: (Units=1/GPa)
#
#
# Indices 1 2 3 4 5 6 
#
# 1 0.009657 -0.006032 0.002244 0.000000 0.000000 0.000000
# 2 -0.006032 0.017181 -0.009461 0.000000 0.000000 0.000000
# 3 0.002244 -0.009461 0.023234 0.000000 0.000000 0.000000
# 4 0.000000 0.000000 0.000000 0.169575 0.000000 0.000000
# 5 0.000000 0.000000 0.000000 0.000000 0.026265 0.000000
# 6 0.000000 0.000000 0.000000 0.000000 0.000000 0.031814
#
#
# Mechanical properties :
#
#
# Convention : Reuss Voigt Hill
#
# Bulk Modulus (GPa) = 42.41586 52.26974 47.34280
# Shear Modulus (GPa) = 16.02145 27.84703 21.93424
#
# Velocity S-wave (km/s) = 2.64119 3.48208 3.09037
# Velocity P-wave (km/s) = 5.26967 6.23901 5.77471
#
# Compressibility (1/GPa) = 0.02357609
#
# Stress axis : x y z
#
# Youngs Moduli (GPa) = 103.54647 58.20450 43.04066
#
# Poissons Ratio (x) = 0.35106 -0.09659
# Poissons Ratio (y) = 0.62455 0.40719
# Poissons Ratio (z) = -0.23236 0.55064
#
# Static dielectric constant tensor:
#      x y z
#    x 1.855240 0.000000 0.000000 
#    y 0.000000 1.791100 0.000000 
#    z 0.000000 0.000000 1.896620 
# 
# From -- ./inp_files/10267.got.cif
#   From: 2010.05.17/outbox.cif.g08.bks.cpg/sg62_6_cif.got.tgz:10267.got - 2010.06.03 15:25:27.
