data_PCOD9462904
_publ_section_title
;
Structure prediction by ZEFSAII (Michael W. Deem and Ramdas Pophale) SiO2 
 PCOD9462904
Probable space group: P N M A
;
_chemical_formula_sum "Si O2"
_cell_formula_units_Z 64
_cell_length_a 29.997223
_cell_length_b 21.835741
_cell_length_c 5.127181
_cell_angle_alpha 90.000000
_cell_angle_beta 90.000000
_cell_angle_gamma 90.000000
_cell_volume 3358.362990
_symmetry_space_group_name_H-M "P N M A"
_symmetry_group_IT_number 62
_symmetry_cell_setting 'orthorhombic'
loop_
_space_group_symop_operation_xyz
x,y,z
1/2-x,-y,1/2+z
1/2+x,1/2-y,1/2-z
-x,1/2+y,-z
-x,-y,-z
1/2+x,y,1/2-z
1/2-x,1/2+y,1/2+z
x,1/2-y,z
loop_
_atom_site_type_symbol
_atom_site_label
_atom_site_fract_x
_atom_site_fract_y
_atom_site_fract_z
Si Si1 0.836842 0.060251 0.941232
Si Si2 0.659179 0.077337 0.356213
Si Si3 0.254667 0.958372 0.916985
Si Si4 0.079318 0.070428 0.511047
Si Si5 0.014119 0.317257 0.074695
Si Si6 0.388323 0.821226 0.378290
Si Si7 0.892270 0.438186 0.414800
Si Si8 0.513705 0.617005 0.065687
O O1 0.786369 0.082740 0.981368
O O2 0.870157 0.087828 0.153466
O O3 0.856537 0.064030 0.651040
O O4 0.832186 0.986866 0.001838
O O5 0.698646 0.075841 0.141319
O O6 0.609521 0.067800 0.244345
O O7 0.653734 0.141688 0.503842
O O8 0.240581 0.989978 0.641715
O O9 0.094500 0.132983 0.652221
O O10 0.026329 0.071262 0.483199
O O11 0.093252 0.007852 0.650367
O O12 0.001342 0.250000 0.980666
O O13 0.994913 0.365086 0.865281
O O14 0.068018 0.319824 0.066303
O O15 0.996294 0.328305 0.363515
O O16 0.379583 0.750000 0.307466
O O17 0.937132 0.406567 0.513804
#
# Coordination Sequence:
#
# PCOD9462904 Si02
#       8
#     8   8   8   8   8   8   8   8
#     4  10  20  35  51  79 112 144 177 232 271 324
#     4  10  19  33  54  76 111 144 183 218 277 330
#     4  10  20  33  55  81 106 141 179 217 271 333
#     4  10  20  34  48  78 114 151 177 228 272 329
#     4  10  21  37  54  76 110 143 184 236 274 318
#     4  10  20  34  52  77 111 151 189 221 269 333
#     4  11  21  34  54  77 115 145 185 225 280 329
#     4  11  21  34  54  80 106 148 188 221 274 341
#
# _framework density 19.056902000000001
#
# number of rings (size 3 to 8) (size 9 to 14) (size 15 to 20)
#    0.000    1.750    2.500    3.750    1.750    1.000 
#    0.000    3.750    0.000    0.000    0.000    5.250 
#    0.000    0.000    0.000    0.000    0.000    0.000 
#
# Total GULP energy -356355.253208 kJ/mol
# GULP energy per Si atom -5568.050831 kJ/mol
# Density = 1.901353 g / cm^3
# Si number density = 19.056902 Si / 1000 Ang^3
#
#
#
# Elastic Constant Matrix: (Units=GPa)
#
#
# Indices 1 2 3 4 5 6 
#
# 1 89.5991 -3.6413 20.1507 0.0000 0.0000 0.0000
# 2 -3.6413 33.9162 7.1890 0.0000 0.0000 0.0000
# 3 20.1507 7.1890 61.0403 0.0000 0.0000 0.0000
# 4 0.0000 0.0000 0.0000 16.4073 0.0000 0.0000
# 5 0.0000 0.0000 0.0000 0.0000 34.0195 0.0000
# 6 0.0000 0.0000 0.0000 0.0000 0.0000 13.6790
#
#
#
# Elastic Compliance Matrix: (Units=1/GPa)
#
#
# Indices 1 2 3 4 5 6 
#
# 1 0.012217 0.002222 -0.004295 0.000000 0.000000 0.000000
# 2 0.002222 0.030643 -0.004343 0.000000 0.000000 0.000000
# 3 -0.004295 -0.004343 0.018312 0.000000 0.000000 0.000000
# 4 0.000000 0.000000 0.000000 0.060948 0.000000 0.000000
# 5 0.000000 0.000000 0.000000 0.000000 0.029395 0.000000
# 6 0.000000 0.000000 0.000000 0.000000 0.000000 0.073105
#
#
# Mechanical properties :
#
#
# Convention : Reuss Voigt Hill
#
# Bulk Modulus (GPa) = 20.68612 25.77249 23.22931
# Shear Modulus (GPa) = 19.71882 23.54499 21.63190
#
# Velocity S-wave (km/s) = 3.22022 3.51880 3.37281
# Velocity P-wave (km/s) = 4.97040 5.48293 5.23295
#
# Compressibility (1/GPa) = 0.04834159
#
# Stress axis : x y z
#
# Youngs Moduli (GPa) = 81.85307 32.63341 54.60938
#
# Poissons Ratio (x) = -0.07251 0.23454
# Poissons Ratio (y) = -0.18188 0.23715
# Poissons Ratio (z) = 0.35154 0.14171
#
# Static dielectric constant tensor:
#      x y z
#    x 1.729160 0.000000 0.000000 
#    y 0.000000 1.688640 0.000000 
#    z 0.000000 0.000000 1.728850 
# 
# From -- ./inp_files/3320.got.cif
#   From: 2010.05.17/outbox.cif.g08.bks.cpg/sg62_2_cif.got.tgz:3320.got - 2010.06.03 15:25:27.
