data_PCOD9462837
_publ_section_title
;
Structure prediction by ZEFSAII (Michael W. Deem and Ramdas Pophale) SiO2 
 PCOD9462837
Probable space group: P N M A
;
_chemical_formula_sum "Si O2"
_cell_formula_units_Z 40
_cell_length_a 5.265827
_cell_length_b 14.051609
_cell_length_c 29.129320
_cell_angle_alpha 90.000000
_cell_angle_beta 90.000000
_cell_angle_gamma 90.000000
_cell_volume 2155.375739
_symmetry_space_group_name_H-M "P N M A"
_symmetry_group_IT_number 62
_symmetry_cell_setting 'orthorhombic'
loop_
_space_group_symop_operation_xyz
x,y,z
1/2-x,-y,1/2+z
1/2+x,1/2-y,1/2-z
-x,1/2+y,-z
-x,-y,-z
1/2+x,y,1/2-z
1/2-x,1/2+y,1/2+z
x,1/2-y,z
loop_
_atom_site_type_symbol
_atom_site_label
_atom_site_fract_x
_atom_site_fract_y
_atom_site_fract_z
Si Si1 0.204028 0.639880 0.130609
Si Si2 0.806180 0.970789 0.539756
Si Si3 0.184350 0.518542 0.357975
Si Si4 0.572087 0.646490 0.469905
Si Si5 0.751287 0.359570 0.219085
O O1 0.180213 0.750000 0.145339
O O2 0.443384 0.586084 0.152318
O O3 0.251068 0.643039 0.075083
O O4 0.941273 0.582450 0.138500
O O5 0.696453 0.872918 0.519197
O O6 0.879473 0.969086 0.592801
O O7 0.607611 0.057205 0.537540
O O8 0.000000 0.000000 0.500000
O O9 0.224772 0.436989 0.320655
O O10 0.445149 0.750000 0.468582
O O11 0.516554 0.371552 0.254159
O O12 0.740823 0.250000 0.201937
#
# Coordination Sequence:
#
# PCOD9462837 Si02
#       5
#     8   8   8   8   8
#     4  10  20  35  57  86 117 155 193 226 276 348
#     4  10  19  33  51  79 117 146 190 241 274 338
#     4  11  21  36  63  85 115 154 193 242 294 344
#     4   9  19  33  49  73 112 157 189 224 278 332
#     4  10  22  42  65  88 115 149 194 244 299 355
#
# _framework density 18.558249
#
# number of rings (size 3 to 8) (size 9 to 14) (size 15 to 20)
#    0.000    2.000    2.000    1.800    0.000    2.400 
#    0.000    0.000    0.000   12.000    0.000    0.000 
#    0.000    0.000    0.000    0.000    0.000    0.000 
#
# Total GULP energy -222754.689185 kJ/mol
# GULP energy per Si atom -5568.867230 kJ/mol
# Density = 1.851601 g / cm^3
# Si number density = 18.558249 Si / 1000 Ang^3
#
#
#
# Elastic Constant Matrix: (Units=GPa)
#
#
# Indices 1 2 3 4 5 6 
#
# 1 66.4819 16.7720 6.7475 0.0000 0.0000 0.0000
# 2 16.7720 112.1547 48.7829 0.0000 0.0000 0.0000
# 3 6.7475 48.7829 59.4075 0.0000 0.0000 0.0000
# 4 0.0000 0.0000 0.0000 33.4505 0.0000 0.0000
# 5 0.0000 0.0000 0.0000 0.0000 17.2757 0.0000
# 6 0.0000 0.0000 0.0000 0.0000 0.0000 19.4650
#
#
#
# Elastic Compliance Matrix: (Units=1/GPa)
#
#
# Indices 1 2 3 4 5 6 
#
# 1 0.015633 -0.002435 0.000224 0.000000 0.000000 0.000000
# 2 -0.002435 0.014250 -0.011425 0.000000 0.000000 0.000000
# 3 0.000224 -0.011425 0.026189 0.000000 0.000000 0.000000
# 4 0.000000 0.000000 0.000000 0.029895 0.000000 0.000000
# 5 0.000000 0.000000 0.000000 0.000000 0.057885 0.000000
# 6 0.000000 0.000000 0.000000 0.000000 0.000000 0.051374
#
#
# Mechanical properties :
#
#
# Convention : Reuss Voigt Hill
#
# Bulk Modulus (GPa) = 34.72194 42.51655 38.61925
# Shear Modulus (GPa) = 21.54266 25.08769 23.31517
#
# Velocity S-wave (km/s) = 3.41077 3.68072 3.54831
# Velocity P-wave (km/s) = 5.85333 6.40493 6.13533
#
# Compressibility (1/GPa) = 0.02880023
#
# Stress axis : x y z
#
# Youngs Moduli (GPa) = 63.96595 70.17680 38.18415
#
# Poissons Ratio (x) = 0.17091 -0.00856
# Poissons Ratio (y) = 0.15578 0.43624
# Poissons Ratio (z) = -0.01434 0.80175
#
# Static dielectric constant tensor:
#      x y z
#    x 1.709680 0.000000 0.000000 
#    y 0.000000 1.614070 0.000000 
#    z 0.000000 0.000000 1.680470 
# 
# From -- ./inp_files/30249.got.cif
#   From: 2010.05.17/outbox.cif.g08.bks.cpg/sg62_16_cif.got.tgz:30249.got - 2010.06.03 15:25:27.
