data_PCOD9462728
_publ_section_title
;
Structure prediction by ZEFSAII (Michael W. Deem and Ramdas Pophale) SiO2 
 PCOD9462728
Probable space group: P N M A
;
_chemical_formula_sum "Si O2"
_cell_formula_units_Z 64
_cell_length_a 15.682780
_cell_length_b 13.381554
_cell_length_c 17.771342
_cell_angle_alpha 90.000000
_cell_angle_beta 90.000000
_cell_angle_gamma 90.000000
_cell_volume 3729.493253
_symmetry_space_group_name_H-M "P N M A"
_symmetry_group_IT_number 62
_symmetry_cell_setting 'orthorhombic'
loop_
_space_group_symop_operation_xyz
x,y,z
1/2-x,-y,1/2+z
1/2+x,1/2-y,1/2-z
-x,1/2+y,-z
-x,-y,-z
1/2+x,y,1/2-z
1/2-x,1/2+y,1/2+z
x,1/2-y,z
loop_
_atom_site_type_symbol
_atom_site_label
_atom_site_fract_x
_atom_site_fract_y
_atom_site_fract_z
Si Si1 0.934369 0.368439 0.223172
Si Si2 0.766784 0.633224 0.734475
Si Si3 0.823197 0.944773 0.576472
Si Si4 0.667294 0.635043 0.983677
Si Si5 0.505474 0.629975 0.883883
Si Si6 0.833389 0.575903 0.893615
Si Si7 0.678636 0.639265 0.467757
Si Si8 0.983197 0.413240 0.061235
O O1 0.952142 0.250000 0.206607
O O2 0.835004 0.373552 0.246416
O O3 0.986913 0.401938 0.296524
O O4 0.951891 0.430742 0.147317
O O5 0.787986 0.750000 0.722296
O O6 0.788249 0.574104 0.659398
O O7 0.818569 0.594501 0.805924
O O8 0.761219 0.886512 0.518693
O O9 0.919714 0.906153 0.577098
O O10 0.823311 0.059899 0.552599
O O11 0.653571 0.750000 0.004805
O O12 0.588580 0.600162 0.931447
O O13 0.753233 0.624376 0.935552
O O14 0.505849 0.750000 0.881302
O O15 0.920885 0.624702 0.923593
O O16 0.833371 0.456970 0.913514
O O17 0.687731 0.750000 0.433265
O O18 0.595935 0.642448 0.522485
O O19 0.000000 0.500000 0.000000
#
# Coordination Sequence:
#
# PCOD9462728 Si02
#       8
#     8   8   8   8   8   8   8   8
#     4  10  19  32  53  79 107 135 170 222 274 315
#     4  11  20  34  56  81 108 138 175 227 278 316
#     4  11  21  33  55  82 106 139 178 217 266 320
#     4  10  21  37  53  77 112 142 176 218 264 319
#     4  10  19  33  54  81 109 138 171 216 271 321
#     4  10  21  35  55  82 107 144 182 218 271 328
#     4  10  20  35  53  79 112 143 179 223 264 316
#     4  10  20  33  51  78 111 143 179 220 269 322
#
# _framework density 17.160508
#
# number of rings (size 3 to 8) (size 9 to 14) (size 15 to 20)
#    0.000    1.750    2.500    3.000    0.000    3.000 
#    0.000    0.625    0.000    0.000    0.000    0.000 
#    0.000    0.000    0.000    0.000    0.000    0.000 
#
# Total GULP energy -356695.000348 kJ/mol
# GULP energy per Si atom -5573.359380 kJ/mol
# Density = 1.712145 g / cm^3
# Si number density = 17.160508 Si / 1000 Ang^3
#
#
#
# Elastic Constant Matrix: (Units=GPa)
#
#
# Indices 1 2 3 4 5 6 
#
# 1 100.5066 12.5373 14.8965 0.0000 0.0000 0.0000
# 2 12.5373 74.9940 47.2242 0.0000 0.0000 0.0000
# 3 14.8965 47.2242 87.3372 0.0000 0.0000 0.0000
# 4 0.0000 0.0000 0.0000 24.3185 0.0000 0.0000
# 5 0.0000 0.0000 0.0000 0.0000 29.4188 0.0000
# 6 0.0000 0.0000 0.0000 0.0000 0.0000 36.0929
#
#
#
# Elastic Compliance Matrix: (Units=1/GPa)
#
#
# Indices 1 2 3 4 5 6 
#
# 1 0.010250 -0.000929 -0.001246 0.000000 0.000000 0.000000
# 2 -0.000929 0.020303 -0.010820 0.000000 0.000000 0.000000
# 3 -0.001246 -0.010820 0.017513 0.000000 0.000000 0.000000
# 4 0.000000 0.000000 0.000000 0.041121 0.000000 0.000000
# 5 0.000000 0.000000 0.000000 0.000000 0.033992 0.000000
# 6 0.000000 0.000000 0.000000 0.000000 0.000000 0.027706
#
#
# Mechanical properties :
#
#
# Convention : Reuss Voigt Hill
#
# Bulk Modulus (GPa) = 45.29674 45.79484 45.54579
# Shear Modulus (GPa) = 27.13962 30.51136 28.82549
#
# Velocity S-wave (km/s) = 3.98114 4.22121 4.10293
# Velocity P-wave (km/s) = 6.89825 7.10649 7.00315
#
# Compressibility (1/GPa) = 0.02207664
#
# Stress axis : x y z
#
# Youngs Moduli (GPa) = 97.55953 49.25424 57.10170
#
# Poissons Ratio (x) = 0.04576 0.07115
# Poissons Ratio (y) = 0.09063 0.61781
# Poissons Ratio (z) = 0.12156 0.53291
#
# Static dielectric constant tensor:
#      x y z
#    x 1.620110 0.000000 0.000000 
#    y 0.000000 1.586690 0.000000 
#    z 0.000000 0.000000 1.571100 
# 
# From -- ./inp_files/24025.got.cif
#   From: 2010.05.17/outbox.cif.g08.bks.cpg/sg62_13_cif.got.tgz:24025.got - 2010.06.03 15:25:27.
