data_PCOD9462064
_publ_section_title
;
Structure prediction by ZEFSAII (Michael W. Deem and Ramdas Pophale) SiO2 
 PCOD9462064
Probable space group: P N M A
;
_chemical_formula_sum "Si O2"
_cell_formula_units_Z 64
_cell_length_a 27.955515
_cell_length_b 13.967770
_cell_length_c 10.614258
_cell_angle_alpha 90.000000
_cell_angle_beta 90.000000
_cell_angle_gamma 90.000000
_cell_volume 4144.615169
_symmetry_space_group_name_H-M "P N M A"
_symmetry_group_IT_number 62
_symmetry_cell_setting 'orthorhombic'
loop_
_space_group_symop_operation_xyz
x,y,z
1/2-x,-y,1/2+z
1/2+x,1/2-y,1/2-z
-x,1/2+y,-z
-x,-y,-z
1/2+x,y,1/2-z
1/2-x,1/2+y,1/2+z
x,1/2-y,z
loop_
_atom_site_type_symbol
_atom_site_label
_atom_site_fract_x
_atom_site_fract_y
_atom_site_fract_z
Si Si1 0.209017 0.638730 0.274872
Si Si2 0.190951 0.447527 0.141664
Si Si3 0.366764 0.140508 0.999997
Si Si4 0.690952 0.447527 0.641670
Si Si5 0.874883 0.863128 0.359197
Si Si6 0.209018 0.861270 0.725122
Si Si7 0.555242 0.024259 0.000002
Si Si8 0.374884 0.863128 0.859190
O O1 0.210484 0.750000 0.235612
O O2 0.200532 0.559910 0.167295
O O3 0.167250 0.626975 0.378619
O O4 0.259321 0.609012 0.337840
O O5 0.240678 0.390987 0.162156
O O6 0.155078 0.410273 0.248755
O O7 0.173613 0.431734 0.999996
O O8 0.383508 0.250000 0.999999
O O9 0.332749 0.126973 0.121372
O O10 0.410964 0.068821 0.999998
O O11 0.655080 0.410273 0.748762
O O12 0.700533 0.559911 0.667302
O O13 0.878874 0.750000 0.339795
O O14 0.851803 0.878213 0.500004
O O15 0.926376 0.912552 0.381157
O O16 0.210484 0.750000 0.764381
O O17 0.500000 0.000000 0.000000
O O18 0.573623 0.087448 0.118847
O O19 0.378875 0.750000 0.839787
#
# Coordination Sequence:
#
# PCOD9462064 Si02
#       8
#     8   8   8   8   8   8   8   8
#     4  10  20  33  49  74 109 146 182 213 258 326
#     4  11  21  32  53  80 111 145 179 220 267 324
#     4  10  18  33  54  77 104 138 181 222 262 312
#     4  11  21  32  53  80 111 145 179 220 267 324
#     4   9  19  35  53  78 110 139 175 223 269 321
#     4  10  20  33  49  74 109 146 182 213 258 326
#     4  10  19  35  58  81 105 134 185 232 278 314
#     4   9  19  35  53  78 110 139 175 223 269 321
#
# _framework density 15.441723
#
# number of rings (size 3 to 8) (size 9 to 14) (size 15 to 20)
#    0.750    1.250    3.750    0.750    0.000    4.000 
#    0.000    0.000    0.000    0.750    0.000    0.000 
#    0.000    0.000    0.000    0.000    0.000    0.000 
#
# Total GULP energy -356377.214061 kJ/mol
# GULP energy per Si atom -5568.393970 kJ/mol
# Density = 1.540658 g / cm^3
# Si number density = 15.441723 Si / 1000 Ang^3
#
#
#
# Elastic Constant Matrix: (Units=GPa)
#
#
# Indices 1 2 3 4 5 6 
#
# 1 95.2276 59.2775 42.2178 0.0000 0.0000 0.0000
# 2 59.2775 128.1887 43.8229 0.0000 0.0000 0.0000
# 3 42.2178 43.8229 90.6732 0.0000 0.0000 0.0000
# 4 0.0000 0.0000 0.0000 12.9101 0.0000 0.0000
# 5 0.0000 0.0000 0.0000 0.0000 6.8870 0.0000
# 6 0.0000 0.0000 0.0000 0.0000 0.0000 12.0923
#
#
#
# Elastic Compliance Matrix: (Units=1/GPa)
#
#
# Indices 1 2 3 4 5 6 
#
# 1 0.016274 -0.005912 -0.004720 0.000000 0.000000 0.000000
# 2 -0.005912 0.011493 -0.002802 0.000000 0.000000 0.000000
# 3 -0.004720 -0.002802 0.014580 0.000000 0.000000 0.000000
# 4 0.000000 0.000000 0.000000 0.077459 0.000000 0.000000
# 5 0.000000 0.000000 0.000000 0.000000 0.145201 0.000000
# 6 0.000000 0.000000 0.000000 0.000000 0.000000 0.082697
#
#
# Mechanical properties :
#
#
# Convention : Reuss Voigt Hill
#
# Bulk Modulus (GPa) = 64.60142 67.19175 65.89659
# Shear Modulus (GPa) = 13.16722 17.62930 15.39826
#
# Velocity S-wave (km/s) = 2.92328 3.38252 3.16125
# Velocity P-wave (km/s) = 7.30209 7.67221 7.48944
#
# Compressibility (1/GPa) = 0.01547954
#
# Stress axis : x y z
#
# Youngs Moduli (GPa) = 61.44924 87.01251 68.58533
#
# Poissons Ratio (x) = 0.51440 0.32371
# Poissons Ratio (y) = 0.36327 0.19217
# Poissons Ratio (z) = 0.29003 0.24380
#
# Static dielectric constant tensor:
#      x y z
#    x 1.483020 0.000000 0.000000 
#    y 0.000000 1.548890 0.000000 
#    z 0.000000 0.000000 1.518100 
# 
# From -- ./inp_files/10524.got.cif
#   From: 2010.05.17/outbox.cif.g08.bks.cpg/sg62_6_cif.got.tgz:10524.got - 2010.06.03 15:25:27.
