data_PCOD9462873
_publ_section_title
;
Structure prediction by ZEFSAII (Michael W. Deem and Ramdas Pophale) SiO2 
 PCOD9462873
Probable space group: P N M A
;
_chemical_formula_sum "Si O2"
_cell_formula_units_Z 48
_cell_length_a 9.837236
_cell_length_b 7.414052
_cell_length_c 29.608593
_cell_angle_alpha 90.000000
_cell_angle_beta 90.000000
_cell_angle_gamma 90.000000
_cell_volume 2159.466585
_symmetry_space_group_name_H-M "P N M A"
_symmetry_group_IT_number 62
_symmetry_cell_setting 'orthorhombic'
loop_
_space_group_symop_operation_xyz
x,y,z
1/2-x,-y,1/2+z
1/2+x,1/2-y,1/2-z
-x,1/2+y,-z
-x,-y,-z
1/2+x,y,1/2-z
1/2-x,1/2+y,1/2+z
x,1/2-y,z
loop_
_atom_site_type_symbol
_atom_site_label
_atom_site_fract_x
_atom_site_fract_y
_atom_site_fract_z
Si Si1 0.813118 0.960207 0.123883
Si Si2 0.852535 0.463416 0.019192
Si Si3 0.493512 0.470053 0.700164
Si Si4 0.816071 0.530273 0.283166
Si Si5 0.991591 0.028732 0.634057
Si Si6 0.608780 0.464980 0.961112
O O1 0.806185 0.750000 0.136232
O O2 0.941506 0.030210 0.152418
O O3 0.664641 0.034582 0.136989
O O4 0.831625 0.969569 0.070087
O O5 0.829928 0.250000 0.022240
O O6 0.746942 0.537869 0.982458
O O7 0.000000 0.500000 0.000000
O O8 0.484672 0.250000 0.700643
O O9 0.603898 0.523504 0.737962
O O10 0.339955 0.531358 0.711074
O O11 0.812336 0.750000 0.282707
O O12 0.910971 0.475665 0.325092
O O13 0.987968 0.250000 0.633724
O O14 0.055401 0.966625 0.586644
O O15 0.624291 0.250000 0.954899
O O16 0.500000 0.500000 0.000000
#
# Coordination Sequence:
#
# PCOD9462873 Si02
#       6
#     8   8   8   8   8   8
#     4  10  19  33  53  77 107 142 177 217 271 321
#     4  11  24  38  55  79 110 145 184 225 272 324
#     4   9  17  27  45  73 106 140 174 217 266 319
#     4   9  16  27  44  72 107 138 172 216 268 316
#     4   9  17  29  48  73 105 137 170 217 268 317
#     4  10  20  35  55  79 106 141 180 220 267 320
#
# _framework density 22.227710999999999
#
# number of rings (size 3 to 8) (size 9 to 14) (size 15 to 20)
#    0.000    2.333    1.667    1.500    2.333    4.667 
#    0.000    0.000    0.000    0.000    0.000    5.833 
#    0.000    0.000    0.000    0.000    0.000    0.000 
#
# Total GULP energy -268062.091072 kJ/mol
# GULP energy per Si atom -5584.626897 kJ/mol
# Density = 2.217712 g / cm^3
# Si number density = 22.227711 Si / 1000 Ang^3
#
#
#
# Elastic Constant Matrix: (Units=GPa)
#
#
# Indices 1 2 3 4 5 6 
#
# 1 188.7489 1.7987 40.3017 0.0000 0.0000 0.0000
# 2 1.7987 65.9179 -0.5711 0.0000 0.0000 0.0000
# 3 40.3017 -0.5711 80.7034 0.0000 0.0000 0.0000
# 4 0.0000 0.0000 0.0000 9.9449 0.0000 0.0000
# 5 0.0000 0.0000 0.0000 0.0000 43.3180 0.0000
# 6 0.0000 0.0000 0.0000 0.0000 0.0000 -5.2609
#
#
#
# Elastic Compliance Matrix: (Units=1/GPa)
#
#
# Indices 1 2 3 4 5 6 
#
# 1 0.005933 -0.000188 -0.002964 0.000000 0.000000 0.000000
# 2 -0.000188 0.015177 0.000201 0.000000 0.000000 0.000000
# 3 -0.002964 0.000201 0.013873 0.000000 0.000000 0.000000
# 4 0.000000 0.000000 0.000000 0.100554 0.000000 0.000000
# 5 0.000000 0.000000 0.000000 0.000000 0.023085 0.000000
# 6 0.000000 0.000000 0.000000 0.000000 0.000000 -0.190083
#
#
# Mechanical properties :
#
#
# Convention : Reuss Voigt Hill
#
# Bulk Modulus (GPa) = 34.38604 46.49210 40.43907
# Shear Modulus (GPa) = -315.14352 29.18978 -142.97687
#
# Velocity S-wave (km/s) = -11.92004 3.62776 -8.02891
# Velocity P-wave (km/s) = 13.18887 6.20558 8.22913
#
# Compressibility (1/GPa) = 0.02908157
#
# Stress axis : x y z
#
# Youngs Moduli (GPa) = 168.55712 65.88814 72.08430
#
# Poissons Ratio (x) = 0.01236 0.21366
# Poissons Ratio (y) = 0.03161 -0.01449
# Poissons Ratio (z) = 0.49960 -0.01325
#
# Static dielectric constant tensor:
#      x y z
#    x 1.870250 0.000000 0.000000 
#    y 0.000000 2.353520 0.000000 
#    z 0.000000 0.000000 1.792070 
# 
# From -- ./inp_files/31976.got.cif
#   From: 2010.05.17/outbox.cif.g08.bks.cpg/sg62_16_cif.got.tgz:31976.got - 2010.06.03 15:25:27.
