data_PCOD9462730
_publ_section_title
;
Structure prediction by ZEFSAII (Michael W. Deem and Ramdas Pophale) SiO2 
 PCOD9462730
Probable space group: P N M A
;
_chemical_formula_sum "Si O2"
_cell_formula_units_Z 48
_cell_length_a 18.586207
_cell_length_b 8.230282
_cell_length_c 17.189666
_cell_angle_alpha 90.000000
_cell_angle_beta 90.000000
_cell_angle_gamma 90.000000
_cell_volume 2629.498479
_symmetry_space_group_name_H-M "P N M A"
_symmetry_group_IT_number 62
_symmetry_cell_setting 'orthorhombic'
loop_
_space_group_symop_operation_xyz
x,y,z
1/2-x,-y,1/2+z
1/2+x,1/2-y,1/2-z
-x,1/2+y,-z
-x,-y,-z
1/2+x,y,1/2-z
1/2-x,1/2+y,1/2+z
x,1/2-y,z
loop_
_atom_site_type_symbol
_atom_site_label
_atom_site_fract_x
_atom_site_fract_y
_atom_site_fract_z
Si Si1 0.082575 0.446651 0.005281
Si Si2 0.828867 0.556553 0.143641
Si Si3 0.946297 0.054215 0.258429
Si Si4 0.167895 0.446039 0.333058
Si Si5 0.978107 0.554012 0.585548
Si Si6 0.906205 0.947873 0.822927
O O1 0.084465 0.250000 0.004112
O O2 0.128342 0.508001 0.932114
O O3 0.110534 0.501960 0.089912
O O4 0.000000 0.500000 0.000000
O O5 0.830524 0.750000 0.140196
O O6 0.872742 0.503907 0.220229
O O7 0.746638 0.501864 0.143980
O O8 0.945414 0.250000 0.258794
O O9 0.967342 0.999969 0.345631
O O10 0.013306 0.002483 0.203426
O O11 0.167041 0.250000 0.333218
O O12 0.102021 0.500226 0.388460
O O13 0.147009 0.500706 0.245625
O O14 0.977958 0.750000 0.587134
O O15 0.000000 0.500000 0.500000
O O16 0.905946 0.750000 0.822852
#
# Coordination Sequence:
#
# PCOD9462730 Si02
#       6
#     8   8   8   8   8   8
#     4  10  19  32  53  80 107 135 171 214 261 311
#     4  11  22  33  49  81 116 138 167 219 274 311
#     4   9  17  33  57  77  98 137 180 210 253 318
#     4   9  19  37  57  74 101 143 183 214 255 315
#     4   9  19  36  59  83 103 135 183 226 266 314
#     4   8  15  32  56  75  94 131 179 213 240 299
#
# _framework density 18.254432000000001
#
# number of rings (size 3 to 8) (size 9 to 14) (size 15 to 20)
#    0.000    2.667    1.667    2.500    0.000    2.000 
#    3.000    3.333    0.000    0.000    0.000    0.000 
#    0.000    0.000    0.000    0.000    0.000    0.000 
#
# Total GULP energy -267585.215901 kJ/mol
# GULP energy per Si atom -5574.691998 kJ/mol
# Density = 1.821288 g / cm^3
# Si number density = 18.254432 Si / 1000 Ang^3
#
#
#
# Elastic Constant Matrix: (Units=GPa)
#
#
# Indices 1 2 3 4 5 6 
#
# 1 140.5194 15.9569 98.0420 0.0000 0.0000 0.0000
# 2 15.9569 11.0109 19.0949 0.0000 0.0000 0.0000
# 3 98.0420 19.0949 174.3515 0.0000 0.0000 0.0000
# 4 0.0000 0.0000 0.0000 22.0051 0.0000 0.0000
# 5 0.0000 0.0000 0.0000 0.0000 24.5308 0.0000
# 6 0.0000 0.0000 0.0000 0.0000 0.0000 22.7864
#
#
#
# Elastic Compliance Matrix: (Units=1/GPa)
#
#
# Indices 1 2 3 4 5 6 
#
# 1 0.012146 -0.007107 -0.006051 0.000000 0.000000 0.000000
# 2 -0.007107 0.116272 -0.008737 0.000000 0.000000 0.000000
# 3 -0.006051 -0.008737 0.010095 0.000000 0.000000 0.000000
# 4 0.000000 0.000000 0.000000 0.045444 0.000000 0.000000
# 5 0.000000 0.000000 0.000000 0.000000 0.040765 0.000000
# 6 0.000000 0.000000 0.000000 0.000000 0.000000 0.043886
#
#
# Mechanical properties :
#
#
# Convention : Reuss Voigt Hill
#
# Bulk Modulus (GPa) = 10.55738 65.78547 38.17143
# Shear Modulus (GPa) = 14.53603 26.71700 20.62651
#
# Velocity S-wave (km/s) = 2.82494 3.82984 3.36511
# Velocity P-wave (km/s) = 4.05419 7.46145 6.00457
#
# Compressibility (1/GPa) = 0.09472043
#
# Stress axis : x y z
#
# Youngs Moduli (GPa) = 82.33397 8.60056 99.05584
#
# Poissons Ratio (x) = 0.06113 0.59943
# Poissons Ratio (y) = 0.58516 0.86550
# Poissons Ratio (z) = 0.49824 0.07515
#
# Static dielectric constant tensor:
#      x y z
#    x 1.603400 0.000000 0.000000 
#    y 0.000000 1.646250 0.000000 
#    z 0.000000 0.000000 1.650060 
# 
# From -- ./inp_files/24201.got.cif
#   From: 2010.05.17/outbox.cif.g08.bks.cpg/sg62_13_cif.got.tgz:24201.got - 2010.06.03 15:25:27.
