data_PCOD9462473
_publ_section_title
;
Structure prediction by ZEFSAII (Michael W. Deem and Ramdas Pophale) SiO2 
 PCOD9462473
Probable space group: P N M A
;
_chemical_formula_sum "Si O2"
_cell_formula_units_Z 32
_cell_length_a 19.061975
_cell_length_b 9.261303
_cell_length_c 7.827320
_cell_angle_alpha 90.000000
_cell_angle_beta 90.000000
_cell_angle_gamma 90.000000
_cell_volume 1381.825103
_symmetry_space_group_name_H-M "P N M A"
_symmetry_group_IT_number 62
_symmetry_cell_setting 'orthorhombic'
loop_
_space_group_symop_operation_xyz
x,y,z
1/2-x,-y,1/2+z
1/2+x,1/2-y,1/2-z
-x,1/2+y,-z
-x,-y,-z
1/2+x,y,1/2-z
1/2-x,1/2+y,1/2+z
x,1/2-y,z
loop_
_atom_site_type_symbol
_atom_site_label
_atom_site_fract_x
_atom_site_fract_y
_atom_site_fract_z
Si Si1 0.857535 0.422054 0.077196
Si Si2 0.099455 0.087386 0.400936
Si Si3 0.982195 0.914149 0.231567
Si Si4 0.727073 0.077995 0.873675
O O1 0.864577 0.250000 0.086367
O O2 0.932688 0.495403 0.105333
O O3 0.810544 0.481341 0.233750
O O4 0.807327 0.457571 0.917279
O O5 0.094900 0.250000 0.331229
O O6 0.058770 0.086864 0.584952
O O7 0.178751 0.056588 0.457458
O O8 0.057072 0.980855 0.279465
O O9 0.988666 0.750000 0.172487
O O10 0.721985 0.250000 0.830518
#
# Coordination Sequence:
#
# PCOD9462473 Si02
#       4
#     8   8   8   8
#     4  10  19  31  49  71  95 125 156 188 232 279
#     4   8  14  26  43  63  89 118 149 189 232 270
#     4   9  16  26  42  66  93 118 150 192 231 270
#     4   9  19  33  48  70  97 123 155 193 231 275
#
# _framework density 23.157779999999999
#
# number of rings (size 3 to 8) (size 9 to 14) (size 15 to 20)
#    0.000    3.000    0.000    3.000    0.000    8.000 
#    0.000    0.000    0.000    1.500    0.000    0.000 
#    0.000    0.000    0.000    0.000    0.000    0.000 
#
# Total GULP energy -178838.567319 kJ/mol
# GULP energy per Si atom -5588.705229 kJ/mol
# Density = 2.310507 g / cm^3
# Si number density = 23.157780 Si / 1000 Ang^3
#
#
#
# Elastic Constant Matrix: (Units=GPa)
#
#
# Indices 1 2 3 4 5 6 
#
# 1 166.6199 44.5052 21.1592 0.0000 0.0000 0.0000
# 2 44.5052 55.5303 31.5562 0.0000 0.0000 0.0000
# 3 21.1592 31.5562 64.0797 0.0000 0.0000 0.0000
# 4 0.0000 0.0000 0.0000 0.6883 0.0000 0.0000
# 5 0.0000 0.0000 0.0000 0.0000 41.7746 0.0000
# 6 0.0000 0.0000 0.0000 0.0000 0.0000 28.4561
#
#
#
# Elastic Compliance Matrix: (Units=1/GPa)
#
#
# Indices 1 2 3 4 5 6 
#
# 1 0.007658 -0.006527 0.000686 0.000000 0.000000 0.000000
# 2 -0.006527 0.030569 -0.012899 0.000000 0.000000 0.000000
# 3 0.000686 -0.012899 0.021731 0.000000 0.000000 0.000000
# 4 0.000000 0.000000 0.000000 1.452758 0.000000 0.000000
# 5 0.000000 0.000000 0.000000 0.000000 0.023938 0.000000
# 6 0.000000 0.000000 0.000000 0.000000 0.000000 0.035142
#
#
# Mechanical properties :
#
#
# Convention : Reuss Voigt Hill
#
# Bulk Modulus (GPa) = 44.48776 53.40790 48.94783
# Shear Modulus (GPa) = 3.09259 26.78444 14.93851
#
# Velocity S-wave (km/s) = 1.15687 3.40458 2.54259
# Velocity P-wave (km/s) = 4.58660 6.21028 5.45914
#
# Compressibility (1/GPa) = 0.02247809
#
# Stress axis : x y z
#
# Youngs Moduli (GPa) = 130.58090 32.71241 46.01687
#
# Poissons Ratio (x) = 0.21352 -0.03155
# Poissons Ratio (y) = 0.85234 0.59356
# Poissons Ratio (z) = -0.08953 0.42195
#
# Static dielectric constant tensor:
#      x y z
#    x 1.897540 0.000000 0.000000 
#    y 0.000000 1.787900 0.000000 
#    z 0.000000 0.000000 1.898090 
# 
# From -- ./inp_files/8243.got.cif
#   From: 2010.05.17/outbox.cif.g08.bks.cpg/sg62_5_cif.got.tgz:8243.got - 2010.06.03 15:25:27.
