data_PCOD9462269
_publ_section_title
;
Structure prediction by ZEFSAII (Michael W. Deem and Ramdas Pophale) SiO2 
 PCOD9462269
Probable space group: P N M A
;
_chemical_formula_sum "Si O2"
_cell_formula_units_Z 48
_cell_length_a 18.527309
_cell_length_b 15.544089
_cell_length_c 8.754989
_cell_angle_alpha 90.000000
_cell_angle_beta 90.000000
_cell_angle_gamma 90.000000
_cell_volume 2521.350508
_symmetry_space_group_name_H-M "P N M A"
_symmetry_group_IT_number 62
_symmetry_cell_setting 'orthorhombic'
loop_
_space_group_symop_operation_xyz
x,y,z
1/2-x,-y,1/2+z
1/2+x,1/2-y,1/2-z
-x,1/2+y,-z
-x,-y,-z
1/2+x,y,1/2-z
1/2-x,1/2+y,1/2+z
x,1/2-y,z
loop_
_atom_site_type_symbol
_atom_site_label
_atom_site_fract_x
_atom_site_fract_y
_atom_site_fract_z
Si Si1 0.751462 0.250000 0.520733
Si Si2 0.985199 0.408033 0.577141
Si Si3 0.308050 0.750000 0.178064
Si Si4 0.924750 0.750000 0.565725
Si Si5 0.416162 0.750000 0.570865
Si Si6 0.954568 0.927656 0.083436
Si Si7 0.812394 0.946484 0.232979
Si Si8 0.681124 0.924628 0.015944
O O1 0.763118 0.250000 0.707362
O O2 0.666234 0.250000 0.489291
O O3 0.783878 0.163455 0.454562
O O4 0.898903 0.399803 0.568551
O O5 0.000000 0.500000 0.500000
O O6 0.029600 0.332846 0.491924
O O7 0.011689 0.410459 0.750738
O O8 0.330010 0.652795 0.224707
O O9 0.344033 0.750000 0.008679
O O10 0.918790 0.750000 0.747160
O O11 0.450874 0.662413 0.506462
O O12 0.874275 0.965817 0.109820
O O13 0.000000 0.000000 0.000000
O O14 0.734303 0.953659 0.153314
O O15 0.819721 0.004615 0.382610
#
# Coordination Sequence:
#
# PCOD9462269 Si02
#       8
#     4   8   4   4   4   8   8   8
#     4  10  21  43  65  89 135 170 214 269 335 394
#     4  12  23  42  65  98 131 172 218 275 332 398
#     4  10  18  44  65  87 126 181 208 266 322 398
#     4  12  23  38  69  97 127 172 228 270 329 405
#     4  12  24  43  69  99 130 181 222 273 346 395
#     4  12  24  43  69  95 136 177 223 277 334 398
#     4  11  23  43  67  94 135 170 222 271 331 401
#     4  11  24  40  66  96 130 174 217 272 335 394
#
# _framework density 19.037414999999999
#
# number of rings (size 3 to 8) (size 9 to 14) (size 15 to 20)
#    0.000    0.667    6.667    2.000    2.333    2.667 
#    0.000    0.000    0.000    0.000    0.000    0.000 
#    0.000    0.000    0.000    0.000    0.000    0.000 
#
# Total GULP energy -267421.350863 kJ/mol
# GULP energy per Si atom -5571.278143 kJ/mol
# Density = 1.899409 g / cm^3
# Si number density = 19.037415 Si / 1000 Ang^3
#
#
#
# Elastic Constant Matrix: (Units=GPa)
#
#
# Indices 1 2 3 4 5 6 
#
# 1 68.4275 38.2289 29.5505 0.0000 0.0000 0.0000
# 2 38.2289 130.0516 54.3548 0.0000 0.0000 0.0000
# 3 29.5505 54.3548 136.8423 0.0000 0.0000 0.0000
# 4 0.0000 0.0000 0.0000 39.6525 0.0000 0.0000
# 5 0.0000 0.0000 0.0000 0.0000 28.0726 0.0000
# 6 0.0000 0.0000 0.0000 0.0000 0.0000 23.3689
#
#
#
# Elastic Compliance Matrix: (Units=1/GPa)
#
#
# Indices 1 2 3 4 5 6 
#
# 1 0.017993 -0.004395 -0.002140 0.000000 0.000000 0.000000
# 2 -0.004395 0.010293 -0.003140 0.000000 0.000000 0.000000
# 3 -0.002140 -0.003140 0.009017 0.000000 0.000000 0.000000
# 4 0.000000 0.000000 0.000000 0.025219 0.000000 0.000000
# 5 0.000000 0.000000 0.000000 0.000000 0.035622 0.000000
# 6 0.000000 0.000000 0.000000 0.000000 0.000000 0.042792
#
#
# Mechanical properties :
#
#
# Convention : Reuss Voigt Hill
#
# Bulk Modulus (GPa) = 55.69490 64.39886 60.04688
# Shear Modulus (GPa) = 30.07155 32.43128 31.25142
#
# Velocity S-wave (km/s) = 3.97873 4.13189 4.05604
# Velocity P-wave (km/s) = 7.10113 7.52757 7.31746
#
# Compressibility (1/GPa) = 0.01795496
#
# Stress axis : x y z
#
# Youngs Moduli (GPa) = 55.57584 97.15078 110.90368
#
# Poissons Ratio (x) = 0.42696 0.23733
# Poissons Ratio (y) = 0.24425 0.34818
# Poissons Ratio (z) = 0.11893 0.30501
#
# Static dielectric constant tensor:
#      x y z
#    x 1.704960 0.000000 0.000000 
#    y 0.000000 1.668530 0.000000 
#    z 0.000000 0.000000 1.657180 
# 
# From -- ./inp_files/7722.got.cif
#   From: 2010.05.17/outbox.cif.g08.bks.cpg/sg62_4_cif.got.tgz:7722.got - 2010.06.03 15:25:27.
