data_PCOD9462848
_publ_section_title
;
Structure prediction by ZEFSAII (Michael W. Deem and Ramdas Pophale) SiO2 
 PCOD9462848
Probable space group: P N M A
;
_chemical_formula_sum "Si O2"
_cell_formula_units_Z 56
_cell_length_a 19.953285
_cell_length_b 7.515819
_cell_length_c 14.186753
_cell_angle_alpha 90.000000
_cell_angle_beta 90.000000
_cell_angle_gamma 90.000000
_cell_volume 2127.520365
_symmetry_space_group_name_H-M "P N M A"
_symmetry_group_IT_number 62
_symmetry_cell_setting 'orthorhombic'
loop_
_space_group_symop_operation_xyz
x,y,z
1/2-x,-y,1/2+z
1/2+x,1/2-y,1/2-z
-x,1/2+y,-z
-x,-y,-z
1/2+x,y,1/2-z
1/2-x,1/2+y,1/2+z
x,1/2-y,z
loop_
_atom_site_type_symbol
_atom_site_label
_atom_site_fract_x
_atom_site_fract_y
_atom_site_fract_z
Si Si1 0.929271 0.459530 0.951674
Si Si2 0.852506 0.955482 0.206383
Si Si3 0.207276 0.544519 0.292716
Si Si4 0.358930 0.035065 0.074630
Si Si5 0.494630 0.531394 0.277126
Si Si6 0.211755 0.043924 0.077203
Si Si7 0.072635 0.967612 0.394867
O O1 0.921739 0.250000 0.950672
O O2 0.945179 0.523429 0.845325
O O3 0.856378 0.527041 0.982466
O O4 0.000000 0.500000 0.000000
O O5 0.851687 0.750000 0.175903
O O6 0.780229 0.037075 0.184499
O O7 0.924395 0.035604 0.180429
O O8 0.859293 0.958007 0.320790
O O9 0.210636 0.750000 0.324465
O O10 0.202255 0.546854 0.178954
O O11 0.140404 0.474189 0.340255
O O12 0.363979 0.250000 0.081687
O O13 0.283833 0.990185 0.035667
O O14 0.415440 0.972377 0.001612
O O15 0.491978 0.750000 0.278493
O O16 0.511763 0.473002 0.171402
O O17 0.219118 0.250000 0.100367
O O18 0.070578 0.750000 0.395278
#
# Coordination Sequence:
#
# PCOD9462848 Si02
#       7
#     8   8   8   8   8   8   8
#     4  11  22  37  57  81 108 141 179 221 271 322
#     4   9  18  32  52  77 105 135 174 220 264 312
#     4   9  16  30  53  74  95 134 178 217 260 313
#     4   9  19  33  52  78 107 140 178 221 266 315
#     4   9  18  33  54  78 103 136 179 221 260 314
#     4  10  19  33  52  76 105 136 173 219 267 314
#     4   9  16  30  53  76  99 137 185 219 256 316
#
# _framework density 26.321722000000001
#
# number of rings (size 3 to 8) (size 9 to 14) (size 15 to 20)
#    0.000    2.571    1.429    0.857    0.000    2.286 
#    0.000    6.429    0.000    3.429    0.000    0.000 
#    0.000    0.000    0.000    0.000    0.000    0.000 
#
# Total GULP energy -312842.375598 kJ/mol
# GULP energy per Si atom -5586.470993 kJ/mol
# Density = 2.626181 g / cm^3
# Si number density = 26.321722 Si / 1000 Ang^3
#
#
#
# Elastic Constant Matrix: (Units=GPa)
#
#
# Indices 1 2 3 4 5 6 
#
# 1 127.9754 -0.6936 2.3097 0.0000 0.0000 0.0000
# 2 -0.6936 74.6108 -2.8937 0.0000 0.0000 0.0000
# 3 2.3097 -2.8937 67.1845 0.0000 0.0000 0.0000
# 4 0.0000 0.0000 0.0000 13.3688 0.0000 0.0000
# 5 0.0000 0.0000 0.0000 0.0000 51.5384 0.0000
# 6 0.0000 0.0000 0.0000 0.0000 0.0000 9.5295
#
#
#
# Elastic Compliance Matrix: (Units=1/GPa)
#
#
# Indices 1 2 3 4 5 6 
#
# 1 0.007819 0.000062 -0.000266 0.000000 0.000000 0.000000
# 2 0.000062 0.013426 0.000576 0.000000 0.000000 0.000000
# 3 -0.000266 0.000576 0.014918 0.000000 0.000000 0.000000
# 4 0.000000 0.000000 0.000000 0.074801 0.000000 0.000000
# 5 0.000000 0.000000 0.000000 0.000000 0.019403 0.000000
# 6 0.000000 0.000000 0.000000 0.000000 0.000000 0.104937
#
#
# Mechanical properties :
#
#
# Convention : Reuss Voigt Hill
#
# Bulk Modulus (GPa) = 27.09436 29.69059 28.39247
# Shear Modulus (GPa) = 20.25420 32.95723 26.60571
#
# Velocity S-wave (km/s) = 2.77697 3.54233 3.18274
# Velocity P-wave (km/s) = 4.53850 5.29483 4.93118
#
# Compressibility (1/GPa) = 0.03690806
#
# Stress axis : x y z
#
# Youngs Moduli (GPa) = 127.89125 74.48339 67.03152
#
# Poissons Ratio (x) = -0.00465 0.01784
# Poissons Ratio (y) = -0.00798 -0.03862
# Poissons Ratio (z) = 0.03403 -0.04291
#
# Static dielectric constant tensor:
#      x y z
#    x 1.957050 0.000000 0.000000 
#    y 0.000000 -0.448910 0.000000 
#    z 0.000000 0.000000 2.111920 
# 
# From -- ./inp_files/24584.got.cif
#   From: 2010.05.17/outbox.cif.g08.bks.cpg/sg62_13_cif.got.tgz:24584.got - 2010.06.03 15:25:27.
