data_PCOD9462818
_publ_section_title
;
Structure prediction by ZEFSAII (Michael W. Deem and Ramdas Pophale) SiO2 
 PCOD9462818
Probable space group: P N M A
;
_chemical_formula_sum "Si O2"
_cell_formula_units_Z 64
_cell_length_a 23.198776
_cell_length_b 27.304587
_cell_length_c 5.450540
_cell_angle_alpha 90.000000
_cell_angle_beta 90.000000
_cell_angle_gamma 90.000000
_cell_volume 3452.551891
_symmetry_space_group_name_H-M "P N M A"
_symmetry_group_IT_number 62
_symmetry_cell_setting 'orthorhombic'
loop_
_space_group_symop_operation_xyz
x,y,z
1/2-x,-y,1/2+z
1/2+x,1/2-y,1/2-z
-x,1/2+y,-z
-x,-y,-z
1/2+x,y,1/2-z
1/2-x,1/2+y,1/2+z
x,1/2-y,z
loop_
_atom_site_type_symbol
_atom_site_label
_atom_site_fract_x
_atom_site_fract_y
_atom_site_fract_z
Si Si1 0.440933 0.030370 0.000001
Si Si2 0.500998 0.863311 0.000001
Si Si3 0.270032 0.436768 0.500000
Si Si4 0.707939 0.054031 0.500000
Si Si5 0.412886 0.517328 0.500001
Si Si6 0.488145 0.607718 0.500001
Si Si7 0.887734 0.307209 0.500001
Si Si8 0.624369 0.635722 0.500001
O O1 0.458083 0.087326 0.999999
O O2 0.409603 0.013669 0.751004
O O3 0.409603 0.013669 0.248999
O O4 0.500000 0.000000 0.000000
O O5 0.466240 0.868538 0.249632
O O6 0.543149 0.817358 0.000001
O O7 0.466240 0.868538 0.750369
O O8 0.235596 0.425574 0.750637
O O9 0.280492 0.495232 0.500000
O O10 0.329733 0.407656 0.499997
O O11 0.235596 0.425574 0.249364
O O12 0.639028 0.056161 0.500001
O O13 0.529158 0.449265 0.499999
O O14 0.557290 0.617953 0.500001
O O15 0.874926 0.250000 0.500002
O O16 0.867169 0.333005 0.248957
O O17 0.867168 0.333005 0.751045
#
# Coordination Sequence:
#
# PCOD9462818 Si02
#       8
#     8   8   8   8   8   8   8   8
#     4  12  21  29  46  73 108 143 186 217 256 309
#     4  10  20  31  45  70 107 142 167 207 262 326
#     4  10  21  39  49  72 100 145 193 209 254 322
#     4  10  23  35  51  70 105 148 186 222 249 295
#     4  12  22  32  49  72 111 138 183 226 247 304
#     4  10  19  33  46  79  99 136 175 212 266 304
#     4  10  21  35  53  81 108 134 173 222 283 339
#     4  10  21  35  60  75 108 142 174 221 268 326
#
# _framework density 18.537013999999999
#
# number of rings (size 3 to 8) (size 9 to 14) (size 15 to 20)
#    0.000    1.500    2.500    3.000    7.000    0.000 
#    0.000    0.000    0.000    0.000    0.000    0.000 
#    0.000   80.000    0.000    0.000    0.000    0.000 
#
# Total GULP energy -357282.872325 kJ/mol
# GULP energy per Si atom -5582.544880 kJ/mol
# Density = 1.849482 g / cm^3
# Si number density = 18.537014 Si / 1000 Ang^3
#
#
#
# Elastic Constant Matrix: (Units=GPa)
#
#
# Indices 1 2 3 4 5 6 
#
# 1 53.0486 25.5971 32.5796 0.0000 0.0000 0.0000
# 2 25.5971 56.9883 36.5322 0.0000 0.0000 0.0000
# 3 32.5796 36.5322 209.1425 0.0000 0.0000 0.0000
# 4 0.0000 0.0000 0.0000 20.7829 0.0000 0.0000
# 5 0.0000 0.0000 0.0000 0.0000 20.0793 0.0000
# 6 0.0000 0.0000 0.0000 0.0000 0.0000 15.2511
#
#
#
# Elastic Compliance Matrix: (Units=1/GPa)
#
#
# Indices 1 2 3 4 5 6 
#
# 1 0.024911 -0.009799 -0.002169 0.000000 0.000000 0.000000
# 2 -0.009799 0.023614 -0.002598 0.000000 0.000000 0.000000
# 3 -0.002169 -0.002598 0.005573 0.000000 0.000000 0.000000
# 4 0.000000 0.000000 0.000000 0.048117 0.000000 0.000000
# 5 0.000000 0.000000 0.000000 0.000000 0.049803 0.000000
# 6 0.000000 0.000000 0.000000 0.000000 0.000000 0.065569
#
#
# Mechanical properties :
#
#
# Convention : Reuss Voigt Hill
#
# Bulk Modulus (GPa) = 40.05405 56.51080 48.28243
# Shear Modulus (GPa) = 19.60471 26.18734 22.89603
#
# Velocity S-wave (km/s) = 3.25560 3.76268 3.51829
# Velocity P-wave (km/s) = 5.98218 7.03054 6.52744
#
# Compressibility (1/GPa) = 0.02496626
#
# Stress axis : x y z
#
# Youngs Moduli (GPa) = 40.14335 42.34708 179.43047
#
# Poissons Ratio (x) = 0.41494 0.38917
# Poissons Ratio (y) = 0.39335 0.46625
# Poissons Ratio (z) = 0.08707 0.11004
#
# Static dielectric constant tensor:
#      x y z
#    x 1.674710 0.000000 0.000000 
#    y 0.000000 1.623150 0.000000 
#    z 0.000000 0.000000 1.745880 
# 
# From -- ./inp_files/2895.got.cif
#   From: 2010.05.17/outbox.cif.g08.bks.cpg/sg62_2_cif.got.tgz:2895.got - 2010.06.03 15:25:27.
