data_PCOD9462222
_publ_section_title
;
Structure prediction by ZEFSAII (Michael W. Deem and Ramdas Pophale) SiO2 
 PCOD9462222
Probable space group: P N M A
;
_chemical_formula_sum "Si O2"
_cell_formula_units_Z 52
_cell_length_a 19.826585
_cell_length_b 18.648430
_cell_length_c 5.187293
_cell_angle_alpha 90.000000
_cell_angle_beta 90.000000
_cell_angle_gamma 90.000000
_cell_volume 1917.922130
_symmetry_space_group_name_H-M "P N M A"
_symmetry_group_IT_number 62
_symmetry_cell_setting 'orthorhombic'
loop_
_space_group_symop_operation_xyz
x,y,z
1/2-x,-y,1/2+z
1/2+x,1/2-y,1/2-z
-x,1/2+y,-z
-x,-y,-z
1/2+x,y,1/2-z
1/2-x,1/2+y,1/2+z
x,1/2-y,z
loop_
_atom_site_type_symbol
_atom_site_label
_atom_site_fract_x
_atom_site_fract_y
_atom_site_fract_z
Si Si1 0.525583 0.619527 0.043859
Si Si2 0.827042 0.332093 0.650716
Si Si3 0.211834 0.527888 0.609682
Si Si4 0.049816 0.250000 0.769615
Si Si5 0.697492 0.166796 0.941425
Si Si6 0.066296 0.997522 0.786370
Si Si7 0.381599 0.621504 0.554575
O O1 0.595381 0.644759 0.177989
O O2 0.476361 0.686437 0.067781
O O3 0.489042 0.553403 0.185039
O O4 0.542080 0.584185 0.763221
O O5 0.824116 0.250000 0.558663
O O6 0.795557 0.388392 0.453230
O O7 0.778218 0.335244 0.900876
O O8 0.161704 0.361181 0.305262
O O9 0.134493 0.503452 0.619651
O O10 0.248405 0.510100 0.877347
O O11 0.067816 0.314267 0.982581
O O12 0.673885 0.250000 0.908170
O O13 0.667839 0.128429 0.691852
O O14 0.090424 0.039789 0.044041
#
# Coordination Sequence:
#
# PCOD9462222 Si02
#       7
#     8   8   8   4   8   8   8
#     4   9  18  40  71 114 153 215 265 329 398 491
#     4  10  22  41  75 114 156 211 264 341 409 495
#     4  11  25  47  76 111 155 209 267 337 414 491
#     4  10  18  36  72 102 152 208 262 318 392 478
#     4  11  22  40  67 107 146 190 252 326 399 473
#     4   9  21  39  72 112 153 206 267 332 393 487
#     4  11  22  40  70 106 149 200 255 325 401 474
#
# _framework density 27.112677999999999
#
# number of rings (size 3 to 8) (size 9 to 14) (size 15 to 20)
#    0.000    1.846    2.308    0.923    0.000    4.923 
#    0.000    2.308    6.769   96.000    0.000    0.000 
#    0.000    0.000    0.000    0.000    0.154    0.000 
#
# Total GULP energy -290025.601191 kJ/mol
# GULP energy per Si atom -5577.415408 kJ/mol
# Density = 2.705097 g / cm^3
# Si number density = 27.112678 Si / 1000 Ang^3
#
#
#
# Elastic Constant Matrix: (Units=GPa)
#
#
# Indices 1 2 3 4 5 6 
#
# 1 74.0724 55.1800 28.5293 0.0000 0.0000 0.0000
# 2 55.1800 215.8611 39.3760 0.0000 0.0000 0.0000
# 3 28.5293 39.3760 120.8509 0.0000 0.0000 0.0000
# 4 0.0000 0.0000 0.0000 40.1214 0.0000 0.0000
# 5 0.0000 0.0000 0.0000 0.0000 4.8790 0.0000
# 6 0.0000 0.0000 0.0000 0.0000 0.0000 54.2308
#
#
#
# Elastic Compliance Matrix: (Units=1/GPa)
#
#
# Indices 1 2 3 4 5 6 
#
# 1 0.017554 -0.003967 -0.002851 0.000000 0.000000 0.000000
# 2 -0.003967 0.005822 -0.000960 0.000000 0.000000 0.000000
# 3 -0.002851 -0.000960 0.009261 0.000000 0.000000 0.000000
# 4 0.000000 0.000000 0.000000 0.024924 0.000000 0.000000
# 5 0.000000 0.000000 0.000000 0.000000 0.204959 0.000000
# 6 0.000000 0.000000 0.000000 0.000000 0.000000 0.018440
#
#
# Mechanical properties :
#
#
# Convention : Reuss Voigt Hill
#
# Bulk Modulus (GPa) = 58.55249 72.99500 65.77374
# Shear Modulus (GPa) = 16.54480 39.02619 27.78549
#
# Velocity S-wave (km/s) = 2.47295 3.79807 3.20475
# Velocity P-wave (km/s) = 5.45865 6.79816 6.16490
#
# Compressibility (1/GPa) = 0.01707869
#
# Stress axis : x y z
#
# Youngs Moduli (GPa) = 56.96772 171.76527 107.98326
#
# Poissons Ratio (x) = 0.68141 0.30790
# Poissons Ratio (y) = 0.22600 0.10371
# Poissons Ratio (z) = 0.16243 0.16496
#
# Static dielectric constant tensor:
#      x y z
#    x 2.386670 0.000000 0.000000 
#    y 0.000000 2.140490 0.000000 
#    z 0.000000 0.000000 2.120350 
# 
# From -- ./inp_files/14919.got.cif
#   From: 2010.05.17/outbox.cif.g08.bks.cpg/sg62_8_cif.got.tgz:14919.got - 2010.06.03 15:25:27.
