data_PCOD9462812
_publ_section_title
;
Structure prediction by ZEFSAII (Michael W. Deem and Ramdas Pophale) SiO2 
 PCOD9462812
Probable space group: P N M A
;
_chemical_formula_sum "Si O2"
_cell_formula_units_Z 64
_cell_length_a 34.061255
_cell_length_b 8.706634
_cell_length_c 11.760122
_cell_angle_alpha 90.000000
_cell_angle_beta 90.000000
_cell_angle_gamma 90.000000
_cell_volume 3487.568619
_symmetry_space_group_name_H-M "P N M A"
_symmetry_group_IT_number 62
_symmetry_cell_setting 'orthorhombic'
loop_
_space_group_symop_operation_xyz
x,y,z
1/2-x,-y,1/2+z
1/2+x,1/2-y,1/2-z
-x,1/2+y,-z
-x,-y,-z
1/2+x,y,1/2-z
1/2-x,1/2+y,1/2+z
x,1/2-y,z
loop_
_atom_site_type_symbol
_atom_site_label
_atom_site_fract_x
_atom_site_fract_y
_atom_site_fract_z
Si Si1 0.408087 0.066141 0.687844
Si Si2 0.701794 0.433626 0.946239
Si Si3 0.171336 0.933966 0.319280
Si Si4 0.286846 0.567017 0.601738
Si Si5 0.859764 0.065796 0.031169
Si Si6 0.054191 0.435064 0.586673
Si Si7 0.868053 0.564596 0.279932
Si Si8 0.026427 0.433424 0.337545
O O1 0.412941 0.250000 0.690379
O O2 0.372062 0.026611 0.772707
O O3 0.392707 0.022445 0.562564
O O4 0.447314 0.988691 0.733046
O O5 0.707084 0.250000 0.946423
O O6 0.743589 0.514380 0.933018
O O7 0.672354 0.475019 0.843793
O O8 0.681517 0.485463 0.063150
O O9 0.173887 0.750000 0.330646
O O10 0.200959 0.989945 0.221166
O O11 0.288930 0.750000 0.611575
O O12 0.319136 0.508996 0.511316
O O13 0.855520 0.250000 0.026918
O O14 0.869993 0.010280 0.156516
O O15 0.053111 0.250000 0.587852
O O16 0.095238 0.483867 0.641529
O O17 0.047618 0.484425 0.455752
O O18 0.017103 0.497645 0.656701
O O19 0.869443 0.750000 0.268701
O O20 0.023961 0.250000 0.338210
#
# Coordination Sequence:
#
# PCOD9462812 Si02
#       8
#     8   8   8   8   8   8   8   8
#     4   9  19  36  57  81 110 147 185 231 285 337
#     4  11  23  38  58  84 114 147 187 236 287 342
#     4  10  21  38  58  83 113 144 186 235 283 336
#     4  11  23  39  59  82 111 149 191 234 285 339
#     4  10  22  40  60  82 113 150 192 240 289 342
#     4   9  19  36  55  82 119 152 184 230 286 341
#     4  10  22  39  59  83 114 153 192 233 288 348
#     4  10  19  32  57  88 115 147 188 234 282 338
#
# _framework density 18.350892000000002
#
# number of rings (size 3 to 8) (size 9 to 14) (size 15 to 20)
#    0.000    2.000    0.000    4.125    1.750    6.000 
#    0.000    0.625    0.000    0.000    0.000    0.000 
#    0.000    0.000    0.000    0.000    0.000    0.000 
#
# Total GULP energy -357492.034435 kJ/mol
# GULP energy per Si atom -5585.813038 kJ/mol
# Density = 1.830912 g / cm^3
# Si number density = 18.350892 Si / 1000 Ang^3
#
#
#
# Elastic Constant Matrix: (Units=GPa)
#
#
# Indices 1 2 3 4 5 6 
#
# 1 68.0984 14.9723 16.6559 0.0000 0.0000 0.0000
# 2 14.9723 20.7995 0.7576 0.0000 0.0000 0.0000
# 3 16.6559 0.7576 48.5655 0.0000 0.0000 0.0000
# 4 0.0000 0.0000 0.0000 31.0174 0.0000 0.0000
# 5 0.0000 0.0000 0.0000 0.0000 9.7230 0.0000
# 6 0.0000 0.0000 0.0000 0.0000 0.0000 24.1016
#
#
#
# Elastic Compliance Matrix: (Units=1/GPa)
#
#
# Indices 1 2 3 4 5 6 
#
# 1 0.019241 -0.013618 -0.006386 0.000000 0.000000 0.000000
# 2 -0.013618 0.057743 0.003769 0.000000 0.000000 0.000000
# 3 -0.006386 0.003769 0.022722 0.000000 0.000000 0.000000
# 4 0.000000 0.000000 0.000000 0.032240 0.000000 0.000000
# 5 0.000000 0.000000 0.000000 0.000000 0.102849 0.000000
# 6 0.000000 0.000000 0.000000 0.000000 0.000000 0.041491
#
#
# Mechanical properties :
#
#
# Convention : Reuss Voigt Hill
#
# Bulk Modulus (GPa) = 14.87267 22.47053 18.67160
# Shear Modulus (GPa) = 15.09813 19.97357 17.53585
#
# Velocity S-wave (km/s) = 2.87147 3.30271 3.09461
# Velocity P-wave (km/s) = 4.37218 5.17835 4.79225
#
# Compressibility (1/GPa) = 0.06723741
#
# Stress axis : x y z
#
# Youngs Moduli (GPa) = 51.97342 17.31804 44.00987
#
# Poissons Ratio (x) = 0.23583 0.28106
# Poissons Ratio (y) = 0.70775 -0.16589
# Poissons Ratio (z) = 0.33192 -0.06528
#
# Static dielectric constant tensor:
#      x y z
#    x 1.615130 0.000000 0.000000 
#    y 0.000000 1.614570 0.000000 
#    z 0.000000 0.000000 1.616710 
# 
# From -- ./inp_files/15915.got.cif
#   From: 2010.05.17/outbox.cif.g08.bks.cpg/sg62_8_cif.got.tgz:15915.got - 2010.06.03 15:25:27.
