data_PCOD9462169
_publ_section_title
;
Structure prediction by ZEFSAII (Michael W. Deem and Ramdas Pophale) SiO2 
 PCOD9462169
Probable space group: P N M A
;
_chemical_formula_sum "Si O2"
_cell_formula_units_Z 48
_cell_length_a 14.561810
_cell_length_b 20.161584
_cell_length_c 7.309250
_cell_angle_alpha 90.000000
_cell_angle_beta 90.000000
_cell_angle_gamma 90.000000
_cell_volume 2145.916535
_symmetry_space_group_name_H-M "P N M A"
_symmetry_group_IT_number 62
_symmetry_cell_setting 'orthorhombic'
loop_
_space_group_symop_operation_xyz
x,y,z
1/2-x,-y,1/2+z
1/2+x,1/2-y,1/2-z
-x,1/2+y,-z
-x,-y,-z
1/2+x,y,1/2-z
1/2-x,1/2+y,1/2+z
x,1/2-y,z
loop_
_atom_site_type_symbol
_atom_site_label
_atom_site_fract_x
_atom_site_fract_y
_atom_site_fract_z
Si Si1 0.630509 0.442748 0.558383
Si Si2 0.729714 0.105731 0.096425
Si Si3 0.422036 0.672938 0.667322
Si Si4 0.820818 0.472617 0.433463
Si Si5 0.450399 0.456574 0.747735
Si Si6 0.901082 0.174786 0.973498
O O1 0.608802 0.366567 0.513760
O O2 0.738950 0.446252 0.567638
O O3 0.559086 0.467581 0.711724
O O4 0.599877 0.488095 0.380897
O O5 0.636804 0.136602 0.177903
O O6 0.793030 0.066933 0.249181
O O7 0.795830 0.162661 0.023573
O O8 0.701578 0.050989 0.948843
O O9 0.399263 0.750000 0.666452
O O10 0.532285 0.666304 0.651727
O O11 0.913191 0.458892 0.547146
O O12 0.426184 0.384864 0.663188
O O13 0.917139 0.250000 0.906886
#
# Coordination Sequence:
#
# PCOD9462169 Si02
#       6
#     8   8   8   8   8   8
#     4   9  18  32  56  72 108 140 180 218 255 326
#     4  11  20  33  53  80 110 139 179 225 268 320
#     4   9  18  33  54  76 101 141 180 212 262 325
#     4  11  19  33  54  80 109 139 176 226 269 306
#     4  10  18  35  55  76 102 144 184 215 265 312
#     4  10  20  36  56  77 104 140 182 224 267 321
#
# _framework density 22.368064
#
# number of rings (size 3 to 8) (size 9 to 14) (size 15 to 20)
#    0.000    2.000    5.000    0.500    0.000    0.000 
#    0.000    9.167    0.000    0.000    0.000    2.333 
#    0.000    0.000    0.000    0.000    0.000    0.000 
#
# Total GULP energy -267605.523580 kJ/mol
# GULP energy per Si atom -5575.115075 kJ/mol
# Density = 2.231715 g / cm^3
# Si number density = 22.368064 Si / 1000 Ang^3
#
#
#
# Elastic Constant Matrix: (Units=GPa)
#
#
# Indices 1 2 3 4 5 6 
#
# 1 55.5943 6.4990 -21.4703 0.0000 0.0000 0.0000
# 2 6.4990 135.1968 15.5726 0.0000 0.0000 0.0000
# 3 -21.4703 15.5726 61.7116 0.0000 0.0000 0.0000
# 4 0.0000 0.0000 0.0000 15.6766 0.0000 0.0000
# 5 0.0000 0.0000 0.0000 0.0000 35.2973 0.0000
# 6 0.0000 0.0000 0.0000 0.0000 0.0000 28.6409
#
#
#
# Elastic Compliance Matrix: (Units=1/GPa)
#
#
# Indices 1 2 3 4 5 6 
#
# 1 0.021257 -0.001930 0.007883 0.000000 0.000000 0.000000
# 2 -0.001930 0.007793 -0.002638 0.000000 0.000000 0.000000
# 3 0.007883 -0.002638 0.019613 0.000000 0.000000 0.000000
# 4 0.000000 0.000000 0.000000 0.063789 0.000000 0.000000
# 5 0.000000 0.000000 0.000000 0.000000 0.028331 0.000000
# 6 0.000000 0.000000 0.000000 0.000000 0.000000 0.034915
#
#
# Mechanical properties :
#
#
# Convention : Reuss Voigt Hill
#
# Bulk Modulus (GPa) = 18.08549 28.18946 23.13748
# Shear Modulus (GPa) = 26.66676 32.71641 29.69159
#
# Velocity S-wave (km/s) = 3.45654 3.82860 3.64732
# Velocity P-wave (km/s) = 4.90237 5.67222 5.30129
#
# Compressibility (1/GPa) = 0.05529295
#
# Stress axis : x y z
#
# Youngs Moduli (GPa) = 47.04259 128.31615 50.98764
#
# Poissons Ratio (x) = 0.24763 -0.40192
# Poissons Ratio (y) = 0.09078 0.13451
# Poissons Ratio (z) = -0.37082 0.33850
#
# Static dielectric constant tensor:
#      x y z
#    x 1.889790 0.000000 0.000000 
#    y 0.000000 1.801550 0.000000 
#    z 0.000000 0.000000 1.898860 
# 
# From -- ./inp_files/6634.got.cif
#   From: 2010.05.17/outbox.cif.g08.bks.cpg/sg62_4_cif.got.tgz:6634.got - 2010.06.03 15:25:27.
