data_PCOD9462820
_publ_section_title
;
Structure prediction by ZEFSAII (Michael W. Deem and Ramdas Pophale) SiO2 
 PCOD9462820
Probable space group: P N M A
;
_chemical_formula_sum "Si O2"
_cell_formula_units_Z 64
_cell_length_a 19.447317
_cell_length_b 9.169147
_cell_length_c 23.942693
_cell_angle_alpha 90.000000
_cell_angle_beta 90.000000
_cell_angle_gamma 90.000000
_cell_volume 4269.348685
_symmetry_space_group_name_H-M "P N M A"
_symmetry_group_IT_number 62
_symmetry_cell_setting 'orthorhombic'
loop_
_space_group_symop_operation_xyz
x,y,z
1/2-x,-y,1/2+z
1/2+x,1/2-y,1/2-z
-x,1/2+y,-z
-x,-y,-z
1/2+x,y,1/2-z
1/2-x,1/2+y,1/2+z
x,1/2-y,z
loop_
_atom_site_type_symbol
_atom_site_label
_atom_site_fract_x
_atom_site_fract_y
_atom_site_fract_z
Si Si1 0.137019 0.922783 0.272150
Si Si2 0.772744 0.924941 0.165804
Si Si3 0.358513 0.074677 0.560136
Si Si4 0.498773 0.923846 0.742068
Si Si5 0.357047 0.924467 0.441524
Si Si6 0.652242 0.575951 0.769120
Si Si7 0.499198 0.925296 0.378820
Si Si8 0.767438 0.424307 0.835553
O O1 0.122063 0.750000 0.273617
O O2 0.193518 0.956977 0.319518
O O3 0.176441 0.952255 0.213442
O O4 0.067215 0.012203 0.273513
O O5 0.782301 0.750000 0.173846
O O6 0.799067 0.962141 0.104279
O O7 0.818646 0.006807 0.211751
O O8 0.357172 0.250000 0.554860
O O9 0.432835 0.035501 0.586202
O O10 0.300961 0.033017 0.605716
O O11 0.348690 0.002685 0.500307
O O12 0.493027 0.750000 0.736443
O O13 0.571326 0.957231 0.771736
O O14 0.500517 0.996036 0.680689
O O15 0.355936 0.750000 0.449755
O O16 0.430520 0.961469 0.413329
O O17 0.661180 0.750000 0.767779
O O18 0.698617 0.507008 0.817776
O O19 0.500200 0.750000 0.369472
O O20 0.755333 0.250000 0.835227
#
# Coordination Sequence:
#
# PCOD9462820 Si02
#       8
#     8   8   8   8   8   8   8   8
#     4   9  17  31  50  68  91 123 158 194 235 283
#     4   9  18  33  50  68  92 124 161 197 234 282
#     4  10  20  33  48  68  96 128 164 200 233 274
#     4  11  21  30  45  72 100 126 156 194 240 285
#     4  10  20  32  49  70  93 128 167 197 233 277
#     4  10  20  31  46  70  97 122 154 197 242 282
#     4  10  19  33  48  64  94 134 168 195 225 271
#     4   9  18  33  50  68  91 125 162 195 235 283
#
# _framework density 14.990577999999999
#
# number of rings (size 3 to 8) (size 9 to 14) (size 15 to 20)
#    0.000    2.250    2.500    1.875    0.000    5.500 
#    0.000    0.000    0.000    0.000    0.000    0.875 
#    0.000    0.000    0.000    0.000    0.000    0.000 
#
# Total GULP energy -356950.776091 kJ/mol
# GULP energy per Si atom -5577.355876 kJ/mol
# Density = 1.495646 g / cm^3
# Si number density = 14.990578 Si / 1000 Ang^3
#
#
#
# Elastic Constant Matrix: (Units=GPa)
#
#
# Indices 1 2 3 4 5 6 
#
# 1 138.8526 58.6651 77.7791 0.0000 0.0000 0.0000
# 2 58.6651 33.8340 38.1896 0.0000 0.0000 0.0000
# 3 77.7791 38.1896 105.4046 0.0000 0.0000 0.0000
# 4 0.0000 0.0000 0.0000 26.8096 0.0000 0.0000
# 5 0.0000 0.0000 0.0000 0.0000 18.0675 0.0000
# 6 0.0000 0.0000 0.0000 0.0000 0.0000 21.1015
#
#
#
# Elastic Compliance Matrix: (Units=1/GPa)
#
#
# Indices 1 2 3 4 5 6 
#
# 1 0.028582 -0.043572 -0.005304 0.000000 0.000000 0.000000
# 2 -0.043572 0.116429 -0.010032 0.000000 0.000000 0.000000
# 3 -0.005304 -0.010032 0.017036 0.000000 0.000000 0.000000
# 4 0.000000 0.000000 0.000000 0.037300 0.000000 0.000000
# 5 0.000000 0.000000 0.000000 0.000000 0.055348 0.000000
# 6 0.000000 0.000000 0.000000 0.000000 0.000000 0.047390
#
#
# Mechanical properties :
#
#
# Convention : Reuss Voigt Hill
#
# Bulk Modulus (GPa) = 22.60849 69.70652 46.15751
# Shear Modulus (GPa) = 11.50365 20.09287 15.79826
#
# Velocity S-wave (km/s) = 2.77319 3.66507 3.24987
# Velocity P-wave (km/s) = 5.03673 8.03191 6.70374
#
# Compressibility (1/GPa) = 0.04423118
#
# Stress axis : x y z
#
# Youngs Moduli (GPa) = 34.98681 8.58895 58.69875
#
# Poissons Ratio (x) = 0.37423 0.31137
# Poissons Ratio (y) = 1.52443 0.58885
# Poissons Ratio (z) = 0.18559 0.08616
#
# Static dielectric constant tensor:
#      x y z
#    x 1.502510 0.000000 0.000000 
#    y 0.000000 1.498600 0.000000 
#    z 0.000000 0.000000 1.470970 
# 
# From -- ./inp_files/30053.got.cif
#   From: 2010.05.17/outbox.cif.g08.bks.cpg/sg62_16_cif.got.tgz:30053.got - 2010.06.03 15:25:27.
