data_PCOD9462738
_publ_section_title
;
Structure prediction by ZEFSAII (Michael W. Deem and Ramdas Pophale) SiO2 
 PCOD9462738
Probable space group: P N M A
;
_chemical_formula_sum "Si O2"
_cell_formula_units_Z 64
_cell_length_a 17.203717
_cell_length_b 15.641190
_cell_length_c 9.956350
_cell_angle_alpha 90.000000
_cell_angle_beta 90.000000
_cell_angle_gamma 90.000000
_cell_volume 2679.120433
_symmetry_space_group_name_H-M "P N M A"
_symmetry_group_IT_number 62
_symmetry_cell_setting 'orthorhombic'
loop_
_space_group_symop_operation_xyz
x,y,z
1/2-x,-y,1/2+z
1/2+x,1/2-y,1/2-z
-x,1/2+y,-z
-x,-y,-z
1/2+x,y,1/2-z
1/2-x,1/2+y,1/2+z
x,1/2-y,z
loop_
_atom_site_type_symbol
_atom_site_label
_atom_site_fract_x
_atom_site_fract_y
_atom_site_fract_z
Si Si1 0.838269 0.652835 0.802296
Si Si2 0.588739 0.652020 0.220308
Si Si3 0.856944 0.007448 0.111915
Si Si4 0.028573 0.028070 0.200078
Si Si5 0.287901 0.914880 0.991636
Si Si6 0.519855 0.844363 0.932314
Si Si7 0.181079 0.910692 0.605721
Si Si8 0.723058 0.153691 0.714015
O O1 0.863264 0.750000 0.811015
O O2 0.816641 0.629639 0.645309
O O3 0.761113 0.638490 0.888582
O O4 0.903803 0.588435 0.854623
O O5 0.580945 0.750000 0.273893
O O6 0.561011 0.567708 0.296578
O O7 0.682635 0.642569 0.193797
O O8 0.529440 0.646872 0.092057
O O9 0.830100 0.910393 0.129760
O O10 0.947704 0.026600 0.120257
O O11 0.803573 0.059807 0.009372
O O12 0.823101 0.042990 0.252182
O O13 0.012841 0.075907 0.345729
O O14 0.297888 0.862027 0.128128
O O15 0.327591 0.008682 0.005260
O O16 0.486456 0.750000 0.901497
O O17 0.610743 0.846008 0.896580
O O18 0.704906 0.250000 0.678591
#
# Coordination Sequence:
#
# PCOD9462738 Si02
#       8
#     8   8   8   8   8   8   8   8
#     4  11  22  36  56  85 118 154 192 236 286 340
#     4  10  21  36  57  81 109 145 187 237 292 343
#     4   9  20  34  55  80 107 145 183 225 281 336
#     4  11  21  36  53  79 118 151 182 229 285 348
#     4  10  19  37  60  81 105 147 196 234 278 337
#     4  10  19  32  53  81 109 145 185 226 282 344
#     4   9  18  34  56  79 108 142 186 238 279 320
#     4  10  20  37  59  84 109 139 188 245 284 326
#
# _framework density 23.888437
#
# number of rings (size 3 to 8) (size 9 to 14) (size 15 to 20)
#    0.000    2.000    0.000    5.250    0.000    2.500 
#    0.000    6.250    0.000    1.500    0.000    0.000 
#    0.000    0.000    0.000    0.000    0.000    0.000 
#
# Total GULP energy -357299.305742 kJ/mol
# GULP energy per Si atom -5582.801652 kJ/mol
# Density = 2.383407 g / cm^3
# Si number density = 23.888437 Si / 1000 Ang^3
#
#
#
# Elastic Constant Matrix: (Units=GPa)
#
#
# Indices 1 2 3 4 5 6 
#
# 1 125.9100 53.0229 -0.6221 0.0000 0.0000 0.0000
# 2 53.0229 165.1859 28.1375 0.0000 0.0000 0.0000
# 3 -0.6221 28.1375 61.0277 0.0000 0.0000 0.0000
# 4 0.0000 0.0000 0.0000 9.9280 0.0000 0.0000
# 5 0.0000 0.0000 0.0000 0.0000 37.1859 0.0000
# 6 0.0000 0.0000 0.0000 0.0000 0.0000 24.0873
#
#
#
# Elastic Compliance Matrix: (Units=1/GPa)
#
#
# Indices 1 2 3 4 5 6 
#
# 1 0.009325 -0.003266 0.001601 0.000000 0.000000 0.000000
# 2 -0.003266 0.007714 -0.003590 0.000000 0.000000 0.000000
# 3 0.001601 -0.003590 0.018057 0.000000 0.000000 0.000000
# 4 0.000000 0.000000 0.000000 0.100725 0.000000 0.000000
# 5 0.000000 0.000000 0.000000 0.000000 0.026892 0.000000
# 6 0.000000 0.000000 0.000000 0.000000 0.000000 0.041516
#
#
# Mechanical properties :
#
#
# Convention : Reuss Voigt Hill
#
# Bulk Modulus (GPa) = 40.67238 57.02225 48.84732
# Shear Modulus (GPa) = 22.42808 32.34591 27.38700
#
# Velocity S-wave (km/s) = 3.06742 3.68372 3.38961
# Velocity P-wave (km/s) = 5.44135 6.48191 5.98429
#
# Compressibility (1/GPa) = 0.02458671
#
# Stress axis : x y z
#
# Youngs Moduli (GPa) = 107.23290 129.64054 55.37894
#
# Poissons Ratio (x) = 0.42342 -0.08866
# Poissons Ratio (y) = 0.35023 0.19880
# Poissons Ratio (z) = -0.17167 0.46538
#
# Static dielectric constant tensor:
#      x y z
#    x 1.940040 0.000000 0.000000 
#    y 0.000000 2.003800 0.000000 
#    z 0.000000 0.000000 2.049290 
# 
# From -- ./inp_files/14360.got.cif
#   From: 2010.05.17/outbox.cif.g08.bks.cpg/sg62_8_cif.got.tgz:14360.got - 2010.06.03 15:25:27.
