data_PCOD9462177
_publ_section_title
;
Structure prediction by ZEFSAII (Michael W. Deem and Ramdas Pophale) SiO2 
 PCOD9462177
Probable space group: P N M A
;
_chemical_formula_sum "Si O2"
_cell_formula_units_Z 52
_cell_length_a 7.660838
_cell_length_b 11.555503
_cell_length_c 28.795978
_cell_angle_alpha 90.000000
_cell_angle_beta 90.000000
_cell_angle_gamma 90.000000
_cell_volume 2549.159244
_symmetry_space_group_name_H-M "P N M A"
_symmetry_group_IT_number 62
_symmetry_cell_setting 'orthorhombic'
loop_
_space_group_symop_operation_xyz
x,y,z
1/2-x,-y,1/2+z
1/2+x,1/2-y,1/2-z
-x,1/2+y,-z
-x,-y,-z
1/2+x,y,1/2-z
1/2-x,1/2+y,1/2+z
x,1/2-y,z
loop_
_atom_site_type_symbol
_atom_site_label
_atom_site_fract_x
_atom_site_fract_y
_atom_site_fract_z
Si Si1 0.956267 0.881364 0.185398
Si Si2 0.207603 0.502375 0.995243
Si Si3 0.265164 0.501759 0.236553
Si Si4 0.239373 0.250000 0.989987
Si Si5 0.177913 0.750000 0.037768
Si Si6 0.426002 0.878724 0.810330
Si Si7 0.200819 0.968221 0.388112
Si Si8 0.488647 0.750000 0.096282
O O1 0.013570 0.750000 0.183918
O O2 0.874148 0.918179 0.136480
O O3 0.809848 0.899230 0.225662
O O4 0.109886 0.962973 0.202956
O O5 0.262351 0.374906 0.015331
O O6 0.268021 0.495421 0.941834
O O7 0.250817 0.628968 0.015832
O O8 0.000000 0.500000 0.000000
O O9 0.428696 0.468734 0.205800
O O10 0.217837 0.394132 0.269938
O O11 0.386708 0.250000 0.950014
O O12 0.036293 0.250000 0.968577
O O13 0.281981 0.750000 0.086631
O O14 0.494306 0.750000 0.812308
O O15 0.349620 0.919131 0.859138
O O16 0.055046 0.868530 0.380723
#
# Coordination Sequence:
#
# PCOD9462177 Si02
#       8
#     8   8   8   4   4   8   8   4
#     4  10  18  35  58  85 120 152 188 243 295 352
#     4   9  19  38  60  85 114 153 200 246 303 371
#     4   9  20  35  56  87 110 156 200 226 292 356
#     4   8  18  36  58  82 114 145 188 248 300 357
#     4  10  20  36  66  84 106 157 208 239 304 370
#     4  10  20  37  58  81 118 154 193 243 283 350
#     4  10  21  36  58  86 120 150 190 246 306 347
#     4  10  20  40  58  84 118 152 196 241 300 365
#
# _framework density 20.398883000000001
#
# number of rings (size 3 to 8) (size 9 to 14) (size 15 to 20)
#    0.000    2.462    0.769    0.923    1.077    2.462 
#   11.077    0.769    1.692    0.000    0.000    0.000 
#    0.000    0.000    0.000    0.000    0.000    0.000 
#
# Total GULP energy -289539.371892 kJ/mol
# GULP energy per Si atom -5568.064844 kJ/mol
# Density = 2.035245 g / cm^3
# Si number density = 20.398883 Si / 1000 Ang^3
#
#
#
# Elastic Constant Matrix: (Units=GPa)
#
#
# Indices 1 2 3 4 5 6 
#
# 1 48.4297 -1.9782 12.9487 0.0000 0.0000 0.0000
# 2 -1.9782 117.0709 20.0978 0.0000 0.0000 0.0000
# 3 12.9487 20.0978 41.2614 0.0000 0.0000 0.0000
# 4 0.0000 0.0000 0.0000 4.4397 0.0000 0.0000
# 5 0.0000 0.0000 0.0000 0.0000 30.2827 0.0000
# 6 0.0000 0.0000 0.0000 0.0000 0.0000 8.8241
#
#
#
# Elastic Compliance Matrix: (Units=1/GPa)
#
#
# Indices 1 2 3 4 5 6 
#
# 1 0.022870 0.001766 -0.008037 0.000000 0.000000 0.000000
# 2 0.001766 0.009458 -0.005161 0.000000 0.000000 0.000000
# 3 -0.008037 -0.005161 0.029272 0.000000 0.000000 0.000000
# 4 0.000000 0.000000 0.000000 0.225242 0.000000 0.000000
# 5 0.000000 0.000000 0.000000 0.000000 0.033022 0.000000
# 6 0.000000 0.000000 0.000000 0.000000 0.000000 0.113327
#
#
# Mechanical properties :
#
#
# Convention : Reuss Voigt Hill
#
# Bulk Modulus (GPa) = 25.81641 29.87761 27.84701
# Shear Modulus (GPa) = 10.66177 20.42221 15.54199
#
# Velocity S-wave (km/s) = 2.28867 3.16752 2.76326
# Velocity P-wave (km/s) = 4.43478 5.29680 4.88484
#
# Compressibility (1/GPa) = 0.03873506
#
# Stress axis : x y z
#
# Youngs Moduli (GPa) = 43.72622 105.73437 34.16262
#
# Poissons Ratio (x) = -0.18675 0.27457
# Poissons Ratio (y) = -0.07723 0.17631
# Poissons Ratio (z) = 0.35144 0.54569
#
# Static dielectric constant tensor:
#      x y z
#    x 1.875760 0.000000 0.000000 
#    y 0.000000 1.775860 0.000000 
#    z 0.000000 0.000000 1.741980 
# 
# From -- ./inp_files/30839.got.cif
#   From: 2010.05.17/outbox.cif.g08.bks.cpg/sg62_16_cif.got.tgz:30839.got - 2010.06.03 15:25:27.
