data_PCOD9462499
_publ_section_title
;
Structure prediction by ZEFSAII (Michael W. Deem and Ramdas Pophale) SiO2 
 PCOD9462499
Probable space group: P N M A
;
_chemical_formula_sum "Si O2"
_cell_formula_units_Z 64
_cell_length_a 14.963204
_cell_length_b 8.644801
_cell_length_c 25.286175
_cell_angle_alpha 90.000000
_cell_angle_beta 90.000000
_cell_angle_gamma 90.000000
_cell_volume 3270.865881
_symmetry_space_group_name_H-M "P N M A"
_symmetry_group_IT_number 62
_symmetry_cell_setting 'orthorhombic'
loop_
_space_group_symop_operation_xyz
x,y,z
1/2-x,-y,1/2+z
1/2+x,1/2-y,1/2-z
-x,1/2+y,-z
-x,-y,-z
1/2+x,y,1/2-z
1/2-x,1/2+y,1/2+z
x,1/2-y,z
loop_
_atom_site_type_symbol
_atom_site_label
_atom_site_fract_x
_atom_site_fract_y
_atom_site_fract_z
Si Si1 0.343649 0.073114 0.219172
Si Si2 0.029510 0.563673 0.307828
Si Si3 0.230645 0.063009 0.993583
Si Si4 0.368290 0.567079 0.590889
Si Si5 0.852096 0.433981 0.793217
Si Si6 0.855323 0.426582 0.156467
Si Si7 0.048150 0.429420 0.932537
Si Si8 0.176275 0.937604 0.391298
O O1 0.328886 0.250000 0.201951
O O2 0.366657 0.071658 0.281240
O O3 0.430069 0.002866 0.191059
O O4 0.250788 0.983326 0.214297
O O5 0.024519 0.750000 0.304816
O O6 0.085584 0.509122 0.255632
O O7 0.085892 0.523535 0.360450
O O8 0.234999 0.250000 0.996581
O O9 0.138511 0.024131 0.962850
O O10 0.308882 0.015783 0.952875
O O11 0.213298 0.008372 0.053528
O O12 0.359645 0.750000 0.597342
O O13 0.375645 0.493659 0.648445
O O14 0.460182 0.530049 0.559836
O O15 0.858527 0.250000 0.792662
O O16 0.870204 0.250000 0.137443
O O17 0.922680 0.542547 0.128063
O O18 0.756328 0.482538 0.141071
O O19 0.029131 0.250000 0.942857
O O20 0.188026 0.750000 0.388344
#
# Coordination Sequence:
#
# PCOD9462499 Si02
#       8
#     8   8   8   8   8   8   8   8
#     4  11  23  36  54  80 113 148 181 225 278 330
#     4  10  21  36  58  83 108 142 182 226 274 326
#     4   8  17  32  53  77 105 142 183 227 276 324
#     4  11  21  34  51  76 110 145 180 225 279 330
#     4  11  23  39  58  82 112 150 189 226 270 330
#     4  10  19  31  49  76 107 141 176 219 271 320
#     4  10  19  32  51  76 107 146 188 226 264 322
#     4   9  17  34  56  78 103 137 179 223 266 319
#
# _framework density 19.566685
#
# number of rings (size 3 to 8) (size 9 to 14) (size 15 to 20)
#    0.000    2.000    1.250    3.750    0.000    5.000 
#    0.000    5.625    0.000    0.750    0.000    0.000 
#    0.000    0.000    0.000    0.000    0.000    0.000 
#
# Total GULP energy -356883.062373 kJ/mol
# GULP energy per Si atom -5576.297850 kJ/mol
# Density = 1.952215 g / cm^3
# Si number density = 19.566685 Si / 1000 Ang^3
#
#
#
# Elastic Constant Matrix: (Units=GPa)
#
#
# Indices 1 2 3 4 5 6 
#
# 1 42.7650 4.4790 -6.0571 0.0000 0.0000 0.0000
# 2 4.4790 30.2562 6.4921 0.0000 0.0000 0.0000
# 3 -6.0571 6.4921 31.3324 0.0000 0.0000 0.0000
# 4 0.0000 0.0000 0.0000 17.7573 0.0000 0.0000
# 5 0.0000 0.0000 0.0000 0.0000 18.7482 0.0000
# 6 0.0000 0.0000 0.0000 0.0000 0.0000 20.9695
#
#
#
# Elastic Compliance Matrix: (Units=1/GPa)
#
#
# Indices 1 2 3 4 5 6 
#
# 1 0.024718 -0.004902 0.005794 0.000000 0.000000 0.000000
# 2 -0.004902 0.035561 -0.008316 0.000000 0.000000 0.000000
# 3 0.005794 -0.008316 0.034759 0.000000 0.000000 0.000000
# 4 0.000000 0.000000 0.000000 0.056315 0.000000 0.000000
# 5 0.000000 0.000000 0.000000 0.000000 0.053339 0.000000
# 6 0.000000 0.000000 0.000000 0.000000 0.000000 0.047688
#
#
# Mechanical properties :
#
#
# Convention : Reuss Voigt Hill
#
# Bulk Modulus (GPa) = 12.47047 12.68685 12.57866
# Shear Modulus (GPa) = 17.00924 18.12429 17.56677
#
# Velocity S-wave (km/s) = 2.95158 3.04679 2.99956
# Velocity P-wave (km/s) = 4.24299 4.34456 4.29408
#
# Compressibility (1/GPa) = 0.08018945
#
# Stress axis : x y z
#
# Youngs Moduli (GPa) = 40.45680 28.12061 28.76954
#
# Poissons Ratio (x) = 0.13786 -0.16669
# Poissons Ratio (y) = 0.19833 0.23925
# Poissons Ratio (z) = -0.23441 0.23385
#
# Static dielectric constant tensor:
#      x y z
#    x 1.689160 0.000000 0.000000 
#    y 0.000000 1.675040 0.000000 
#    z 0.000000 0.000000 1.749690 
# 
# From -- ./inp_files/29902.got.cif
#   From: 2010.05.17/outbox.cif.g08.bks.cpg/sg62_15_cif.got.tgz:29902.got - 2010.06.03 15:25:27.
