data_PCOD9462480
_publ_section_title
;
Structure prediction by ZEFSAII (Michael W. Deem and Ramdas Pophale) SiO2 
 PCOD9462480
Probable space group: P N M A
;
_chemical_formula_sum "Si O2"
_cell_formula_units_Z 64
_cell_length_a 30.944260
_cell_length_b 9.092825
_cell_length_c 14.573635
_cell_angle_alpha 90.000000
_cell_angle_beta 90.000000
_cell_angle_gamma 90.000000
_cell_volume 4100.594478
_symmetry_space_group_name_H-M "P N M A"
_symmetry_group_IT_number 62
_symmetry_cell_setting 'orthorhombic'
loop_
_space_group_symop_operation_xyz
x,y,z
1/2-x,-y,1/2+z
1/2+x,1/2-y,1/2-z
-x,1/2+y,-z
-x,-y,-z
1/2+x,y,1/2-z
1/2-x,1/2+y,1/2+z
x,1/2-y,z
loop_
_atom_site_type_symbol
_atom_site_label
_atom_site_fract_x
_atom_site_fract_y
_atom_site_fract_z
Si Si1 0.957523 0.073496 0.110740
Si Si2 0.234150 0.077554 0.478584
Si Si3 0.802099 0.575546 0.327113
Si Si4 0.177441 0.081861 0.965600
Si Si5 0.132211 0.420395 0.161385
Si Si6 0.951885 0.425246 0.895246
Si Si7 0.131570 0.925364 0.799630
Si Si8 0.218225 0.074326 0.266121
O O1 0.962942 0.250000 0.115117
O O2 0.917651 0.031810 0.176174
O O3 0.946409 0.037233 0.004149
O O4 0.002437 0.995070 0.133102
O O5 0.247609 0.250000 0.484157
O O6 0.202452 0.051329 0.563766
O O7 0.217142 0.053337 0.375735
O O8 0.275107 0.972962 0.491151
O O9 0.802275 0.750000 0.310053
O O10 0.844765 0.502819 0.284804
O O11 0.759697 0.506268 0.277640
O O12 0.178137 0.250000 0.931692
O O13 0.148957 0.076047 0.056746
O O14 0.158997 0.975492 0.888161
O O15 0.123732 0.250000 0.186120
O O16 0.088179 0.511285 0.161693
O O17 0.172862 0.474181 0.221472
O O18 0.953384 0.250000 0.888226
O O19 0.133578 0.750000 0.789675
O O20 0.222834 0.250000 0.247806
#
# Coordination Sequence:
#
# PCOD9462480 Si02
#       8
#     8   8   8   8   8   8   8   8
#     4   9  19  33  48  69  97 129 164 198 240 296
#     4  10  21  35  50  68  99 135 168 208 250 289
#     4  11  22  33  48  74 100 129 169 210 247 289
#     4  11  20  29  47  74 100 130 169 208 243 284
#     4  10  20  32  48  71 100 133 169 202 241 295
#     4  10  19  31  49  72  99 129 161 198 245 293
#     4  11  21  34  50  70  99 137 169 200 246 297
#     4  10  20  35  51  69  95 135 172 203 246 293
#
# _framework density 15.607493
#
# number of rings (size 3 to 8) (size 9 to 14) (size 15 to 20)
#    0.000    1.750    3.750    1.500    0.000    3.000 
#    0.000    0.000    0.000    0.000    0.000    0.875 
#    0.000    0.000    0.000    0.000    0.000    0.000 
#
# Total GULP energy -357026.301389 kJ/mol
# GULP energy per Si atom -5578.535959 kJ/mol
# Density = 1.557197 g / cm^3
# Si number density = 15.607493 Si / 1000 Ang^3
#
#
#
# Elastic Constant Matrix: (Units=GPa)
#
#
# Indices 1 2 3 4 5 6 
#
# 1 96.3072 41.1675 11.8310 0.0000 0.0000 0.0000
# 2 41.1675 40.4008 18.2917 0.0000 0.0000 0.0000
# 3 11.8310 18.2917 43.4990 0.0000 0.0000 0.0000
# 4 0.0000 0.0000 0.0000 15.2104 0.0000 0.0000
# 5 0.0000 0.0000 0.0000 0.0000 24.0843 0.0000
# 6 0.0000 0.0000 0.0000 0.0000 0.0000 20.0637
#
#
#
# Elastic Compliance Matrix: (Units=1/GPa)
#
#
# Indices 1 2 3 4 5 6 
#
# 1 0.018853 -0.020861 0.003644 0.000000 0.000000 0.000000
# 2 -0.020861 0.053655 -0.016889 0.000000 0.000000 0.000000
# 3 0.003644 -0.016889 0.029100 0.000000 0.000000 0.000000
# 4 0.000000 0.000000 0.000000 0.065745 0.000000 0.000000
# 5 0.000000 0.000000 0.000000 0.000000 0.041521 0.000000
# 6 0.000000 0.000000 0.000000 0.000000 0.000000 0.049841
#
#
# Mechanical properties :
#
#
# Convention : Reuss Voigt Hill
#
# Bulk Modulus (GPa) = 29.94218 35.86527 32.90372
# Shear Modulus (GPa) = 14.79043 19.13280 16.96161
#
# Velocity S-wave (km/s) = 3.08173 3.50504 3.30018
# Velocity P-wave (km/s) = 5.64703 6.27773 5.97071
#
# Compressibility (1/GPa) = 0.03339770
#
# Stress axis : x y z
#
# Youngs Moduli (GPa) = 53.04244 18.63761 34.36468
#
# Poissons Ratio (x) = 0.38879 -0.12524
# Poissons Ratio (y) = 1.10650 0.58037
# Poissons Ratio (z) = -0.19331 0.31476
#
# Static dielectric constant tensor:
#      x y z
#    x 1.513540 0.000000 0.000000 
#    y 0.000000 1.525110 0.000000 
#    z 0.000000 0.000000 1.519440 
# 
# From -- ./inp_files/21213.got.cif
#   From: 2010.05.17/outbox.cif.g08.bks.cpg/sg62_11_cif.got.tgz:21213.got - 2010.06.03 15:25:27.
