data_PCOD9462364
_publ_section_title
;
Structure prediction by ZEFSAII (Michael W. Deem and Ramdas Pophale) SiO2 
 PCOD9462364
Probable space group: P N M A
;
_chemical_formula_sum "Si O2"
_cell_formula_units_Z 48
_cell_length_a 13.960003
_cell_length_b 14.425730
_cell_length_c 10.057737
_cell_angle_alpha 90.000000
_cell_angle_beta 90.000000
_cell_angle_gamma 90.000000
_cell_volume 2025.459605
_symmetry_space_group_name_H-M "P N M A"
_symmetry_group_IT_number 62
_symmetry_cell_setting 'orthorhombic'
loop_
_space_group_symop_operation_xyz
x,y,z
1/2-x,-y,1/2+z
1/2+x,1/2-y,1/2-z
-x,1/2+y,-z
-x,-y,-z
1/2+x,y,1/2-z
1/2-x,1/2+y,1/2+z
x,1/2-y,z
loop_
_atom_site_type_symbol
_atom_site_label
_atom_site_fract_x
_atom_site_fract_y
_atom_site_fract_z
Si Si1 0.209570 0.641992 0.325740
Si Si2 0.505084 0.549566 0.194479
Si Si3 0.346788 0.353848 0.448517
Si Si4 0.384145 0.939414 0.467729
Si Si5 0.339060 0.644369 0.061820
Si Si6 0.021265 0.351461 0.222529
O O1 0.212903 0.750000 0.359345
O O2 0.276494 0.587807 0.429147
O O3 0.262654 0.630668 0.183110
O O4 0.101087 0.608395 0.319333
O O5 0.448488 0.568774 0.334250
O O6 0.425463 0.576034 0.086793
O O7 0.534493 0.442387 0.192244
O O8 0.364807 0.250000 0.510639
O O9 0.382431 0.451981 0.508468
O O10 0.232346 0.362586 0.436772
O O11 0.408088 0.350321 0.313979
O O12 0.425161 0.874369 0.583295
O O13 0.375070 0.750000 0.073381
O O14 0.048352 0.250000 0.273025
#
# Coordination Sequence:
#
# PCOD9462364 Si02
#       6
#     8   8   8   8   8   8
#     4  10  19  30  47  73 103 132 165 210 256 295
#     4  10  19  32  50  74 100 130 167 209 251 294
#     4   9  17  31  52  76 102 131 164 204 252 302
#     4  10  19  32  51  76 102 131 170 210 251 300
#     4   9  17  29  49  75 100 128 162 203 251 297
#     4  10  19  32  52  76 101 132 169 208 250 298
#
# _framework density 23.698324
#
# number of rings (size 3 to 8) (size 9 to 14) (size 15 to 20)
#    0.000    2.333    0.000    5.000    0.000    3.333 
#    0.000    2.500    0.000    9.000    0.000    0.000 
#    0.000    0.000    0.000    0.000    0.000    0.000 
#
# Total GULP energy -268090.358323 kJ/mol
# GULP energy per Si atom -5585.215798 kJ/mol
# Density = 2.364439 g / cm^3
# Si number density = 23.698324 Si / 1000 Ang^3
#
#
#
# Elastic Constant Matrix: (Units=GPa)
#
#
# Indices 1 2 3 4 5 6 
#
# 1 134.8671 39.5350 33.3021 0.0000 0.0000 0.0000
# 2 39.5350 89.1078 6.6005 0.0000 0.0000 0.0000
# 3 33.3021 6.6005 64.5480 0.0000 0.0000 0.0000
# 4 0.0000 0.0000 0.0000 5.4333 0.0000 0.0000
# 5 0.0000 0.0000 0.0000 0.0000 26.7203 0.0000
# 6 0.0000 0.0000 0.0000 0.0000 0.0000 27.9131
#
#
#
# Elastic Compliance Matrix: (Units=1/GPa)
#
#
# Indices 1 2 3 4 5 6 
#
# 1 0.009716 -0.003969 -0.004607 0.000000 0.000000 0.000000
# 2 -0.003969 0.012930 0.000726 0.000000 0.000000 0.000000
# 3 -0.004607 0.000726 0.017795 0.000000 0.000000 0.000000
# 4 0.000000 0.000000 0.000000 0.184050 0.000000 0.000000
# 5 0.000000 0.000000 0.000000 0.000000 0.037425 0.000000
# 6 0.000000 0.000000 0.000000 0.000000 0.000000 0.035825
#
#
# Mechanical properties :
#
#
# Convention : Reuss Voigt Hill
#
# Bulk Modulus (GPa) = 40.42100 49.71091 45.06595
# Shear Modulus (GPa) = 15.54299 25.95235 20.74767
#
# Velocity S-wave (km/s) = 2.56377 3.31284 2.96208
# Velocity P-wave (km/s) = 5.08502 5.97121 5.54584
#
# Compressibility (1/GPa) = 0.02473962
#
# Stress axis : x y z
#
# Youngs Moduli (GPa) = 102.92474 77.34101 56.19596
#
# Poissons Ratio (x) = 0.30700 0.25888
# Poissons Ratio (y) = 0.40855 -0.04079
# Poissons Ratio (z) = 0.47415 -0.05613
#
# Static dielectric constant tensor:
#      x y z
#    x 1.900410 0.000000 0.000000 
#    y 0.000000 1.882200 0.000000 
#    z 0.000000 0.000000 1.973830 
# 
# From -- ./inp_files/17963.got.cif
#   From: 2010.05.17/outbox.cif.g08.bks.cpg/sg62_9_cif.got.tgz:17963.got - 2010.06.03 15:25:27.
