data_PCOD9462838
_publ_section_title
;
Structure prediction by ZEFSAII (Michael W. Deem and Ramdas Pophale) SiO2 
 PCOD9462838
Probable space group: P N M A
;
_chemical_formula_sum "Si O2"
_cell_formula_units_Z 60
_cell_length_a 5.831455
_cell_length_b 14.198728
_cell_length_c 33.132783
_cell_angle_alpha 90.000000
_cell_angle_beta 90.000000
_cell_angle_gamma 90.000000
_cell_volume 2743.369364
_symmetry_space_group_name_H-M "P N M A"
_symmetry_group_IT_number 62
_symmetry_cell_setting 'orthorhombic'
loop_
_space_group_symop_operation_xyz
x,y,z
1/2-x,-y,1/2+z
1/2+x,1/2-y,1/2-z
-x,1/2+y,-z
-x,-y,-z
1/2+x,y,1/2-z
1/2-x,1/2+y,1/2+z
x,1/2-y,z
loop_
_atom_site_type_symbol
_atom_site_label
_atom_site_fract_x
_atom_site_fract_y
_atom_site_fract_z
Si Si1 0.140207 0.934201 0.204649
Si Si2 0.423495 0.465108 0.063665
Si Si3 0.231974 0.143945 0.847848
Si Si4 0.533349 0.961385 0.849244
Si Si5 0.382713 0.897527 0.764525
Si Si6 0.691882 0.428171 0.514509
Si Si7 0.857808 0.750000 0.271263
Si Si8 0.885312 0.350005 0.922403
O O1 0.224441 0.008069 0.170540
O O2 0.323429 0.849870 0.206450
O O3 0.904268 0.884690 0.192521
O O4 0.118151 0.998024 0.244218
O O5 0.451262 0.415013 0.106809
O O6 0.647863 0.513195 0.044903
O O7 0.261777 0.555831 0.072755
O O8 0.325673 0.403380 0.026571
O O9 0.326262 0.250000 0.845995
O O10 0.401511 0.059481 0.857406
O O11 0.033944 0.145331 0.881868
O O12 0.405812 0.906891 0.812880
O O13 0.630880 0.858061 0.748448
O O14 0.500000 0.500000 0.500000
O O15 0.564168 0.350878 0.540607
O O16 0.613831 0.750000 0.246536
O O17 0.753953 0.250000 0.922514
#
# Coordination Sequence:
#
# PCOD9462838 Si02
#       8
#     8   8   8   8   8   8   4   8
#     4  11  22  32  42  58  84 118 162 209 250 298
#     4  10  19  33  52  70  91 124 163 206 249 307
#     4  11  21  30  42  63  88 121 159 206 255 296
#     4  11  21  32  46  62  86 118 162 209 251 293
#     4  10  20  33  45  61  85 120 162 211 255 298
#     4   9  19  35  52  70  93 122 157 200 251 307
#     4  12  26  36  46  58  82 124 170 214 262 302
#     4  10  20  33  48  74  99 122 157 207 263 309
#
# _framework density 21.870915
#
# number of rings (size 3 to 8) (size 9 to 14) (size 15 to 20)
#    0.000    1.600    4.667    1.600    2.800    1.067 
#    0.000    0.000    0.000    0.000    0.000    0.000 
#    0.000    0.000    0.000    0.000    0.000    5.333 
#
# Total GULP energy -334688.805654 kJ/mol
# GULP energy per Si atom -5578.146761 kJ/mol
# Density = 2.182114 g / cm^3
# Si number density = 21.870915 Si / 1000 Ang^3
#
#
#
# Elastic Constant Matrix: (Units=GPa)
#
#
# Indices 1 2 3 4 5 6 
#
# 1 94.9601 5.9175 30.3053 0.0000 0.0000 0.0000
# 2 5.9175 35.7054 6.4653 0.0000 0.0000 0.0000
# 3 30.3053 6.4653 156.6840 0.0000 0.0000 0.0000
# 4 0.0000 0.0000 0.0000 -0.2447 0.0000 0.0000
# 5 0.0000 0.0000 0.0000 0.0000 43.8943 0.0000
# 6 0.0000 0.0000 0.0000 0.0000 0.0000 -6.7539
#
#
#
# Elastic Compliance Matrix: (Units=1/GPa)
#
#
# Indices 1 2 3 4 5 6 
#
# 1 0.011301 -0.001488 -0.002124 0.000000 0.000000 0.000000
# 2 -0.001488 0.028414 -0.000885 0.000000 0.000000 0.000000
# 3 -0.002124 -0.000885 0.006830 0.000000 0.000000 0.000000
# 4 0.000000 0.000000 0.000000 -4.086316 0.000000 0.000000
# 5 0.000000 0.000000 0.000000 0.000000 0.022782 0.000000
# 6 0.000000 0.000000 0.000000 0.000000 0.000000 -0.148062
#
#
# Mechanical properties :
#
#
# Convention : Reuss Voigt Hill
#
# Bulk Modulus (GPa) = 26.63100 41.41397 34.02248
# Shear Modulus (GPa) = -1.20670 23.68988 11.24159
#
# Velocity S-wave (km/s) = -0.74360 3.29472 2.26961
# Velocity P-wave (km/s) = 3.38609 5.78363 4.73899
#
# Compressibility (1/GPa) = 0.03755022
#
# Stress axis : x y z
#
# Youngs Moduli (GPa) = 88.48396 35.19413 146.41970
#
# Poissons Ratio (x) = 0.05238 0.31107
# Poissons Ratio (y) = 0.13169 0.12952
# Poissons Ratio (z) = 0.18798 0.03113
#
# Static dielectric constant tensor:
#      x y z
#    x 1.879250 0.000000 0.000000 
#    y 0.000000 1.616140 0.000000 
#    z 0.000000 0.000000 1.891880 
# 
# From -- ./inp_files/31678.got.cif
#   From: 2010.05.17/outbox.cif.g08.bks.cpg/sg62_16_cif.got.tgz:31678.got - 2010.06.03 15:25:27.
