data_PCOD9462491
_publ_section_title
;
Structure prediction by ZEFSAII (Michael W. Deem and Ramdas Pophale) SiO2 
 PCOD9462491
Probable space group: P N M A
;
_chemical_formula_sum "Si O2"
_cell_formula_units_Z 64
_cell_length_a 20.053788
_cell_length_b 7.734127
_cell_length_c 21.446050
_cell_angle_alpha 90.000000
_cell_angle_beta 90.000000
_cell_angle_gamma 90.000000
_cell_volume 3326.251113
_symmetry_space_group_name_H-M "P N M A"
_symmetry_group_IT_number 62
_symmetry_cell_setting 'orthorhombic'
loop_
_space_group_symop_operation_xyz
x,y,z
1/2-x,-y,1/2+z
1/2+x,1/2-y,1/2-z
-x,1/2+y,-z
-x,-y,-z
1/2+x,y,1/2-z
1/2-x,1/2+y,1/2+z
x,1/2-y,z
loop_
_atom_site_type_symbol
_atom_site_label
_atom_site_fract_x
_atom_site_fract_y
_atom_site_fract_z
Si Si1 0.088405 0.949650 0.387520
Si Si2 0.558968 0.461644 0.882536
Si Si3 0.801250 0.454387 0.187428
Si Si4 0.774846 0.959119 0.810585
Si Si5 0.229506 0.051340 0.433608
Si Si6 0.587483 0.045511 0.255713
Si Si7 0.559764 0.043392 0.737996
Si Si8 0.697079 0.455537 0.935222
O O1 0.093932 0.750000 0.407044
O O2 0.014561 0.017278 0.404405
O O3 0.151792 0.048084 0.414000
O O4 0.091345 0.957737 0.312120
O O5 0.557901 0.250000 0.882450
O O6 0.568356 0.516062 0.810169
O O7 0.622431 0.522891 0.921533
O O8 0.785315 0.250000 0.186842
O O9 0.765932 0.523586 0.249982
O O10 0.770760 0.528747 0.123699
O O11 0.879797 0.476883 0.196405
O O12 0.771509 0.750000 0.812003
O O13 0.851487 0.010423 0.799168
O O14 0.741119 0.020999 0.873788
O O15 0.252964 0.250000 0.439096
O O16 0.230653 0.971084 0.502421
O O17 0.595313 0.250000 0.244204
O O18 0.514050 0.011839 0.282069
O O19 0.562730 0.250000 0.738511
O O20 0.689094 0.250000 0.945502
#
# Coordination Sequence:
#
# PCOD9462491 Si02
#       8
#     8   8   8   8   8   8   8   8
#     4  10  19  31  49  74 107 142 179 222 257 303
#     4   8  16  30  46  71 104 134 169 209 252 301
#     4  10  19  34  53  76 104 138 177 215 259 315
#     4  10  20  34  54  78 105 136 175 219 259 309
#     4  10  21  36  52  74 106 144 182 217 263 321
#     4  10  19  34  54  78 108 140 172 215 266 317
#     4  10  19  32  52  81 108 132 170 220 265 312
#     4  10  20  35  54  74 104 143 179 220 265 313
#
# _framework density 19.240880000000001
#
# number of rings (size 3 to 8) (size 9 to 14) (size 15 to 20)
#    0.000    2.250    2.500    1.875    0.000    2.500 
#    0.000    0.625    0.000    0.750    0.000    0.000 
#    0.000    0.000    0.000    0.000    0.000    0.000 
#
# Total GULP energy -357132.591917 kJ/mol
# GULP energy per Si atom -5580.196749 kJ/mol
# Density = 1.919709 g / cm^3
# Si number density = 19.240880 Si / 1000 Ang^3
#
#
#
# Elastic Constant Matrix: (Units=GPa)
#
#
# Indices 1 2 3 4 5 6 
#
# 1 86.7064 -17.0309 38.1105 0.0000 0.0000 0.0000
# 2 -17.0309 30.2762 -7.5691 0.0000 0.0000 0.0000
# 3 38.1105 -7.5691 74.4854 0.0000 0.0000 0.0000
# 4 0.0000 0.0000 0.0000 7.7306 0.0000 0.0000
# 5 0.0000 0.0000 0.0000 0.0000 20.0120 0.0000
# 6 0.0000 0.0000 0.0000 0.0000 0.0000 15.0874
#
#
#
# Elastic Compliance Matrix: (Units=1/GPa)
#
#
# Indices 1 2 3 4 5 6 
#
# 1 0.016303 0.007270 -0.007603 0.000000 0.000000 0.000000
# 2 0.007270 0.037132 0.000054 0.000000 0.000000 0.000000
# 3 -0.007603 0.000054 0.017321 0.000000 0.000000 0.000000
# 4 0.000000 0.000000 0.000000 0.129357 0.000000 0.000000
# 5 0.000000 0.000000 0.000000 0.000000 0.049970 0.000000
# 6 0.000000 0.000000 0.000000 0.000000 0.000000 0.066281
#
#
# Mechanical properties :
#
#
# Convention : Reuss Voigt Hill
#
# Bulk Modulus (GPa) = 14.24550 24.27656 19.26103
# Shear Modulus (GPa) = 14.69204 20.42981 17.56093
#
# Velocity S-wave (km/s) = 2.76630 3.26205 3.02435
# Velocity P-wave (km/s) = 4.19798 5.18001 4.71464
#
# Compressibility (1/GPa) = 0.07019759
#
# Stress axis : x y z
#
# Youngs Moduli (GPa) = 61.33946 26.93090 57.73424
#
# Poissons Ratio (x) = -0.19579 0.43893
# Poissons Ratio (y) = -0.44593 -0.00310
# Poissons Ratio (z) = 0.46634 -0.00144
#
# Static dielectric constant tensor:
#      x y z
#    x 1.672510 0.000000 0.000000 
#    y 0.000000 1.730820 0.000000 
#    z 0.000000 0.000000 1.676830 
# 
# From -- ./inp_files/24801.got.cif
#   From: 2010.05.17/outbox.cif.g08.bks.cpg/sg62_13_cif.got.tgz:24801.got - 2010.06.03 15:25:27.
