data_PCOD9462470
_publ_section_title
;
Structure prediction by ZEFSAII (Michael W. Deem and Ramdas Pophale) SiO2 
 PCOD9462470
Probable space group: P N M A
;
_chemical_formula_sum "Si O2"
_cell_formula_units_Z 64
_cell_length_a 23.836899
_cell_length_b 8.826277
_cell_length_c 19.593676
_cell_angle_alpha 90.000000
_cell_angle_beta 90.000000
_cell_angle_gamma 90.000000
_cell_volume 4122.334525
_symmetry_space_group_name_H-M "P N M A"
_symmetry_group_IT_number 62
_symmetry_cell_setting 'orthorhombic'
loop_
_space_group_symop_operation_xyz
x,y,z
1/2-x,-y,1/2+z
1/2+x,1/2-y,1/2-z
-x,1/2+y,-z
-x,-y,-z
1/2+x,y,1/2-z
1/2-x,1/2+y,1/2+z
x,1/2-y,z
loop_
_atom_site_type_symbol
_atom_site_label
_atom_site_fract_x
_atom_site_fract_y
_atom_site_fract_z
Si Si1 0.654925 0.068414 0.739623
Si Si2 0.562057 0.932083 0.648718
Si Si3 0.753490 0.568378 0.007680
Si Si4 0.730763 0.932150 0.161302
Si Si5 0.378362 0.431957 0.493423
Si Si6 0.434672 0.567407 0.626975
Si Si7 0.723121 0.431710 0.869391
Si Si8 0.673036 0.069192 0.286348
O O1 0.650129 0.250000 0.736893
O O2 0.707696 0.025532 0.691015
O O3 0.674124 0.025803 0.816001
O O4 0.598940 0.996450 0.710194
O O5 0.563112 0.750000 0.652281
O O6 0.591846 0.976497 0.577501
O O7 0.497301 0.980816 0.646946
O O8 0.756491 0.750000 0.002965
O O9 0.728740 0.527842 0.081810
O O10 0.816436 0.502694 0.003471
O O11 0.719384 0.502598 0.944009
O O12 0.725781 0.750000 0.168239
O O13 0.685922 0.010464 0.210510
O O14 0.374180 0.250000 0.496116
O O15 0.414316 0.491376 0.557048
O O16 0.434879 0.750000 0.617158
O O17 0.388257 0.532644 0.684434
O O18 0.725645 0.250000 0.873423
O O19 0.780631 0.491193 0.834916
O O20 0.680822 0.250000 0.289601
#
# Coordination Sequence:
#
# PCOD9462470 Si02
#       8
#     8   8   8   8   8   8   8   8
#     4   9  18  33  49  68  95 127 158 198 246 285
#     4  10  21  34  48  69  97 130 170 206 237 281
#     4  11  20  32  50  72  98 131 161 195 247 295
#     4   9  19  33  49  69  97 126 157 201 247 290
#     4  11  21  31  46  70  97 131 170 203 234 280
#     4  10  21  35  48  67  98 133 167 205 241 279
#     4  10  20  33  49  71  99 125 159 203 244 289
#     4  10  19  31  49  70  94 128 164 198 243 290
#
# _framework density 15.525183
#
# number of rings (size 3 to 8) (size 9 to 14) (size 15 to 20)
#    0.000    2.000    2.500    2.625    0.000    5.000 
#    0.000    0.000    0.000    0.000    0.000    0.875 
#    0.000    0.000    0.000    0.000    0.000    0.000 
#
# Total GULP energy -357115.359440 kJ/mol
# GULP energy per Si atom -5579.927491 kJ/mol
# Density = 1.548985 g / cm^3
# Si number density = 15.525183 Si / 1000 Ang^3
#
#
#
# Elastic Constant Matrix: (Units=GPa)
#
#
# Indices 1 2 3 4 5 6 
#
# 1 60.8799 20.5507 35.9063 0.0000 0.0000 0.0000
# 2 20.5507 27.3285 31.7731 0.0000 0.0000 0.0000
# 3 35.9063 31.7731 107.7360 0.0000 0.0000 0.0000
# 4 0.0000 0.0000 0.0000 27.5160 0.0000 0.0000
# 5 0.0000 0.0000 0.0000 0.0000 18.8724 0.0000
# 6 0.0000 0.0000 0.0000 0.0000 0.0000 21.2812
#
#
#
# Elastic Compliance Matrix: (Units=1/GPa)
#
#
# Indices 1 2 3 4 5 6 
#
# 1 0.023048 -0.012785 -0.003911 0.000000 0.000000 0.000000
# 2 -0.012785 0.062777 -0.014253 0.000000 0.000000 0.000000
# 3 -0.003911 -0.014253 0.014789 0.000000 0.000000 0.000000
# 4 0.000000 0.000000 0.000000 0.036343 0.000000 0.000000
# 5 0.000000 0.000000 0.000000 0.000000 0.052987 0.000000
# 6 0.000000 0.000000 0.000000 0.000000 0.000000 0.046990
#
#
# Mechanical properties :
#
#
# Convention : Reuss Voigt Hill
#
# Bulk Modulus (GPa) = 25.82896 41.37830 33.60363
# Shear Modulus (GPa) = 16.03917 20.71488 18.37703
#
# Velocity S-wave (km/s) = 3.21768 3.65674 3.44421
# Velocity P-wave (km/s) = 5.52065 6.67377 6.12441
#
# Compressibility (1/GPa) = 0.03871623
#
# Stress axis : x y z
#
# Youngs Moduli (GPa) = 43.38750 15.92940 67.61840
#
# Poissons Ratio (x) = 0.20365 0.26446
# Poissons Ratio (y) = 0.55470 0.96377
# Poissons Ratio (z) = 0.16969 0.22704
#
# Static dielectric constant tensor:
#      x y z
#    x 1.494910 0.000000 0.000000 
#    y 0.000000 1.521910 0.000000 
#    z 0.000000 0.000000 1.522310 
# 
# From -- ./inp_files/24936.got.cif
#   From: 2010.05.17/outbox.cif.g08.bks.cpg/sg62_13_cif.got.tgz:24936.got - 2010.06.03 15:25:27.
