data_PCOD9462403
_publ_section_title
;
Structure prediction by ZEFSAII (Michael W. Deem and Ramdas Pophale) SiO2 
 PCOD9462403
Probable space group: P N M A
;
_chemical_formula_sum "Si O2"
_cell_formula_units_Z 64
_cell_length_a 23.953972
_cell_length_b 8.714754
_cell_length_c 19.626021
_cell_angle_alpha 90.000000
_cell_angle_beta 90.000000
_cell_angle_gamma 90.000000
_cell_volume 4096.990238
_symmetry_space_group_name_H-M "P N M A"
_symmetry_group_IT_number 62
_symmetry_cell_setting 'orthorhombic'
loop_
_space_group_symop_operation_xyz
x,y,z
1/2-x,-y,1/2+z
1/2+x,1/2-y,1/2-z
-x,1/2+y,-z
-x,-y,-z
1/2+x,y,1/2-z
1/2-x,1/2+y,1/2+z
x,1/2-y,z
loop_
_atom_site_type_symbol
_atom_site_label
_atom_site_fract_x
_atom_site_fract_y
_atom_site_fract_z
Si Si1 0.232421 0.566245 0.852546
Si Si2 0.838360 0.433789 0.727569
Si Si3 0.064958 0.065719 0.357441
Si Si4 0.620232 0.564519 0.005921
Si Si5 0.437337 0.063433 0.135936
Si Si6 0.832726 0.064829 0.279728
Si Si7 0.251379 0.933426 0.496952
Si Si8 0.727508 0.566652 0.360344
O O1 0.236912 0.750000 0.855445
O O2 0.289984 0.499095 0.821884
O O3 0.184875 0.524856 0.797229
O O4 0.223763 0.500109 0.927430
O O5 0.838790 0.250000 0.720953
O O6 0.896727 0.501269 0.702962
O O7 0.819418 0.474281 0.804251
O O8 0.066239 0.250000 0.356160
O O9 0.000746 0.012201 0.354090
O O10 0.092112 0.008007 0.427900
O O11 0.617532 0.750000 0.011419
O O12 0.587810 0.517310 0.937342
O O13 0.685519 0.522077 0.001149
O O14 0.438177 0.250000 0.135900
O O15 0.393308 0.015485 0.193866
O O16 0.829400 0.250000 0.285955
O O17 0.785447 0.995479 0.328788
O O18 0.253984 0.750000 0.496014
O O19 0.279564 0.996129 0.565280
O O20 0.730124 0.750000 0.364977
#
# Coordination Sequence:
#
# PCOD9462403 Si02
#       8
#     8   8   8   8   8   8   8   8
#     4  10  19  30  50  73  94 122 160 200 236 286
#     4  10  20  34  48  66  96 129 157 197 246 283
#     4  11  21  31  48  70  94 127 168 206 229 271
#     4  10  19  32  47  64  96 135 164 192 232 280
#     4   9  18  33  49  67  93 128 167 199 234 277
#     4   9  17  33  51  68  94 127 159 196 244 287
#     4  11  20  31  50  71  98 132 157 191 242 290
#     4  10  20  32  49  71  95 122 160 202 237 283
#
# _framework density 15.621223000000001
#
# number of rings (size 3 to 8) (size 9 to 14) (size 15 to 20)
#    0.000    2.000    2.500    2.250    0.000    2.500 
#    0.000    1.875    0.000    0.000    0.000    0.875 
#    0.000    0.000    0.000    0.000    0.000    0.000 
#
# Total GULP energy -357100.249850 kJ/mol
# GULP energy per Si atom -5579.691404 kJ/mol
# Density = 1.558567 g / cm^3
# Si number density = 15.621223 Si / 1000 Ang^3
#
#
#
# Elastic Constant Matrix: (Units=GPa)
#
#
# Indices 1 2 3 4 5 6 
#
# 1 85.2762 23.9635 58.5946 0.0000 0.0000 0.0000
# 2 23.9635 28.7687 38.6047 0.0000 0.0000 0.0000
# 3 58.5946 38.6047 143.0665 0.0000 0.0000 0.0000
# 4 0.0000 0.0000 0.0000 24.0795 0.0000 0.0000
# 5 0.0000 0.0000 0.0000 0.0000 20.0877 0.0000
# 6 0.0000 0.0000 0.0000 0.0000 0.0000 7.4693
#
#
#
# Elastic Compliance Matrix: (Units=1/GPa)
#
#
# Indices 1 2 3 4 5 6 
#
# 1 0.017344 -0.007705 -0.005024 0.000000 0.000000 0.000000
# 2 -0.007705 0.057914 -0.012472 0.000000 0.000000 0.000000
# 3 -0.005024 -0.012472 0.012413 0.000000 0.000000 0.000000
# 4 0.000000 0.000000 0.000000 0.041529 0.000000 0.000000
# 5 0.000000 0.000000 0.000000 0.000000 0.049782 0.000000
# 6 0.000000 0.000000 0.000000 0.000000 0.000000 0.133881
#
#
# Mechanical properties :
#
#
# Convention : Reuss Voigt Hill
#
# Bulk Modulus (GPa) = 26.83213 55.49301 41.16257
# Shear Modulus (GPa) = 13.30896 19.39056 16.34976
#
# Velocity S-wave (km/s) = 2.92204 3.52703 3.23869
# Velocity P-wave (km/s) = 5.34775 7.22411 6.35556
#
# Compressibility (1/GPa) = 0.03726875
#
# Stress axis : x y z
#
# Youngs Moduli (GPa) = 57.65652 17.26709 80.56137
#
# Poissons Ratio (x) = 0.13304 0.40477
# Poissons Ratio (y) = 0.44423 1.00474
# Poissons Ratio (z) = 0.28969 0.21535
#
# Static dielectric constant tensor:
#      x y z
#    x 1.508130 0.000000 0.000000 
#    y 0.000000 1.523620 0.000000 
#    z 0.000000 0.000000 1.521540 
# 
# From -- ./inp_files/24970.got.cif
#   From: 2010.05.17/outbox.cif.g08.bks.cpg/sg62_13_cif.got.tgz:24970.got - 2010.06.03 15:25:27.
