data_PCOD9462559
_publ_section_title
;
Structure prediction by ZEFSAII (Michael W. Deem and Ramdas Pophale) SiO2 
 PCOD9462559
Probable space group: P N M A
;
_chemical_formula_sum "Si O2"
_cell_formula_units_Z 56
_cell_length_a 13.460207
_cell_length_b 9.704963
_cell_length_c 20.557136
_cell_angle_alpha 90.000000
_cell_angle_beta 90.000000
_cell_angle_gamma 90.000000
_cell_volume 2685.395346
_symmetry_space_group_name_H-M "P N M A"
_symmetry_group_IT_number 62
_symmetry_cell_setting 'orthorhombic'
loop_
_space_group_symop_operation_xyz
x,y,z
1/2-x,-y,1/2+z
1/2+x,1/2-y,1/2-z
-x,1/2+y,-z
-x,-y,-z
1/2+x,y,1/2-z
1/2-x,1/2+y,1/2+z
x,1/2-y,z
loop_
_atom_site_type_symbol
_atom_site_label
_atom_site_fract_x
_atom_site_fract_y
_atom_site_fract_z
Si Si1 0.079534 0.905441 0.035325
Si Si2 0.808527 0.914188 0.487863
Si Si3 0.699353 0.909131 0.261180
Si Si4 0.435886 0.901900 0.351891
Si Si5 0.012364 0.413278 0.251879
Si Si6 0.603177 0.087716 0.850278
Si Si7 0.775286 0.095154 0.605637
O O1 0.073211 0.750000 0.008069
O O2 0.194167 0.946224 0.032235
O O3 0.037835 0.900506 0.108436
O O4 0.000000 0.000000 0.000000
O O5 0.816098 0.750000 0.497011
O O6 0.874363 0.950257 0.425010
O O7 0.826289 0.991466 0.555808
O O8 0.664523 0.750000 0.271226
O O9 0.795668 0.926307 0.307004
O O10 0.717199 0.922333 0.183369
O O11 0.617194 0.025582 0.271657
O O12 0.423793 0.750000 0.319352
O O13 0.344534 0.914030 0.401676
O O14 0.436881 0.027122 0.302245
O O15 0.011100 0.250000 0.257671
O O16 0.979293 0.491832 0.317390
O O17 0.575175 0.250000 0.847614
O O18 0.808148 0.250000 0.589844
#
# Coordination Sequence:
#
# PCOD9462559 Si02
#       7
#     8   8   8   8   8   8   8
#     4  10  19  31  51  81 116 151 187 229 283 349
#     4  10  21  35  56  86 121 157 192 242 299 353
#     4  10  21  41  66  87 114 159 210 247 288 358
#     4  10  19  36  58  81 114 158 199 235 285 359
#     4  12  25  38  59  92 122 150 193 257 313 349
#     4  10  21  42  66  87 117 162 207 243 293 362
#     4  10  20  36  61  87 113 154 199 241 288 346
#
# _framework density 20.853539000000001
#
# number of rings (size 3 to 8) (size 9 to 14) (size 15 to 20)
#    0.000    1.714    2.857    2.143    0.000    5.143 
#    0.000    2.143    0.000    0.000    0.000    0.000 
#    0.000    0.000    0.000    0.000    0.000    0.000 
#
# Total GULP energy -312483.486547 kJ/mol
# GULP energy per Si atom -5580.062260 kJ/mol
# Density = 2.080608 g / cm^3
# Si number density = 20.853539 Si / 1000 Ang^3
#
#
#
# Elastic Constant Matrix: (Units=GPa)
#
#
# Indices 1 2 3 4 5 6 
#
# 1 20.5171 16.4063 -12.0940 0.0000 0.0000 0.0000
# 2 16.4063 77.5775 21.3313 0.0000 0.0000 0.0000
# 3 -12.0940 21.3313 79.1711 0.0000 0.0000 0.0000
# 4 0.0000 0.0000 0.0000 33.4346 0.0000 0.0000
# 5 0.0000 0.0000 0.0000 0.0000 29.3800 0.0000
# 6 0.0000 0.0000 0.0000 0.0000 0.0000 22.0033
#
#
#
# Elastic Compliance Matrix: (Units=1/GPa)
#
#
# Indices 1 2 3 4 5 6 
#
# 1 0.075267 -0.020606 0.017050 0.000000 0.000000 0.000000
# 2 -0.020606 0.019563 -0.008419 0.000000 0.000000 0.000000
# 3 0.017050 -0.008419 0.017504 0.000000 0.000000 0.000000
# 4 0.000000 0.000000 0.000000 0.029909 0.000000 0.000000
# 5 0.000000 0.000000 0.000000 0.000000 0.034037 0.000000
# 6 0.000000 0.000000 0.000000 0.000000 0.000000 0.045448
#
#
# Mechanical properties :
#
#
# Convention : Reuss Voigt Hill
#
# Bulk Modulus (GPa) = 11.31425 25.39478 18.35451
# Shear Modulus (GPa) = 18.17266 27.07172 22.62219
#
# Velocity S-wave (km/s) = 2.95522 3.60694 3.29722
# Velocity P-wave (km/s) = 4.13302 5.43607 4.82870
#
# Compressibility (1/GPa) = 0.08838410
#
# Stress axis : x y z
#
# Youngs Moduli (GPa) = 13.28598 51.11699 57.13115
#
# Poissons Ratio (x) = 1.05331 -0.97406
# Poissons Ratio (y) = 0.27377 0.48097
# Poissons Ratio (z) = -0.22652 0.43033
#
# Static dielectric constant tensor:
#      x y z
#    x 1.821510 0.000000 0.000000 
#    y 0.000000 1.696090 0.000000 
#    z 0.000000 0.000000 1.809580 
# 
# From -- ./inp_files/27112.got.cif
#   From: 2010.05.17/outbox.cif.g08.bks.cpg/sg62_14_cif.got.tgz:27112.got - 2010.06.03 15:25:27.
