data_PCOD9462591
_publ_section_title
;
Structure prediction by ZEFSAII (Michael W. Deem and Ramdas Pophale) SiO2 
 PCOD9462591
Probable space group: P N M A
;
_chemical_formula_sum "Si O2"
_cell_formula_units_Z 48
_cell_length_a 16.633483
_cell_length_b 18.780958
_cell_length_c 7.416339
_cell_angle_alpha 90.000000
_cell_angle_beta 90.000000
_cell_angle_gamma 90.000000
_cell_volume 2316.810503
_symmetry_space_group_name_H-M "P N M A"
_symmetry_group_IT_number 62
_symmetry_cell_setting 'orthorhombic'
loop_
_space_group_symop_operation_xyz
x,y,z
1/2-x,-y,1/2+z
1/2+x,1/2-y,1/2-z
-x,1/2+y,-z
-x,-y,-z
1/2+x,y,1/2-z
1/2-x,1/2+y,1/2+z
x,1/2-y,z
loop_
_atom_site_type_symbol
_atom_site_label
_atom_site_fract_x
_atom_site_fract_y
_atom_site_fract_z
Si Si1 0.926230 0.542448 0.079153
Si Si2 0.341269 0.668063 0.995470
Si Si3 0.323042 0.414815 0.925355
Si Si4 0.221136 0.548376 0.012200
Si Si5 0.670571 0.171104 0.563451
Si Si6 0.005232 0.083313 0.544173
O O1 0.852650 0.486505 0.097682
O O2 0.884940 0.609294 0.980149
O O3 0.964129 0.579494 0.252291
O O4 0.000000 0.500000 0.000000
O O5 0.337052 0.750000 0.936250
O O6 0.335452 0.669117 0.216446
O O7 0.425964 0.629734 0.948146
O O8 0.266901 0.617799 0.937513
O O9 0.289665 0.486977 0.018554
O O10 0.313152 0.433327 0.711271
O O11 0.261406 0.352487 0.973056
O O12 0.413382 0.392690 0.970202
O O13 0.650384 0.250000 0.503641
O O14 0.000000 0.000000 0.500000
#
# Coordination Sequence:
#
# PCOD9462591 Si02
#       6
#     8   8   8   8   8   8
#     4  10  19  33  54  79 106 135 180 222 267 313
#     4   9  18  33  52  76 106 138 174 217 266 314
#     4  10  19  31  55  78 105 136 176 216 267 317
#     4  10  19  34  53  79 105 139 175 218 264 319
#     4   8  17  32  50  76 107 134 170 219 268 314
#     4  11  20  33  53  83 106 138 177 223 266 313
#
# _framework density 20.718139000000001
#
# number of rings (size 3 to 8) (size 9 to 14) (size 15 to 20)
#    0.000    2.333    3.333    1.000    0.000    0.667 
#    0.000    0.833    0.000   10.000    0.000    0.000 
#    0.000    0.000    0.000    0.000    0.000    0.000 
#
# Total GULP energy -267503.246001 kJ/mol
# GULP energy per Si atom -5572.984292 kJ/mol
# Density = 2.067098 g / cm^3
# Si number density = 20.718139 Si / 1000 Ang^3
#
#
#
# Elastic Constant Matrix: (Units=GPa)
#
#
# Indices 1 2 3 4 5 6 
#
# 1 183.2853 87.0830 9.8938 0.0000 0.0000 0.0000
# 2 87.0830 143.6428 -17.4190 0.0000 0.0000 0.0000
# 3 9.8938 -17.4190 27.0682 0.0000 0.0000 0.0000
# 4 0.0000 0.0000 0.0000 14.2206 0.0000 0.0000
# 5 0.0000 0.0000 0.0000 0.0000 13.7336 0.0000
# 6 0.0000 0.0000 0.0000 0.0000 0.0000 20.7018
#
#
#
# Elastic Compliance Matrix: (Units=1/GPa)
#
#
# Indices 1 2 3 4 5 6 
#
# 1 0.008793 -0.006205 -0.007207 0.000000 0.000000 0.000000
# 2 -0.006205 0.011929 0.009945 0.000000 0.000000 0.000000
# 3 -0.007207 0.009945 0.045978 0.000000 0.000000 0.000000
# 4 0.000000 0.000000 0.000000 0.070320 0.000000 0.000000
# 5 0.000000 0.000000 0.000000 0.000000 0.072814 0.000000
# 6 0.000000 0.000000 0.000000 0.000000 0.000000 0.048305
#
#
# Mechanical properties :
#
#
# Convention : Reuss Voigt Hill
#
# Bulk Modulus (GPa) = 16.73192 57.01243 36.87217
# Shear Modulus (GPa) = 17.54418 28.02710 22.78564
#
# Velocity S-wave (km/s) = 2.91314 3.68201 3.31991
# Velocity P-wave (km/s) = 4.40553 6.75678 5.70363
#
# Compressibility (1/GPa) = 0.05976600
#
# Stress axis : x y z
#
# Youngs Moduli (GPa) = 113.72720 83.82787 21.74977
#
# Poissons Ratio (x) = 0.52012 0.15675
# Poissons Ratio (y) = 0.70564 -0.21629
# Poissons Ratio (z) = 0.81961 -0.83363
#
# Static dielectric constant tensor:
#      x y z
#    x 1.732630 0.000000 0.000000 
#    y 0.000000 1.755290 0.000000 
#    z 0.000000 0.000000 1.753020 
# 
# From -- ./inp_files/7790.got.cif
#   From: 2010.05.17/outbox.cif.g08.bks.cpg/sg62_4_cif.got.tgz:7790.got - 2010.06.03 15:25:27.
