data_PCOD9462657
_publ_section_title
;
Structure prediction by ZEFSAII (Michael W. Deem and Ramdas Pophale) SiO2 
 PCOD9462657
Probable space group: P N M A
;
_chemical_formula_sum "Si O2"
_cell_formula_units_Z 48
_cell_length_a 10.946326
_cell_length_b 9.397528
_cell_length_c 25.004636
_cell_angle_alpha 90.000000
_cell_angle_beta 90.000000
_cell_angle_gamma 90.000000
_cell_volume 2572.187025
_symmetry_space_group_name_H-M "P N M A"
_symmetry_group_IT_number 62
_symmetry_cell_setting 'orthorhombic'
loop_
_space_group_symop_operation_xyz
x,y,z
1/2-x,-y,1/2+z
1/2+x,1/2-y,1/2-z
-x,1/2+y,-z
-x,-y,-z
1/2+x,y,1/2-z
1/2-x,1/2+y,1/2+z
x,1/2-y,z
loop_
_atom_site_type_symbol
_atom_site_label
_atom_site_fract_x
_atom_site_fract_y
_atom_site_fract_z
Si Si1 0.754538 0.914555 0.914334
Si Si2 0.483719 0.582748 0.943973
Si Si3 0.660515 0.077037 0.297939
Si Si4 0.115433 0.923980 0.777432
Si Si5 0.378598 0.411372 0.496288
Si Si6 0.249350 0.413768 0.383643
O O1 0.790319 0.750000 0.925311
O O2 0.608392 0.918158 0.910247
O O3 0.822115 0.961060 0.860295
O O4 0.785074 0.012270 0.964396
O O5 0.455006 0.750000 0.956528
O O6 0.376060 0.522154 0.906520
O O7 0.500000 0.500000 0.000000
O O8 0.660329 0.250000 0.295955
O O9 0.527523 0.030369 0.275235
O O10 0.783539 0.031847 0.266553
O O11 0.110781 0.750000 0.776573
O O12 0.176410 0.972078 0.833516
O O13 0.500000 0.500000 0.500000
O O14 0.396863 0.250000 0.513465
O O15 0.334454 0.411595 0.435473
O O16 0.218569 0.250000 0.368275
#
# Coordination Sequence:
#
# PCOD9462657 Si02
#       6
#     8   8   8   8   8   8
#     4  10  20  33  51  77 109 137 172 220 267 323
#     4  10  19  32  51  76 106 138 174 213 259 319
#     4   9  18  30  47  73 103 136 174 220 270 322
#     4   9  17  29  46  69 101 136 171 213 268 320
#     4  11  21  34  53  76 105 140 177 218 270 326
#     4   9  18  31  48  71 105 138 167 211 266 317
#
# _framework density 18.661162999999998
#
# number of rings (size 3 to 8) (size 9 to 14) (size 15 to 20)
#    0.000    2.333    1.667    1.500    2.333    2.667 
#    0.000    0.000    0.000    0.000    0.000    7.000 
#    0.000    0.000    0.000    0.000    0.000    0.000 
#
# Total GULP energy -267323.653658 kJ/mol
# GULP energy per Si atom -5569.242785 kJ/mol
# Density = 1.861869 g / cm^3
# Si number density = 18.661163 Si / 1000 Ang^3
#
#
#
# Elastic Constant Matrix: (Units=GPa)
#
#
# Indices 1 2 3 4 5 6 
#
# 1 69.6965 5.2255 -1.2599 0.0000 0.0000 0.0000
# 2 5.2255 30.8404 7.9705 0.0000 0.0000 0.0000
# 3 -1.2599 7.9705 53.8955 0.0000 0.0000 0.0000
# 4 0.0000 0.0000 0.0000 14.5364 0.0000 0.0000
# 5 0.0000 0.0000 0.0000 0.0000 31.3988 0.0000
# 6 0.0000 0.0000 0.0000 0.0000 0.0000 14.7679
#
#
#
# Elastic Compliance Matrix: (Units=1/GPa)
#
#
# Indices 1 2 3 4 5 6 
#
# 1 0.014560 -0.002657 0.000733 0.000000 0.000000 0.000000
# 2 -0.002657 0.034198 -0.005120 0.000000 0.000000 0.000000
# 3 0.000733 -0.005120 0.019329 0.000000 0.000000 0.000000
# 4 0.000000 0.000000 0.000000 0.068793 0.000000 0.000000
# 5 0.000000 0.000000 0.000000 0.000000 0.031848 0.000000
# 6 0.000000 0.000000 0.000000 0.000000 0.000000 0.067714
#
#
# Mechanical properties :
#
#
# Convention : Reuss Voigt Hill
#
# Bulk Modulus (GPa) = 18.51803 19.81161 19.16482
# Shear Modulus (GPa) = 18.61994 21.64037 20.13016
#
# Velocity S-wave (km/s) = 3.16221 3.40905 3.28795
# Velocity P-wave (km/s) = 4.82469 5.11225 4.97055
#
# Compressibility (1/GPa) = 0.05400143
#
# Stress axis : x y z
#
# Youngs Moduli (GPa) = 68.67965 29.24128 51.73649
#
# Poissons Ratio (x) = 0.07768 -0.03794
# Poissons Ratio (y) = 0.18245 0.26487
# Poissons Ratio (z) = -0.05036 0.14971
#
# Static dielectric constant tensor:
#      x y z
#    x 1.808150 0.000000 0.000000 
#    y 0.000000 1.623220 0.000000 
#    z 0.000000 0.000000 1.670480 
# 
# From -- ./inp_files/29251.got.cif
#   From: 2010.05.17/outbox.cif.g08.bks.cpg/sg62_15_cif.got.tgz:29251.got - 2010.06.03 15:25:27.
