data_PCOD9462495
_publ_section_title
;
Structure prediction by ZEFSAII (Michael W. Deem and Ramdas Pophale) SiO2 
 PCOD9462495
Probable space group: P N M A
;
_chemical_formula_sum "Si O2"
_cell_formula_units_Z 64
_cell_length_a 23.826733
_cell_length_b 22.862363
_cell_length_c 6.540124
_cell_angle_alpha 90.000000
_cell_angle_beta 90.000000
_cell_angle_gamma 90.000000
_cell_volume 3562.637187
_symmetry_space_group_name_H-M "P N M A"
_symmetry_group_IT_number 62
_symmetry_cell_setting 'orthorhombic'
loop_
_space_group_symop_operation_xyz
x,y,z
1/2-x,-y,1/2+z
1/2+x,1/2-y,1/2-z
-x,1/2+y,-z
-x,-y,-z
1/2+x,y,1/2-z
1/2-x,1/2+y,1/2+z
x,1/2-y,z
loop_
_atom_site_type_symbol
_atom_site_label
_atom_site_fract_x
_atom_site_fract_y
_atom_site_fract_z
Si Si1 0.587459 0.029347 0.877624
Si Si2 0.602668 0.687026 0.066851
Si Si3 0.281036 0.317824 0.686819
Si Si4 0.971906 0.074335 0.626940
Si Si5 0.749124 0.918981 0.013470
Si Si6 0.815867 0.521938 0.685624
Si Si7 0.163187 0.863589 0.793308
Si Si8 0.098362 0.962130 0.022033
O O1 0.538327 0.076540 0.906601
O O2 0.597126 0.013813 0.642236
O O3 0.644988 0.041863 0.997637
O O4 0.557840 0.971008 0.971451
O O5 0.576124 0.750000 0.100120
O O6 0.656484 0.681678 0.214998
O O7 0.559952 0.634959 0.103549
O O8 0.629013 0.682608 0.840186
O O9 0.260830 0.250000 0.701143
O O10 0.292036 0.337442 0.453215
O O11 0.247272 0.367156 0.817841
O O12 0.958233 0.048678 0.852104
O O13 0.797440 0.928413 0.845259
O O14 0.695084 0.902998 0.874763
O O15 0.736765 0.982635 0.112495
O O16 0.854799 0.477075 0.810328
O O17 0.119386 0.904170 0.910636
#
# Coordination Sequence:
#
# PCOD9462495 Si02
#       8
#     8   8   8   8   8   8   8   8
#     4  10  20  33  50  73 108 137 172 216 257 320
#     4  10  19  31  49  75 106 135 170 214 257 314
#     4  10  20  34  51  75 106 140 176 216 266 324
#     4  10  19  32  50  75 102 139 174 206 263 317
#     4  11  22  33  52  76 108 141 173 219 269 326
#     4  11  22  33  50  80 105 138 176 216 271 320
#     4  11  17  32  51  75 107 137 171 211 269 321
#     4  11  17  32  51  74 105 136 170 212 263 321
#
# _framework density 17.964220000000001
#
# number of rings (size 3 to 8) (size 9 to 14) (size 15 to 20)
#    0.000    1.500    5.000    3.000    0.000    0.500 
#    0.000    0.000    0.000    0.750    0.000    0.875 
#    0.000    0.000    0.000    0.000    0.000    0.000 
#
# Total GULP energy -356849.564498 kJ/mol
# GULP energy per Si atom -5575.774445 kJ/mol
# Density = 1.792333 g / cm^3
# Si number density = 17.964220 Si / 1000 Ang^3
#
#
#
# Elastic Constant Matrix: (Units=GPa)
#
#
# Indices 1 2 3 4 5 6 
#
# 1 36.9274 11.2380 7.2760 0.0000 0.0000 0.0000
# 2 11.2380 64.2386 11.9541 0.0000 0.0000 0.0000
# 3 7.2760 11.9541 83.1867 0.0000 0.0000 0.0000
# 4 0.0000 0.0000 0.0000 14.5480 0.0000 0.0000
# 5 0.0000 0.0000 0.0000 0.0000 18.2626 0.0000
# 6 0.0000 0.0000 0.0000 0.0000 0.0000 20.8319
#
#
#
# Elastic Compliance Matrix: (Units=1/GPa)
#
#
# Indices 1 2 3 4 5 6 
#
# 1 0.028877 -0.004708 -0.001849 0.000000 0.000000 0.000000
# 2 -0.004708 0.016762 -0.001997 0.000000 0.000000 0.000000
# 3 -0.001849 -0.001997 0.012470 0.000000 0.000000 0.000000
# 4 0.000000 0.000000 0.000000 0.068738 0.000000 0.000000
# 5 0.000000 0.000000 0.000000 0.000000 0.054757 0.000000
# 6 0.000000 0.000000 0.000000 0.000000 0.000000 0.048003
#
#
# Mechanical properties :
#
#
# Convention : Reuss Voigt Hill
#
# Bulk Modulus (GPa) = 24.38944 27.25431 25.82187
# Shear Modulus (GPa) = 19.20253 20.98748 20.09500
#
# Velocity S-wave (km/s) = 3.27300 3.42174 3.34820
# Velocity P-wave (km/s) = 5.28105 5.55117 5.41779
#
# Compressibility (1/GPa) = 0.04100135
#
# Stress axis : x y z
#
# Youngs Moduli (GPa) = 34.62936 59.65824 80.19324
#
# Poissons Ratio (x) = 0.28085 0.14830
# Poissons Ratio (y) = 0.16302 0.16014
# Poissons Ratio (z) = 0.06404 0.11914
#
# Static dielectric constant tensor:
#      x y z
#    x 1.622920 0.000000 0.000000 
#    y 0.000000 1.623170 0.000000 
#    z 0.000000 0.000000 1.682330 
# 
# From -- ./inp_files/2894.got.cif
#   From: 2010.05.17/outbox.cif.g08.bks.cpg/sg62_2_cif.got.tgz:2894.got - 2010.06.03 15:25:27.
