data_PCOD9462020
_publ_section_title
;
Structure prediction by ZEFSAII (Michael W. Deem and Ramdas Pophale) SiO2 
 PCOD9462020
Probable space group: P N M A
;
_chemical_formula_sum "Si O2"
_cell_formula_units_Z 64
_cell_length_a 28.472918
_cell_length_b 21.513144
_cell_length_c 5.306977
_cell_angle_alpha 90.000000
_cell_angle_beta 90.000000
_cell_angle_gamma 90.000000
_cell_volume 3250.746226
_symmetry_space_group_name_H-M "P N M A"
_symmetry_group_IT_number 62
_symmetry_cell_setting 'orthorhombic'
loop_
_space_group_symop_operation_xyz
x,y,z
1/2-x,-y,1/2+z
1/2+x,1/2-y,1/2-z
-x,1/2+y,-z
-x,-y,-z
1/2+x,y,1/2-z
1/2-x,1/2+y,1/2+z
x,1/2-y,z
loop_
_atom_site_type_symbol
_atom_site_label
_atom_site_fract_x
_atom_site_fract_y
_atom_site_fract_z
Si Si1 0.169093 0.434396 0.514383
Si Si2 0.198716 0.678850 0.654598
Si Si3 0.021627 0.573466 0.769788
Si Si4 0.259283 0.124444 0.648460
Si Si5 0.411017 0.080542 0.662117
Si Si6 0.322199 0.011503 0.503738
Si Si7 0.568074 0.465018 0.991974
Si Si8 0.408355 0.322828 0.036793
O O1 0.203953 0.378825 0.587116
O O2 0.174523 0.459459 0.226566
O O3 0.113607 0.424502 0.566979
O O4 0.183370 0.485259 0.724737
O O5 0.205787 0.750000 0.579749
O O6 0.224408 0.639957 0.432498
O O7 0.142637 0.668257 0.660302
O O8 0.218213 0.667373 0.933082
O O9 0.040464 0.502504 0.723985
O O10 0.052184 0.629608 0.643165
O O11 0.969347 0.571113 0.664158
O O12 0.036360 0.583678 0.056040
O O13 0.280696 0.056983 0.582416
O O14 0.399460 0.148853 0.759290
O O15 0.369729 0.053078 0.491019
O O16 0.411771 0.026226 0.868419
O O17 0.420967 0.250000 0.043699
#
# Coordination Sequence:
#
# PCOD9462020 Si02
#       8
#     8   8   8   8   8   8   8   8
#     4  11  22  36  54  87 117 154 187 231 277 350
#     4  11  24  40  59  84 110 148 196 240 287 342
#     4  10  18  35  55  80 111 152 182 231 288 344
#     4  12  22  37  59  82 116 153 188 233 286 337
#     4  10  18  32  55  78 115 146 185 230 285 348
#     4  11  20  34  54  84 122 149 184 224 286 345
#     4   9  20  32  53  83 114 144 188 227 285 346
#     4  10  22  36  54  82 111 146 193 241 286 342
#
# _framework density 19.687788999999999
#
# number of rings (size 3 to 8) (size 9 to 14) (size 15 to 20)
#    0.000    1.500    2.500    3.750    1.750    0.500 
#    0.000    0.000    0.000    1.500    0.000    0.000 
#    0.000    0.000    0.000    0.000    0.000    0.000 
#
# Total GULP energy -356465.584418 kJ/mol
# GULP energy per Si atom -5569.774757 kJ/mol
# Density = 1.964298 g / cm^3
# Si number density = 19.687789 Si / 1000 Ang^3
#
#
#
# Elastic Constant Matrix: (Units=GPa)
#
#
# Indices 1 2 3 4 5 6 
#
# 1 87.1576 27.5960 -10.9684 0.0000 0.0000 0.0000
# 2 27.5960 55.7344 10.2721 0.0000 0.0000 0.0000
# 3 -10.9684 10.2721 46.4225 0.0000 0.0000 0.0000
# 4 0.0000 0.0000 0.0000 17.5166 0.0000 0.0000
# 5 0.0000 0.0000 0.0000 0.0000 25.4274 0.0000
# 6 0.0000 0.0000 0.0000 0.0000 0.0000 14.8729
#
#
#
# Elastic Compliance Matrix: (Units=1/GPa)
#
#
# Indices 1 2 3 4 5 6 
#
# 1 0.014770 -0.008294 0.005325 0.000000 0.000000 0.000000
# 2 -0.008294 0.023363 -0.007129 0.000000 0.000000 0.000000
# 3 0.005325 -0.007129 0.024377 0.000000 0.000000 0.000000
# 4 0.000000 0.000000 0.000000 0.057089 0.000000 0.000000
# 5 0.000000 0.000000 0.000000 0.000000 0.039328 0.000000
# 6 0.000000 0.000000 0.000000 0.000000 0.000000 0.067236
#
#
# Mechanical properties :
#
#
# Convention : Reuss Voigt Hill
#
# Bulk Modulus (GPa) = 23.63379 27.01264 25.32321
# Shear Modulus (GPa) = 19.19649 22.39104 20.79377
#
# Velocity S-wave (km/s) = 3.12596 3.37606 3.25341
# Velocity P-wave (km/s) = 5.00591 5.38027 5.19646
#
# Compressibility (1/GPa) = 0.04231230
#
# Stress axis : x y z
#
# Youngs Moduli (GPa) = 67.70566 42.80255 41.02232
#
# Poissons Ratio (x) = 0.35502 -0.21845
# Poissons Ratio (y) = 0.56158 0.29246
# Poissons Ratio (z) = -0.36054 0.30516
#
# Static dielectric constant tensor:
#      x y z
#    x 1.836180 0.000000 0.000000 
#    y 0.000000 1.685140 0.000000 
#    z 0.000000 0.000000 1.804600 
# 
# From -- ./inp_files/3693.got.cif
#   From: 2010.05.17/outbox.cif.g08.bks.cpg/sg62_2_cif.got.tgz:3693.got - 2010.06.03 15:25:27.
