data_PCOD9462761
_publ_section_title
;
Structure prediction by ZEFSAII (Michael W. Deem and Ramdas Pophale) SiO2 
 PCOD9462761
Probable space group: P N M A
;
_chemical_formula_sum "Si O2"
_cell_formula_units_Z 64
_cell_length_a 20.489699
_cell_length_b 8.202379
_cell_length_c 20.843545
_cell_angle_alpha 90.000000
_cell_angle_beta 90.000000
_cell_angle_gamma 90.000000
_cell_volume 3503.055316
_symmetry_space_group_name_H-M "P N M A"
_symmetry_group_IT_number 62
_symmetry_cell_setting 'orthorhombic'
loop_
_space_group_symop_operation_xyz
x,y,z
1/2-x,-y,1/2+z
1/2+x,1/2-y,1/2-z
-x,1/2+y,-z
-x,-y,-z
1/2+x,y,1/2-z
1/2-x,1/2+y,1/2+z
x,1/2-y,z
loop_
_atom_site_type_symbol
_atom_site_label
_atom_site_fract_x
_atom_site_fract_y
_atom_site_fract_z
Si Si1 0.556702 0.944056 0.911948
Si Si2 0.426636 0.556927 0.228594
Si Si3 0.570723 0.552809 0.271512
Si Si4 0.822523 0.054111 0.167923
Si Si5 0.089283 0.447008 0.451310
Si Si6 0.556740 0.946808 0.414046
Si Si7 0.175180 0.053149 0.333287
Si Si8 0.410547 0.052756 0.447528
O O1 0.555572 0.750000 0.904642
O O2 0.481846 0.000667 0.924636
O O3 0.582526 0.019159 0.846296
O O4 0.595301 0.989727 0.976404
O O5 0.426584 0.750000 0.238558
O O6 0.498843 0.495005 0.248881
O O7 0.370578 0.485622 0.273612
O O8 0.569724 0.750000 0.270740
O O9 0.581634 0.497189 0.344822
O O10 0.626230 0.496527 0.223076
O O11 0.818867 0.250000 0.163173
O O12 0.748851 0.992325 0.176057
O O13 0.856212 0.993401 0.102167
O O14 0.088742 0.250000 0.453589
O O15 0.143823 0.501256 0.400926
O O16 0.558381 0.750000 0.413902
O O17 0.593665 0.003297 0.478461
O O18 0.481504 0.999177 0.422179
O O19 0.176482 0.250000 0.334812
O O20 0.409091 0.250000 0.447723
#
# Coordination Sequence:
#
# PCOD9462761 Si02
#       8
#     8   8   8   8   8   8   8   8
#     4  10  19  32  54  81 108 137 175 225 271 317
#     4  11  21  34  54  80 110 143 179 226 274 322
#     4  10  20  33  52  79 109 139 178 225 270 319
#     4  10  21  36  54  78 108 144 182 222 270 328
#     4   9  18  33  52  77 107 139 176 221 271 322
#     4   9  17  31  50  76 106 133 168 218 264 307
#     4  10  21  37  55  76 108 146 183 223 269 325
#     4   9  17  30  51  76 102 133 170 212 262 316
#
# _framework density 18.269765
#
# number of rings (size 3 to 8) (size 9 to 14) (size 15 to 20)
#    0.000    2.250    2.500    0.750    0.000    2.500 
#    0.000    1.250    0.000    3.000    0.000    0.000 
#    0.000    0.000    0.000    0.000    0.000    0.000 
#
# Total GULP energy -357007.453000 kJ/mol
# GULP energy per Si atom -5578.241453 kJ/mol
# Density = 1.822818 g / cm^3
# Si number density = 18.269765 Si / 1000 Ang^3
#
#
#
# Elastic Constant Matrix: (Units=GPa)
#
#
# Indices 1 2 3 4 5 6 
#
# 1 128.8163 10.0068 87.2936 0.0000 0.0000 0.0000
# 2 10.0068 6.0511 6.9900 0.0000 0.0000 0.0000
# 3 87.2936 6.9900 157.9741 0.0000 0.0000 0.0000
# 4 0.0000 0.0000 0.0000 19.0783 0.0000 0.0000
# 5 0.0000 0.0000 0.0000 0.0000 23.8889 0.0000
# 6 0.0000 0.0000 0.0000 0.0000 0.0000 17.4376
#
#
#
# Elastic Compliance Matrix: (Units=1/GPa)
#
#
# Indices 1 2 3 4 5 6 
#
# 1 0.013513 -0.014460 -0.006827 0.000000 0.000000 0.000000
# 2 -0.014460 0.189634 -0.000401 0.000000 0.000000 0.000000
# 3 -0.006827 -0.000401 0.010120 0.000000 0.000000 0.000000
# 4 0.000000 0.000000 0.000000 0.052415 0.000000 0.000000
# 5 0.000000 0.000000 0.000000 0.000000 0.041860 0.000000
# 6 0.000000 0.000000 0.000000 0.000000 0.000000 0.057347
#
#
# Mechanical properties :
#
#
# Convention : Reuss Voigt Hill
#
# Bulk Modulus (GPa) = 5.88610 55.71359 30.79984
# Shear Modulus (GPa) = 10.75511 24.65104 17.70307
#
# Velocity S-wave (km/s) = 2.42891 3.67724 3.11622
# Velocity P-wave (km/s) = 3.33090 6.97070 5.46285
#
# Compressibility (1/GPa) = 0.16989180
#
# Stress axis : x y z
#
# Youngs Moduli (GPa) = 74.00458 5.27333 98.81039
#
# Poissons Ratio (x) = 0.07625 0.67458
# Poissons Ratio (y) = 1.07008 0.03959
# Poissons Ratio (z) = 0.50523 0.00211
#
# Static dielectric constant tensor:
#      x y z
#    x 1.610400 0.000000 0.000000 
#    y 0.000000 1.646290 0.000000 
#    z 0.000000 0.000000 1.637460 
# 
# From -- ./inp_files/27918.got.cif
#   From: 2010.05.17/outbox.cif.g08.bks.cpg/sg62_14_cif.got.tgz:27918.got - 2010.06.03 15:25:27.
