data_PCOD9462990
_publ_section_title
;
Structure prediction by ZEFSAII (Michael W. Deem and Ramdas Pophale) SiO2 
 PCOD9462990
Probable space group: P N M A
;
_chemical_formula_sum "Si O2"
_cell_formula_units_Z 56
_cell_length_a 15.370858
_cell_length_b 9.319385
_cell_length_c 20.862735
_cell_angle_alpha 90.000000
_cell_angle_beta 90.000000
_cell_angle_gamma 90.000000
_cell_volume 2988.523021
_symmetry_space_group_name_H-M "P N M A"
_symmetry_group_IT_number 62
_symmetry_cell_setting 'orthorhombic'
loop_
_space_group_symop_operation_xyz
x,y,z
1/2-x,-y,1/2+z
1/2+x,1/2-y,1/2-z
-x,1/2+y,-z
-x,-y,-z
1/2+x,y,1/2-z
1/2-x,1/2+y,1/2+z
x,1/2-y,z
loop_
_atom_site_type_symbol
_atom_site_label
_atom_site_fract_x
_atom_site_fract_y
_atom_site_fract_z
Si Si1 0.003247 0.908087 0.900465
Si Si2 0.220847 0.579436 0.481379
Si Si3 0.136119 0.920893 0.786324
Si Si4 0.883268 0.409324 0.972634
Si Si5 0.007760 0.417793 0.691035
Si Si6 0.932063 0.917368 0.455906
Si Si7 0.808455 0.077160 0.669407
O O1 0.967637 0.750000 0.883023
O O2 0.079413 0.943719 0.850952
O O3 0.047385 0.895068 0.970027
O O4 0.930163 0.028151 0.909713
O O5 0.212089 0.750000 0.488248
O O6 0.315330 0.523806 0.500591
O O7 0.157538 0.495965 0.529195
O O8 0.199085 0.543913 0.407004
O O9 0.147752 0.750000 0.777694
O O10 0.229225 0.997784 0.795044
O O11 0.074746 0.988400 0.731856
O O12 0.845600 0.250000 0.962025
O O13 0.013458 0.250000 0.710836
O O14 0.905654 0.461208 0.693667
O O15 0.036803 0.426192 0.617078
O O16 0.927344 0.750000 0.473549
O O17 0.000000 0.000000 0.500000
O O18 0.798932 0.250000 0.675601
#
# Coordination Sequence:
#
# PCOD9462990 Si02
#       7
#     8   8   8   8   8   8   8
#     4   9  19  35  54  82 119 154 195 246 297 354
#     4  11  21  36  60  90 121 154 196 244 299 360
#     4  11  23  40  63  92 123 159 206 256 306 360
#     4  10  19  33  55  85 118 155 197 244 298 353
#     4  10  23  44  64  88 121 160 204 249 303 369
#     4  11  22  39  63  91 122 154 195 248 305 361
#     4  10  21  40  65  89 117 159 204 244 298 366
#
# _framework density 18.738354000000001
#
# number of rings (size 3 to 8) (size 9 to 14) (size 15 to 20)
#    0.000    1.714    2.857    1.714    0.000    4.000 
#    2.571    0.000    0.000    0.000    0.000    0.000 
#    0.000    0.000    0.000    0.000    0.000    0.000 
#
# Total GULP energy -312360.088846 kJ/mol
# GULP energy per Si atom -5577.858729 kJ/mol
# Density = 1.869570 g / cm^3
# Si number density = 18.738354 Si / 1000 Ang^3
#
#
#
# Elastic Constant Matrix: (Units=GPa)
#
#
# Indices 1 2 3 4 5 6 
#
# 1 101.8057 63.8692 41.3504 0.0000 0.0000 0.0000
# 2 63.8692 96.1548 45.1783 0.0000 0.0000 0.0000
# 3 41.3504 45.1783 40.0216 0.0000 0.0000 0.0000
# 4 0.0000 0.0000 0.0000 21.9897 0.0000 0.0000
# 5 0.0000 0.0000 0.0000 0.0000 27.3703 0.0000
# 6 0.0000 0.0000 0.0000 0.0000 0.0000 33.5615
#
#
#
# Elastic Compliance Matrix: (Units=1/GPa)
#
#
# Indices 1 2 3 4 5 6 
#
# 1 0.019034 -0.007246 -0.011486 0.000000 0.000000 0.000000
# 2 -0.007246 0.024904 -0.020626 0.000000 0.000000 0.000000
# 3 -0.011486 -0.020626 0.060138 0.000000 0.000000 0.000000
# 4 0.000000 0.000000 0.000000 0.045476 0.000000 0.000000
# 5 0.000000 0.000000 0.000000 0.000000 0.036536 0.000000
# 6 0.000000 0.000000 0.000000 0.000000 0.000000 0.029796
#
#
# Mechanical properties :
#
#
# Convention : Reuss Voigt Hill
#
# Bulk Modulus (GPa) = 39.43385 59.86420 49.64903
# Shear Modulus (GPa) = 16.49871 22.42324 19.46098
#
# Velocity S-wave (km/s) = 2.97050 3.46302 3.22617
# Velocity P-wave (km/s) = 5.73196 6.92869 6.35854
#
# Compressibility (1/GPa) = 0.02535892
#
# Stress axis : x y z
#
# Youngs Moduli (GPa) = 52.53768 40.15347 16.62852
#
# Poissons Ratio (x) = 0.29097 0.19099
# Poissons Ratio (y) = 0.38071 0.34299
# Poissons Ratio (z) = 0.60344 0.82822
#
# Static dielectric constant tensor:
#      x y z
#    x 1.210330 0.000000 0.000000 
#    y 0.000000 1.684550 0.000000 
#    z 0.000000 0.000000 1.622800 
# 
# From -- ./inp_files/27269.got.cif
#   From: 2010.05.17/outbox.cif.g08.bks.cpg/sg62_14_cif.got.tgz:27269.got - 2010.06.03 15:25:27.
