data_PCOD9462161
_publ_section_title
;
Structure prediction by ZEFSAII (Michael W. Deem and Ramdas Pophale) SiO2 
 PCOD9462161
Probable space group: P N M A
;
_chemical_formula_sum "Si O2"
_cell_formula_units_Z 48
_cell_length_a 14.362075
_cell_length_b 13.801829
_cell_length_c 10.418663
_cell_angle_alpha 90.000000
_cell_angle_beta 90.000000
_cell_angle_gamma 90.000000
_cell_volume 2065.217628
_symmetry_space_group_name_H-M "P N M A"
_symmetry_group_IT_number 62
_symmetry_cell_setting 'orthorhombic'
loop_
_space_group_symop_operation_xyz
x,y,z
1/2-x,-y,1/2+z
1/2+x,1/2-y,1/2-z
-x,1/2+y,-z
-x,-y,-z
1/2+x,y,1/2-z
1/2-x,1/2+y,1/2+z
x,1/2-y,z
loop_
_atom_site_type_symbol
_atom_site_label
_atom_site_fract_x
_atom_site_fract_y
_atom_site_fract_z
Si Si1 0.420064 0.525437 0.197615
Si Si2 0.253651 0.858490 0.581251
Si Si3 0.942979 0.646607 0.061749
Si Si4 0.887055 0.363146 0.117274
Si Si5 0.285105 0.064746 0.638622
Si Si6 0.904922 0.363976 0.623033
O O1 0.453380 0.564651 0.335902
O O2 0.391385 0.416928 0.245214
O O3 0.325799 0.580570 0.154388
O O4 0.507766 0.562887 0.116203
O O5 0.245340 0.750000 0.636873
O O6 0.336859 0.850476 0.478164
O O7 0.164569 0.885493 0.494839
O O8 0.291000 0.948820 0.663677
O O9 0.969435 0.750000 0.121464
O O10 0.009112 0.633538 0.941093
O O11 0.862295 0.250000 0.126648
O O12 0.822582 0.410637 0.004727
O O13 0.345972 0.118840 0.745723
O O14 0.930502 0.250000 0.613621
#
# Coordination Sequence:
#
# PCOD9462161 Si02
#       6
#     8   8   8   8   8   8
#     4  12  23  37  62  90 123 153 205 247 300 350
#     4  10  22  40  60  89 124 157 196 243 301 359
#     4  10  18  34  61  88 113 146 193 247 290 341
#     4  11  23  39  61  91 123 155 199 252 301 351
#     4  12  22  38  62  89 120 161 198 246 299 359
#     4  11  23  39  63  92 120 155 203 252 295 350
#
# _framework density 23.242101000000002
#
# number of rings (size 3 to 8) (size 9 to 14) (size 15 to 20)
#    0.000    1.000    5.000    2.500    0.000    3.333 
#    0.000    0.000    0.000    2.000    0.000    0.000 
#    0.000    0.000    0.000    0.000    0.000    0.000 
#
# Total GULP energy -267853.163694 kJ/mol
# GULP energy per Si atom -5580.274244 kJ/mol
# Density = 2.318920 g / cm^3
# Si number density = 23.242101 Si / 1000 Ang^3
#
#
#
# Elastic Constant Matrix: (Units=GPa)
#
#
# Indices 1 2 3 4 5 6 
#
# 1 133.0942 18.4989 51.0818 0.0000 0.0000 0.0000
# 2 18.4989 139.6005 28.0066 0.0000 0.0000 0.0000
# 3 51.0818 28.0066 93.5595 0.0000 0.0000 0.0000
# 4 0.0000 0.0000 0.0000 16.7997 0.0000 0.0000
# 5 0.0000 0.0000 0.0000 0.0000 17.1753 0.0000
# 6 0.0000 0.0000 0.0000 0.0000 0.0000 22.6457
#
#
#
# Elastic Compliance Matrix: (Units=1/GPa)
#
#
# Indices 1 2 3 4 5 6 
#
# 1 0.009512 -0.000233 -0.005124 0.000000 0.000000 0.000000
# 2 -0.000233 0.007627 -0.002156 0.000000 0.000000 0.000000
# 3 -0.005124 -0.002156 0.014131 0.000000 0.000000 0.000000
# 4 0.000000 0.000000 0.000000 0.059525 0.000000 0.000000
# 5 0.000000 0.000000 0.000000 0.000000 0.058223 0.000000
# 6 0.000000 0.000000 0.000000 0.000000 0.000000 0.044159
#
#
# Mechanical properties :
#
#
# Convention : Reuss Voigt Hill
#
# Bulk Modulus (GPa) = 61.55626 62.38098 61.96862
# Shear Modulus (GPa) = 23.40635 29.23526 26.32081
#
# Velocity S-wave (km/s) = 3.17687 3.55048 3.36886
# Velocity P-wave (km/s) = 6.32448 6.61103 6.46934
#
# Compressibility (1/GPa) = 0.01624530
#
# Stress axis : x y z
#
# Youngs Moduli (GPa) = 105.12605 131.11904 70.76441
#
# Poissons Ratio (x) = 0.03049 0.36260
# Poissons Ratio (y) = 0.02445 0.15257
# Poissons Ratio (z) = 0.53866 0.28270
#
# Static dielectric constant tensor:
#      x y z
#    x 1.895130 0.000000 0.000000 
#    y 0.000000 1.967860 0.000000 
#    z 0.000000 0.000000 1.880700 
# 
# From -- ./inp_files/13249.got.cif
#   From: 2010.05.17/outbox.cif.g08.bks.cpg/sg62_7_cif.got.tgz:13249.got - 2010.06.03 15:25:27.
