data_PCOD9462957
_publ_section_title
;
Structure prediction by ZEFSAII (Michael W. Deem and Ramdas Pophale) SiO2 
 PCOD9462957
Probable space group: P N M A
;
_chemical_formula_sum "Si O2"
_cell_formula_units_Z 40
_cell_length_a 5.340818
_cell_length_b 16.221219
_cell_length_c 20.714005
_cell_angle_alpha 90.000000
_cell_angle_beta 90.000000
_cell_angle_gamma 90.000000
_cell_volume 1794.549091
_symmetry_space_group_name_H-M "P N M A"
_symmetry_group_IT_number 62
_symmetry_cell_setting 'orthorhombic'
loop_
_space_group_symop_operation_xyz
x,y,z
1/2-x,-y,1/2+z
1/2+x,1/2-y,1/2-z
-x,1/2+y,-z
-x,-y,-z
1/2+x,y,1/2-z
1/2-x,1/2+y,1/2+z
x,1/2-y,z
loop_
_atom_site_type_symbol
_atom_site_label
_atom_site_fract_x
_atom_site_fract_y
_atom_site_fract_z
Si Si1 0.070541 0.092276 0.981489
Si Si2 0.204332 0.339752 0.708404
Si Si3 0.361332 0.155782 0.096604
Si Si4 0.116473 0.520391 0.706986
Si Si5 0.930229 0.654741 0.465325
O O1 0.129588 0.141565 0.047680
O O2 0.334652 0.099654 0.944262
O O3 0.845911 0.133826 0.942992
O O4 0.000000 0.000000 0.000000
O O5 0.486906 0.340135 0.736078
O O6 0.168429 0.250000 0.675584
O O7 0.149826 0.428548 0.677744
O O8 0.370378 0.250000 0.119324
O O9 0.362850 0.090288 0.153078
O O10 0.578141 0.139956 0.043436
O O11 0.349247 0.527966 0.757007
O O12 0.998572 0.750000 0.457618
#
# Coordination Sequence:
#
# PCOD9462957 Si02
#       5
#     8   8   8   8   8
#     4  10  19  33  55  80 100 133 186 233 274 324
#     4   8  14  27  46  65  86 118 162 210 258 304
#     4   9  21  35  53  76 109 149 183 219 269 327
#     4  10  21  33  49  77 107 141 184 225 262 310
#     4   9  18  33  53  76 103 138 177 214 266 333
#
# _framework density 22.289721
#
# number of rings (size 3 to 8) (size 9 to 14) (size 15 to 20)
#    1.200    1.600    0.000    1.800    2.800    0.800 
#    0.000    0.000    0.000    3.600    0.000    0.000 
#    0.000    0.000    0.000    0.000    0.000    0.000 
#
# Total GULP energy -222813.102260 kJ/mol
# GULP energy per Si atom -5570.327556 kJ/mol
# Density = 2.223899 g / cm^3
# Si number density = 22.289721 Si / 1000 Ang^3
#
#
#
# Elastic Constant Matrix: (Units=GPa)
#
#
# Indices 1 2 3 4 5 6 
#
# 1 126.8841 9.5719 7.9304 0.0000 0.0000 0.0000
# 2 9.5719 129.3383 31.1348 0.0000 0.0000 0.0000
# 3 7.9304 31.1348 71.1156 0.0000 0.0000 0.0000
# 4 0.0000 0.0000 0.0000 21.8623 0.0000 0.0000
# 5 0.0000 0.0000 0.0000 0.0000 17.3104 0.0000
# 6 0.0000 0.0000 0.0000 0.0000 0.0000 24.8024
#
#
#
# Elastic Compliance Matrix: (Units=1/GPa)
#
#
# Indices 1 2 3 4 5 6 
#
# 1 0.007957 -0.000419 -0.000704 0.000000 0.000000 0.000000
# 2 -0.000419 0.008665 -0.003747 0.000000 0.000000 0.000000
# 3 -0.000704 -0.003747 0.015780 0.000000 0.000000 0.000000
# 4 0.000000 0.000000 0.000000 0.045741 0.000000 0.000000
# 5 0.000000 0.000000 0.000000 0.000000 0.057769 0.000000
# 6 0.000000 0.000000 0.000000 0.000000 0.000000 0.040319
#
#
# Mechanical properties :
#
#
# Convention : Reuss Voigt Hill
#
# Bulk Modulus (GPa) = 44.12615 47.17914 45.65265
# Shear Modulus (GPa) = 25.83662 31.37508 28.60585
#
# Velocity S-wave (km/s) = 3.40829 3.75587 3.58629
# Velocity P-wave (km/s) = 5.94375 6.32622 6.13797
#
# Compressibility (1/GPa) = 0.02266230
#
# Stress axis : x y z
#
# Youngs Moduli (GPa) = 125.67820 115.41203 63.36981
#
# Poissons Ratio (x) = 0.04841 0.04459
# Poissons Ratio (y) = 0.05272 0.23742
# Poissons Ratio (z) = 0.08843 0.43241
#
# Static dielectric constant tensor:
#      x y z
#    x 1.890240 0.000000 0.000000 
#    y 0.000000 1.796820 0.000000 
#    z 0.000000 0.000000 1.866140 
# 
# From -- ./inp_files/31539.got.cif
#   From: 2010.05.17/outbox.cif.g08.bks.cpg/sg62_16_cif.got.tgz:31539.got - 2010.06.03 15:25:27.
