data_PCOD9462245
_publ_section_title
;
Structure prediction by ZEFSAII (Michael W. Deem and Ramdas Pophale) SiO2 
 PCOD9462245
Probable space group: P N M A
;
_chemical_formula_sum "Si O2"
_cell_formula_units_Z 44
_cell_length_a 14.038032
_cell_length_b 15.236819
_cell_length_c 8.761743
_cell_angle_alpha 90.000000
_cell_angle_beta 90.000000
_cell_angle_gamma 90.000000
_cell_volume 1874.092605
_symmetry_space_group_name_H-M "P N M A"
_symmetry_group_IT_number 62
_symmetry_cell_setting 'orthorhombic'
loop_
_space_group_symop_operation_xyz
x,y,z
1/2-x,-y,1/2+z
1/2+x,1/2-y,1/2-z
-x,1/2+y,-z
-x,-y,-z
1/2+x,y,1/2-z
1/2-x,1/2+y,1/2+z
x,1/2-y,z
loop_
_atom_site_type_symbol
_atom_site_label
_atom_site_fract_x
_atom_site_fract_y
_atom_site_fract_z
Si Si1 0.844051 0.750000 0.944794
Si Si2 0.882198 0.647030 0.396171
Si Si3 0.416402 0.150287 0.742567
Si Si4 0.024167 0.346736 0.295606
Si Si5 0.589500 0.943706 0.561419
Si Si6 0.238879 0.085150 0.863950
O O1 0.793854 0.671513 0.044501
O O2 0.901751 0.824636 0.839641
O O3 0.855764 0.750000 0.413219
O O4 0.919250 0.616484 0.560130
O O5 0.799869 0.597415 0.309036
O O6 0.972997 0.641599 0.283349
O O7 0.388766 0.250000 0.776689
O O8 0.402094 0.132410 0.563895
O O9 0.352202 0.086286 0.844366
O O10 0.985063 0.250000 0.344370
O O11 0.941549 0.405317 0.224745
O O12 0.500000 0.000000 0.500000
O O13 0.683925 0.001369 0.572361
#
# Coordination Sequence:
#
# PCOD9462245 Si02
#       6
#     4   8   8   8   8   8
#     4  10  18  38  64  92 126 170 222 272 340 404
#     4  10  20  39  66  93 125 174 224 271 334 405
#     4  11  24  42  69  96 132 184 228 274 341 422
#     4   9  20  37  64  93 126 172 220 275 340 407
#     4  12  22  40  64  97 128 176 222 282 343 401
#     4  12  23  41  69  95 134 176 229 283 339 409
#
# _framework density 23.478028999999999
#
# number of rings (size 3 to 8) (size 9 to 14) (size 15 to 20)
#    0.545    0.727    5.455    0.545    2.545    2.182 
#    3.273    1.818    0.000    0.000    0.000    0.000 
#    0.000    0.000    0.000    0.000    0.000    0.000 
#
# Total GULP energy -244991.861767 kJ/mol
# GULP energy per Si atom -5567.996858 kJ/mol
# Density = 2.342459 g / cm^3
# Si number density = 23.478029 Si / 1000 Ang^3
#
#
#
# Elastic Constant Matrix: (Units=GPa)
#
#
# Indices 1 2 3 4 5 6 
#
# 1 44.2867 2.7635 -3.5604 0.0000 0.0000 0.0000
# 2 2.7635 55.8233 15.8050 0.0000 0.0000 0.0000
# 3 -3.5604 15.8050 55.5068 0.0000 0.0000 0.0000
# 4 0.0000 0.0000 0.0000 23.7000 0.0000 0.0000
# 5 0.0000 0.0000 0.0000 0.0000 27.2324 0.0000
# 6 0.0000 0.0000 0.0000 0.0000 0.0000 18.2445
#
#
#
# Elastic Compliance Matrix: (Units=1/GPa)
#
#
# Indices 1 2 3 4 5 6 
#
# 1 0.022841 -0.001681 0.001944 0.000000 0.000000 0.000000
# 2 -0.001681 0.019608 -0.005691 0.000000 0.000000 0.000000
# 3 0.001944 -0.005691 0.019761 0.000000 0.000000 0.000000
# 4 0.000000 0.000000 0.000000 0.042194 0.000000 0.000000
# 5 0.000000 0.000000 0.000000 0.000000 0.036721 0.000000
# 6 0.000000 0.000000 0.000000 0.000000 0.000000 0.054811
#
#
# Mechanical properties :
#
#
# Convention : Reuss Voigt Hill
#
# Bulk Modulus (GPa) = 19.47276 20.62587 20.04932
# Shear Modulus (GPa) = 22.33028 23.20929 22.76978
#
# Velocity S-wave (km/s) = 3.08736 3.14754 3.11759
# Velocity P-wave (km/s) = 4.58488 4.69186 4.63868
#
# Compressibility (1/GPa) = 0.05135379
#
# Stress axis : x y z
#
# Youngs Moduli (GPa) = 43.78032 50.99919 50.60482
#
# Poissons Ratio (x) = 0.08573 -0.09837
# Poissons Ratio (y) = 0.07360 0.28799
# Poissons Ratio (z) = -0.08510 0.29024
#
# Static dielectric constant tensor:
#      x y z
#    x 1.888830 0.000000 0.000000 
#    y 0.000000 1.959610 0.000000 
#    z 0.000000 0.000000 1.896130 
# 
# From -- ./inp_files/6348.got.cif
#   From: 2010.05.17/outbox.cif.g08.bks.cpg/sg62_4_cif.got.tgz:6348.got - 2010.06.03 15:25:27.
