data_PCOD9462530
_publ_section_title
;
Structure prediction by ZEFSAII (Michael W. Deem and Ramdas Pophale) SiO2 
 PCOD9462530
Probable space group: P N M A
;
_chemical_formula_sum "Si O2"
_cell_formula_units_Z 64
_cell_length_a 16.918243
_cell_length_b 7.648885
_cell_length_c 20.194143
_cell_angle_alpha 90.000000
_cell_angle_beta 90.000000
_cell_angle_gamma 90.000000
_cell_volume 2613.237112
_symmetry_space_group_name_H-M "P N M A"
_symmetry_group_IT_number 62
_symmetry_cell_setting 'orthorhombic'
loop_
_space_group_symop_operation_xyz
x,y,z
1/2-x,-y,1/2+z
1/2+x,1/2-y,1/2-z
-x,1/2+y,-z
-x,-y,-z
1/2+x,y,1/2-z
1/2-x,1/2+y,1/2+z
x,1/2-y,z
loop_
_atom_site_type_symbol
_atom_site_label
_atom_site_fract_x
_atom_site_fract_y
_atom_site_fract_z
Si Si1 0.721170 0.041235 0.113728
Si Si2 0.947838 0.535287 0.641198
Si Si3 0.212267 0.037440 0.104038
Si Si4 0.867275 0.455957 0.027932
Si Si5 0.025672 0.450627 0.862860
Si Si6 0.385306 0.552763 0.718684
Si Si7 0.878327 0.450434 0.378176
Si Si8 0.172258 0.042647 0.767736
O O1 0.720506 0.250000 0.106163
O O2 0.631308 0.981445 0.102202
O O3 0.788944 0.970209 0.065460
O O4 0.749943 0.002340 0.189017
O O5 0.952462 0.750000 0.641626
O O6 0.927254 0.477396 0.716364
O O7 0.033825 0.471072 0.618436
O O8 0.214447 0.250000 0.107320
O O9 0.185268 0.969058 0.176229
O O10 0.300595 0.971984 0.086896
O O11 0.150213 0.984793 0.048458
O O12 0.872573 0.250000 0.040737
O O13 0.944002 0.535716 0.062297
O O14 0.005147 0.250000 0.848843
O O15 0.101367 0.502052 0.818633
O O16 0.953417 0.561063 0.836915
O O17 0.361129 0.750000 0.736746
O O18 0.885290 0.250000 0.400754
O O19 0.850929 0.452321 0.300993
O O20 0.170833 0.250000 0.756473
#
# Coordination Sequence:
#
# PCOD9462530 Si02
#       8
#     8   8   8   8   8   8   8   8
#     4   9  18  34  56  79 103 138 185 227 263 315
#     4   9  17  32  57  85 108 133 175 225 266 316
#     4  10  22  37  54  78 108 143 183 225 269 317
#     4  10  21  37  57  77 104 145 189 226 265 315
#     4  10  20  34  54  80 110 141 173 218 267 317
#     4  10  19  33  54  81 110 139 174 217 267 324
#     4  10  19  34  57  79 105 142 178 218 268 323
#     4  10  19  31  50  79 111 140 170 212 271 325
#
# _framework density 24.490697000000001
#
# number of rings (size 3 to 8) (size 9 to 14) (size 15 to 20)
#    0.000    2.250    1.250    1.875    0.000    5.000 
#    0.000    3.125    0.000    0.000    0.000    0.000 
#    0.000    0.000    0.000    0.000    0.000    0.000 
#
# Total GULP energy -357449.847597 kJ/mol
# GULP energy per Si atom -5585.153869 kJ/mol
# Density = 2.443496 g / cm^3
# Si number density = 24.490697 Si / 1000 Ang^3
#
#
#
# Elastic Constant Matrix: (Units=GPa)
#
#
# Indices 1 2 3 4 5 6 
#
# 1 89.2782 9.1638 -34.5994 0.0000 0.0000 0.0000
# 2 9.1638 58.3716 -5.5461 0.0000 0.0000 0.0000
# 3 -34.5994 -5.5461 28.3408 0.0000 0.0000 0.0000
# 4 0.0000 0.0000 0.0000 13.2672 0.0000 0.0000
# 5 0.0000 0.0000 0.0000 0.0000 35.1689 0.0000
# 6 0.0000 0.0000 0.0000 0.0000 0.0000 4.6386
#
#
#
# Elastic Compliance Matrix: (Units=1/GPa)
#
#
# Indices 1 2 3 4 5 6 
#
# 1 0.021305 -0.000890 0.025835 0.000000 0.000000 0.000000
# 2 -0.000890 0.017493 0.002337 0.000000 0.000000 0.000000
# 3 0.025835 0.002337 0.067282 0.000000 0.000000 0.000000
# 4 0.000000 0.000000 0.000000 0.075374 0.000000 0.000000
# 5 0.000000 0.000000 0.000000 0.000000 0.028434 0.000000
# 6 0.000000 0.000000 0.000000 0.000000 0.000000 0.215581
#
#
# Mechanical properties :
#
#
# Convention : Reuss Voigt Hill
#
# Bulk Modulus (GPa) = 6.22492 12.66970 9.44731
# Shear Modulus (GPa) = 11.77985 24.41311 18.09648
#
# Velocity S-wave (km/s) = 2.19553 3.16069 2.72124
# Velocity P-wave (km/s) = 2.99573 4.30168 3.70667
#
# Compressibility (1/GPa) = 0.16064460
#
# Stress axis : x y z
#
# Youngs Moduli (GPa) = 46.93826 57.16452 14.86271
#
# Poissons Ratio (x) = 0.05087 -0.38398
# Poissons Ratio (y) = 0.04177 -0.03473
# Poissons Ratio (z) = -1.21266 -0.13359
#
# Static dielectric constant tensor:
#      x y z
#    x 2.014120 0.000000 0.000000 
#    y 0.000000 1.886030 0.000000 
#    z 0.000000 0.000000 1.950780 
# 
# From -- ./inp_files/29813.got.cif
#   From: 2010.05.17/outbox.cif.g08.bks.cpg/sg62_15_cif.got.tgz:29813.got - 2010.06.03 15:25:27.
