data_PCOD9462002
_publ_section_title
;
Structure prediction by ZEFSAII (Michael W. Deem and Ramdas Pophale) SiO2 
 PCOD9462002
Probable space group: P N M A
;
_chemical_formula_sum "Si O2"
_cell_formula_units_Z 32
_cell_length_a 31.570649
_cell_length_b 5.555758
_cell_length_c 6.780604
_cell_angle_alpha 90.000000
_cell_angle_beta 90.000000
_cell_angle_gamma 90.000000
_cell_volume 1189.310386
_symmetry_space_group_name_H-M "P N M A"
_symmetry_group_IT_number 62
_symmetry_cell_setting 'orthorhombic'
loop_
_space_group_symop_operation_xyz
x,y,z
1/2-x,-y,1/2+z
1/2+x,1/2-y,1/2-z
-x,1/2+y,-z
-x,-y,-z
1/2+x,y,1/2-z
1/2-x,1/2+y,1/2+z
x,1/2-y,z
loop_
_atom_site_type_symbol
_atom_site_label
_atom_site_fract_x
_atom_site_fract_y
_atom_site_fract_z
Si Si1 0.543664 0.750000 0.187331
Si Si2 0.779827 0.750000 0.361499
Si Si3 0.659408 0.250000 0.230793
Si Si4 0.319646 0.250000 0.710752
Si Si5 0.936261 0.750000 0.629792
Si Si6 0.820922 0.250000 0.313323
Si Si7 0.409574 0.250000 0.410720
Si Si8 0.545499 0.250000 0.594127
O O1 0.547363 0.507769 0.061208
O O2 0.582193 0.750000 0.348725
O O3 0.501313 0.750000 0.317738
O O4 0.800823 0.750000 0.580440
O O5 0.729589 0.750000 0.343624
O O6 0.795985 0.497976 0.270828
O O7 0.662003 0.493626 0.354214
O O8 0.614588 0.250000 0.119398
O O9 0.327024 0.250000 0.948418
O O10 0.952759 0.750000 0.856444
O O11 0.864835 0.250000 0.199563
O O12 0.431155 0.502887 0.351780
#
# Coordination Sequence:
#
# PCOD9462002 Si02
#       8
#     4   4   4   4   4   4   4   4
#     4  10  19  33  53  84 116 149 186 229 272 319
#     4  10  21  40  59  79 108 145 183 231 283 337
#     4  10  21  37  57  83 108 144 187 231 279 332
#     4  10  21  40  59  79 108 145 183 231 283 337
#     4  10  18  32  53  82 114 146 184 231 274 322
#     4  10  21  37  57  83 108 144 187 231 279 332
#     4  10  18  32  53  82 114 146 184 231 274 322
#     4  10  19  33  53  84 116 149 186 229 272 319
#
# _framework density 26.906351000000001
#
# number of rings (size 3 to 8) (size 9 to 14) (size 15 to 20)
#    0.000    2.000    0.000    6.000    0.000    0.000 
#    0.000   30.000    0.000    0.000    0.000  119.000 
#    0.000    0.000    0.000    0.000    0.000    0.000 
#
# Total GULP energy -179287.648542 kJ/mol
# GULP energy per Si atom -5602.739017 kJ/mol
# Density = 2.684511 g / cm^3
# Si number density = 26.906351 Si / 1000 Ang^3
#
#
#
# Elastic Constant Matrix: (Units=GPa)
#
#
# Indices 1 2 3 4 5 6 
#
# 1 125.4117 65.3244 6.8469 0.0000 0.0000 0.0000
# 2 65.3244 325.5866 2.1300 0.0000 0.0000 0.0000
# 3 6.8469 2.1300 130.5355 0.0000 0.0000 0.0000
# 4 0.0000 0.0000 0.0000 -35.1336 0.0000 0.0000
# 5 0.0000 0.0000 0.0000 0.0000 36.3746 0.0000
# 6 0.0000 0.0000 0.0000 0.0000 0.0000 58.6803
#
#
#
# Elastic Compliance Matrix: (Units=1/GPa)
#
#
# Indices 1 2 3 4 5 6 
#
# 1 0.008929 -0.001789 -0.000439 0.000000 0.000000 0.000000
# 2 -0.001789 0.003430 0.000038 0.000000 0.000000 0.000000
# 3 -0.000439 0.000038 0.007683 0.000000 0.000000 0.000000
# 4 0.000000 0.000000 0.000000 -0.028463 0.000000 0.000000
# 5 0.000000 0.000000 0.000000 0.000000 0.027492 0.000000
# 6 0.000000 0.000000 0.000000 0.000000 0.000000 0.017041
#
#
# Mechanical properties :
#
#
# Convention : Reuss Voigt Hill
#
# Bulk Modulus (GPa) = 63.84658 81.12626 72.48642
# Shear Modulus (GPa) = 109.37585 45.79975 77.58780
#
# Velocity S-wave (km/s) = 6.38270 4.13024 5.37576
# Velocity P-wave (km/s) = 8.83737 7.27750 8.09509
#
# Compressibility (1/GPa) = 0.01566255
#
# Stress axis : x y z
#
# Youngs Moduli (GPa) = 111.98953 291.54460 130.15465
#
# Poissons Ratio (x) = 0.52148 0.05716
# Poissons Ratio (y) = 0.20031 -0.00493
# Poissons Ratio (z) = 0.04918 -0.01104
#
# Static dielectric constant tensor:
#      x y z
#    x 2.032730 0.000000 0.000000 
#    y 0.000000 2.149700 0.000000 
#    z 0.000000 0.000000 2.088330 
# 
# From -- ./inp_files/9637.got.cif
#   From: 2010.05.17/outbox.cif.g08.bks.cpg/sg62_5_cif.got.tgz:9637.got - 2010.06.03 15:25:27.
