data_PCOD9462041
_publ_section_title
;
Structure prediction by ZEFSAII (Michael W. Deem and Ramdas Pophale) SiO2 
 PCOD9462041
Probable space group: P N M A
;
_chemical_formula_sum "Si O2"
_cell_formula_units_Z 32
_cell_length_a 12.322824
_cell_length_b 8.765565
_cell_length_c 14.581643
_cell_angle_alpha 90.000000
_cell_angle_beta 90.000000
_cell_angle_gamma 90.000000
_cell_volume 1575.058256
_symmetry_space_group_name_H-M "P N M A"
_symmetry_group_IT_number 62
_symmetry_cell_setting 'orthorhombic'
loop_
_space_group_symop_operation_xyz
x,y,z
1/2-x,-y,1/2+z
1/2+x,1/2-y,1/2-z
-x,1/2+y,-z
-x,-y,-z
1/2+x,y,1/2-z
1/2-x,1/2+y,1/2+z
x,1/2-y,z
loop_
_atom_site_type_symbol
_atom_site_label
_atom_site_fract_x
_atom_site_fract_y
_atom_site_fract_z
Si Si1 0.096594 0.932452 0.563763
Si Si2 0.275752 0.570848 0.912211
Si Si3 0.960762 0.431346 0.715156
Si Si4 0.522020 0.928941 0.598841
O O1 0.095601 0.750000 0.563143
O O2 0.202087 0.995525 0.511846
O O3 0.000000 0.000000 0.500000
O O4 0.065080 0.995195 0.663315
O O5 0.304022 0.750000 0.917772
O O6 0.355364 0.492160 0.839084
O O7 0.151146 0.556054 0.885100
O O8 0.966092 0.250000 0.707289
O O9 0.960989 0.485189 0.819584
O O10 0.493971 0.750000 0.599849
O O11 0.500000 0.000000 0.500000
#
# Coordination Sequence:
#
# PCOD9462041 Si02
#       4
#     8   8   8   8
#     4  10  18  32  57  87 118 150 190 240 289 341
#     4  10  21  39  62  88 119 155 196 242 295 350
#     4  11  22  38  62  89 119 156 199 245 291 347
#     4  11  25  43  62  86 119 157 196 243 295 350
#
# _framework density 20.316708999999999
#
# number of rings (size 3 to 8) (size 9 to 14) (size 15 to 20)
#    0.000    1.500    0.000    9.000    0.000    6.000 
#    0.000    0.000    0.000    0.000    0.000    0.000 
#    0.000    0.000    0.000    0.000    0.000    0.000 
#
# Total GULP energy -178862.986859 kJ/mol
# GULP energy per Si atom -5589.468339 kJ/mol
# Density = 2.027047 g / cm^3
# Si number density = 20.316709 Si / 1000 Ang^3
#
#
#
# Elastic Constant Matrix: (Units=GPa)
#
#
# Indices 1 2 3 4 5 6 
#
# 1 34.9313 44.5106 22.4417 0.0000 0.0000 0.0000
# 2 44.5106 203.5096 65.3548 0.0000 0.0000 0.0000
# 3 22.4417 65.3548 146.0685 0.0000 0.0000 0.0000
# 4 0.0000 0.0000 0.0000 37.6693 0.0000 0.0000
# 5 0.0000 0.0000 0.0000 0.0000 24.3555 0.0000
# 6 0.0000 0.0000 0.0000 0.0000 0.0000 24.3339
#
#
#
# Elastic Compliance Matrix: (Units=1/GPa)
#
#
# Indices 1 2 3 4 5 6 
#
# 1 0.040543 -0.008019 -0.002641 0.000000 0.000000 0.000000
# 2 -0.008019 0.007324 -0.002045 0.000000 0.000000 0.000000
# 3 -0.002641 -0.002045 0.008167 0.000000 0.000000 0.000000
# 4 0.000000 0.000000 0.000000 0.026547 0.000000 0.000000
# 5 0.000000 0.000000 0.000000 0.000000 0.041059 0.000000
# 6 0.000000 0.000000 0.000000 0.000000 0.000000 0.041095
#
#
# Mechanical properties :
#
#
# Convention : Reuss Voigt Hill
#
# Bulk Modulus (GPa) = 32.65457 72.12484 52.38970
# Shear Modulus (GPa) = 24.95602 34.08522 29.52062
#
# Velocity S-wave (km/s) = 3.50858 4.10041 3.81599
# Velocity P-wave (km/s) = 5.70274 7.61545 6.72742
#
# Compressibility (1/GPa) = 0.03062359
#
# Stress axis : x y z
#
# Youngs Moduli (GPa) = 24.66538 136.52899 122.44589
#
# Poissons Ratio (x) = 1.09485 0.32337
# Poissons Ratio (y) = 0.19780 0.25041
# Poissons Ratio (z) = 0.06514 0.27921
#
# Static dielectric constant tensor:
#      x y z
#    x 1.766390 0.000000 0.000000 
#    y 0.000000 1.691070 0.000000 
#    z 0.000000 0.000000 1.750350 
# 
# From -- ./inp_files/17624.got.cif
#   From: 2010.05.17/outbox.cif.g08.bks.cpg/sg62_9_cif.got.tgz:17624.got - 2010.06.03 15:25:27.
