data_PCOD9462094
_publ_section_title
;
Structure prediction by ZEFSAII (Michael W. Deem and Ramdas Pophale) SiO2 
 PCOD9462094
Probable space group: P N M A
;
_chemical_formula_sum "Si O2"
_cell_formula_units_Z 64
_cell_length_a 15.600229
_cell_length_b 7.806632
_cell_length_c 24.290507
_cell_angle_alpha 90.000000
_cell_angle_beta 90.000000
_cell_angle_gamma 90.000000
_cell_volume 2958.225393
_symmetry_space_group_name_H-M "P N M A"
_symmetry_group_IT_number 62
_symmetry_cell_setting 'orthorhombic'
loop_
_space_group_symop_operation_xyz
x,y,z
1/2-x,-y,1/2+z
1/2+x,1/2-y,1/2-z
-x,1/2+y,-z
-x,-y,-z
1/2+x,y,1/2-z
1/2-x,1/2+y,1/2+z
x,1/2-y,z
loop_
_atom_site_type_symbol
_atom_site_label
_atom_site_fract_x
_atom_site_fract_y
_atom_site_fract_z
Si Si1 0.068236 0.540827 0.248141
Si Si2 0.808620 0.543589 0.369170
Si Si3 0.764715 0.959152 0.244220
Si Si4 0.071224 0.943618 0.956156
Si Si5 0.497874 0.958685 0.135167
Si Si6 0.078301 0.048469 0.831139
Si Si7 0.236710 0.047774 0.020671
Si Si8 0.912585 0.044370 0.531001
O O1 0.073860 0.750000 0.245210
O O2 0.165835 0.481308 0.257571
O O3 0.015722 0.492732 0.302619
O O4 0.010107 0.481624 0.196672
O O5 0.806136 0.750000 0.371872
O O6 0.794340 0.496124 0.305944
O O7 0.741232 0.477740 0.413721
O O8 0.904365 0.482397 0.384233
O O9 0.762381 0.750000 0.240229
O O10 0.835043 0.019622 0.199180
O O11 0.051939 0.750000 0.941328
O O12 0.077477 0.034092 0.896987
O O13 0.159733 0.959865 0.989129
O O14 0.000000 0.000000 0.000000
O O15 0.496125 0.750000 0.133980
O O16 0.571600 0.014920 0.093432
O O17 0.078776 0.250000 0.817751
O O18 0.229490 0.250000 0.009407
O O19 0.326911 0.978128 0.997185
O O20 0.905269 0.250000 0.531158
O O21 0.000000 0.000000 0.500000
#
# Coordination Sequence:
#
# PCOD9462094 Si02
#       8
#     8   8   8   8   8   8   8   8
#     4   9  17  30  54  86 118 154 198 246 298 355
#     4  10  18  33  57  86 120 161 210 256 300 360
#     4   9  18  31  55  90 122 157 201 248 300 361
#     4  12  28  49  69  89 119 163 215 267 323 383
#     4   9  16  29  50  80 118 158 200 245 289 346
#     4  10  20  38  63  94 126 156 205 262 305 361
#     4  11  24  40  60  91 124 162 208 258 317 373
#     4  10  20  33  54  85 123 162 200 244 295 356
#
# _framework density 21.634591
#
# number of rings (size 3 to 8) (size 9 to 14) (size 15 to 20)
#    0.000    2.000    2.500    1.500    3.500    0.500 
#    0.000    0.625    0.000    1.500    0.000    0.000 
#    0.000    0.000    0.000    0.000    0.000    0.000 
#
# Total GULP energy -357127.411908 kJ/mol
# GULP energy per Si atom -5580.115811 kJ/mol
# Density = 2.158535 g / cm^3
# Si number density = 21.634591 Si / 1000 Ang^3
#
#
#
# Elastic Constant Matrix: (Units=GPa)
#
#
# Indices 1 2 3 4 5 6 
#
# 1 142.4371 0.2515 65.9583 0.0000 0.0000 0.0000
# 2 0.2515 24.7134 -9.1820 0.0000 0.0000 0.0000
# 3 65.9583 -9.1820 127.2151 0.0000 0.0000 0.0000
# 4 0.0000 0.0000 0.0000 17.3229 0.0000 0.0000
# 5 0.0000 0.0000 0.0000 0.0000 29.9293 0.0000
# 6 0.0000 0.0000 0.0000 0.0000 0.0000 8.9124
#
#
#
# Elastic Compliance Matrix: (Units=1/GPa)
#
#
# Indices 1 2 3 4 5 6 
#
# 1 0.009329 -0.001944 -0.004977 0.000000 0.000000 0.000000
# 2 -0.001944 0.041984 0.004038 0.000000 0.000000 0.000000
# 3 -0.004977 0.004038 0.010733 0.000000 0.000000 0.000000
# 4 0.000000 0.000000 0.000000 0.057727 0.000000 0.000000
# 5 0.000000 0.000000 0.000000 0.000000 0.033412 0.000000
# 6 0.000000 0.000000 0.000000 0.000000 0.000000 0.112204
#
#
# Mechanical properties :
#
#
# Convention : Reuss Voigt Hill
#
# Bulk Modulus (GPa) = 17.76841 45.38014 31.57428
# Shear Modulus (GPa) = 17.24646 27.05542 22.15094
#
# Velocity S-wave (km/s) = 2.82648 3.54017 3.20326
# Velocity P-wave (km/s) = 4.34544 6.14261 5.32045
#
# Compressibility (1/GPa) = 0.05627964
#
# Stress axis : x y z
#
# Youngs Moduli (GPa) = 107.19456 23.81854 93.17322
#
# Poissons Ratio (x) = 0.04631 0.46373
# Poissons Ratio (y) = 0.20840 -0.37626
# Poissons Ratio (z) = 0.53352 -0.09619
#
# Static dielectric constant tensor:
#      x y z
#    x 1.805580 0.000000 0.000000 
#    y 0.000000 1.796960 0.000000 
#    z 0.000000 0.000000 1.726300 
# 
# From -- ./inp_files/29726.got.cif
#   From: 2010.05.17/outbox.cif.g08.bks.cpg/sg62_15_cif.got.tgz:29726.got - 2010.06.03 15:25:27.
