data_PCOD9462283
_publ_section_title
;
Structure prediction by ZEFSAII (Michael W. Deem and Ramdas Pophale) SiO2 
 PCOD9462283
Probable space group: P N M A
;
_chemical_formula_sum "Si O2"
_cell_formula_units_Z 56
_cell_length_a 18.765348
_cell_length_b 9.040379
_cell_length_c 20.989001
_cell_angle_alpha 90.000000
_cell_angle_beta 90.000000
_cell_angle_gamma 90.000000
_cell_volume 3560.697083
_symmetry_space_group_name_H-M "P N M A"
_symmetry_group_IT_number 62
_symmetry_cell_setting 'orthorhombic'
loop_
_space_group_symop_operation_xyz
x,y,z
1/2-x,-y,1/2+z
1/2+x,1/2-y,1/2-z
-x,1/2+y,-z
-x,-y,-z
1/2+x,y,1/2-z
1/2-x,1/2+y,1/2+z
x,1/2-y,z
loop_
_atom_site_type_symbol
_atom_site_label
_atom_site_fract_x
_atom_site_fract_y
_atom_site_fract_z
Si Si1 0.703401 0.419661 0.682177
Si Si2 0.925508 0.075257 0.241730
Si Si3 0.421993 0.572868 0.001587
Si Si4 0.651006 0.925295 0.877505
Si Si5 0.422011 0.428123 0.746274
Si Si6 0.781495 0.420774 0.820141
Si Si7 0.152543 0.570947 0.380515
O O1 0.683371 0.250000 0.668354
O O2 0.633439 0.516218 0.692222
O O3 0.744071 0.419319 0.750426
O O4 0.764755 0.467589 0.633114
O O5 0.933769 0.250000 0.235246
O O6 0.893793 0.045869 0.312644
O O7 0.001196 0.996782 0.235045
O O8 0.427304 0.750000 0.000610
O O9 0.382814 0.516571 0.065109
O O10 0.500000 0.500000 0.000000
O O11 0.379284 0.512277 0.940613
O O12 0.648475 0.750000 0.890505
O O13 0.731487 0.978808 0.863600
O O14 0.425945 0.250000 0.744350
O O15 0.361706 0.472282 0.694795
O O16 0.392487 0.467090 0.816803
O O17 0.782007 0.250000 0.842652
O O18 0.148581 0.750000 0.388404
#
# Coordination Sequence:
#
# PCOD9462283 Si02
#       7
#     8   8   8   8   8   8   8
#     4   8  15  29  48  66  88 119 152 186 229 277
#     4  10  19  28  43  69  97 122 152 191 232 270
#     4  12  24  35  48  67  93 126 160 194 227 265
#     4  10  20  33  47  66  93 125 158 192 229 270
#     4   9  17  29  47  69  94 123 153 187 231 278
#     4   8  15  29  47  67  89 117 153 189 227 274
#     4   9  18  33  50  68  91 122 158 193 228 272
#
# _framework density 15.727258000000001
#
# number of rings (size 3 to 8) (size 9 to 14) (size 15 to 20)
#    0.000    2.571    0.000    4.714    0.000    5.714 
#    0.000    2.857    0.000    0.000    0.000    1.000 
#    0.000    0.000    0.000    0.000    0.000    0.000 
#
# Total GULP energy -312161.949408 kJ/mol
# GULP energy per Si atom -5574.320525 kJ/mol
# Density = 1.569146 g / cm^3
# Si number density = 15.727258 Si / 1000 Ang^3
#
#
#
# Elastic Constant Matrix: (Units=GPa)
#
#
# Indices 1 2 3 4 5 6 
#
# 1 147.0942 66.2325 53.4808 0.0000 0.0000 0.0000
# 2 66.2325 65.8455 45.6469 0.0000 0.0000 0.0000
# 3 53.4808 45.6469 60.7140 0.0000 0.0000 0.0000
# 4 0.0000 0.0000 0.0000 21.7463 0.0000 0.0000
# 5 0.0000 0.0000 0.0000 0.0000 22.8405 0.0000
# 6 0.0000 0.0000 0.0000 0.0000 0.0000 25.3739
#
#
#
# Elastic Compliance Matrix: (Units=1/GPa)
#
#
# Indices 1 2 3 4 5 6 
#
# 1 0.012738 -0.010515 -0.003315 0.000000 0.000000 0.000000
# 2 -0.010515 0.040399 -0.021111 0.000000 0.000000 0.000000
# 3 -0.003315 -0.021111 0.035263 0.000000 0.000000 0.000000
# 4 0.000000 0.000000 0.000000 0.045985 0.000000 0.000000
# 5 0.000000 0.000000 0.000000 0.000000 0.043782 0.000000
# 6 0.000000 0.000000 0.000000 0.000000 0.000000 0.039411
#
#
# Mechanical properties :
#
#
# Convention : Reuss Voigt Hill
#
# Bulk Modulus (GPa) = 54.00238 67.15268 60.57753
# Shear Modulus (GPa) = 17.02809 21.21172 19.11990
#
# Velocity S-wave (km/s) = 3.29403 3.67648 3.49050
# Velocity P-wave (km/s) = 6.99134 7.79827 7.40580
#
# Compressibility (1/GPa) = 0.01851770
#
# Stress axis : x y z
#
# Youngs Moduli (GPa) = 78.50354 24.75317 28.35828
#
# Poissons Ratio (x) = 0.26028 0.09401
# Poissons Ratio (y) = 0.82545 0.59868
# Poissons Ratio (z) = 0.26026 0.52257
#
# Static dielectric constant tensor:
#      x y z
#    x 1.529000 0.000000 0.000000 
#    y 0.000000 1.521550 0.000000 
#    z 0.000000 0.000000 1.508830 
# 
# From -- ./inp_files/27516.got.cif
#   From: 2010.05.17/outbox.cif.g08.bks.cpg/sg62_14_cif.got.tgz:27516.got - 2010.06.03 15:25:27.
