data_PCOD9462765
_publ_section_title
;
Structure prediction by ZEFSAII (Michael W. Deem and Ramdas Pophale) SiO2 
 PCOD9462765
Probable space group: P N M A
;
_chemical_formula_sum "Si O2"
_cell_formula_units_Z 64
_cell_length_a 23.500680
_cell_length_b 14.376315
_cell_length_c 9.185609
_cell_angle_alpha 90.000000
_cell_angle_beta 90.000000
_cell_angle_gamma 90.000000
_cell_volume 3103.387196
_symmetry_space_group_name_H-M "P N M A"
_symmetry_group_IT_number 62
_symmetry_cell_setting 'orthorhombic'
loop_
_space_group_symop_operation_xyz
x,y,z
1/2-x,-y,1/2+z
1/2+x,1/2-y,1/2-z
-x,1/2+y,-z
-x,-y,-z
1/2+x,y,1/2-z
1/2-x,1/2+y,1/2+z
x,1/2-y,z
loop_
_atom_site_type_symbol
_atom_site_label
_atom_site_fract_x
_atom_site_fract_y
_atom_site_fract_z
Si Si1 0.464541 0.464495 0.637882
Si Si2 0.697865 0.949054 0.765572
Si Si3 0.847481 0.052538 0.587432
Si Si4 0.901726 0.355986 0.089544
Si Si5 0.748129 0.641904 0.277531
Si Si6 0.479756 0.652465 0.771277
Si Si7 0.296462 0.643624 0.899019
Si Si8 0.520607 0.904077 0.068118
O O1 0.500000 0.500000 0.500000
O O2 0.416721 0.401980 0.564569
O O3 0.447631 0.559613 0.720035
O O4 0.497037 0.404476 0.761971
O O5 0.683589 0.931930 0.933482
O O6 0.645178 0.914677 0.671567
O O7 0.752868 0.888662 0.724798
O O8 0.709760 0.057752 0.730018
O O9 0.811577 0.104320 0.713286
O O10 0.910871 0.093708 0.574895
O O11 0.842898 0.939363 0.598224
O O12 0.882739 0.250000 0.070884
O O13 0.958813 0.354835 0.189614
O O14 0.757358 0.750000 0.232085
O O15 0.758845 0.640408 0.451748
O O16 0.452819 0.750000 0.723936
O O17 0.493596 0.657920 0.942716
O O18 0.317112 0.750000 0.883763
O O19 0.500000 0.000000 0.000000
#
# Coordination Sequence:
#
# PCOD9462765 Si02
#       8
#     8   8   8   8   8   8   8   8
#     4   9  20  36  54  78 114 150 184 238 297 348
#     4  10  19  34  56  81 112 145 185 231 285 342
#     4  10  20  35  56  81 112 148 189 235 287 344
#     4  10  19  32  54  82 109 142 186 235 288 345
#     4   9  20  36  54  79 112 145 183 231 284 341
#     4   9  18  35  56  79 108 145 190 239 291 344
#     4   9  19  36  56  80 110 146 184 229 286 349
#     4  10  20  36  56  81 111 148 191 240 291 340
#
# _framework density 20.622629
#
# number of rings (size 3 to 8) (size 9 to 14) (size 15 to 20)
#    0.000    2.500    1.250    0.375    1.750    2.000 
#    0.000    3.125    0.000    1.500    0.000    0.000 
#    0.000    0.000    0.000    0.000    0.000    0.000 
#
# Total GULP energy -356288.750429 kJ/mol
# GULP energy per Si atom -5567.011725 kJ/mol
# Density = 2.057569 g / cm^3
# Si number density = 20.622629 Si / 1000 Ang^3
#
#
#
# Elastic Constant Matrix: (Units=GPa)
#
#
# Indices 1 2 3 4 5 6 
#
# 1 28.9452 6.7607 27.7034 0.0000 0.0000 0.0000
# 2 6.7607 136.6263 34.3986 0.0000 0.0000 0.0000
# 3 27.7034 34.3986 112.7633 0.0000 0.0000 0.0000
# 4 0.0000 0.0000 0.0000 17.1038 0.0000 0.0000
# 5 0.0000 0.0000 0.0000 0.0000 30.3199 0.0000
# 6 0.0000 0.0000 0.0000 0.0000 0.0000 9.2875
#
#
#
# Elastic Compliance Matrix: (Units=1/GPa)
#
#
# Indices 1 2 3 4 5 6 
#
# 1 0.045215 0.000606 -0.011293 0.000000 0.000000 0.000000
# 2 0.000606 0.007936 -0.002570 0.000000 0.000000 0.000000
# 3 -0.011293 -0.002570 0.012427 0.000000 0.000000 0.000000
# 4 0.000000 0.000000 0.000000 0.058467 0.000000 0.000000
# 5 0.000000 0.000000 0.000000 0.000000 0.032982 0.000000
# 6 0.000000 0.000000 0.000000 0.000000 0.000000 0.107672
#
#
# Mechanical properties :
#
#
# Convention : Reuss Voigt Hill
#
# Bulk Modulus (GPa) = 25.59912 46.22890 35.91401
# Shear Modulus (GPa) = 16.43475 25.30704 20.87089
#
# Velocity S-wave (km/s) = 2.82605 3.50687 3.18471
# Velocity P-wave (km/s) = 4.80509 6.23400 5.56559
#
# Compressibility (1/GPa) = 0.03906384
#
# Stress axis : x y z
#
# Youngs Moduli (GPa) = 22.11643 126.00391 80.47288
#
# Poissons Ratio (x) = -0.07635 0.90880
# Poissons Ratio (y) = -0.01340 0.20680
# Poissons Ratio (z) = 0.24977 0.32381
#
# Static dielectric constant tensor:
#      x y z
#    x 1.768990 0.000000 0.000000 
#    y 0.000000 1.796330 0.000000 
#    z 0.000000 0.000000 1.762320 
# 
# From -- ./inp_files/9522.got.cif
#   From: 2010.05.17/outbox.cif.g08.bks.cpg/sg62_5_cif.got.tgz:9522.got - 2010.06.03 15:25:27.
