data_PCOD9462979
_publ_section_title
;
Structure prediction by ZEFSAII (Michael W. Deem and Ramdas Pophale) SiO2 
 PCOD9462979
Probable space group: P N M A
;
_chemical_formula_sum "Si O2"
_cell_formula_units_Z 56
_cell_length_a 18.081386
_cell_length_b 8.672506
_cell_length_c 19.878709
_cell_angle_alpha 90.000000
_cell_angle_beta 90.000000
_cell_angle_gamma 90.000000
_cell_volume 3117.198817
_symmetry_space_group_name_H-M "P N M A"
_symmetry_group_IT_number 62
_symmetry_cell_setting 'orthorhombic'
loop_
_space_group_symop_operation_xyz
x,y,z
1/2-x,-y,1/2+z
1/2+x,1/2-y,1/2-z
-x,1/2+y,-z
-x,-y,-z
1/2+x,y,1/2-z
1/2-x,1/2+y,1/2+z
x,1/2-y,z
loop_
_atom_site_type_symbol
_atom_site_label
_atom_site_fract_x
_atom_site_fract_y
_atom_site_fract_z
Si Si1 0.930345 0.938019 0.689598
Si Si2 0.307027 0.933950 0.038841
Si Si3 0.148435 0.063848 0.053839
Si Si4 0.963487 0.434880 0.432064
Si Si5 0.124633 0.065877 0.899147
Si Si6 0.475105 0.563550 0.661419
Si Si7 0.717576 0.435430 0.118072
O O1 0.929873 0.750000 0.689658
O O2 0.848236 0.986365 0.667025
O O3 0.988432 0.985846 0.632211
O O4 0.953489 0.988894 0.763735
O O5 0.311204 0.750000 0.044842
O O6 0.229331 0.994801 0.067092
O O7 0.379183 0.009125 0.071104
O O8 0.305953 0.972474 0.958849
O O9 0.153968 0.250000 0.055113
O O10 0.087261 0.014927 0.107697
O O11 0.124970 0.017591 0.978059
O O12 0.965911 0.250000 0.435094
O O13 0.000000 0.500000 0.500000
O O14 0.121102 0.250000 0.896919
O O15 0.054565 0.996274 0.861611
O O16 0.202835 0.009630 0.869701
O O17 0.476794 0.750000 0.661256
O O18 0.724817 0.250000 0.122102
#
# Coordination Sequence:
#
# PCOD9462979 Si02
#       7
#     8   8   8   8   8   8   8
#     4   9  19  36  56  78 105 141 186 224 260 315
#     4  10  19  33  55  83 110 138 177 221 270 321
#     4   9  19  35  56  82 109 139 179 227 273 316
#     4  11  20  34  56  81 109 140 180 226 268 316
#     4  10  20  34  54  82 112 139 174 223 275 324
#     4  10  20  37  58  79 105 143 187 225 266 319
#     4   9  17  34  56  77 103 138 180 220 260 315
#
# _framework density 17.964846999999999
#
# number of rings (size 3 to 8) (size 9 to 14) (size 15 to 20)
#    0.000    2.286    1.429    1.714    0.000    1.714 
#    2.571    2.143    0.000    0.000    0.000    0.000 
#    0.000    0.000    0.000    0.000    0.000    0.000 
#
# Total GULP energy -312558.997389 kJ/mol
# GULP energy per Si atom -5581.410668 kJ/mol
# Density = 1.792396 g / cm^3
# Si number density = 17.964847 Si / 1000 Ang^3
#
#
#
# Elastic Constant Matrix: (Units=GPa)
#
#
# Indices 1 2 3 4 5 6 
#
# 1 199.3050 38.1795 109.9443 0.0000 0.0000 0.0000
# 2 38.1795 18.8195 26.9406 0.0000 0.0000 0.0000
# 3 109.9443 26.9406 118.5457 0.0000 0.0000 0.0000
# 4 0.0000 0.0000 0.0000 17.7833 0.0000 0.0000
# 5 0.0000 0.0000 0.0000 0.0000 18.2874 0.0000
# 6 0.0000 0.0000 0.0000 0.0000 0.0000 33.0115
#
#
#
# Elastic Compliance Matrix: (Units=1/GPa)
#
#
# Indices 1 2 3 4 5 6 
#
# 1 0.011958 -0.012425 -0.008266 0.000000 0.000000 0.000000
# 2 -0.012425 0.091670 -0.009309 0.000000 0.000000 0.000000
# 3 -0.008266 -0.009309 0.018218 0.000000 0.000000 0.000000
# 4 0.000000 0.000000 0.000000 0.056232 0.000000 0.000000
# 5 0.000000 0.000000 0.000000 0.000000 0.054682 0.000000
# 6 0.000000 0.000000 0.000000 0.000000 0.000000 0.030293
#
#
# Mechanical properties :
#
#
# Convention : Reuss Voigt Hill
#
# Bulk Modulus (GPa) = 16.16970 76.31099 46.24035
# Shear Modulus (GPa) = 14.54888 24.59017 19.56953
#
# Velocity S-wave (km/s) = 2.84888 3.70373 3.30407
# Velocity P-wave (km/s) = 4.45441 7.80131 6.35225
#
# Compressibility (1/GPa) = 0.06184406
#
# Stress axis : x y z
#
# Youngs Moduli (GPa) = 83.62838 10.90867 54.89187
#
# Poissons Ratio (x) = 0.13554 0.45375
# Poissons Ratio (y) = 1.03911 0.51099
# Poissons Ratio (z) = 0.69129 0.10155
#
# Static dielectric constant tensor:
#      x y z
#    x 1.593200 0.000000 0.000000 
#    y 0.000000 1.608200 0.000000 
#    z 0.000000 0.000000 1.605010 
# 
# From -- ./inp_files/27097.got.cif
#   From: 2010.05.17/outbox.cif.g08.bks.cpg/sg62_14_cif.got.tgz:27097.got - 2010.06.03 15:25:27.
