data_PCOD9462573
_publ_section_title
;
Structure prediction by ZEFSAII (Michael W. Deem and Ramdas Pophale) SiO2 
 PCOD9462573
Probable space group: P N M A
;
_chemical_formula_sum "Si O2"
_cell_formula_units_Z 48
_cell_length_a 20.348826
_cell_length_b 9.819863
_cell_length_c 11.100038
_cell_angle_alpha 90.000000
_cell_angle_beta 90.000000
_cell_angle_gamma 90.000000
_cell_volume 2218.039380
_symmetry_space_group_name_H-M "P N M A"
_symmetry_group_IT_number 62
_symmetry_cell_setting 'orthorhombic'
loop_
_space_group_symop_operation_xyz
x,y,z
1/2-x,-y,1/2+z
1/2+x,1/2-y,1/2-z
-x,1/2+y,-z
-x,-y,-z
1/2+x,y,1/2-z
1/2-x,1/2+y,1/2+z
x,1/2-y,z
loop_
_atom_site_type_symbol
_atom_site_label
_atom_site_fract_x
_atom_site_fract_y
_atom_site_fract_z
Si Si1 0.477712 0.598421 0.667492
Si Si2 0.582059 0.102194 0.598930
Si Si3 0.237481 0.407669 0.937034
Si Si4 0.409074 0.902000 0.067522
Si Si5 0.063222 0.905064 0.360064
Si Si6 0.228425 0.089911 0.668567
O O1 0.480976 0.750000 0.720316
O O2 0.451496 0.606523 0.532566
O O3 0.548574 0.526373 0.661911
O O4 0.431452 0.498775 0.743260
O O5 0.565505 0.250000 0.657411
O O6 0.658603 0.094495 0.574437
O O7 0.259100 0.250000 0.955601
O O8 0.256854 0.452168 0.799768
O O9 0.252673 0.501833 0.051715
O O10 0.399415 0.750000 0.014297
O O11 0.484958 0.907238 0.108104
O O12 0.351769 0.916515 0.166276
O O13 0.400793 0.020473 0.969674
O O14 0.083634 0.750000 0.342525
O O15 0.245365 0.250000 0.652593
#
# Coordination Sequence:
#
# PCOD9462573 Si02
#       6
#     8   8   8   8   8   8
#     4  10  19  31  52  82 112 143 182 228 279 338
#     4   9  19  36  55  76 107 147 186 227 280 337
#     4  10  22  41  62  84 114 152 194 240 290 344
#     4   9  19  36  55  76 106 144 185 228 276 332
#     4  10  19  32  53  80 111 146 182 225 280 339
#     4  10  22  40  61  84 112 149 193 240 289 341
#
# _framework density 21.640734999999999
#
# number of rings (size 3 to 8) (size 9 to 14) (size 15 to 20)
#    0.000    2.333    0.000    2.000    0.000    7.333 
#    0.000    6.667    0.000    0.000    0.000    0.000 
#    0.000    0.000    0.000    0.000    0.000    0.000 
#
# Total GULP energy -267832.245888 kJ/mol
# GULP energy per Si atom -5579.838456 kJ/mol
# Density = 2.159148 g / cm^3
# Si number density = 21.640735 Si / 1000 Ang^3
#
#
#
# Elastic Constant Matrix: (Units=GPa)
#
#
# Indices 1 2 3 4 5 6 
#
# 1 37.7326 14.2579 12.4724 0.0000 0.0000 0.0000
# 2 14.2579 148.2366 77.9683 0.0000 0.0000 0.0000
# 3 12.4724 77.9683 119.6477 0.0000 0.0000 0.0000
# 4 0.0000 0.0000 0.0000 43.5981 0.0000 0.0000
# 5 0.0000 0.0000 0.0000 0.0000 35.5560 0.0000
# 6 0.0000 0.0000 0.0000 0.0000 0.0000 26.6234
#
#
#
# Elastic Compliance Matrix: (Units=1/GPa)
#
#
# Indices 1 2 3 4 5 6 
#
# 1 0.027742 -0.001746 -0.001754 0.000000 0.000000 0.000000
# 2 -0.001746 0.010374 -0.006578 0.000000 0.000000 0.000000
# 3 -0.001754 -0.006578 0.012827 0.000000 0.000000 0.000000
# 4 0.000000 0.000000 0.000000 0.022937 0.000000 0.000000
# 5 0.000000 0.000000 0.000000 0.000000 0.028125 0.000000
# 6 0.000000 0.000000 0.000000 0.000000 0.000000 0.037561
#
#
# Mechanical properties :
#
#
# Convention : Reuss Voigt Hill
#
# Bulk Modulus (GPa) = 32.48141 57.22379 44.85260
# Shear Modulus (GPa) = 29.41461 34.55005 31.98233
#
# Velocity S-wave (km/s) = 3.69077 3.99999 3.84849
# Velocity P-wave (km/s) = 5.76232 6.91616 6.36544
#
# Compressibility (1/GPa) = 0.03078684
#
# Stress axis : x y z
#
# Youngs Moduli (GPa) = 36.04670 96.39714 77.95836
#
# Poissons Ratio (x) = 0.16826 0.13677
# Poissons Ratio (y) = 0.06292 0.51282
# Poissons Ratio (z) = 0.06324 0.63411
#
# Static dielectric constant tensor:
#      x y z
#    x 1.819800 0.000000 0.000000 
#    y 0.000000 1.797380 0.000000 
#    z 0.000000 0.000000 1.850580 
# 
# From -- ./inp_files/15134.got.cif
#   From: 2010.05.17/outbox.cif.g08.bks.cpg/sg62_8_cif.got.tgz:15134.got - 2010.06.03 15:25:27.
