data_PCOD9462829
_publ_section_title
;
Structure prediction by ZEFSAII (Michael W. Deem and Ramdas Pophale) SiO2 
 PCOD9462829
Probable space group: P N M A
;
_chemical_formula_sum "Si O2"
_cell_formula_units_Z 32
_cell_length_a 5.054204
_cell_length_b 43.308957
_cell_length_c 7.763654
_cell_angle_alpha 90.000000
_cell_angle_beta 90.000000
_cell_angle_gamma 90.000000
_cell_volume 1699.404109
_symmetry_space_group_name_H-M "P N M A"
_symmetry_group_IT_number 62
_symmetry_cell_setting 'orthorhombic'
loop_
_space_group_symop_operation_xyz
x,y,z
1/2-x,-y,1/2+z
1/2+x,1/2-y,1/2-z
-x,1/2+y,-z
-x,-y,-z
1/2+x,y,1/2-z
1/2-x,1/2+y,1/2+z
x,1/2-y,z
loop_
_atom_site_type_symbol
_atom_site_label
_atom_site_fract_x
_atom_site_fract_y
_atom_site_fract_z
Si Si1 0.942123 0.972543 0.130251
Si Si2 0.446933 0.405974 0.632581
Si Si3 0.565903 0.215162 0.368647
Si Si4 0.936614 0.840047 0.130804
O O1 0.151041 0.974232 0.288065
O O2 0.990253 0.938715 0.046031
O O3 0.000000 0.000000 0.000000
O O4 0.647519 0.405863 0.797469
O O5 0.511611 0.373493 0.542999
O O6 0.354708 0.212227 0.214904
O O7 0.537015 0.250000 0.440750
O O8 0.520355 0.188592 0.506379
O O9 0.145474 0.838900 0.287677
#
# Coordination Sequence:
#
# PCOD9462829 Si02
#       4
#     8   8   8   8
#     4  10  19  33  51  72  99 130 163 199 242 289
#     4   8  16  30  48  69  96 127 156 195 246 287
#     4  10  21  36  51  71 103 135 157 191 250 299
#     4  10  19  33  54  76  95 124 169 207 234 279
#
# _framework density 18.830128999999999
#
# number of rings (size 3 to 8) (size 9 to 14) (size 15 to 20)
#    0.000    2.500    0.000    2.250    0.000    1.000 
#    0.000    2.500    0.000    0.000    0.000    0.000 
#    0.000    0.000    0.000    0.000    0.000    0.000 
#
# Total GULP energy -178358.164968 kJ/mol
# GULP energy per Si atom -5573.692655 kJ/mol
# Density = 1.878727 g / cm^3
# Si number density = 18.830129 Si / 1000 Ang^3
#
#
#
# Elastic Constant Matrix: (Units=GPa)
#
#
# Indices 1 2 3 4 5 6 
#
# 1 65.6936 -12.0044 -8.8703 0.0000 0.0000 0.0000
# 2 -12.0044 202.5208 46.9497 0.0000 0.0000 0.0000
# 3 -8.8703 46.9497 15.5959 0.0000 0.0000 0.0000
# 4 0.0000 0.0000 0.0000 31.9796 0.0000 0.0000
# 5 0.0000 0.0000 0.0000 0.0000 12.5150 0.0000
# 6 0.0000 0.0000 0.0000 0.0000 0.0000 25.5943
#
#
#
# Elastic Compliance Matrix: (Units=1/GPa)
#
#
# Indices 1 2 3 4 5 6 
#
# 1 0.017508 -0.004206 0.022619 0.000000 0.000000 0.000000
# 2 -0.004206 0.017355 -0.054636 0.000000 0.000000 0.000000
# 3 0.022619 -0.054636 0.241460 0.000000 0.000000 0.000000
# 4 0.000000 0.000000 0.000000 0.031270 0.000000 0.000000
# 5 0.000000 0.000000 0.000000 0.000000 0.079904 0.000000
# 6 0.000000 0.000000 0.000000 0.000000 0.000000 0.039071
#
#
# Mechanical properties :
#
#
# Convention : Reuss Voigt Hill
#
# Bulk Modulus (GPa) = 4.90492 37.32892 21.11692
# Shear Modulus (GPa) = 8.81878 31.20015 20.00946
#
# Velocity S-wave (km/s) = 2.16645 4.07495 3.26334
# Velocity P-wave (km/s) = 2.97800 6.48131 5.04360
#
# Compressibility (1/GPa) = 0.20387687
#
# Stress axis : x y z
#
# Youngs Moduli (GPa) = 57.11741 57.62171 4.14147
#
# Poissons Ratio (x) = 0.24236 -0.09368
# Poissons Ratio (y) = 0.24024 0.22627
# Poissons Ratio (z) = -1.29196 3.14823
#
# Static dielectric constant tensor:
#      x y z
#    x 1.639680 0.000000 0.000000 
#    y 0.000000 1.718250 0.000000 
#    z 0.000000 0.000000 1.598720 
# 
# From -- ./inp_files/3805.got.cif
#   From: 2010.05.17/outbox.cif.g08.bks.cpg/sg62_2_cif.got.tgz:3805.got - 2010.06.03 15:25:27.
