data_PCOD9462878
_publ_section_title
;
Structure prediction by ZEFSAII (Michael W. Deem and Ramdas Pophale) SiO2 
 PCOD9462878
Probable space group: P N M A
;
_chemical_formula_sum "Si O2"
_cell_formula_units_Z 64
_cell_length_a 9.277663
_cell_length_b 11.368156
_cell_length_c 31.727676
_cell_angle_alpha 90.000000
_cell_angle_beta 90.000000
_cell_angle_gamma 90.000000
_cell_volume 3346.315459
_symmetry_space_group_name_H-M "P N M A"
_symmetry_group_IT_number 62
_symmetry_cell_setting 'orthorhombic'
loop_
_space_group_symop_operation_xyz
x,y,z
1/2-x,-y,1/2+z
1/2+x,1/2-y,1/2-z
-x,1/2+y,-z
-x,-y,-z
1/2+x,y,1/2-z
1/2-x,1/2+y,1/2+z
x,1/2-y,z
loop_
_atom_site_type_symbol
_atom_site_label
_atom_site_fract_x
_atom_site_fract_y
_atom_site_fract_z
Si Si1 0.422877 0.884091 0.661359
Si Si2 0.128617 0.119375 0.705276
Si Si3 0.868706 0.113343 0.044579
Si Si4 0.431043 0.612616 0.910505
Si Si5 0.191350 0.461204 0.613869
Si Si6 0.625127 0.008098 0.251794
Si Si7 0.264364 0.110202 0.329967
Si Si8 0.940337 0.381619 0.945607
O O1 0.423756 0.750000 0.648718
O O2 0.294519 0.944386 0.636709
O O3 0.581932 0.936409 0.653832
O O4 0.400669 0.897250 0.711593
O O5 0.083465 0.250000 0.716475
O O6 0.288157 0.093101 0.723174
O O7 0.020272 0.032349 0.729020
O O8 0.127539 0.105486 0.654678
O O9 0.904281 0.250000 0.059406
O O10 0.702128 0.094234 0.057574
O O11 0.891203 0.114568 0.994375
O O12 0.962357 0.000267 0.060312
O O13 0.475513 0.750000 0.913498
O O14 0.566177 0.525794 0.912412
O O15 0.358539 0.593098 0.864633
O O16 0.300005 0.390751 0.584044
O O17 0.723146 0.054381 0.214069
O O18 0.280225 0.250000 0.324133
O O19 0.007413 0.250000 0.938696
#
# Coordination Sequence:
#
# PCOD9462878 Si02
#       8
#     8   8   8   8   8   8   8   8
#     4  10  21  35  55  82 111 147 190 236 292 350
#     4  11  23  38  55  74 105 150 198 243 284 342
#     4   9  20  40  67  92 121 158 201 250 299 356
#     4  10  20  35  58  89 120 151 192 244 302 360
#     4  11  22  36  58  83 124 152 193 237 298 355
#     4  11  20  37  54  75 104 141 190 236 289 345
#     4  10  19  33  53  78 109 141 179 231 287 346
#     4  10  21  40  64  92 124 162 203 244 295 360
#
# _framework density 19.125513999999999
#
# number of rings (size 3 to 8) (size 9 to 14) (size 15 to 20)
#    0.000    1.750    2.500    2.250    0.000    2.500 
#    0.000    1.250    0.000    0.000    0.000    0.000 
#    0.000    0.000    0.000    0.000    0.000    0.000 
#
# Total GULP energy -356706.775324 kJ/mol
# GULP energy per Si atom -5573.543364 kJ/mol
# Density = 1.908198 g / cm^3
# Si number density = 19.125514 Si / 1000 Ang^3
#
#
#
# Elastic Constant Matrix: (Units=GPa)
#
#
# Indices 1 2 3 4 5 6 
#
# 1 70.7383 33.9352 11.6569 0.0000 0.0000 0.0000
# 2 33.9352 69.7706 21.7066 0.0000 0.0000 0.0000
# 3 11.6569 21.7066 63.2287 0.0000 0.0000 0.0000
# 4 0.0000 0.0000 0.0000 6.2736 0.0000 0.0000
# 5 0.0000 0.0000 0.0000 0.0000 34.7916 0.0000
# 6 0.0000 0.0000 0.0000 0.0000 0.0000 13.3070
#
#
#
# Elastic Compliance Matrix: (Units=1/GPa)
#
#
# Indices 1 2 3 4 5 6 
#
# 1 0.018446 -0.008860 -0.000359 0.000000 0.000000 0.000000
# 2 -0.008860 0.020302 -0.005336 0.000000 0.000000 0.000000
# 3 -0.000359 -0.005336 0.017714 0.000000 0.000000 0.000000
# 4 0.000000 0.000000 0.000000 0.159398 0.000000 0.000000
# 5 0.000000 0.000000 0.000000 0.000000 0.028743 0.000000
# 6 0.000000 0.000000 0.000000 0.000000 0.000000 0.075148
#
#
# Mechanical properties :
#
#
# Convention : Reuss Voigt Hill
#
# Bulk Modulus (GPa) = 36.56156 37.59279 37.07718
# Shear Modulus (GPa) = 13.96726 19.97037 16.96882
#
# Velocity S-wave (km/s) = 2.70533 3.23487 2.98188
# Velocity P-wave (km/s) = 5.37741 5.80095 5.59319
#
# Compressibility (1/GPa) = 0.02735113
#
# Stress axis : x y z
#
# Youngs Moduli (GPa) = 54.21140 49.25531 56.45319
#
# Poissons Ratio (x) = 0.43641 0.02027
# Poissons Ratio (y) = 0.48033 0.30126
# Poissons Ratio (z) = 0.01946 0.26285
#
# Static dielectric constant tensor:
#      x y z
#    x 1.681250 0.000000 0.000000 
#    y 0.000000 1.672480 0.000000 
#    z 0.000000 0.000000 1.672670 
# 
# From -- ./inp_files/32223.got.cif
#   From: 2010.05.17/outbox.cif.g08.bks.cpg/sg62_17_cif.got.tgz:32223.got - 2010.06.03 15:25:27.
