data_PCOD9462281
_publ_section_title
;
Structure prediction by ZEFSAII (Michael W. Deem and Ramdas Pophale) SiO2 
 PCOD9462281
Probable space group: P N M A
;
_chemical_formula_sum "Si O2"
_cell_formula_units_Z 64
_cell_length_a 34.989947
_cell_length_b 8.971505
_cell_length_c 13.825904
_cell_angle_alpha 90.000000
_cell_angle_beta 90.000000
_cell_angle_gamma 90.000000
_cell_volume 4340.123875
_symmetry_space_group_name_H-M "P N M A"
_symmetry_group_IT_number 62
_symmetry_cell_setting 'orthorhombic'
loop_
_space_group_symop_operation_xyz
x,y,z
1/2-x,-y,1/2+z
1/2+x,1/2-y,1/2-z
-x,1/2+y,-z
-x,-y,-z
1/2+x,y,1/2-z
1/2-x,1/2+y,1/2+z
x,1/2-y,z
loop_
_atom_site_type_symbol
_atom_site_label
_atom_site_fract_x
_atom_site_fract_y
_atom_site_fract_z
Si Si1 0.193230 0.571272 0.203308
Si Si2 0.229338 0.071295 0.390479
Si Si3 0.037701 0.578661 0.879987
Si Si4 0.883128 0.926627 0.118262
Si Si5 0.459905 0.421516 0.615196
Si Si6 0.880633 0.927492 0.888971
Si Si7 0.189959 0.574079 0.790286
Si Si8 0.264853 0.071385 0.096026
O O1 0.195324 0.750000 0.203588
O O2 0.203465 0.504646 0.308384
O O3 0.152341 0.514240 0.167180
O O4 0.225487 0.503594 0.131941
O O5 0.223817 0.250000 0.390431
O O6 0.273316 0.042655 0.358085
O O7 0.223150 0.000115 0.494977
O O8 0.035531 0.750000 0.849340
O O9 0.077599 0.505099 0.849923
O O10 0.999803 0.490266 0.849313
O O11 0.038112 0.576275 0.997671
O O12 0.887678 0.750000 0.127021
O O13 0.846651 0.982924 0.176900
O O14 0.876830 0.959897 0.004036
O O15 0.455595 0.250000 0.645104
O O16 0.422689 0.517023 0.641467
O O17 0.876849 0.750000 0.875549
O O18 0.181457 0.750000 0.798650
O O19 0.204578 0.544199 0.681557
O O20 0.259526 0.250000 0.087912
#
# Coordination Sequence:
#
# PCOD9462281 Si02
#       8
#     8   8   8   8   8   8   8   8
#     4  11  21  32  47  67  90 118 151 186 224 265
#     4  10  20  34  50  67  88 116 149 186 227 269
#     4   9  16  26  40  57  82 115 146 177 216 260
#     4  10  19  28  42  63  87 116 150 186 220 257
#     4   9  16  26  40  59  83 112 147 181 215 260
#     4  10  19  30  43  62  89 119 151 187 224 262
#     4   9  19  32  45  63  88 115 145 181 220 263
#     4  10  20  34  49  66  89 117 149 186 226 268
#
# _framework density 14.746123000000001
#
# number of rings (size 3 to 8) (size 9 to 14) (size 15 to 20)
#    0.000    2.250    0.000    4.875    0.000    9.500 
#    0.000    0.000    0.000    0.000    0.000    0.000 
#    0.000    1.000    0.000    3.750    0.000    5.750 
#
# Total GULP energy -356990.885080 kJ/mol
# GULP energy per Si atom -5577.982579 kJ/mol
# Density = 1.471256 g / cm^3
# Si number density = 14.746123 Si / 1000 Ang^3
#
#
#
# Elastic Constant Matrix: (Units=GPa)
#
#
# Indices 1 2 3 4 5 6 
#
# 1 106.1065 62.5625 33.8459 0.0000 0.0000 0.0000
# 2 62.5625 96.2255 41.6398 0.0000 0.0000 0.0000
# 3 33.8459 41.6398 56.7254 0.0000 0.0000 0.0000
# 4 0.0000 0.0000 0.0000 21.3370 0.0000 0.0000
# 5 0.0000 0.0000 0.0000 0.0000 15.1051 0.0000
# 6 0.0000 0.0000 0.0000 0.0000 0.0000 31.1232
#
#
#
# Elastic Compliance Matrix: (Units=1/GPa)
#
#
# Indices 1 2 3 4 5 6 
#
# 1 0.015565 -0.008941 -0.002724 0.000000 0.000000 0.000000
# 2 -0.008941 0.020366 -0.009615 0.000000 0.000000 0.000000
# 3 -0.002724 -0.009615 0.026312 0.000000 0.000000 0.000000
# 4 0.000000 0.000000 0.000000 0.046867 0.000000 0.000000
# 5 0.000000 0.000000 0.000000 0.000000 0.066203 0.000000
# 6 0.000000 0.000000 0.000000 0.000000 0.000000 0.032130
#
#
# Mechanical properties :
#
#
# Convention : Reuss Voigt Hill
#
# Bulk Modulus (GPa) = 50.80476 59.46155 55.13315
# Shear Modulus (GPa) = 19.48817 21.58032 20.53425
#
# Velocity S-wave (km/s) = 3.63930 3.82967 3.73569
# Velocity P-wave (km/s) = 7.22406 7.74378 7.48843
#
# Compressibility (1/GPa) = 0.01968320
#
# Stress axis : x y z
#
# Youngs Moduli (GPa) = 64.24539 49.10038 38.00540
#
# Poissons Ratio (x) = 0.43903 0.10352
# Poissons Ratio (y) = 0.57444 0.36543
# Poissons Ratio (z) = 0.17499 0.47211
#
# Static dielectric constant tensor:
#      x y z
#    x 1.474690 0.000000 0.000000 
#    y 0.000000 1.494860 0.000000 
#    z 0.000000 0.000000 1.467290 
# 
# From -- ./inp_files/21250.got.cif
#   From: 2010.05.17/outbox.cif.g08.bks.cpg/sg62_11_cif.got.tgz:21250.got - 2010.06.03 15:25:27.
