data_PCOD9462352
_publ_section_title
;
Structure prediction by ZEFSAII (Michael W. Deem and Ramdas Pophale) SiO2 
 PCOD9462352
Probable space group: P N M A
;
_chemical_formula_sum "Si O2"
_cell_formula_units_Z 64
_cell_length_a 22.643365
_cell_length_b 7.491942
_cell_length_c 16.185002
_cell_angle_alpha 90.000000
_cell_angle_beta 90.000000
_cell_angle_gamma 90.000000
_cell_volume 2745.668689
_symmetry_space_group_name_H-M "P N M A"
_symmetry_group_IT_number 62
_symmetry_cell_setting 'orthorhombic'
loop_
_space_group_symop_operation_xyz
x,y,z
1/2-x,-y,1/2+z
1/2+x,1/2-y,1/2-z
-x,1/2+y,-z
-x,-y,-z
1/2+x,y,1/2-z
1/2-x,1/2+y,1/2+z
x,1/2-y,z
loop_
_atom_site_type_symbol
_atom_site_label
_atom_site_fract_x
_atom_site_fract_y
_atom_site_fract_z
Si Si1 0.567803 0.966684 0.645824
Si Si2 0.055605 0.541717 0.210766
Si Si3 0.073087 0.532489 0.571451
Si Si4 0.938397 0.043083 0.610697
Si Si5 0.202297 0.964816 0.819357
Si Si6 0.195780 0.532054 0.640603
Si Si7 0.281117 0.958580 0.497746
Si Si8 0.585990 0.545627 0.467072
O O1 0.566863 0.750000 0.646402
O O2 0.633655 0.021789 0.670889
O O3 0.557668 0.030068 0.551166
O O4 0.515397 0.030479 0.703773
O O5 0.073307 0.750000 0.211198
O O6 0.075532 0.464062 0.299028
O O7 0.076601 0.461726 0.123106
O O8 0.920092 0.250000 0.612898
O O9 0.084629 0.470879 0.476812
O O10 0.127804 0.479221 0.628124
O O11 0.009496 0.465209 0.599918
O O12 0.930569 0.250000 0.428873
O O13 0.203078 0.750000 0.820470
O O14 0.221663 0.025307 0.728751
O O15 0.235703 0.023808 0.901649
O O16 0.195579 0.750000 0.640040
O O17 0.233656 0.472240 0.562546
O O18 0.290208 0.750000 0.514589
O O19 0.344402 0.047153 0.512463
O O20 0.565569 0.750000 0.461099
#
# Coordination Sequence:
#
# PCOD9462352 Si02
#       8
#     8   8   8   8   8   8   8   8
#     4   9  17  29  49  73  96 128 169 203 239 297
#     4  10  19  30  46  72 102 131 163 201 246 298
#     4   9  17  33  54  71  95 132 165 197 243 300
#     4   9  18  31  48  74 104 128 156 202 250 289
#     4   9  18  35  55  74 100 134 167 204 256 308
#     4   9  18  34  56  77  99 132 172 208 249 302
#     4  10  20  35  53  77 103 128 170 221 255 288
#     4   9  19  35  49  66  99 138 169 199 251 309
#
# _framework density 23.309439999999999
#
# number of rings (size 3 to 8) (size 9 to 14) (size 15 to 20)
#    0.000    2.750    0.000    2.250    0.000    4.000 
#    2.250    3.125    0.000    0.000    0.000    0.000 
#    0.000    0.000    0.000    0.000    0.000    0.000 
#
# Total GULP energy -357211.147635 kJ/mol
# GULP energy per Si atom -5581.424182 kJ/mol
# Density = 2.325639 g / cm^3
# Si number density = 23.309440 Si / 1000 Ang^3
#
#
#
# Elastic Constant Matrix: (Units=GPa)
#
#
# Indices 1 2 3 4 5 6 
#
# 1 15.4110 -3.7571 5.3706 0.0000 0.0000 0.0000
# 2 -3.7571 70.4714 1.5037 0.0000 0.0000 0.0000
# 3 5.3706 1.5037 184.1755 0.0000 0.0000 0.0000
# 4 0.0000 0.0000 0.0000 11.5502 0.0000 0.0000
# 5 0.0000 0.0000 0.0000 0.0000 29.0548 0.0000
# 6 0.0000 0.0000 0.0000 0.0000 0.0000 5.7591
#
#
#
# Elastic Compliance Matrix: (Units=1/GPa)
#
#
# Indices 1 2 3 4 5 6 
#
# 1 0.066448 0.003585 -0.001967 0.000000 0.000000 0.000000
# 2 0.003585 0.014386 -0.000222 0.000000 0.000000 0.000000
# 3 -0.001967 -0.000222 0.005489 0.000000 0.000000 0.000000
# 4 0.000000 0.000000 0.000000 0.086579 0.000000 0.000000
# 5 0.000000 0.000000 0.000000 0.000000 0.034418 0.000000
# 6 0.000000 0.000000 0.000000 0.000000 0.000000 0.173638
#
#
# Mechanical properties :
#
#
# Convention : Reuss Voigt Hill
#
# Bulk Modulus (GPa) = 11.22155 30.69916 20.96036
# Shear Modulus (GPa) = 12.25878 27.06885 19.66382
#
# Velocity S-wave (km/s) = 2.29577 3.41146 2.90763
# Velocity P-wave (km/s) = 3.44268 5.35875 4.50379
#
# Compressibility (1/GPa) = 0.08911427
#
# Stress axis : x y z
#
# Youngs Moduli (GPa) = 15.04931 69.51205 182.19012
#
# Poissons Ratio (x) = -0.24917 0.35835
# Poissons Ratio (y) = -0.05394 0.04044
# Poissons Ratio (z) = 0.02960 0.01543
#
# Static dielectric constant tensor:
#      x y z
#    x 1.832300 0.000000 0.000000 
#    y 0.000000 1.908750 0.000000 
#    z 0.000000 0.000000 1.957760 
# 
# From -- ./inp_files/20884.got.cif
#   From: 2010.05.17/outbox.cif.g08.bks.cpg/sg62_11_cif.got.tgz:20884.got - 2010.06.03 15:25:27.
