data_PCOD9462493
_publ_section_title
;
Structure prediction by ZEFSAII (Michael W. Deem and Ramdas Pophale) SiO2 
 PCOD9462493
Probable space group: P N M A
;
_chemical_formula_sum "Si O2"
_cell_formula_units_Z 64
_cell_length_a 17.923733
_cell_length_b 7.665933
_cell_length_c 23.525844
_cell_angle_alpha 90.000000
_cell_angle_beta 90.000000
_cell_angle_gamma 90.000000
_cell_volume 3232.501224
_symmetry_space_group_name_H-M "P N M A"
_symmetry_group_IT_number 62
_symmetry_cell_setting 'orthorhombic'
loop_
_space_group_symop_operation_xyz
x,y,z
1/2-x,-y,1/2+z
1/2+x,1/2-y,1/2-z
-x,1/2+y,-z
-x,-y,-z
1/2+x,y,1/2-z
1/2-x,1/2+y,1/2+z
x,1/2-y,z
loop_
_atom_site_type_symbol
_atom_site_label
_atom_site_fract_x
_atom_site_fract_y
_atom_site_fract_z
Si Si1 0.272777 0.454010 0.112516
Si Si2 0.423032 0.034743 0.778593
Si Si3 0.076545 0.541509 0.031335
Si Si4 0.824401 0.050871 0.616694
Si Si5 0.074618 0.051733 0.665434
Si Si6 0.975528 0.541730 0.562531
Si Si7 0.238624 0.044732 0.987974
Si Si8 0.386329 0.048972 0.653549
O O1 0.254326 0.250000 0.107280
O O2 0.345340 0.469995 0.151992
O O3 0.201908 0.543214 0.141427
O O4 0.278226 0.521067 0.046687
O O5 0.423078 0.250000 0.782128
O O6 0.360275 0.976388 0.824734
O O7 0.507264 0.978249 0.795588
O O8 0.404170 0.974540 0.715296
O O9 0.085275 0.750000 0.034372
O O10 0.077651 0.472114 0.096271
O O11 0.150624 0.474315 0.999755
O O12 0.000000 0.500000 0.000000
O O13 0.801669 0.250000 0.630473
O O14 0.763242 0.969976 0.573583
O O15 0.896858 0.044180 0.576469
O O16 0.088199 0.250000 0.683827
O O17 0.034852 0.042321 0.604563
O O18 0.971832 0.750000 0.572148
O O19 0.000000 0.500000 0.500000
O O20 0.257229 0.250000 0.984121
O O21 0.411269 0.250000 0.656913
#
# Coordination Sequence:
#
# PCOD9462493 Si02
#       8
#     8   8   8   8   8   8   8   8
#     4  10  19  31  49  75 103 131 164 206 254 306
#     4   8  16  32  53  74  98 130 172 212 248 297
#     4  10  20  34  55  78 100 126 163 210 260 306
#     4   9  17  31  50  72  98 130 164 202 248 299
#     4  10  19  32  50  72  98 130 168 211 253 299
#     4  11  20  29  43  66  98 134 168 203 241 287
#     4   9  18  32  51  74 102 131 161 200 249 300
#     4   9  18  35  56  75  96 130 172 212 253 304
#
# _framework density 19.798911
#
# number of rings (size 3 to 8) (size 9 to 14) (size 15 to 20)
#    0.000    2.500    0.000    3.750    0.000    2.500 
#    0.000    4.375    0.000    7.500    0.000    0.000 
#    0.000    0.000    0.000    0.000    0.000    0.000 
#
# Total GULP energy -356369.705432 kJ/mol
# GULP energy per Si atom -5568.276647 kJ/mol
# Density = 1.975385 g / cm^3
# Si number density = 19.798911 Si / 1000 Ang^3
#
#
#
# Elastic Constant Matrix: (Units=GPa)
#
#
# Indices 1 2 3 4 5 6 
#
# 1 87.1557 -8.4747 80.3226 0.0000 0.0000 0.0000
# 2 -8.4747 50.5785 -1.8641 0.0000 0.0000 0.0000
# 3 80.3226 -1.8641 153.1415 0.0000 0.0000 0.0000
# 4 0.0000 0.0000 0.0000 8.7866 0.0000 0.0000
# 5 0.0000 0.0000 0.0000 0.0000 15.6135 0.0000
# 6 0.0000 0.0000 0.0000 0.0000 0.0000 23.9266
#
#
#
# Elastic Compliance Matrix: (Units=1/GPa)
#
#
# Indices 1 2 3 4 5 6 
#
# 1 0.022771 0.003377 -0.011902 0.000000 0.000000 0.000000
# 2 0.003377 0.020281 -0.001524 0.000000 0.000000 0.000000
# 3 -0.011902 -0.001524 0.012754 0.000000 0.000000 0.000000
# 4 0.000000 0.000000 0.000000 0.113810 0.000000 0.000000
# 5 0.000000 0.000000 0.000000 0.000000 0.064047 0.000000
# 6 0.000000 0.000000 0.000000 0.000000 0.000000 0.041795
#
#
# Mechanical properties :
#
#
# Convention : Reuss Voigt Hill
#
# Bulk Modulus (GPa) = 28.00603 47.87146 37.93875
# Shear Modulus (GPa) = 16.26228 24.39145 20.32687
#
# Velocity S-wave (km/s) = 2.86907 3.51374 3.20764
# Velocity P-wave (km/s) = 5.01511 6.37912 5.73779
#
# Compressibility (1/GPa) = 0.03570659
#
# Stress axis : x y z
#
# Youngs Moduli (GPa) = 43.91481 49.30751 78.40565
#
# Poissons Ratio (x) = -0.16650 0.93322
# Poissons Ratio (y) = -0.14829 0.11951
# Poissons Ratio (z) = 0.52269 0.07516
#
# Static dielectric constant tensor:
#      x y z
#    x 1.677890 0.000000 0.000000 
#    y 0.000000 1.782790 0.000000 
#    z 0.000000 0.000000 1.732790 
# 
# From -- ./inp_files/30073.got.cif
#   From: 2010.05.17/outbox.cif.g08.bks.cpg/sg62_16_cif.got.tgz:30073.got - 2010.06.03 15:25:27.
