data_PCOD9462816
_publ_section_title
;
Structure prediction by ZEFSAII (Michael W. Deem and Ramdas Pophale) SiO2 
 PCOD9462816
Probable space group: P N M A
;
_chemical_formula_sum "Si O2"
_cell_formula_units_Z 60
_cell_length_a 13.574938
_cell_length_b 17.005830
_cell_length_c 11.600851
_cell_angle_alpha 90.000000
_cell_angle_beta 90.000000
_cell_angle_gamma 90.000000
_cell_volume 2678.092275
_symmetry_space_group_name_H-M "P N M A"
_symmetry_group_IT_number 62
_symmetry_cell_setting 'orthorhombic'
loop_
_space_group_symop_operation_xyz
x,y,z
1/2-x,-y,1/2+z
1/2+x,1/2-y,1/2-z
-x,1/2+y,-z
-x,-y,-z
1/2+x,y,1/2-z
1/2-x,1/2+y,1/2+z
x,1/2-y,z
loop_
_atom_site_type_symbol
_atom_site_label
_atom_site_fract_x
_atom_site_fract_y
_atom_site_fract_z
Si Si1 0.843294 0.156379 0.607630
Si Si2 0.435641 0.056221 0.084761
Si Si3 0.278087 0.009853 0.649813
Si Si4 0.519520 0.158344 0.733484
Si Si5 0.137664 0.396489 0.964435
Si Si6 0.807298 0.659595 0.424118
Si Si7 0.129829 0.106010 0.320350
Si Si8 0.860634 0.750000 0.857598
O O1 0.831019 0.250000 0.610647
O O2 0.894297 0.129541 0.488490
O O3 0.737267 0.117020 0.609218
O O4 0.920293 0.132983 0.704543
O O5 0.337313 0.015244 0.132022
O O6 0.513447 0.086332 0.178013
O O7 0.500000 0.000000 0.000000
O O8 0.342252 0.969084 0.548434
O O9 0.314270 0.968895 0.766934
O O10 0.274837 0.102158 0.626333
O O11 0.511978 0.250000 0.696392
O O12 0.550787 0.103738 0.627929
O O13 0.601635 0.157475 0.834720
O O14 0.128936 0.319504 0.043991
O O15 0.775383 0.750000 0.434079
O O16 0.839403 0.626719 0.549012
O O17 0.150893 0.180772 0.241286
#
# Coordination Sequence:
#
# PCOD9462816 Si02
#       8
#     8   8   8   8   8   8   8   4
#     4  10  19  32  59  91 119 171 219 279 320 378
#     4  11  21  39  62  96 127 164 233 280 321 409
#     4  10  24  39  66  98 129 183 216 282 354 397
#     4  10  19  32  59  89 127 169 219 271 333 387
#     4  10  20  38  60  94 135 163 233 275 331 418
#     4  11  22  40  64  98 130 174 226 281 340 394
#     4  11  22  39  66  95 140 171 224 290 338 406
#     4  10  20  38  60  94 130 184 214 280 354 394
#
# _framework density 22.404008000000001
#
# number of rings (size 3 to 8) (size 9 to 14) (size 15 to 20)
#    0.000    1.600    4.667    0.000    2.800    0.000 
#    0.000    0.000    5.867    1.600    0.000    0.000 
#    0.000    0.000    0.000    0.000    0.000    0.000 
#
# Total GULP energy -334656.023594 kJ/mol
# GULP energy per Si atom -5577.600393 kJ/mol
# Density = 2.235302 g / cm^3
# Si number density = 22.404008 Si / 1000 Ang^3
#
#
#
# Elastic Constant Matrix: (Units=GPa)
#
#
# Indices 1 2 3 4 5 6 
#
# 1 50.3313 18.2526 24.2384 0.0000 0.0000 0.0000
# 2 18.2526 125.8482 40.8569 0.0000 0.0000 0.0000
# 3 24.2384 40.8569 102.9600 0.0000 0.0000 0.0000
# 4 0.0000 0.0000 0.0000 34.8337 0.0000 0.0000
# 5 0.0000 0.0000 0.0000 0.0000 19.1064 0.0000
# 6 0.0000 0.0000 0.0000 0.0000 0.0000 12.8148
#
#
#
# Elastic Compliance Matrix: (Units=1/GPa)
#
#
# Indices 1 2 3 4 5 6 
#
# 1 0.022756 -0.001792 -0.004646 0.000000 0.000000 0.000000
# 2 -0.001792 0.009262 -0.003254 0.000000 0.000000 0.000000
# 3 -0.004646 -0.003254 0.012097 0.000000 0.000000 0.000000
# 4 0.000000 0.000000 0.000000 0.028708 0.000000 0.000000
# 5 0.000000 0.000000 0.000000 0.000000 0.052339 0.000000
# 6 0.000000 0.000000 0.000000 0.000000 0.000000 0.078035
#
#
# Mechanical properties :
#
#
# Convention : Reuss Voigt Hill
#
# Bulk Modulus (GPa) = 40.43332 49.53723 44.98528
# Shear Modulus (GPa) = 21.66158 26.40374 24.03266
#
# Velocity S-wave (km/s) = 3.11281 3.43669 3.27875
# Velocity P-wave (km/s) = 5.56830 6.15684 5.86995
#
# Compressibility (1/GPa) = 0.02473207
#
# Stress axis : x y z
#
# Youngs Moduli (GPa) = 43.94518 107.96463 82.66285
#
# Poissons Ratio (x) = 0.19348 0.38404
# Poissons Ratio (y) = 0.07875 0.26895
# Poissons Ratio (z) = 0.20416 0.35127
#
# Static dielectric constant tensor:
#      x y z
#    x 1.860770 0.000000 0.000000 
#    y 0.000000 1.845780 0.000000 
#    z 0.000000 0.000000 1.853450 
# 
# From -- ./inp_files/13546.got.cif
#   From: 2010.05.17/outbox.cif.g08.bks.cpg/sg62_7_cif.got.tgz:13546.got - 2010.06.03 15:25:27.
