data_PCOD9462825
_publ_section_title
;
Structure prediction by ZEFSAII (Michael W. Deem and Ramdas Pophale) SiO2 
 PCOD9462825
Probable space group: P N M A
;
_chemical_formula_sum "Si O2"
_cell_formula_units_Z 48
_cell_length_a 11.606940
_cell_length_b 10.105972
_cell_length_c 18.301155
_cell_angle_alpha 90.000000
_cell_angle_beta 90.000000
_cell_angle_gamma 90.000000
_cell_volume 2146.714696
_symmetry_space_group_name_H-M "P N M A"
_symmetry_group_IT_number 62
_symmetry_cell_setting 'orthorhombic'
loop_
_space_group_symop_operation_xyz
x,y,z
1/2-x,-y,1/2+z
1/2+x,1/2-y,1/2-z
-x,1/2+y,-z
-x,-y,-z
1/2+x,y,1/2-z
1/2-x,1/2+y,1/2+z
x,1/2-y,z
loop_
_atom_site_type_symbol
_atom_site_label
_atom_site_fract_x
_atom_site_fract_y
_atom_site_fract_z
Si Si1 0.496230 0.905265 0.382305
Si Si2 0.929748 0.108165 0.457295
Si Si3 0.114792 0.106037 0.723415
Si Si4 0.686332 0.095102 0.317908
Si Si5 0.728654 0.406768 0.549331
Si Si6 0.589156 0.025895 0.161833
O O1 0.533392 0.750000 0.391489
O O2 0.417193 0.908814 0.308512
O O3 0.404312 0.946024 0.444537
O O4 0.597449 0.009703 0.367167
O O5 0.947684 0.250000 0.493413
O O6 0.795499 0.077595 0.471893
O O7 0.994576 0.111475 0.380989
O O8 0.000000 0.000000 0.500000
O O9 0.169172 0.250000 0.711696
O O10 0.198873 0.992539 0.694192
O O11 0.990459 0.097993 0.684560
O O12 0.703161 0.250000 0.339080
O O13 0.632286 0.092294 0.235776
O O14 0.728567 0.250000 0.566824
O O15 0.807414 0.484045 0.608350
#
# Coordination Sequence:
#
# PCOD9462825 Si02
#       6
#     8   8   8   8   8   8
#     4   9  18  33  52  72  97 131 172 211 249 295
#     4   9  18  31  50  75 105 137 169 205 253 304
#     4  10  20  33  53  75  99 136 175 214 252 299
#     4  11  22  33  48  73 107 139 168 205 256 310
#     4   9  16  31  54  78 102 131 168 210 249 295
#     4  10  19  33  50  78 107 135 166 208 258 307
#
# _framework density 22.359749000000001
#
# number of rings (size 3 to 8) (size 9 to 14) (size 15 to 20)
#    0.000    2.333    1.667    1.500    0.000    5.333 
#    0.000    0.833    0.000    1.000    0.000    0.000 
#    0.000    0.000    0.000    0.000    0.000    0.000 
#
# Total GULP energy -267522.952783 kJ/mol
# GULP energy per Si atom -5573.394850 kJ/mol
# Density = 2.230886 g / cm^3
# Si number density = 22.359749 Si / 1000 Ang^3
#
#
#
# Elastic Constant Matrix: (Units=GPa)
#
#
# Indices 1 2 3 4 5 6 
#
# 1 121.3592 70.4041 32.7692 0.0000 0.0000 0.0000
# 2 70.4041 135.0191 17.9386 0.0000 0.0000 0.0000
# 3 32.7692 17.9386 44.3345 0.0000 0.0000 0.0000
# 4 0.0000 0.0000 0.0000 14.0451 0.0000 0.0000
# 5 0.0000 0.0000 0.0000 0.0000 42.0564 0.0000
# 6 0.0000 0.0000 0.0000 0.0000 0.0000 27.3064
#
#
#
# Elastic Compliance Matrix: (Units=1/GPa)
#
#
# Indices 1 2 3 4 5 6 
#
# 1 0.013971 -0.006249 -0.007798 0.000000 0.000000 0.000000
# 2 -0.006249 0.010622 0.000321 0.000000 0.000000 0.000000
# 3 -0.007798 0.000321 0.028190 0.000000 0.000000 0.000000
# 4 0.000000 0.000000 0.000000 0.071199 0.000000 0.000000
# 5 0.000000 0.000000 0.000000 0.000000 0.023778 0.000000
# 6 0.000000 0.000000 0.000000 0.000000 0.000000 0.036621
#
#
# Mechanical properties :
#
#
# Convention : Reuss Voigt Hill
#
# Bulk Modulus (GPa) = 39.47772 60.32630 49.90201
# Shear Modulus (GPa) = 22.69879 28.65498 25.67688
#
# Velocity S-wave (km/s) = 3.18962 3.58375 3.39241
# Velocity P-wave (km/s) = 5.59097 6.64551 6.14092
#
# Compressibility (1/GPa) = 0.02533074
#
# Stress axis : x y z
#
# Youngs Moduli (GPa) = 71.57843 94.14317 35.47406
#
# Poissons Ratio (x) = 0.58829 0.27662
# Poissons Ratio (y) = 0.44728 -0.01138
# Poissons Ratio (z) = 0.55816 -0.03020
#
# Static dielectric constant tensor:
#      x y z
#    x 1.842040 0.000000 0.000000 
#    y 0.000000 1.801140 0.000000 
#    z 0.000000 0.000000 1.912500 
# 
# From -- ./inp_files/29266.got.cif
#   From: 2010.05.17/outbox.cif.g08.bks.cpg/sg62_15_cif.got.tgz:29266.got - 2010.06.03 15:25:27.
