data_PCOD9462394
_publ_section_title
;
Structure prediction by ZEFSAII (Michael W. Deem and Ramdas Pophale) SiO2 
 PCOD9462394
Probable space group: P N M A
;
_chemical_formula_sum "Si O2"
_cell_formula_units_Z 64
_cell_length_a 34.647765
_cell_length_b 8.818441
_cell_length_c 12.295253
_cell_angle_alpha 90.000000
_cell_angle_beta 90.000000
_cell_angle_gamma 90.000000
_cell_volume 3756.682644
_symmetry_space_group_name_H-M "P N M A"
_symmetry_group_IT_number 62
_symmetry_cell_setting 'orthorhombic'
loop_
_space_group_symop_operation_xyz
x,y,z
1/2-x,-y,1/2+z
1/2+x,1/2-y,1/2-z
-x,1/2+y,-z
-x,-y,-z
1/2+x,y,1/2-z
1/2-x,1/2+y,1/2+z
x,1/2-y,z
loop_
_atom_site_type_symbol
_atom_site_label
_atom_site_fract_x
_atom_site_fract_y
_atom_site_fract_z
Si Si1 0.668631 0.430716 0.544312
Si Si2 0.128437 0.433265 0.179053
Si Si3 0.315056 0.934747 0.866588
Si Si4 0.176500 0.066578 0.615378
Si Si5 0.270130 0.431410 0.300705
Si Si6 0.893044 0.930262 0.234423
Si Si7 0.467053 0.069365 0.357969
Si Si8 0.547780 0.931229 0.390585
O O1 0.676508 0.250000 0.546072
O O2 0.655234 0.475222 0.424281
O O3 0.704964 0.516690 0.594827
O O4 0.633038 0.458210 0.626943
O O5 0.125270 0.250000 0.178039
O O6 0.149983 0.482065 0.288777
O O7 0.086316 0.501732 0.161384
O O8 0.315160 0.750000 0.867530
O O9 0.273968 0.981340 0.816518
O O10 0.318847 0.984008 0.991413
O O11 0.178881 0.250000 0.620102
O O12 0.134896 0.024499 0.666386
O O13 0.209033 0.001552 0.695556
O O14 0.271172 0.250000 0.292157
O O15 0.900151 0.750000 0.240475
O O16 0.933231 0.015158 0.221309
O O17 0.470990 0.250000 0.355265
O O18 0.454487 0.024433 0.481302
O O19 0.508483 0.993971 0.338123
O O20 0.548398 0.750000 0.384906
#
# Coordination Sequence:
#
# PCOD9462394 Si02
#       8
#     8   8   8   8   8   8   8   8
#     4   9  18  31  50  74 102 136 170 206 257 313
#     4  10  19  34  54  74 102 140 176 211 256 313
#     4   9  20  36  54  75 101 137 177 216 260 309
#     4   9  19  37  54  72 101 138 175 212 259 310
#     4  10  20  33  52  77 102 131 172 221 261 299
#     4   9  16  29  50  73  98 130 167 208 253 302
#     4  10  19  30  49  76 105 137 167 203 253 307
#     4  10  20  32  48  75 110 138 166 207 256 309
#
# _framework density 17.036307999999998
#
# number of rings (size 3 to 8) (size 9 to 14) (size 15 to 20)
#    0.000    2.500    1.250    1.875    1.750    3.500 
#    0.000    2.500    0.000    0.750    0.000    0.000 
#    0.000    0.000    0.000    0.000    0.000    0.000 
#
# Total GULP energy -356975.255498 kJ/mol
# GULP energy per Si atom -5577.738367 kJ/mol
# Density = 1.699753 g / cm^3
# Si number density = 17.036308 Si / 1000 Ang^3
#
#
#
# Elastic Constant Matrix: (Units=GPa)
#
#
# Indices 1 2 3 4 5 6 
#
# 1 151.4474 39.6530 75.1316 0.0000 0.0000 0.0000
# 2 39.6530 20.6902 26.7539 0.0000 0.0000 0.0000
# 3 75.1316 26.7539 112.6992 0.0000 0.0000 0.0000
# 4 0.0000 0.0000 0.0000 15.6962 0.0000 0.0000
# 5 0.0000 0.0000 0.0000 0.0000 19.2736 0.0000
# 6 0.0000 0.0000 0.0000 0.0000 0.0000 28.9303
#
#
#
# Elastic Compliance Matrix: (Units=1/GPa)
#
#
# Indices 1 2 3 4 5 6 
#
# 1 0.014670 -0.022321 -0.004481 0.000000 0.000000 0.000000
# 2 -0.022321 0.103702 -0.009737 0.000000 0.000000 0.000000
# 3 -0.004481 -0.009737 0.014172 0.000000 0.000000 0.000000
# 4 0.000000 0.000000 0.000000 0.063710 0.000000 0.000000
# 5 0.000000 0.000000 0.000000 0.000000 0.051884 0.000000
# 6 0.000000 0.000000 0.000000 0.000000 0.000000 0.034566
#
#
# Mechanical properties :
#
#
# Convention : Reuss Voigt Hill
#
# Bulk Modulus (GPa) = 16.81666 63.10154 39.95910
# Shear Modulus (GPa) = 13.31182 22.33325 17.82253
#
# Velocity S-wave (km/s) = 2.79835 3.62459 3.23793
# Velocity P-wave (km/s) = 4.50927 7.39167 6.12251
#
# Compressibility (1/GPa) = 0.05946486
#
# Stress axis : x y z
#
# Youngs Moduli (GPa) = 68.16478 9.64299 70.56090
#
# Poissons Ratio (x) = 0.21524 0.31619
# Poissons Ratio (y) = 1.52153 0.68708
# Poissons Ratio (z) = 0.30546 0.09390
#
# Static dielectric constant tensor:
#      x y z
#    x 1.561560 0.000000 0.000000 
#    y 0.000000 1.595600 0.000000 
#    z 0.000000 0.000000 1.571980 
# 
# From -- ./inp_files/15840.got.cif
#   From: 2010.05.17/outbox.cif.g08.bks.cpg/sg62_8_cif.got.tgz:15840.got - 2010.06.03 15:25:27.
