data_PCOD9462900
_publ_section_title
;
Structure prediction by ZEFSAII (Michael W. Deem and Ramdas Pophale) SiO2 
 PCOD9462900
Probable space group: P N M A
;
_chemical_formula_sum "Si O2"
_cell_formula_units_Z 64
_cell_length_a 30.005772
_cell_length_b 8.800580
_cell_length_c 12.326608
_cell_angle_alpha 90.000000
_cell_angle_beta 90.000000
_cell_angle_gamma 90.000000
_cell_volume 3255.065149
_symmetry_space_group_name_H-M "P N M A"
_symmetry_group_IT_number 62
_symmetry_cell_setting 'orthorhombic'
loop_
_space_group_symop_operation_xyz
x,y,z
1/2-x,-y,1/2+z
1/2+x,1/2-y,1/2-z
-x,1/2+y,-z
-x,-y,-z
1/2+x,y,1/2-z
1/2-x,1/2+y,1/2+z
x,1/2-y,z
loop_
_atom_site_type_symbol
_atom_site_label
_atom_site_fract_x
_atom_site_fract_y
_atom_site_fract_z
Si Si1 0.024731 0.569267 0.262570
Si Si2 0.681076 0.066660 0.964692
Si Si3 0.610152 0.066100 0.138721
Si Si4 0.835700 0.433524 0.232555
Si Si5 0.722373 0.567606 0.527733
Si Si6 0.562920 0.427223 0.458093
Si Si7 0.840617 0.574121 0.858698
Si Si8 0.438346 0.068239 0.307728
O O1 0.023919 0.750000 0.264987
O O2 0.061638 0.505824 0.345529
O O3 0.041635 0.509784 0.145131
O O4 0.975062 0.502956 0.271873
O O5 0.681112 0.250000 0.958769
O O6 0.726198 0.019242 0.026668
O O7 0.681355 0.998794 0.845313
O O8 0.637065 0.022138 0.031582
O O9 0.605695 0.250000 0.144341
O O10 0.641024 0.021105 0.242111
O O11 0.833690 0.250000 0.234713
O O12 0.887601 0.476106 0.218833
O O13 0.806050 0.487852 0.130895
O O14 0.721398 0.750000 0.531451
O O15 0.698339 0.515778 0.417354
O O16 0.549402 0.250000 0.459788
O O17 0.615996 0.432823 0.436330
O O18 0.552534 0.507358 0.570879
O O19 0.827083 0.750000 0.846650
O O20 0.441986 0.250000 0.306292
#
# Coordination Sequence:
#
# PCOD9462900 Si02
#       8
#     8   8   8   8   8   8   8   8
#     4  11  22  35  56  86 118 155 198 247 296 355
#     4  10  23  41  63  86 117 156 198 247 297 352
#     4   9  20  40  60  83 116 156 199 245 294 346
#     4  10  23  41  62  87 121 156 195 246 296 351
#     4  10  21  38  59  87 119 152 191 239 295 351
#     4  10  19  33  53  82 120 157 193 239 291 348
#     4   9  18  32  56  85 114 151 191 234 286 344
#     4  11  21  36  57  83 117 159 198 245 299 351
#
# _framework density 19.661664999999999
#
# number of rings (size 3 to 8) (size 9 to 14) (size 15 to 20)
#    0.000    2.000    1.250    3.000    1.750    4.500 
#    0.000    0.625    0.000    0.000    0.000    0.000 
#    0.000    0.000    0.000    0.000    0.000    0.000 
#
# Total GULP energy -357407.887738 kJ/mol
# GULP energy per Si atom -5584.498246 kJ/mol
# Density = 1.961691 g / cm^3
# Si number density = 19.661665 Si / 1000 Ang^3
#
#
#
# Elastic Constant Matrix: (Units=GPa)
#
#
# Indices 1 2 3 4 5 6 
#
# 1 102.2524 29.0585 19.2660 0.0000 0.0000 0.0000
# 2 29.0585 40.1607 4.7888 0.0000 0.0000 0.0000
# 3 19.2660 4.7888 43.5966 0.0000 0.0000 0.0000
# 4 0.0000 0.0000 0.0000 24.1249 0.0000 0.0000
# 5 0.0000 0.0000 0.0000 0.0000 13.4763 0.0000
# 6 0.0000 0.0000 0.0000 0.0000 0.0000 25.0828
#
#
#
# Elastic Compliance Matrix: (Units=1/GPa)
#
#
# Indices 1 2 3 4 5 6 
#
# 1 0.013258 -0.009013 -0.004869 0.000000 0.000000 0.000000
# 2 -0.009013 0.031357 0.000538 0.000000 0.000000 0.000000
# 3 -0.004869 0.000538 0.025030 0.000000 0.000000 0.000000
# 4 0.000000 0.000000 0.000000 0.041451 0.000000 0.000000
# 5 0.000000 0.000000 0.000000 0.000000 0.074204 0.000000
# 6 0.000000 0.000000 0.000000 0.000000 0.000000 0.039868
#
#
# Mechanical properties :
#
#
# Convention : Reuss Voigt Hill
#
# Bulk Modulus (GPa) = 23.27807 32.47072 27.87440
# Shear Modulus (GPa) = 18.78465 21.39655 20.09060
#
# Velocity S-wave (km/s) = 3.09430 3.30242 3.20005
# Velocity P-wave (km/s) = 4.96299 5.57601 5.27841
#
# Compressibility (1/GPa) = 0.04295888
#
# Stress axis : x y z
#
# Youngs Moduli (GPa) = 75.42407 31.89096 39.95181
#
# Poissons Ratio (x) = 0.28742 0.19453
# Poissons Ratio (y) = 0.67976 -0.02151
# Poissons Ratio (z) = 0.36725 -0.01717
#
# Static dielectric constant tensor:
#      x y z
#    x 1.722300 0.000000 0.000000 
#    y 0.000000 1.662650 0.000000 
#    z 0.000000 0.000000 1.663400 
# 
# From -- ./inp_files/15778.got.cif
#   From: 2010.05.17/outbox.cif.g08.bks.cpg/sg62_8_cif.got.tgz:15778.got - 2010.06.03 15:25:27.
