data_PCOD9462581
_publ_section_title
;
Structure prediction by ZEFSAII (Michael W. Deem and Ramdas Pophale) SiO2 
 PCOD9462581
Probable space group: P N M A
;
_chemical_formula_sum "Si O2"
_cell_formula_units_Z 64
_cell_length_a 23.697186
_cell_length_b 7.707738
_cell_length_c 16.700605
_cell_angle_alpha 90.000000
_cell_angle_beta 90.000000
_cell_angle_gamma 90.000000
_cell_volume 3050.393911
_symmetry_space_group_name_H-M "P N M A"
_symmetry_group_IT_number 62
_symmetry_cell_setting 'orthorhombic'
loop_
_space_group_symop_operation_xyz
x,y,z
1/2-x,-y,1/2+z
1/2+x,1/2-y,1/2-z
-x,1/2+y,-z
-x,-y,-z
1/2+x,y,1/2-z
1/2-x,1/2+y,1/2+z
x,1/2-y,z
loop_
_atom_site_type_symbol
_atom_site_label
_atom_site_fract_x
_atom_site_fract_y
_atom_site_fract_z
Si Si1 0.334012 0.551782 0.073507
Si Si2 0.139739 0.962025 0.257907
Si Si3 0.488285 0.041274 0.752262
Si Si4 0.717671 0.962911 0.385962
Si Si5 0.785244 0.044543 0.593956
Si Si6 0.460963 0.540591 0.077303
Si Si7 0.833208 0.459369 0.056313
Si Si8 0.960911 0.044053 0.077535
O O1 0.341592 0.750000 0.101440
O O2 0.282081 0.473679 0.123809
O O3 0.396450 0.474687 0.068450
O O4 0.305822 0.550252 0.985864
O O5 0.138339 0.750000 0.256713
O O6 0.075933 0.023312 0.253570
O O7 0.176599 0.019657 0.183447
O O8 0.173184 0.013295 0.336638
O O9 0.487636 0.250000 0.757808
O O10 0.517090 0.979725 0.835289
O O11 0.514778 0.002069 0.665259
O O12 0.719715 0.750000 0.386220
O O13 0.689166 0.016833 0.469249
O O14 0.792607 0.250000 0.580730
O O15 0.719222 0.013004 0.612353
O O16 0.459896 0.750000 0.079182
O O17 0.500000 0.500000 0.000000
O O18 0.835133 0.250000 0.056944
O O19 0.896491 0.525570 0.070971
O O20 0.956621 0.250000 0.075328
O O21 0.000000 0.000000 0.000000
#
# Coordination Sequence:
#
# PCOD9462581 Si02
#       8
#     8   8   8   8   8   8   8   8
#     4   9  18  33  51  72 101 139 180 218 268 332
#     4   9  17  30  50  76 104 134 170 217 273 323
#     4  10  21  37  56  82 115 149 190 236 281 336
#     4   8  14  28  50  70  91 127 171 208 250 317
#     4  10  19  31  53  82 106 133 175 227 275 325
#     4  10  21  36  56  80 110 151 193 236 285 337
#     4   9  19  36  55  75 105 143 177 215 273 336
#     4  11  23  39  60  85 115 152 190 231 281 336
#
# _framework density 20.980896000000001
#
# number of rings (size 3 to 8) (size 9 to 14) (size 15 to 20)
#    0.000    2.500    0.000    3.000    0.000    6.000 
#    0.000    3.750    0.000    7.500    0.000    0.000 
#    0.000    0.000    0.000    0.000    0.000    0.000 
#
# Total GULP energy -356752.154412 kJ/mol
# GULP energy per Si atom -5574.252413 kJ/mol
# Density = 2.093314 g / cm^3
# Si number density = 20.980896 Si / 1000 Ang^3
#
#
#
# Elastic Constant Matrix: (Units=GPa)
#
#
# Indices 1 2 3 4 5 6 
#
# 1 235.0968 7.3668 89.1671 0.0000 0.0000 0.0000
# 2 7.3668 41.6842 2.0226 0.0000 0.0000 0.0000
# 3 89.1671 2.0226 109.4360 0.0000 0.0000 0.0000
# 4 0.0000 0.0000 0.0000 18.7303 0.0000 0.0000
# 5 0.0000 0.0000 0.0000 0.0000 37.4164 0.0000
# 6 0.0000 0.0000 0.0000 0.0000 0.0000 12.1925
#
#
#
# Elastic Compliance Matrix: (Units=1/GPa)
#
#
# Indices 1 2 3 4 5 6 
#
# 1 0.006186 -0.000849 -0.005024 0.000000 0.000000 0.000000
# 2 -0.000849 0.024128 0.000246 0.000000 0.000000 0.000000
# 3 -0.005024 0.000246 0.013227 0.000000 0.000000 0.000000
# 4 0.000000 0.000000 0.000000 0.053390 0.000000 0.000000
# 5 0.000000 0.000000 0.000000 0.000000 0.026726 0.000000
# 6 0.000000 0.000000 0.000000 0.000000 0.000000 0.082018
#
#
# Mechanical properties :
#
#
# Convention : Reuss Voigt Hill
#
# Bulk Modulus (GPa) = 30.97358 64.81446 47.89402
# Shear Modulus (GPa) = 21.95951 32.84519 27.40235
#
# Velocity S-wave (km/s) = 3.23870 3.96091 3.61787
# Velocity P-wave (km/s) = 5.36473 7.20261 6.35051
#
# Compressibility (1/GPa) = 0.03228558
#
# Stress axis : x y z
#
# Youngs Moduli (GPa) = 161.65925 41.44548 75.60251
#
# Poissons Ratio (x) = 0.03520 0.37986
# Poissons Ratio (y) = 0.13732 -0.01861
# Poissons Ratio (z) = 0.81225 -0.01020
#
# Static dielectric constant tensor:
#      x y z
#    x 1.797750 0.000000 0.000000 
#    y 0.000000 1.787410 0.000000 
#    z 0.000000 0.000000 1.755830 
# 
# From -- ./inp_files/20849.got.cif
#   From: 2010.05.17/outbox.cif.g08.bks.cpg/sg62_11_cif.got.tgz:20849.got - 2010.06.03 15:25:27.
