data_PCOD9462279
_publ_section_title
;
Structure prediction by ZEFSAII (Michael W. Deem and Ramdas Pophale) SiO2 
 PCOD9462279
Probable space group: P N M A
;
_chemical_formula_sum "Si O2"
_cell_formula_units_Z 64
_cell_length_a 10.865174
_cell_length_b 7.299723
_cell_length_c 34.141302
_cell_angle_alpha 90.000000
_cell_angle_beta 90.000000
_cell_angle_gamma 90.000000
_cell_volume 2707.840910
_symmetry_space_group_name_H-M "P N M A"
_symmetry_group_IT_number 62
_symmetry_cell_setting 'orthorhombic'
loop_
_space_group_symop_operation_xyz
x,y,z
1/2-x,-y,1/2+z
1/2+x,1/2-y,1/2-z
-x,1/2+y,-z
-x,-y,-z
1/2+x,y,1/2-z
1/2-x,1/2+y,1/2+z
x,1/2-y,z
loop_
_atom_site_type_symbol
_atom_site_label
_atom_site_fract_x
_atom_site_fract_y
_atom_site_fract_z
Si Si1 0.908018 0.973183 0.223256
Si Si2 0.167675 0.026035 0.863367
Si Si3 0.534123 0.961502 0.423506
Si Si4 0.774316 0.960354 0.368399
Si Si5 0.082904 0.474443 0.559647
Si Si6 0.187109 0.531782 0.008591
Si Si7 0.683073 0.532483 0.067807
Si Si8 0.692200 0.973904 0.283192
O O1 0.910063 0.750000 0.224059
O O2 0.051798 0.030427 0.227864
O O3 0.859145 0.032324 0.180516
O O4 0.804141 0.028901 0.254632
O O5 0.164365 0.250000 0.861888
O O6 0.287713 0.970981 0.888037
O O7 0.061447 0.959930 0.892742
O O8 0.503792 0.250000 0.570123
O O9 0.659808 0.958491 0.398240
O O10 0.574609 0.043128 0.465266
O O11 0.809457 0.750000 0.359649
O O12 0.881444 0.034904 0.396231
O O13 0.728936 0.036211 0.327054
O O14 0.086905 0.250000 0.559082
O O15 0.187075 0.536147 0.529368
O O16 0.945365 0.538584 0.551125
O O17 0.182403 0.750000 0.013949
O O18 0.206484 0.500666 0.962770
O O19 0.670827 0.750000 0.070050
O O20 0.687916 0.750000 0.283260
#
# Coordination Sequence:
#
# PCOD9462279 Si02
#       8
#     8   8   8   8   8   8   8   8
#     4   9  16  24  34  51  77 109 144 178 214 256
#     4   9  16  26  38  52  77 110 138 170 214 257
#     4   8  13  24  41  55  70 100 142 175 201 246
#     4   8  12  21  37  52  69 101 143 173 196 243
#     4   8  15  26  40  58  79 106 141 176 210 255
#     4   9  17  29  45  61  78 108 148 182 210 250
#     4  10  19  28  40  61  87 111 138 178 222 254
#     4   9  15  22  34  52  75 106 144 181 211 249
#
# _framework density 23.635065999999998
#
# number of rings (size 3 to 8) (size 9 to 14) (size 15 to 20)
#    0.000    3.250    1.250    1.875    0.000    1.500 
#    0.000    5.000    0.000    0.000    0.000    0.000 
#    0.000    0.000    0.000    9.000    0.000   10.625 
#
# Total GULP energy -356889.479366 kJ/mol
# GULP energy per Si atom -5576.398115 kJ/mol
# Density = 2.358127 g / cm^3
# Si number density = 23.635066 Si / 1000 Ang^3
#
#
#
# Elastic Constant Matrix: (Units=GPa)
#
#
# Indices 1 2 3 4 5 6 
#
# 1 73.5743 -0.2742 56.0667 0.0000 0.0000 0.0000
# 2 -0.2742 98.1537 -1.0432 0.0000 0.0000 0.0000
# 3 56.0667 -1.0432 170.8078 0.0000 0.0000 0.0000
# 4 0.0000 0.0000 0.0000 -0.9444 0.0000 0.0000
# 5 0.0000 0.0000 0.0000 0.0000 32.5365 0.0000
# 6 0.0000 0.0000 0.0000 0.0000 0.0000 -13.9932
#
#
#
# Elastic Compliance Matrix: (Units=1/GPa)
#
#
# Indices 1 2 3 4 5 6 
#
# 1 0.018126 -0.000013 -0.005950 0.000000 0.000000 0.000000
# 2 -0.000013 0.010189 0.000066 0.000000 0.000000 0.000000
# 3 -0.005950 0.000066 0.007808 0.000000 0.000000 0.000000
# 4 0.000000 0.000000 0.000000 -1.058910 0.000000 0.000000
# 5 0.000000 0.000000 0.000000 0.000000 0.030735 0.000000
# 6 0.000000 0.000000 0.000000 0.000000 0.000000 -0.071463
#
#
# Mechanical properties :
#
#
# Convention : Reuss Voigt Hill
#
# Bulk Modulus (GPa) = 41.10088 50.22603 45.66346
# Shear Modulus (GPa) = -4.79104 22.70556 8.95726
#
# Velocity S-wave (km/s) = -1.42530 3.10283 1.94886
# Velocity P-wave (km/s) = 3.83652 5.84239 4.94229
#
# Compressibility (1/GPa) = 0.02433038
#
# Stress axis : x y z
#
# Youngs Moduli (GPa) = 55.17064 98.14724 128.07553
#
# Poissons Ratio (x) = 0.00124 0.76201
# Poissons Ratio (y) = 0.00070 -0.00850
# Poissons Ratio (z) = 0.32825 -0.00651
#
# Static dielectric constant tensor:
#      x y z
#    x 1.922100 0.000000 0.000000 
#    y 0.000000 1.797950 0.000000 
#    z 0.000000 0.000000 1.862950 
# 
# From -- ./inp_files/32495.got.cif
#   From: 2010.05.17/outbox.cif.g08.bks.cpg/sg62_17_cif.got.tgz:32495.got - 2010.06.03 15:25:27.
