data_PCOD9462598
_publ_section_title
;
Structure prediction by ZEFSAII (Michael W. Deem and Ramdas Pophale) SiO2 
 PCOD9462598
Probable space group: P N M A
;
_chemical_formula_sum "Si O2"
_cell_formula_units_Z 32
_cell_length_a 5.248472
_cell_length_b 14.176131
_cell_length_c 20.573636
_cell_angle_alpha 90.000000
_cell_angle_beta 90.000000
_cell_angle_gamma 90.000000
_cell_volume 1530.740787
_symmetry_space_group_name_H-M "P N M A"
_symmetry_group_IT_number 62
_symmetry_cell_setting 'orthorhombic'
loop_
_space_group_symop_operation_xyz
x,y,z
1/2-x,-y,1/2+z
1/2+x,1/2-y,1/2-z
-x,1/2+y,-z
-x,-y,-z
1/2+x,y,1/2-z
1/2-x,1/2+y,1/2+z
x,1/2-y,z
loop_
_atom_site_type_symbol
_atom_site_label
_atom_site_fract_x
_atom_site_fract_y
_atom_site_fract_z
Si Si1 0.139916 0.641375 0.591182
Si Si2 0.180174 0.363773 0.285925
Si Si3 0.032033 0.639708 0.437254
Si Si4 0.975407 0.027089 0.924132
O O1 0.221889 0.750000 0.600931
O O2 0.909684 0.621181 0.640240
O O3 0.054743 0.630401 0.516225
O O4 0.366590 0.569287 0.605735
O O5 0.945310 0.400015 0.242031
O O6 0.194835 0.250000 0.278693
O O7 0.062904 0.750000 0.422269
O O8 0.259671 0.577340 0.407089
O O9 0.757028 0.600876 0.417618
O O10 0.000000 0.000000 0.000000
#
# Coordination Sequence:
#
# PCOD9462598 Si02
#       4
#     8   8   8   8
#     4   9  18  31  48  69  97 131 156 184 232 279
#     4   9  18  30  43  62  90 123 158 190 219 263
#     4  10  20  33  49  69  96 127 159 195 235 277
#     4  10  19  32  47  70  96 123 160 195 227 279
#
# _framework density 20.904910000000001
#
# number of rings (size 3 to 8) (size 9 to 14) (size 15 to 20)
#    0.000    2.500    0.000    3.750    0.000    7.000 
#    0.000   16.250    0.000    0.000    0.000    0.000 
#    0.000   20.000    0.000    0.000    0.000    0.000 
#
# Total GULP energy -178709.406782 kJ/mol
# GULP energy per Si atom -5584.668962 kJ/mol
# Density = 2.085733 g / cm^3
# Si number density = 20.904910 Si / 1000 Ang^3
#
#
#
# Elastic Constant Matrix: (Units=GPa)
#
#
# Indices 1 2 3 4 5 6 
#
# 1 117.5759 42.1807 13.7388 0.0000 0.0000 0.0000
# 2 42.1807 110.9816 19.6999 0.0000 0.0000 0.0000
# 3 13.7388 19.6999 31.5133 0.0000 0.0000 0.0000
# 4 0.0000 0.0000 0.0000 9.5223 0.0000 0.0000
# 5 0.0000 0.0000 0.0000 0.0000 24.3518 0.0000
# 6 0.0000 0.0000 0.0000 0.0000 0.0000 15.4234
#
#
#
# Elastic Compliance Matrix: (Units=1/GPa)
#
#
# Indices 1 2 3 4 5 6 
#
# 1 0.009985 -0.003400 -0.002228 0.000000 0.000000 0.000000
# 2 -0.003400 0.011293 -0.005577 0.000000 0.000000 0.000000
# 3 -0.002228 -0.005577 0.036191 0.000000 0.000000 0.000000
# 4 0.000000 0.000000 0.000000 0.105017 0.000000 0.000000
# 5 0.000000 0.000000 0.000000 0.000000 0.041065 0.000000
# 6 0.000000 0.000000 0.000000 0.000000 0.000000 0.064836
#
#
# Mechanical properties :
#
#
# Convention : Reuss Voigt Hill
#
# Bulk Modulus (GPa) = 28.52371 45.70108 37.11239
# Shear Modulus (GPa) = 16.52992 22.15627 19.34309
#
# Velocity S-wave (km/s) = 2.81502 3.25908 3.04516
# Velocity P-wave (km/s) = 4.92341 6.00591 5.49140
#
# Compressibility (1/GPa) = 0.03505855
#
# Stress axis : x y z
#
# Youngs Moduli (GPa) = 100.14940 88.55399 27.63154
#
# Poissons Ratio (x) = 0.30104 0.06156
# Poissons Ratio (y) = 0.34046 0.15411
# Poissons Ratio (z) = 0.22314 0.49389
#
# Static dielectric constant tensor:
#      x y z
#    x 1.801590 0.000000 0.000000 
#    y 0.000000 1.768450 0.000000 
#    z 0.000000 0.000000 1.788920 
# 
# From -- ./inp_files/25164.got.cif
#   From: 2010.05.17/outbox.cif.g08.bks.cpg/sg62_13_cif.got.tgz:25164.got - 2010.06.03 15:25:27.
