data_PCOD9462652
_publ_section_title
;
Structure prediction by ZEFSAII (Michael W. Deem and Ramdas Pophale) SiO2 
 PCOD9462652
Probable space group: P N M A
;
_chemical_formula_sum "Si O2"
_cell_formula_units_Z 36
_cell_length_a 4.958716
_cell_length_b 21.736791
_cell_length_c 16.386646
_cell_angle_alpha 90.000000
_cell_angle_beta 90.000000
_cell_angle_gamma 90.000000
_cell_volume 1766.260421
_symmetry_space_group_name_H-M "P N M A"
_symmetry_group_IT_number 62
_symmetry_cell_setting 'orthorhombic'
loop_
_space_group_symop_operation_xyz
x,y,z
1/2-x,-y,1/2+z
1/2+x,1/2-y,1/2-z
-x,1/2+y,-z
-x,-y,-z
1/2+x,y,1/2-z
1/2-x,1/2+y,1/2+z
x,1/2-y,z
loop_
_atom_site_type_symbol
_atom_site_label
_atom_site_fract_x
_atom_site_fract_y
_atom_site_fract_z
Si Si1 0.262094 0.437065 0.081360
Si Si2 0.672097 0.750000 0.192302
Si Si3 0.834749 0.678604 0.807863
Si Si4 0.782767 0.984712 0.096140
Si Si5 0.970973 0.377474 0.697702
O O1 0.222605 0.370993 0.121954
O O2 0.570325 0.459827 0.082902
O O3 0.061449 0.485565 0.126329
O O4 0.171555 0.446515 0.987499
O O5 0.470439 0.750000 0.270949
O O6 0.605920 0.685431 0.150311
O O7 0.624928 0.669328 0.733535
O O8 0.810019 0.750000 0.834861
O O9 0.630518 0.937845 0.154233
O O10 0.783323 0.375617 0.778968
#
# Coordination Sequence:
#
# PCOD9462652 Si02
#       5
#     8   4   8   8   8
#     4  10  21  37  53  75 110 138 170 217 270 311
#     4   8  16  30  46  66  98 128 152 202 248 276
#     4  10  21  37  58  82 108 139 180 228 272 320
#     4  10  21  35  53  77 107 141 172 216 261 313
#     4  10  19  32  51  75 102 132 173 211 248 300
#
# _framework density 20.382042999999999
#
# number of rings (size 3 to 8) (size 9 to 14) (size 15 to 20)
#    0.000    2.222    0.000    2.667    0.000    5.333 
#    2.000    0.000    0.000    0.000    0.000    0.000 
#    0.000    0.000    0.000    0.000    0.000    0.000 
#
# Total GULP energy -200704.458315 kJ/mol
# GULP energy per Si atom -5575.123842 kJ/mol
# Density = 2.033565 g / cm^3
# Si number density = 20.382043 Si / 1000 Ang^3
#
#
#
# Elastic Constant Matrix: (Units=GPa)
#
#
# Indices 1 2 3 4 5 6 
#
# 1 66.6663 -0.2835 -4.8344 0.0000 0.0000 0.0000
# 2 -0.2835 112.6558 40.5622 0.0000 0.0000 0.0000
# 3 -4.8344 40.5622 25.1366 0.0000 0.0000 0.0000
# 4 0.0000 0.0000 0.0000 29.9582 0.0000 0.0000
# 5 0.0000 0.0000 0.0000 0.0000 13.2884 0.0000
# 6 0.0000 0.0000 0.0000 0.0000 0.0000 26.7356
#
#
#
# Elastic Compliance Matrix: (Units=1/GPa)
#
#
# Indices 1 2 3 4 5 6 
#
# 1 0.015494 -0.002468 0.006962 0.000000 0.000000 0.000000
# 2 -0.002468 0.021579 -0.035295 0.000000 0.000000 0.000000
# 3 0.006962 -0.035295 0.098076 0.000000 0.000000 0.000000
# 4 0.000000 0.000000 0.000000 0.033380 0.000000 0.000000
# 5 0.000000 0.000000 0.000000 0.000000 0.075254 0.000000
# 6 0.000000 0.000000 0.000000 0.000000 0.000000 0.037403
#
#
# Mechanical properties :
#
#
# Convention : Reuss Voigt Hill
#
# Bulk Modulus (GPa) = 13.59666 30.59413 22.09539
# Shear Modulus (GPa) = 13.61270 25.26407 19.43839
#
# Velocity S-wave (km/s) = 2.58714 3.52451 3.09156
# Velocity P-wave (km/s) = 3.95092 5.62190 4.85878
#
# Compressibility (1/GPa) = 0.07354748
#
# Stress axis : x y z
#
# Youngs Moduli (GPa) = 64.53924 46.34227 10.19614
#
# Poissons Ratio (x) = 0.11436 -0.07099
# Poissons Ratio (y) = 0.15926 0.35988
# Poissons Ratio (z) = -0.44932 1.63566
#
# Static dielectric constant tensor:
#      x y z
#    x 1.719950 0.000000 0.000000 
#    y 0.000000 1.783210 0.000000 
#    z 0.000000 0.000000 1.738150 
# 
# From -- ./inp_files/16134.got.cif
#   From: 2010.05.17/outbox.cif.g08.bks.cpg/sg62_9_cif.got.tgz:16134.got - 2010.06.03 15:25:27.
