data_PCOD9462505
_publ_section_title
;
Structure prediction by ZEFSAII (Michael W. Deem and Ramdas Pophale) SiO2 
 PCOD9462505
Probable space group: P N M A
;
_chemical_formula_sum "Si O2"
_cell_formula_units_Z 48
_cell_length_a 18.602891
_cell_length_b 7.532021
_cell_length_c 17.235505
_cell_angle_alpha 90.000000
_cell_angle_beta 90.000000
_cell_angle_gamma 90.000000
_cell_volume 2414.993557
_symmetry_space_group_name_H-M "P N M A"
_symmetry_group_IT_number 62
_symmetry_cell_setting 'orthorhombic'
loop_
_space_group_symop_operation_xyz
x,y,z
1/2-x,-y,1/2+z
1/2+x,1/2-y,1/2-z
-x,1/2+y,-z
-x,-y,-z
1/2+x,y,1/2-z
1/2-x,1/2+y,1/2+z
x,1/2-y,z
loop_
_atom_site_type_symbol
_atom_site_label
_atom_site_fract_x
_atom_site_fract_y
_atom_site_fract_z
Si Si1 0.520733 0.036536 0.587928
Si Si2 0.329167 0.031042 0.861115
Si Si3 0.332167 0.960624 0.338859
Si Si4 0.439255 0.044141 0.734839
Si Si5 0.084162 0.537648 0.511756
Si Si6 0.588484 0.537007 0.815837
O O1 0.522696 0.250000 0.598003
O O2 0.599988 0.968758 0.611851
O O3 0.463654 0.967257 0.651851
O O4 0.500000 0.000000 0.500000
O O5 0.330514 0.250000 0.860352
O O6 0.246850 0.970736 0.857776
O O7 0.374826 0.969168 0.786396
O O8 0.369599 0.971541 0.939229
O O9 0.329314 0.750000 0.353237
O O10 0.353596 0.988113 0.249199
O O11 0.420869 0.250000 0.721306
O O12 0.511591 0.035441 0.786912
O O13 0.093115 0.750000 0.512309
O O14 0.105112 0.472587 0.597513
O O15 0.000000 0.500000 0.500000
O O16 0.581899 0.750000 0.817213
#
# Coordination Sequence:
#
# PCOD9462505 Si02
#       6
#     8   8   8   8   8   8
#     4   9  18  32  51  74  96 126 170 209 245 292
#     4   9  17  33  55  75  99 131 171 212 247 296
#     4   9  19  36  55  72  96 137 178 208 249 305
#     4   9  17  32  55  75  94 130 173 205 241 303
#     4  10  19  31  52  79 105 134 167 206 251 305
#     4  10  19  31  49  77 106 131 162 204 254 300
#
# _framework density 19.875827999999998
#
# number of rings (size 3 to 8) (size 9 to 14) (size 15 to 20)
#    0.000    2.667    1.667    1.500    0.000    3.333 
#    3.000    1.667    0.000    0.000    0.000    0.000 
#    0.000    0.000    0.000    0.000    0.000    0.000 
#
# Total GULP energy -267703.455035 kJ/mol
# GULP energy per Si atom -5577.155313 kJ/mol
# Density = 1.983059 g / cm^3
# Si number density = 19.875828 Si / 1000 Ang^3
#
#
#
# Elastic Constant Matrix: (Units=GPa)
#
#
# Indices 1 2 3 4 5 6 
#
# 1 140.8533 -1.7503 112.3674 0.0000 0.0000 0.0000
# 2 -1.7503 46.5241 -4.8649 0.0000 0.0000 0.0000
# 3 112.3674 -4.8649 193.8080 0.0000 0.0000 0.0000
# 4 0.0000 0.0000 0.0000 18.8064 0.0000 0.0000
# 5 0.0000 0.0000 0.0000 0.0000 24.9948 0.0000
# 6 0.0000 0.0000 0.0000 0.0000 0.0000 7.7234
#
#
#
# Elastic Compliance Matrix: (Units=1/GPa)
#
#
# Indices 1 2 3 4 5 6 
#
# 1 0.013214 -0.000305 -0.007669 0.000000 0.000000 0.000000
# 2 -0.000305 0.021558 0.000718 0.000000 0.000000 0.000000
# 3 -0.007669 0.000718 0.009624 0.000000 0.000000 0.000000
# 4 0.000000 0.000000 0.000000 0.053173 0.000000 0.000000
# 5 0.000000 0.000000 0.000000 0.000000 0.040008 0.000000
# 6 0.000000 0.000000 0.000000 0.000000 0.000000 0.129477
#
#
# Mechanical properties :
#
#
# Convention : Reuss Voigt Hill
#
# Bulk Modulus (GPa) = 33.46263 65.85444 49.65854
# Shear Modulus (GPa) = 17.15107 28.66713 22.90910
#
# Velocity S-wave (km/s) = 2.94072 3.80190 3.39870
# Velocity P-wave (km/s) = 5.32943 7.24413 6.35926
#
# Compressibility (1/GPa) = 0.02988408
#
# Stress axis : x y z
#
# Youngs Moduli (GPa) = 75.67936 46.38690 103.90678
#
# Poissons Ratio (x) = 0.01414 0.79684
# Poissons Ratio (y) = 0.02307 -0.07459
# Poissons Ratio (z) = 0.58037 -0.03330
#
# Static dielectric constant tensor:
#      x y z
#    x 1.705500 0.000000 0.000000 
#    y 0.000000 1.726240 0.000000 
#    z 0.000000 0.000000 1.716780 
# 
# From -- ./inp_files/19654.got.cif
#   From: 2010.05.17/outbox.cif.g08.bks.cpg/sg62_10_cif.got.tgz:19654.got - 2010.06.03 15:25:27.
