data_PCOD9462823
_publ_section_title
;
Structure prediction by ZEFSAII (Michael W. Deem and Ramdas Pophale) SiO2 
 PCOD9462823
Probable space group: P N M A
;
_chemical_formula_sum "Si O2"
_cell_formula_units_Z 56
_cell_length_a 13.399589
_cell_length_b 8.088571
_cell_length_c 24.075123
_cell_angle_alpha 90.000000
_cell_angle_beta 90.000000
_cell_angle_gamma 90.000000
_cell_volume 2609.346744
_symmetry_space_group_name_H-M "P N M A"
_symmetry_group_IT_number 62
_symmetry_cell_setting 'orthorhombic'
loop_
_space_group_symop_operation_xyz
x,y,z
1/2-x,-y,1/2+z
1/2+x,1/2-y,1/2-z
-x,1/2+y,-z
-x,-y,-z
1/2+x,y,1/2-z
1/2-x,1/2+y,1/2+z
x,1/2-y,z
loop_
_atom_site_type_symbol
_atom_site_label
_atom_site_fract_x
_atom_site_fract_y
_atom_site_fract_z
Si Si1 0.717731 0.952490 0.562311
Si Si2 0.002908 0.051969 0.064687
Si Si3 0.382398 0.558694 0.282691
Si Si4 0.778223 0.054673 0.934941
Si Si5 0.680365 0.059546 0.168072
Si Si6 0.807253 0.064587 0.326209
Si Si7 0.896488 0.056867 0.778881
O O1 0.852480 0.750000 0.667369
O O2 0.607210 0.004759 0.583777
O O3 0.730878 0.007534 0.498529
O O4 0.803131 0.003695 0.605464
O O5 0.008738 0.250000 0.069946
O O6 0.107401 0.977855 0.084796
O O7 0.000000 0.000000 0.000000
O O8 0.216362 0.750000 0.937916
O O9 0.293171 0.451447 0.307402
O O10 0.368986 0.548561 0.215829
O O11 0.493706 0.502553 0.296937
O O12 0.763710 0.250000 0.935895
O O13 0.702074 0.980008 0.890658
O O14 0.869027 0.750000 0.200874
O O15 0.614775 0.961195 0.212201
O O16 0.843860 0.250000 0.319107
O O17 0.693377 0.047301 0.304152
O O18 0.882307 0.250000 0.793272
#
# Coordination Sequence:
#
# PCOD9462823 Si02
#       7
#     8   8   8   8   8   8   8
#     4   8  17  31  48  72 103 137 169 209 256 305
#     4   9  16  28  43  66  98 135 173 208 249 301
#     4  10  21  37  55  76 103 136 173 214 260 308
#     4  10  19  33  50  71 104 140 173 211 258 310
#     4  10  19  33  54  80 106 135 173 213 257 308
#     4  11  22  35  54  80 106 135 174 216 259 310
#     4  10  21  37  55  77 105 137 173 214 261 311
#
# _framework density 21.461310999999998
#
# number of rings (size 3 to 8) (size 9 to 14) (size 15 to 20)
#    0.000    2.286    0.000    6.000    2.000    2.286 
#    0.000    7.857    0.000    0.857    0.000    0.000 
#    0.000    0.000    0.000    0.000    0.000    0.000 
#
# Total GULP energy -312517.380177 kJ/mol
# GULP energy per Si atom -5580.667503 kJ/mol
# Density = 2.141246 g / cm^3
# Si number density = 21.461311 Si / 1000 Ang^3
#
#
#
# Elastic Constant Matrix: (Units=GPa)
#
#
# Indices 1 2 3 4 5 6 
#
# 1 27.2219 -7.4327 -3.8133 0.0000 0.0000 0.0000
# 2 -7.4327 50.7875 -6.8962 0.0000 0.0000 0.0000
# 3 -3.8133 -6.8962 92.4608 0.0000 0.0000 0.0000
# 4 0.0000 0.0000 0.0000 25.2531 0.0000 0.0000
# 5 0.0000 0.0000 0.0000 0.0000 30.9172 0.0000
# 6 0.0000 0.0000 0.0000 0.0000 0.0000 20.3521
#
#
#
# Elastic Compliance Matrix: (Units=1/GPa)
#
#
# Indices 1 2 3 4 5 6 
#
# 1 0.038640 0.005931 0.002036 0.000000 0.000000 0.000000
# 2 0.005931 0.020802 0.001796 0.000000 0.000000 0.000000
# 3 0.002036 0.001796 0.011033 0.000000 0.000000 0.000000
# 4 0.000000 0.000000 0.000000 0.039599 0.000000 0.000000
# 5 0.000000 0.000000 0.000000 0.000000 0.032344 0.000000
# 6 0.000000 0.000000 0.000000 0.000000 0.000000 0.049135
#
#
# Mechanical properties :
#
#
# Convention : Reuss Voigt Hill
#
# Bulk Modulus (GPa) = 11.11087 14.90953 13.01020
# Shear Modulus (GPa) = 24.74916 27.87865 26.31390
#
# Velocity S-wave (km/s) = 3.39956 3.60810 3.50538
# Velocity P-wave (km/s) = 4.53848 4.93154 4.73909
#
# Compressibility (1/GPa) = 0.09000192
#
# Stress axis : x y z
#
# Youngs Moduli (GPa) = 25.88006 48.07271 90.63446
#
# Poissons Ratio (x) = -0.28514 -0.18453
# Poissons Ratio (y) = -0.15350 -0.16279
# Poissons Ratio (z) = -0.05269 -0.08634
#
# Static dielectric constant tensor:
#      x y z
#    x 1.765810 0.000000 0.000000 
#    y 0.000000 1.722060 0.000000 
#    z 0.000000 0.000000 1.856260 
# 
# From -- ./inp_files/27134.got.cif
#   From: 2010.05.17/outbox.cif.g08.bks.cpg/sg62_14_cif.got.tgz:27134.got - 2010.06.03 15:25:27.
