data_PCOD9462704
_publ_section_title
;
Structure prediction by ZEFSAII (Michael W. Deem and Ramdas Pophale) SiO2 
 PCOD9462704
Probable space group: P N M A
;
_chemical_formula_sum "Si O2"
_cell_formula_units_Z 48
_cell_length_a 15.498390
_cell_length_b 8.268799
_cell_length_c 20.517437
_cell_angle_alpha 90.000000
_cell_angle_beta 90.000000
_cell_angle_gamma 90.000000
_cell_volume 2629.372576
_symmetry_space_group_name_H-M "P N M A"
_symmetry_group_IT_number 62
_symmetry_cell_setting 'orthorhombic'
loop_
_space_group_symop_operation_xyz
x,y,z
1/2-x,-y,1/2+z
1/2+x,1/2-y,1/2-z
-x,1/2+y,-z
-x,-y,-z
1/2+x,y,1/2-z
1/2-x,1/2+y,1/2+z
x,1/2-y,z
loop_
_atom_site_type_symbol
_atom_site_label
_atom_site_fract_x
_atom_site_fract_y
_atom_site_fract_z
Si Si1 0.805038 0.944896 0.665803
Si Si2 0.612796 0.554905 0.687767
Si Si3 0.917846 0.444978 0.040202
Si Si4 0.009116 0.557233 0.303826
Si Si5 0.227102 0.053037 0.483007
Si Si6 0.936936 0.554257 0.442269
O O1 0.806107 0.750000 0.666473
O O2 0.712859 0.998339 0.695058
O O3 0.804592 0.995831 0.589459
O O4 0.891293 0.004776 0.700094
O O5 0.613508 0.750000 0.687411
O O6 0.582024 0.501374 0.615778
O O7 0.549658 0.498720 0.744198
O O8 0.916659 0.250000 0.040644
O O9 0.826092 0.500071 0.010201
O O10 0.000000 0.500000 0.000000
O O11 0.006817 0.750000 0.306058
O O12 0.970258 0.494122 0.372512
O O13 0.227286 0.250000 0.483265
O O14 0.158919 0.999200 0.537023
O O15 0.936976 0.750000 0.440657
O O16 0.000000 0.500000 0.500000
#
# Coordination Sequence:
#
# PCOD9462704 Si02
#       6
#     8   8   8   8   8   8
#     4   9  17  34  59  76  95 140 186 217 257 313
#     4   9  20  38  57  76 103 143 187 219 255 319
#     4   9  18  35  58  80 102 135 179 220 262 313
#     4  11  22  33  51  82 114 140 171 221 275 320
#     4   8  15  31  54  75 100 137 173 207 257 315
#     4  10  19  32  52  79 108 138 173 212 260 317
#
# _framework density 18.255303999999999
#
# number of rings (size 3 to 8) (size 9 to 14) (size 15 to 20)
#    0.000    2.667    1.667    2.500    0.000    2.000 
#    3.000    3.333    0.000    0.000    0.000    0.000 
#    0.000    0.000    0.000    0.000    0.000    0.000 
#
# Total GULP energy -267616.946730 kJ/mol
# GULP energy per Si atom -5575.353057 kJ/mol
# Density = 1.821375 g / cm^3
# Si number density = 18.255304 Si / 1000 Ang^3
#
#
#
# Elastic Constant Matrix: (Units=GPa)
#
#
# Indices 1 2 3 4 5 6 
#
# 1 200.7511 21.2909 108.3029 0.0000 0.0000 0.0000
# 2 21.2909 10.5939 16.6014 0.0000 0.0000 0.0000
# 3 108.3029 16.6014 106.5903 0.0000 0.0000 0.0000
# 4 0.0000 0.0000 0.0000 21.1908 0.0000 0.0000
# 5 0.0000 0.0000 0.0000 0.0000 36.5202 0.0000
# 6 0.0000 0.0000 0.0000 0.0000 0.0000 24.4039
#
#
#
# Elastic Compliance Matrix: (Units=1/GPa)
#
#
# Indices 1 2 3 4 5 6 
#
# 1 0.011329 -0.006257 -0.010537 0.000000 0.000000 0.000000
# 2 -0.006257 0.128327 -0.013629 0.000000 0.000000 0.000000
# 3 -0.010537 -0.013629 0.022211 0.000000 0.000000 0.000000
# 4 0.000000 0.000000 0.000000 0.047190 0.000000 0.000000
# 5 0.000000 0.000000 0.000000 0.000000 0.027382 0.000000
# 6 0.000000 0.000000 0.000000 0.000000 0.000000 0.040977
#
#
# Mechanical properties :
#
#
# Convention : Reuss Voigt Hill
#
# Bulk Modulus (GPa) = 9.89899 67.81397 38.85648
# Shear Modulus (GPa) = 13.44316 27.87233 20.65774
#
# Velocity S-wave (km/s) = 2.71661 3.91168 3.36758
# Velocity P-wave (km/s) = 3.90823 7.59143 6.03755
#
# Compressibility (1/GPa) = 0.10102038
#
# Stress axis : x y z
#
# Youngs Moduli (GPa) = 88.26546 7.79261 45.02322
#
# Poissons Ratio (x) = 0.04876 0.47441
# Poissons Ratio (y) = 0.55227 0.61364
# Poissons Ratio (z) = 0.93005 0.10621
#
# Static dielectric constant tensor:
#      x y z
#    x 1.637190 0.000000 0.000000 
#    y 0.000000 1.642150 0.000000 
#    z 0.000000 0.000000 1.611230 
# 
# From -- ./inp_files/26869.got.cif
#   From: 2010.05.17/outbox.cif.g08.bks.cpg/sg62_14_cif.got.tgz:26869.got - 2010.06.03 15:25:27.
