data_PCOD9462922
_publ_section_title
;
Structure prediction by ZEFSAII (Michael W. Deem and Ramdas Pophale) SiO2 
 PCOD9462922
Probable space group: P N M A
;
_chemical_formula_sum "Si O2"
_cell_formula_units_Z 48
_cell_length_a 5.337207
_cell_length_b 21.292119
_cell_length_c 16.192551
_cell_angle_alpha 90.000000
_cell_angle_beta 90.000000
_cell_angle_gamma 90.000000
_cell_volume 1840.128727
_symmetry_space_group_name_H-M "P N M A"
_symmetry_group_IT_number 62
_symmetry_cell_setting 'orthorhombic'
loop_
_space_group_symop_operation_xyz
x,y,z
1/2-x,-y,1/2+z
1/2+x,1/2-y,1/2-z
-x,1/2+y,-z
-x,-y,-z
1/2+x,y,1/2-z
1/2-x,1/2+y,1/2+z
x,1/2-y,z
loop_
_atom_site_type_symbol
_atom_site_label
_atom_site_fract_x
_atom_site_fract_y
_atom_site_fract_z
Si Si1 0.937620 0.681858 0.893665
Si Si2 0.008168 0.548462 0.876131
Si Si3 0.936958 0.682995 0.194318
Si Si4 0.801382 0.547173 0.458345
Si Si5 0.268670 0.937975 0.299147
Si Si6 0.060880 0.181530 0.506060
O O1 0.916587 0.750000 0.850501
O O2 0.939922 0.616606 0.842982
O O3 0.696317 0.677098 0.953974
O O4 0.200923 0.683152 0.943504
O O5 0.091547 0.557367 0.971094
O O6 0.220256 0.509150 0.830478
O O7 0.800755 0.494299 0.883358
O O8 0.207580 0.683088 0.238862
O O9 0.921068 0.750000 0.148833
O O10 0.868330 0.620205 0.143259
O O11 0.903309 0.617115 0.443310
O O12 0.000000 0.500000 0.500000
O O13 0.490170 0.929407 0.232640
O O14 0.063159 0.250000 0.549530
#
# Coordination Sequence:
#
# PCOD9462922 Si02
#       6
#     8   8   8   8   8   8
#     4   9  17  30  50  74 100 137 177 208 255 320
#     4  10  21  34  54  81 108 140 178 223 268 322
#     4   8  14  28  49  70  94 129 172 209 248 303
#     4  10  19  33  54  80 108 140 175 219 269 314
#     4  10  22  36  54  79 105 139 177 221 267 313
#     4   9  17  30  48  73 106 139 172 209 255 317
#
# _framework density 26.085132000000002
#
# number of rings (size 3 to 8) (size 9 to 14) (size 15 to 20)
#    0.000    2.667    1.667    0.000    2.333    0.000 
#    0.000    0.833    0.000    3.000    0.000    0.000 
#    0.000    0.000    0.000    0.000    0.000    0.000 
#
# Total GULP energy -267744.589429 kJ/mol
# GULP energy per Si atom -5578.012280 kJ/mol
# Density = 2.602576 g / cm^3
# Si number density = 26.085132 Si / 1000 Ang^3
#
#
#
# Elastic Constant Matrix: (Units=GPa)
#
#
# Indices 1 2 3 4 5 6 
#
# 1 161.1661 18.9429 18.2932 0.0000 0.0000 0.0000
# 2 18.9429 300.2910 13.8749 0.0000 0.0000 0.0000
# 3 18.2932 13.8749 9.2811 0.0000 0.0000 0.0000
# 4 0.0000 0.0000 0.0000 19.3959 0.0000 0.0000
# 5 0.0000 0.0000 0.0000 0.0000 42.7074 0.0000
# 6 0.0000 0.0000 0.0000 0.0000 0.0000 23.6315
#
#
#
# Elastic Compliance Matrix: (Units=1/GPa)
#
#
# Indices 1 2 3 4 5 6 
#
# 1 0.008009 0.000241 -0.016146 0.000000 0.000000 0.000000
# 2 0.000241 0.003584 -0.005833 0.000000 0.000000 0.000000
# 3 -0.016146 -0.005833 0.148292 0.000000 0.000000 0.000000
# 4 0.000000 0.000000 0.000000 0.051557 0.000000 0.000000
# 5 0.000000 0.000000 0.000000 0.000000 0.023415 0.000000
# 6 0.000000 0.000000 0.000000 0.000000 0.000000 0.042316
#
#
# Mechanical properties :
#
#
# Convention : Reuss Voigt Hill
#
# Bulk Modulus (GPa) = 8.59049 63.66226 36.12637
# Shear Modulus (GPa) = 13.90996 45.12208 29.51602
#
# Velocity S-wave (km/s) = 2.31173 4.16360 3.36747
# Velocity P-wave (km/s) = 3.22891 6.89729 5.38510
#
# Compressibility (1/GPa) = 0.11640783
#
# Stress axis : x y z
#
# Youngs Moduli (GPa) = 124.85689 278.98372 6.74346
#
# Poissons Ratio (x) = -0.06718 0.10888
# Poissons Ratio (y) = -0.03007 0.03934
# Poissons Ratio (z) = 2.01598 1.62739
#
# Static dielectric constant tensor:
#      x y z
#    x 2.100000 0.000000 0.000000 
#    y 0.000000 2.286840 0.000000 
#    z 0.000000 0.000000 2.108270 
# 
# From -- ./inp_files/25300.got.cif
#   From: 2010.05.17/outbox.cif.g08.bks.cpg/sg62_13_cif.got.tgz:25300.got - 2010.06.03 15:25:27.
