data_PCOD9462751
_publ_section_title
;
Structure prediction by ZEFSAII (Michael W. Deem and Ramdas Pophale) SiO2 
 PCOD9462751
Probable space group: P N M A
;
_chemical_formula_sum "Si O2"
_cell_formula_units_Z 56
_cell_length_a 24.386023
_cell_length_b 16.938469
_cell_length_c 5.189365
_cell_angle_alpha 90.000000
_cell_angle_beta 90.000000
_cell_angle_gamma 90.000000
_cell_volume 2143.528939
_symmetry_space_group_name_H-M "P N M A"
_symmetry_group_IT_number 62
_symmetry_cell_setting 'orthorhombic'
loop_
_space_group_symop_operation_xyz
x,y,z
1/2-x,-y,1/2+z
1/2+x,1/2-y,1/2-z
-x,1/2+y,-z
-x,-y,-z
1/2+x,y,1/2-z
1/2-x,1/2+y,1/2+z
x,1/2-y,z
loop_
_atom_site_type_symbol
_atom_site_label
_atom_site_fract_x
_atom_site_fract_y
_atom_site_fract_z
Si Si1 0.385466 0.665725 0.245260
Si Si2 0.689983 0.163913 0.249788
Si Si3 0.943998 0.341434 0.338180
Si Si4 0.798037 0.416733 0.200424
Si Si5 0.025968 0.041843 0.256741
Si Si6 0.894207 0.503042 0.095334
Si Si7 0.151771 0.840243 0.303539
O O1 0.416044 0.750000 0.267171
O O2 0.342187 0.663170 0.481346
O O3 0.416267 0.582947 0.271671
O O4 0.353626 0.664837 0.978612
O O5 0.719788 0.250000 0.239181
O O6 0.733561 0.095349 0.196523
O O7 0.935313 0.250000 0.250680
O O8 0.913380 0.345573 0.617788
O O9 0.007293 0.367387 0.296242
O O10 0.916555 0.418071 0.195525
O O11 0.829262 0.498036 0.144451
O O12 0.825273 0.363356 0.974106
O O13 0.816750 0.390285 0.482959
O O14 0.088960 0.019332 0.200800
O O15 0.000000 0.000000 0.500000
O O16 0.000000 0.000000 0.000000
O O17 0.166006 0.750000 0.348240
#
# Coordination Sequence:
#
# PCOD9462751 Si02
#       7
#     8   8   8   8   8   8   8
#     4  10  23  41  61  86 119 162 210 255 301 359
#     4  10  21  38  59  85 119 159 206 256 304 359
#     4   9  20  39  64  96 129 162 203 254 313 377
#     4  11  21  34  57  86 117 158 199 248 307 359
#     4  10  21  40  62  87 121 162 200 245 303 366
#     4  10  23  40  64  91 125 161 202 253 306 367
#     4  10  19  32  53  85 121 154 192 239 297 363
#
# _framework density 26.125142
#
# number of rings (size 3 to 8) (size 9 to 14) (size 15 to 20)
#    0.000    2.000    0.000    3.000    0.000    8.571 
#    0.000    5.714    0.000    0.857    0.000    0.000 
#    0.000    0.000    0.000    0.000    0.000    0.000 
#
# Total GULP energy -312471.620248 kJ/mol
# GULP energy per Si atom -5579.850362 kJ/mol
# Density = 2.606568 g / cm^3
# Si number density = 26.125142 Si / 1000 Ang^3
#
#
#
# Elastic Constant Matrix: (Units=GPa)
#
#
# Indices 1 2 3 4 5 6 
#
# 1 52.5981 36.4719 32.7078 0.0000 0.0000 0.0000
# 2 36.4719 201.8923 35.1926 0.0000 0.0000 0.0000
# 3 32.7078 35.1926 95.2346 0.0000 0.0000 0.0000
# 4 0.0000 0.0000 0.0000 44.4262 0.0000 0.0000
# 5 0.0000 0.0000 0.0000 0.0000 35.6855 0.0000
# 6 0.0000 0.0000 0.0000 0.0000 0.0000 36.0656
#
#
#
# Elastic Compliance Matrix: (Units=1/GPa)
#
#
# Indices 1 2 3 4 5 6 
#
# 1 0.026167 -0.003378 -0.007738 0.000000 0.000000 0.000000
# 2 -0.003378 0.005730 -0.000957 0.000000 0.000000 0.000000
# 3 -0.007738 -0.000957 0.013512 0.000000 0.000000 0.000000
# 4 0.000000 0.000000 0.000000 0.022509 0.000000 0.000000
# 5 0.000000 0.000000 0.000000 0.000000 0.028023 0.000000
# 6 0.000000 0.000000 0.000000 0.000000 0.000000 0.027727
#
#
# Mechanical properties :
#
#
# Convention : Reuss Voigt Hill
#
# Bulk Modulus (GPa) = 47.03454 62.05217 54.54335
# Shear Modulus (GPa) = 32.27837 39.59232 35.93534
#
# Velocity S-wave (km/s) = 3.51882 3.89715 3.71281
# Velocity P-wave (km/s) = 5.87811 6.63731 6.26921
#
# Compressibility (1/GPa) = 0.02126097
#
# Stress axis : x y z
#
# Youngs Moduli (GPa) = 38.21671 174.51193 74.00892
#
# Poissons Ratio (x) = 0.58952 0.57271
# Poissons Ratio (y) = 0.12910 0.07085
# Poissons Ratio (z) = 0.29574 0.16707
#
# Static dielectric constant tensor:
#      x y z
#    x 2.368840 0.000000 0.000000 
#    y 0.000000 2.082120 0.000000 
#    z 0.000000 0.000000 2.083780 
# 
# From -- ./inp_files/3588.got.cif
#   From: 2010.05.17/outbox.cif.g08.bks.cpg/sg62_2_cif.got.tgz:3588.got - 2010.06.03 15:25:27.
