data_PCOD9462070
_publ_section_title
;
Structure prediction by ZEFSAII (Michael W. Deem and Ramdas Pophale) SiO2 
 PCOD9462070
Probable space group: P N M A
;
_chemical_formula_sum "Si O2"
_cell_formula_units_Z 64
_cell_length_a 19.033475
_cell_length_b 18.578657
_cell_length_c 10.083206
_cell_angle_alpha 90.000000
_cell_angle_beta 90.000000
_cell_angle_gamma 90.000000
_cell_volume 3565.587042
_symmetry_space_group_name_H-M "P N M A"
_symmetry_group_IT_number 62
_symmetry_cell_setting 'orthorhombic'
loop_
_space_group_symop_operation_xyz
x,y,z
1/2-x,-y,1/2+z
1/2+x,1/2-y,1/2-z
-x,1/2+y,-z
-x,-y,-z
1/2+x,y,1/2-z
1/2-x,1/2+y,1/2+z
x,1/2-y,z
loop_
_atom_site_type_symbol
_atom_site_label
_atom_site_fract_x
_atom_site_fract_y
_atom_site_fract_z
Si Si1 0.699506 0.591864 0.665920
Si Si2 0.860022 0.397144 0.438810
Si Si3 0.844378 0.564278 0.518038
Si Si4 0.620546 0.835634 0.427127
Si Si5 0.497637 0.552261 0.374153
Si Si6 0.286683 0.167690 0.827493
Si Si7 0.344332 0.574048 0.293700
Si Si8 0.990293 0.946938 0.623794
O O1 0.692250 0.618800 0.816779
O O2 0.776336 0.587664 0.600505
O O3 0.651127 0.637778 0.567244
O O4 0.670961 0.510127 0.679234
O O5 0.845608 0.477130 0.499450
O O6 0.845084 0.344543 0.559860
O O7 0.939441 0.398633 0.380854
O O8 0.844952 0.589351 0.364708
O O9 0.914849 0.588093 0.595302
O O10 0.606160 0.750000 0.427123
O O11 0.554516 0.885127 0.389984
O O12 0.678884 0.850635 0.314031
O O13 0.500000 0.500000 0.500000
O O14 0.421083 0.586823 0.352580
O O15 0.511383 0.498792 0.250589
O O16 0.264464 0.250000 0.823983
O O17 0.219426 0.118548 0.854416
O O18 0.000000 0.000000 0.500000
#
# Coordination Sequence:
#
# PCOD9462070 Si02
#       8
#     8   8   8   8   8   8   8   8
#     4  11  20  37  61  90 115 155 201 252 301 355
#     4  10  20  35  57  87 117 150 198 250 306 349
#     4  10  19  32  59  86 116 150 193 255 296 351
#     4  11  24  40  59  86 123 164 198 238 303 377
#     4  12  22  36  60  93 120 153 201 254 303 355
#     4  11  24  39  58  86 124 162 201 249 305 372
#     4  11  21  36  59  89 117 151 206 255 299 344
#     4  10  18  33  54  86 115 148 192 249 299 350
#
# _framework density 17.949359000000001
#
# number of rings (size 3 to 8) (size 9 to 14) (size 15 to 20)
#    0.000    1.250    7.500    1.500    0.000    2.000 
#    0.000    0.000    0.000    0.750    0.000    0.000 
#    0.000    0.000    0.000    0.000    0.000    0.000 
#
# Total GULP energy -356974.775727 kJ/mol
# GULP energy per Si atom -5577.730871 kJ/mol
# Density = 1.790851 g / cm^3
# Si number density = 17.949359 Si / 1000 Ang^3
#
#
#
# Elastic Constant Matrix: (Units=GPa)
#
#
# Indices 1 2 3 4 5 6 
#
# 1 119.3242 30.9728 28.5706 0.0000 0.0000 0.0000
# 2 30.9728 39.8042 21.7461 0.0000 0.0000 0.0000
# 3 28.5706 21.7461 107.6255 0.0000 0.0000 0.0000
# 4 0.0000 0.0000 0.0000 17.7729 0.0000 0.0000
# 5 0.0000 0.0000 0.0000 0.0000 29.4021 0.0000
# 6 0.0000 0.0000 0.0000 0.0000 0.0000 17.7070
#
#
#
# Elastic Compliance Matrix: (Units=1/GPa)
#
#
# Indices 1 2 3 4 5 6 
#
# 1 0.010660 -0.007586 -0.001297 0.000000 0.000000 0.000000
# 2 -0.007586 0.033639 -0.004783 0.000000 0.000000 0.000000
# 3 -0.001297 -0.004783 0.010602 0.000000 0.000000 0.000000
# 4 0.000000 0.000000 0.000000 0.056265 0.000000 0.000000
# 5 0.000000 0.000000 0.000000 0.000000 0.034011 0.000000
# 6 0.000000 0.000000 0.000000 0.000000 0.000000 0.056475
#
#
# Mechanical properties :
#
#
# Convention : Reuss Voigt Hill
#
# Bulk Modulus (GPa) = 36.27293 47.70366 41.98830
# Shear Modulus (GPa) = 20.99290 25.34070 23.16680
#
# Velocity S-wave (km/s) = 3.42360 3.76145 3.59649
# Velocity P-wave (km/s) = 5.99002 6.74531 6.37886
#
# Compressibility (1/GPa) = 0.02756877
#
# Stress axis : x y z
#
# Youngs Moduli (GPa) = 93.80593 29.72715 94.31992
#
# Poissons Ratio (x) = 0.22552 0.12234
# Poissons Ratio (y) = 0.71166 0.45113
# Poissons Ratio (z) = 0.12167 0.14218
#
# Static dielectric constant tensor:
#      x y z
#    x 1.651410 0.000000 0.000000 
#    y 0.000000 1.591620 0.000000 
#    z 0.000000 0.000000 1.614330 
# 
# From -- ./inp_files/8083.got.cif
#   From: 2010.05.17/outbox.cif.g08.bks.cpg/sg62_5_cif.got.tgz:8083.got - 2010.06.03 15:25:27.
