data_PCOD9462557
_publ_section_title
;
Structure prediction by ZEFSAII (Michael W. Deem and Ramdas Pophale) SiO2 
 PCOD9462557
Probable space group: P N M A
;
_chemical_formula_sum "Si O2"
_cell_formula_units_Z 64
_cell_length_a 22.178107
_cell_length_b 8.764593
_cell_length_c 17.531769
_cell_angle_alpha 90.000000
_cell_angle_beta 90.000000
_cell_angle_gamma 90.000000
_cell_volume 3407.861748
_symmetry_space_group_name_H-M "P N M A"
_symmetry_group_IT_number 62
_symmetry_cell_setting 'orthorhombic'
loop_
_space_group_symop_operation_xyz
x,y,z
1/2-x,-y,1/2+z
1/2+x,1/2-y,1/2-z
-x,1/2+y,-z
-x,-y,-z
1/2+x,y,1/2-z
1/2-x,1/2+y,1/2+z
x,1/2-y,z
loop_
_atom_site_type_symbol
_atom_site_label
_atom_site_fract_x
_atom_site_fract_y
_atom_site_fract_z
Si Si1 0.879634 0.068088 0.280030
Si Si2 0.371309 0.932044 0.462507
Si Si3 0.348339 0.934037 0.779187
Si Si4 0.894916 0.431951 0.873105
Si Si5 0.281184 0.433256 0.345877
Si Si6 0.576522 0.431333 0.927204
Si Si7 0.555669 0.066156 0.095480
Si Si8 0.028114 0.933986 0.849817
O O1 0.881088 0.250000 0.288979
O O2 0.822997 0.028675 0.227041
O O3 0.938656 0.025563 0.229844
O O4 0.879704 0.994419 0.362691
O O5 0.377595 0.750000 0.461750
O O6 0.372689 0.994782 0.548009
O O7 0.311267 0.983039 0.417351
O O8 0.427213 0.006652 0.415981
O O9 0.349871 0.750000 0.768393
O O10 0.287101 0.970483 0.824378
O O11 0.404646 0.978480 0.832386
O O12 0.354649 0.013927 0.698025
O O13 0.895581 0.250000 0.879294
O O14 0.962649 0.493338 0.857775
O O15 0.286007 0.250000 0.358288
O O16 0.576103 0.250000 0.923624
O O17 0.510152 0.493685 0.906780
O O18 0.587656 0.475511 0.015224
O O19 0.548894 0.250000 0.097108
O O20 0.023818 0.750000 0.853947
#
# Coordination Sequence:
#
# PCOD9462557 Si02
#       8
#     8   8   8   8   8   8   8   8
#     4   9  18  33  54  79 108 145 181 221 274 330
#     4  11  22  38  60  85 115 150 190 232 281 338
#     4  10  21  40  61  79 109 150 192 235 284 337
#     4  12  24  37  56  86 119 148 186 233 286 341
#     4   9  20  40  61  79 108 148 190 233 282 332
#     4  10  19  31  51  81 112 140 179 226 272 327
#     4   9  19  35  54  77 108 145 179 221 278 331
#     4  10  20  36  58  85 118 152 188 229 285 341
#
# _framework density 18.780104999999999
#
# number of rings (size 3 to 8) (size 9 to 14) (size 15 to 20)
#    0.000    2.000    0.000    4.875    0.000    7.000 
#    2.250    0.000    0.000    0.000    0.000    0.000 
#    0.000    0.000    0.000    0.000    0.000    0.000 
#
# Total GULP energy -357464.540916 kJ/mol
# GULP energy per Si atom -5585.383452 kJ/mol
# Density = 1.873736 g / cm^3
# Si number density = 18.780105 Si / 1000 Ang^3
#
#
#
# Elastic Constant Matrix: (Units=GPa)
#
#
# Indices 1 2 3 4 5 6 
#
# 1 37.5767 10.3706 0.9135 0.0000 0.0000 0.0000
# 2 10.3706 45.9531 20.4841 0.0000 0.0000 0.0000
# 3 0.9135 20.4841 83.5160 0.0000 0.0000 0.0000
# 4 0.0000 0.0000 0.0000 33.1907 0.0000 0.0000
# 5 0.0000 0.0000 0.0000 0.0000 8.9067 0.0000
# 6 0.0000 0.0000 0.0000 0.0000 0.0000 22.8856
#
#
#
# Elastic Compliance Matrix: (Units=1/GPa)
#
#
# Indices 1 2 3 4 5 6 
#
# 1 0.028530 -0.007073 0.001423 0.000000 0.000000 0.000000
# 2 -0.007073 0.026186 -0.006345 0.000000 0.000000 0.000000
# 3 0.001423 -0.006345 0.013515 0.000000 0.000000 0.000000
# 4 0.000000 0.000000 0.000000 0.030129 0.000000 0.000000
# 5 0.000000 0.000000 0.000000 0.000000 0.112275 0.000000
# 6 0.000000 0.000000 0.000000 0.000000 0.000000 0.043696
#
#
# Mechanical properties :
#
#
# Convention : Reuss Voigt Hill
#
# Bulk Modulus (GPa) = 22.60425 25.62025 24.11225
# Shear Modulus (GPa) = 17.06095 22.01510 19.53803
#
# Velocity S-wave (km/s) = 3.01733 3.42754 3.22896
# Velocity P-wave (km/s) = 4.91950 5.41626 5.17385
#
# Compressibility (1/GPa) = 0.04423946
#
# Stress axis : x y z
#
# Youngs Moduli (GPa) = 35.05130 38.18845 73.99453
#
# Poissons Ratio (x) = 0.27009 -0.10527
# Poissons Ratio (y) = 0.24791 0.46952
# Poissons Ratio (z) = -0.04987 0.24232
#
# Static dielectric constant tensor:
#      x y z
#    x 1.634320 0.000000 0.000000 
#    y 0.000000 1.631190 0.000000 
#    z 0.000000 0.000000 1.652520 
# 
# From -- ./inp_files/24837.got.cif
#   From: 2010.05.17/outbox.cif.g08.bks.cpg/sg62_13_cif.got.tgz:24837.got - 2010.06.03 15:25:27.
