data_PCOD9462940
_publ_section_title
;
Structure prediction by ZEFSAII (Michael W. Deem and Ramdas Pophale) SiO2 
 PCOD9462940
Probable space group: P N M A
;
_chemical_formula_sum "Si O2"
_cell_formula_units_Z 56
_cell_length_a 19.877714
_cell_length_b 25.660386
_cell_length_c 5.023482
_cell_angle_alpha 90.000000
_cell_angle_beta 90.000000
_cell_angle_gamma 90.000000
_cell_volume 2562.326530
_symmetry_space_group_name_H-M "P N M A"
_symmetry_group_IT_number 62
_symmetry_cell_setting 'orthorhombic'
loop_
_space_group_symop_operation_xyz
x,y,z
1/2-x,-y,1/2+z
1/2+x,1/2-y,1/2-z
-x,1/2+y,-z
-x,-y,-z
1/2+x,y,1/2-z
1/2-x,1/2+y,1/2+z
x,1/2-y,z
loop_
_atom_site_type_symbol
_atom_site_label
_atom_site_fract_x
_atom_site_fract_y
_atom_site_fract_z
Si Si1 0.061014 0.448635 0.899519
Si Si2 0.826022 0.960292 0.676731
Si Si3 0.145114 0.859847 0.053850
Si Si4 0.432388 0.441622 0.283776
Si Si5 0.744461 0.928891 0.172648
Si Si6 0.497200 0.136505 0.866381
Si Si7 0.525017 0.750000 0.130133
Si Si8 0.116601 0.750000 0.862136
O O1 0.079772 0.498023 0.711016
O O2 0.060310 0.391371 0.772594
O O3 0.103442 0.452598 0.169839
O O4 0.980825 0.451037 0.962446
O O5 0.803482 0.939260 0.389032
O O6 0.805622 0.021309 0.692625
O O7 0.776519 0.930740 0.883807
O O8 0.202757 0.877899 0.252279
O O9 0.072033 0.857144 0.196866
O O10 0.133328 0.908616 0.853577
O O11 0.154718 0.803910 0.920787
O O12 0.474563 0.403498 0.095989
O O13 0.512570 0.196183 0.938385
O O14 0.551922 0.750000 0.435156
O O15 0.590168 0.750000 0.938165
#
# Coordination Sequence:
#
# PCOD9462940 Si02
#       8
#     8   8   8   8   8   8   4   4
#     4  10  21  34  51  85 116 151 187 226 285 342
#     4  10  22  37  54  79 109 151 188 222 272 335
#     4  10  20  35  55  85 113 142 190 234 292 339
#     4  10  19  33  54  83 117 147 179 232 285 345
#     4  10  22  36  56  78 109 149 186 232 271 327
#     4  10  21  33  57  82 115 153 181 238 286 343
#     4  10  20  36  54  84 113 145 190 224 283 344
#     4  10  20  34  58  82 113 145 178 240 291 330
#
# _framework density 21.855138
#
# number of rings (size 3 to 8) (size 9 to 14) (size 15 to 20)
#    0.000    2.000    2.857    0.429    4.000    1.143 
#    0.000    0.000    0.000    1.714    0.000    0.000 
#    0.000    0.000    0.000    0.000    0.000    0.000 
#
# Total GULP energy -312418.157324 kJ/mol
# GULP energy per Si atom -5578.895666 kJ/mol
# Density = 2.180539 g / cm^3
# Si number density = 21.855138 Si / 1000 Ang^3
#
#
#
# Elastic Constant Matrix: (Units=GPa)
#
#
# Indices 1 2 3 4 5 6 
#
# 1 63.5673 24.9576 -1.9586 0.0000 0.0000 0.0000
# 2 24.9576 162.0915 9.9382 0.0000 0.0000 0.0000
# 3 -1.9586 9.9382 51.7215 0.0000 0.0000 0.0000
# 4 0.0000 0.0000 0.0000 18.4431 0.0000 0.0000
# 5 0.0000 0.0000 0.0000 0.0000 32.2844 0.0000
# 6 0.0000 0.0000 0.0000 0.0000 0.0000 26.1999
#
#
#
# Elastic Compliance Matrix: (Units=1/GPa)
#
#
# Indices 1 2 3 4 5 6 
#
# 1 0.016811 -0.002659 0.001147 0.000000 0.000000 0.000000
# 2 -0.002659 0.006663 -0.001381 0.000000 0.000000 0.000000
# 3 0.001147 -0.001381 0.019643 0.000000 0.000000 0.000000
# 4 0.000000 0.000000 0.000000 0.054221 0.000000 0.000000
# 5 0.000000 0.000000 0.000000 0.000000 0.030975 0.000000
# 6 0.000000 0.000000 0.000000 0.000000 0.000000 0.038168
#
#
# Mechanical properties :
#
#
# Convention : Reuss Voigt Hill
#
# Bulk Modulus (GPa) = 26.78633 38.13940 32.46287
# Shear Modulus (GPa) = 27.06954 31.68170 29.37562
#
# Velocity S-wave (km/s) = 3.52318 3.81152 3.67018
# Velocity P-wave (km/s) = 5.36966 6.07117 5.73116
#
# Compressibility (1/GPa) = 0.03733247
#
# Stress axis : x y z
#
# Youngs Moduli (GPa) = 59.48642 150.07358 50.90841
#
# Poissons Ratio (x) = 0.39900 -0.05841
# Poissons Ratio (y) = 0.15816 0.07031
# Poissons Ratio (z) = -0.06826 0.20726
#
# Static dielectric constant tensor:
#      x y z
#    x 1.821800 0.000000 0.000000 
#    y 0.000000 1.902630 0.000000 
#    z 0.000000 0.000000 1.937080 
# 
# From -- ./inp_files/2321.got.cif
#   From: 2010.05.17/outbox.cif.g08.bks.cpg/sg62_2_cif.got.tgz:2321.got - 2010.06.03 15:25:27.
