data_PCOD9462277
_publ_section_title
;
Structure prediction by ZEFSAII (Michael W. Deem and Ramdas Pophale) SiO2 
 PCOD9462277
Probable space group: P N M A
;
_chemical_formula_sum "Si O2"
_cell_formula_units_Z 56
_cell_length_a 14.133805
_cell_length_b 7.510075
_cell_length_c 30.540944
_cell_angle_alpha 90.000000
_cell_angle_beta 90.000000
_cell_angle_gamma 90.000000
_cell_volume 3241.797075
_symmetry_space_group_name_H-M "P N M A"
_symmetry_group_IT_number 62
_symmetry_cell_setting 'orthorhombic'
loop_
_space_group_symop_operation_xyz
x,y,z
1/2-x,-y,1/2+z
1/2+x,1/2-y,1/2-z
-x,1/2+y,-z
-x,-y,-z
1/2+x,y,1/2-z
1/2-x,1/2+y,1/2+z
x,1/2-y,z
loop_
_atom_site_type_symbol
_atom_site_label
_atom_site_fract_x
_atom_site_fract_y
_atom_site_fract_z
Si Si1 0.822929 0.039407 0.309634
Si Si2 0.728149 0.531426 0.178242
Si Si3 0.872806 0.035160 0.766866
Si Si4 0.887893 0.036820 0.496085
Si Si5 0.374014 0.035735 0.908905
Si Si6 0.419598 0.955312 0.280623
Si Si7 0.902587 0.463134 0.401132
O O1 0.842347 0.250000 0.308266
O O2 0.855322 0.968538 0.356722
O O3 0.712554 0.010972 0.299368
O O4 0.880889 0.958193 0.269168
O O5 0.729109 0.750000 0.178581
O O6 0.660093 0.475993 0.218384
O O7 0.688186 0.471368 0.131721
O O8 0.833825 0.468842 0.190453
O O9 0.878660 0.250000 0.764748
O O10 0.975549 0.965315 0.780546
O O11 0.873911 0.250000 0.495527
O O12 0.847312 0.969099 0.542320
O O13 0.862332 0.967852 0.447705
O O14 0.000000 0.000000 0.500000
O O15 0.365715 0.250000 0.909779
O O16 0.484653 0.995795 0.900433
O O17 0.429310 0.750000 0.294538
O O18 0.889036 0.250000 0.401574
#
# Coordination Sequence:
#
# PCOD9462277 Si02
#       7
#     8   8   8   8   8   8   8
#     4  10  19  28  40  59  82 107 134 163 195 234
#     4   8  14  24  39  60  79  95 123 160 194 227
#     4   9  17  29  43  57  77 105 133 163 196 230
#     4   8  14  24  37  54  77 103 129 156 189 230
#     4   9  15  24  41  61  79 102 131 160 191 234
#     4   9  17  30  45  59  79 105 132 165 201 234
#     4   9  17  27  37  54  82 109 130 157 193 229
#
# _framework density 17.274369
#
# number of rings (size 3 to 8) (size 9 to 14) (size 15 to 20)
#    0.000    3.143    0.000    2.143    0.000    2.857 
#    0.000    4.286    0.000    0.000    0.000    1.000 
#    0.000    0.000    0.000    0.000    0.000    0.000 
#
# Total GULP energy -311855.783903 kJ/mol
# GULP energy per Si atom -5568.853284 kJ/mol
# Density = 1.723505 g / cm^3
# Si number density = 17.274369 Si / 1000 Ang^3
#
#
#
# Elastic Constant Matrix: (Units=GPa)
#
#
# Indices 1 2 3 4 5 6 
#
# 1 84.0358 -7.7639 51.5078 0.0000 0.0000 0.0000
# 2 -7.7639 45.9333 -6.7894 0.0000 0.0000 0.0000
# 3 51.5078 -6.7894 147.9029 0.0000 0.0000 0.0000
# 4 0.0000 0.0000 0.0000 -0.5070 0.0000 0.0000
# 5 0.0000 0.0000 0.0000 0.0000 23.8465 0.0000
# 6 0.0000 0.0000 0.0000 0.0000 0.0000 59.2795
#
#
#
# Elastic Compliance Matrix: (Units=1/GPa)
#
#
# Indices 1 2 3 4 5 6 
#
# 1 0.015277 0.001808 -0.005237 0.000000 0.000000 0.000000
# 2 0.001808 0.022133 0.000386 0.000000 0.000000 0.000000
# 3 -0.005237 0.000386 0.008603 0.000000 0.000000 0.000000
# 4 0.000000 0.000000 0.000000 -1.972455 0.000000 0.000000
# 5 0.000000 0.000000 0.000000 0.000000 0.041935 0.000000
# 6 0.000000 0.000000 0.000000 0.000000 0.000000 0.016869
#
#
# Mechanical properties :
#
#
# Convention : Reuss Voigt Hill
#
# Bulk Modulus (GPa) = 25.04545 39.08677 32.06611
# Shear Modulus (GPa) = -2.70527 32.58497 14.93985
#
# Velocity S-wave (km/s) = -1.25278 4.34789 2.94403
# Velocity P-wave (km/s) = 3.52668 6.91966 5.49177
#
# Compressibility (1/GPa) = 0.03992742
#
# Stress axis : x y z
#
# Youngs Moduli (GPa) = 65.45893 45.18055 116.24124
#
# Poissons Ratio (x) = -0.08169 0.60878
# Poissons Ratio (y) = -0.11835 -0.04491
# Poissons Ratio (z) = 0.34282 -0.01746
#
# Static dielectric constant tensor:
#      x y z
#    x 1.564980 0.000000 0.000000 
#    y 0.000000 1.625330 0.000000 
#    z 0.000000 0.000000 1.623800 
# 
# From -- ./inp_files/32643.got.cif
#   From: 2010.05.17/outbox.cif.g08.bks.cpg/sg62_17_cif.got.tgz:32643.got - 2010.06.03 15:25:27.
