data_PCOD9462656
_publ_section_title
;
Structure prediction by ZEFSAII (Michael W. Deem and Ramdas Pophale) SiO2 
 PCOD9462656
Probable space group: P N M A
;
_chemical_formula_sum "Si O2"
_cell_formula_units_Z 40
_cell_length_a 18.808735
_cell_length_b 7.690126
_cell_length_c 13.922417
_cell_angle_alpha 90.000000
_cell_angle_beta 90.000000
_cell_angle_gamma 90.000000
_cell_volume 2013.759864
_symmetry_space_group_name_H-M "P N M A"
_symmetry_group_IT_number 62
_symmetry_cell_setting 'orthorhombic'
loop_
_space_group_symop_operation_xyz
x,y,z
1/2-x,-y,1/2+z
1/2+x,1/2-y,1/2-z
-x,1/2+y,-z
-x,-y,-z
1/2+x,y,1/2-z
1/2-x,1/2+y,1/2+z
x,1/2-y,z
loop_
_atom_site_type_symbol
_atom_site_label
_atom_site_fract_x
_atom_site_fract_y
_atom_site_fract_z
Si Si1 0.834532 0.536124 0.087281
Si Si2 0.185019 0.954119 0.332610
Si Si3 0.630352 0.456292 0.373761
Si Si4 0.475166 0.540309 0.302942
Si Si5 0.533769 0.959167 0.101940
O O1 0.835693 0.750000 0.088391
O O2 0.760533 0.474837 0.133241
O O3 0.903300 0.477323 0.147408
O O4 0.842670 0.480544 0.976743
O O5 0.187170 0.750000 0.356609
O O6 0.114237 0.027382 0.383762
O O7 0.170552 0.969424 0.219014
O O8 0.640417 0.250000 0.370372
O O9 0.546521 0.493369 0.360892
O O10 0.471612 0.750000 0.300891
O O11 0.488127 0.478470 0.193662
O O12 0.537139 0.750000 0.110316
O O13 0.500000 0.000000 0.000000
#
# Coordination Sequence:
#
# PCOD9462656 Si02
#       5
#     8   8   8   8   8
#     4   9  18  33  54  75  98 129 166 204 246 294
#     4   9  19  36  52  70 100 136 166 199 247 302
#     4  10  19  32  51  76 102 128 161 207 250 286
#     4   9  18  34  53  73  97 131 168 199 242 305
#     4   9  18  31  49  70  95 128 165 199 237 285
#
# _framework density 19.863343
#
# number of rings (size 3 to 8) (size 9 to 14) (size 15 to 20)
#    0.000    2.800    0.000    2.400    0.000    4.800 
#    0.000    4.000    0.000    0.000    0.000    0.000 
#    0.000    0.000    0.000    0.000    0.000    0.000 
#
# Total GULP energy -223142.475056 kJ/mol
# GULP energy per Si atom -5578.561876 kJ/mol
# Density = 1.981813 g / cm^3
# Si number density = 19.863343 Si / 1000 Ang^3
#
#
#
# Elastic Constant Matrix: (Units=GPa)
#
#
# Indices 1 2 3 4 5 6 
#
# 1 170.5421 -5.9799 119.3885 0.0000 0.0000 0.0000
# 2 -5.9799 26.0514 -9.7381 0.0000 0.0000 0.0000
# 3 119.3885 -9.7381 132.8673 0.0000 0.0000 0.0000
# 4 0.0000 0.0000 0.0000 23.8081 0.0000 0.0000
# 5 0.0000 0.0000 0.0000 0.0000 23.8040 0.0000
# 6 0.0000 0.0000 0.0000 0.0000 0.0000 15.0524
#
#
#
# Elastic Compliance Matrix: (Units=1/GPa)
#
#
# Indices 1 2 3 4 5 6 
#
# 1 0.015883 -0.001737 -0.014399 0.000000 0.000000 0.000000
# 2 -0.001737 0.039657 0.004467 0.000000 0.000000 0.000000
# 3 -0.014399 0.004467 0.020792 0.000000 0.000000 0.000000
# 4 0.000000 0.000000 0.000000 0.042003 0.000000 0.000000
# 5 0.000000 0.000000 0.000000 0.000000 0.042010 0.000000
# 6 0.000000 0.000000 0.000000 0.000000 0.000000 0.066435
#
#
# Mechanical properties :
#
#
# Convention : Reuss Voigt Hill
#
# Bulk Modulus (GPa) = 18.86992 59.64465 39.25728
# Shear Modulus (GPa) = 18.67209 27.58557 23.12883
#
# Velocity S-wave (km/s) = 3.06931 3.73066 3.41603
# Velocity P-wave (km/s) = 4.69909 6.97494 5.94690
#
# Compressibility (1/GPa) = 0.05299440
#
# Stress axis : x y z
#
# Youngs Moduli (GPa) = 62.96218 25.21639 48.09633
#
# Poissons Ratio (x) = 0.04379 0.69252
# Poissons Ratio (y) = 0.10933 -0.21484
# Poissons Ratio (z) = 0.90657 -0.11264
#
# Static dielectric constant tensor:
#      x y z
#    x 1.688780 0.000000 0.000000 
#    y 0.000000 1.726400 0.000000 
#    z 0.000000 0.000000 1.678740 
# 
# From -- ./inp_files/13857.got.cif
#   From: 2010.05.17/outbox.cif.g08.bks.cpg/sg62_7_cif.got.tgz:13857.got - 2010.06.03 15:25:27.
