data_PCOD9462805
_publ_section_title
;
Structure prediction by ZEFSAII (Michael W. Deem and Ramdas Pophale) SiO2 
 PCOD9462805
Probable space group: P N M A
;
_chemical_formula_sum "Si O2"
_cell_formula_units_Z 64
_cell_length_a 28.615258
_cell_length_b 8.006748
_cell_length_c 13.106056
_cell_angle_alpha 90.000000
_cell_angle_beta 90.000000
_cell_angle_gamma 90.000000
_cell_volume 3002.796114
_symmetry_space_group_name_H-M "P N M A"
_symmetry_group_IT_number 62
_symmetry_cell_setting 'orthorhombic'
loop_
_space_group_symop_operation_xyz
x,y,z
1/2-x,-y,1/2+z
1/2+x,1/2-y,1/2-z
-x,1/2+y,-z
-x,-y,-z
1/2+x,y,1/2-z
1/2-x,1/2+y,1/2+z
x,1/2-y,z
loop_
_atom_site_type_symbol
_atom_site_label
_atom_site_fract_x
_atom_site_fract_y
_atom_site_fract_z
Si Si1 0.560659 0.556855 0.899841
Si Si2 0.313163 0.556506 0.927103
Si Si3 0.712956 0.451622 0.641703
Si Si4 0.584566 0.945260 0.118365
Si Si5 0.620987 0.049357 0.538677
Si Si6 0.563114 0.547233 0.344322
Si Si7 0.537717 0.448315 0.680643
Si Si8 0.163748 0.448675 0.649743
O O1 0.546849 0.750000 0.903984
O O2 0.535599 0.476291 0.802624
O O3 0.615210 0.541723 0.868240
O O4 0.560092 0.483293 0.015329
O O5 0.325506 0.750000 0.912589
O O6 0.264842 0.517280 0.873121
O O7 0.359467 0.457687 0.895437
O O8 0.306403 0.527976 0.047813
O O9 0.715920 0.250000 0.637896
O O10 0.673643 0.510065 0.560725
O O11 0.691378 0.499963 0.750574
O O12 0.461014 0.750000 0.334180
O O13 0.573514 0.015203 0.229738
O O14 0.622807 0.250000 0.549124
O O15 0.584107 0.984878 0.624554
O O16 0.599779 0.008146 0.429020
O O17 0.563783 0.750000 0.342843
O O18 0.510396 0.488575 0.368535
O O19 0.428440 0.250000 0.880531
O O20 0.152257 0.250000 0.659934
#
# Coordination Sequence:
#
# PCOD9462805 Si02
#       8
#     8   8   8   8   8   8   8   8
#     4  10  19  32  56  84 109 139 183 234 274 320
#     4  10  21  35  56  84 108 139 186 232 273 332
#     4  10  20  36  57  79 108 146 180 223 284 336
#     4   9  20  39  56  78 114 151 184 227 285 335
#     4  10  21  37  57  81 113 147 185 233 282 329
#     4  10  22  38  58  81 113 155 191 226 276 337
#     4  10  20  37  58  82 113 150 187 228 282 337
#     4   9  18  36  56  74 104 144 180 219 277 333
#
# _framework density 21.313469999999999
#
# number of rings (size 3 to 8) (size 9 to 14) (size 15 to 20)
#    0.000    2.250    1.250    1.125    0.000    5.000 
#    0.000    3.750    0.000    0.000    0.000    0.000 
#    0.000    0.000    0.000    0.000    0.000    0.000 
#
# Total GULP energy -357165.254695 kJ/mol
# GULP energy per Si atom -5580.707105 kJ/mol
# Density = 2.126496 g / cm^3
# Si number density = 21.313470 Si / 1000 Ang^3
#
#
#
# Elastic Constant Matrix: (Units=GPa)
#
#
# Indices 1 2 3 4 5 6 
#
# 1 52.0218 -1.9414 12.6080 0.0000 0.0000 0.0000
# 2 -1.9414 6.7327 -4.5104 0.0000 0.0000 0.0000
# 3 12.6080 -4.5104 86.3005 0.0000 0.0000 0.0000
# 4 0.0000 0.0000 0.0000 21.8651 0.0000 0.0000
# 5 0.0000 0.0000 0.0000 0.0000 17.8976 0.0000
# 6 0.0000 0.0000 0.0000 0.0000 0.0000 10.8657
#
#
#
# Elastic Compliance Matrix: (Units=1/GPa)
#
#
# Indices 1 2 3 4 5 6 
#
# 1 0.020029 0.003953 -0.002720 0.000000 0.000000 0.000000
# 2 0.003953 0.154698 0.007508 0.000000 0.000000 0.000000
# 3 -0.002720 0.007508 0.012377 0.000000 0.000000 0.000000
# 4 0.000000 0.000000 0.000000 0.045735 0.000000 0.000000
# 5 0.000000 0.000000 0.000000 0.000000 0.055874 0.000000
# 6 0.000000 0.000000 0.000000 0.000000 0.000000 0.092033
#
#
# Mechanical properties :
#
#
# Convention : Reuss Voigt Hill
#
# Bulk Modulus (GPa) = 4.88787 17.48528 11.18657
# Shear Modulus (GPa) = 11.58858 19.38558 15.48708
#
# Velocity S-wave (km/s) = 2.33431 3.01914 2.69854
# Velocity P-wave (km/s) = 3.09252 4.51390 3.86904
#
# Compressibility (1/GPa) = 0.20458805
#
# Stress axis : x y z
#
# Youngs Moduli (GPa) = 49.92672 6.46419 80.79434
#
# Poissons Ratio (x) = -0.02556 0.21972
# Poissons Ratio (y) = -0.19738 -0.60657
# Poissons Ratio (z) = 0.13578 -0.04853
#
# Static dielectric constant tensor:
#      x y z
#    x 1.762010 0.000000 0.000000 
#    y 0.000000 1.771860 0.000000 
#    z 0.000000 0.000000 1.791250 
# 
# From -- ./inp_files/15809.got.cif
#   From: 2010.05.17/outbox.cif.g08.bks.cpg/sg62_8_cif.got.tgz:15809.got - 2010.06.03 15:25:27.
