data_PCOD9462046
_publ_section_title
;
Structure prediction by ZEFSAII (Michael W. Deem and Ramdas Pophale) SiO2 
 PCOD9462046
Probable space group: P N M A
;
_chemical_formula_sum "Si O2"
_cell_formula_units_Z 40
_cell_length_a 10.063605
_cell_length_b 28.947451
_cell_length_c 4.883862
_cell_angle_alpha 90.000000
_cell_angle_beta 90.000000
_cell_angle_gamma 90.000000
_cell_volume 1422.745739
_symmetry_space_group_name_H-M "P N M A"
_symmetry_group_IT_number 62
_symmetry_cell_setting 'orthorhombic'
loop_
_space_group_symop_operation_xyz
x,y,z
1/2-x,-y,1/2+z
1/2+x,1/2-y,1/2-z
-x,1/2+y,-z
-x,-y,-z
1/2+x,y,1/2-z
1/2-x,1/2+y,1/2+z
x,1/2-y,z
loop_
_atom_site_type_symbol
_atom_site_label
_atom_site_fract_x
_atom_site_fract_y
_atom_site_fract_z
Si Si1 0.042513 0.698697 0.711675
Si Si2 0.956451 0.619630 0.414659
Si Si3 0.686430 0.057686 0.345424
Si Si4 0.132405 0.545425 0.148258
Si Si5 0.217747 0.198701 0.577341
O O1 0.080020 0.750000 0.608362
O O2 0.070826 0.654608 0.523018
O O3 0.131182 0.693054 0.980345
O O4 0.881589 0.699277 0.692613
O O5 0.016099 0.580077 0.226034
O O6 0.892683 0.596980 0.685598
O O7 0.849387 0.654720 0.280627
O O8 0.818581 0.052486 0.158289
O O9 0.609542 0.008923 0.306773
O O10 0.745987 0.058792 0.649322
O O11 0.199087 0.250000 0.698517
#
# Coordination Sequence:
#
# PCOD9462046 Si02
#       5
#     8   8   8   8   8
#     4   8  15  28  51  85 125 161 201 250 304 362
#     4  10  18  32  58  86 122 162 206 254 300 370
#     4  10  22  39  59  87 123 161 203 254 308 362
#     4  10  22  39  59  87 123 161 203 254 308 362
#     4   8  15  28  51  85 125 161 201 250 304 362
#
# _framework density 28.114650000000001
#
# number of rings (size 3 to 8) (size 9 to 14) (size 15 to 20)
#    1.200    1.600    0.000    1.800    0.000    1.600 
#    0.000    6.000    0.000    4.800    0.000   11.200 
#    0.000    0.000    0.000    0.000    0.000    0.000 
#
# Total GULP energy -223681.635236 kJ/mol
# GULP energy per Si atom -5592.040881 kJ/mol
# Density = 2.805066 g / cm^3
# Si number density = 28.114650 Si / 1000 Ang^3
#
#
#
# Elastic Constant Matrix: (Units=GPa)
#
#
# Indices 1 2 3 4 5 6 
#
# 1 100.5410 37.4211 28.4662 0.0000 0.0000 0.0000
# 2 37.4211 182.2471 2.6008 0.0000 0.0000 0.0000
# 3 28.4662 2.6008 61.2083 0.0000 0.0000 0.0000
# 4 0.0000 0.0000 0.0000 27.4227 0.0000 0.0000
# 5 0.0000 0.0000 0.0000 0.0000 40.0537 0.0000
# 6 0.0000 0.0000 0.0000 0.0000 0.0000 27.7393
#
#
#
# Elastic Compliance Matrix: (Units=1/GPa)
#
#
# Indices 1 2 3 4 5 6 
#
# 1 0.012484 -0.002482 -0.005700 0.000000 0.000000 0.000000
# 2 -0.002482 0.005984 0.000900 0.000000 0.000000 0.000000
# 3 -0.005700 0.000900 0.018951 0.000000 0.000000 0.000000
# 4 0.000000 0.000000 0.000000 0.036466 0.000000 0.000000
# 5 0.000000 0.000000 0.000000 0.000000 0.024966 0.000000
# 6 0.000000 0.000000 0.000000 0.000000 0.000000 0.036050
#
#
# Mechanical properties :
#
#
# Convention : Reuss Voigt Hill
#
# Bulk Modulus (GPa) = 43.75697 53.44139 48.59918
# Shear Modulus (GPa) = 31.83019 37.41036 34.62028
#
# Velocity S-wave (km/s) = 3.36840 3.65175 3.51293
# Velocity P-wave (km/s) = 5.54308 6.06877 5.81187
#
# Compressibility (1/GPa) = 0.02285350
#
# Stress axis : x y z
#
# Youngs Moduli (GPa) = 80.10274 167.11665 52.76896
#
# Poissons Ratio (x) = 0.41478 0.30081
# Poissons Ratio (y) = 0.19882 -0.04749
# Poissons Ratio (z) = 0.45662 -0.15041
#
# Static dielectric constant tensor:
#      x y z
#    x 2.293830 0.000000 0.000000 
#    y 0.000000 2.189730 0.000000 
#    z 0.000000 0.000000 2.161010 
# 
# From -- ./inp_files/679.got.cif
#   From: 2010.05.17/outbox.cif.g08.bks.cpg/sg62_1_cif.got.tgz:679.got - 2010.06.03 15:25:27.
