data_PCOD9462989
_publ_section_title
;
Structure prediction by ZEFSAII (Michael W. Deem and Ramdas Pophale) SiO2 
 PCOD9462989
Probable space group: P N M A
;
_chemical_formula_sum "Si O2"
_cell_formula_units_Z 64
_cell_length_a 25.382539
_cell_length_b 8.784190
_cell_length_c 14.550754
_cell_angle_alpha 90.000000
_cell_angle_beta 90.000000
_cell_angle_gamma 90.000000
_cell_volume 3244.309524
_symmetry_space_group_name_H-M "P N M A"
_symmetry_group_IT_number 62
_symmetry_cell_setting 'orthorhombic'
loop_
_space_group_symop_operation_xyz
x,y,z
1/2-x,-y,1/2+z
1/2+x,1/2-y,1/2-z
-x,1/2+y,-z
-x,-y,-z
1/2+x,y,1/2-z
1/2-x,1/2+y,1/2+z
x,1/2-y,z
loop_
_atom_site_type_symbol
_atom_site_label
_atom_site_fract_x
_atom_site_fract_y
_atom_site_fract_z
Si Si1 0.801966 0.566146 0.781745
Si Si2 0.830242 0.936303 0.988213
Si Si3 0.056798 0.931589 0.530012
Si Si4 0.587309 0.069169 0.773007
Si Si5 0.300127 0.566190 0.313518
Si Si6 0.395553 0.934127 0.857410
Si Si7 0.514062 0.424674 0.278074
Si Si8 0.445577 0.576610 0.524514
O O1 0.802137 0.750000 0.782976
O O2 0.746893 0.506024 0.743733
O O3 0.847908 0.519678 0.709846
O O4 0.811656 0.514667 0.887130
O O5 0.832469 0.750000 0.985952
O O6 0.797699 0.979067 0.078687
O O7 0.890122 0.991933 0.004541
O O8 0.052584 0.750000 0.529632
O O9 0.074253 0.989693 0.630188
O O10 0.100093 0.988129 0.456055
O O11 0.000000 0.000000 0.500000
O O12 0.588173 0.250000 0.786190
O O13 0.642946 0.023303 0.728759
O O14 0.537700 0.024520 0.709244
O O15 0.296551 0.750000 0.309486
O O16 0.394257 0.750000 0.866843
O O17 0.450312 0.974868 0.806692
O O18 0.496867 0.250000 0.263732
O O19 0.552931 0.423241 0.364713
O O20 0.500000 0.500000 0.500000
O O21 0.447315 0.750000 0.491201
#
# Coordination Sequence:
#
# PCOD9462989 Si02
#       8
#     8   8   8   8   8   8   8   8
#     4  10  21  40  66  89 115 157 204 247 298 354
#     4   9  18  38  63  84 113 155 194 233 289 355
#     4  12  24  38  59  88 122 163 205 250 303 364
#     4  11  23  39  59  87 123 162 200 248 309 365
#     4  10  23  41  61  87 121 157 199 250 299 351
#     4  10  20  37  60  88 118 154 198 249 303 356
#     4  10  19  33  57  85 116 152 195 245 298 362
#     4  10  19  33  55  85 117 153 194 237 294 357
#
# _framework density 19.726848
#
# number of rings (size 3 to 8) (size 9 to 14) (size 15 to 20)
#    0.000    1.750    2.500    2.250    0.000    4.000 
#    0.000    4.375    0.000    0.000    0.000    0.000 
#    0.000    0.000    0.000    0.000    0.000    0.000 
#
# Total GULP energy -357254.479616 kJ/mol
# GULP energy per Si atom -5582.101244 kJ/mol
# Density = 1.968195 g / cm^3
# Si number density = 19.726848 Si / 1000 Ang^3
#
#
#
# Elastic Constant Matrix: (Units=GPa)
#
#
# Indices 1 2 3 4 5 6 
#
# 1 109.3827 30.9753 46.5309 0.0000 0.0000 0.0000
# 2 30.9753 28.7999 20.1275 0.0000 0.0000 0.0000
# 3 46.5309 20.1275 105.6057 0.0000 0.0000 0.0000
# 4 0.0000 0.0000 0.0000 25.3677 0.0000 0.0000
# 5 0.0000 0.0000 0.0000 0.0000 31.0864 0.0000
# 6 0.0000 0.0000 0.0000 0.0000 0.0000 30.1633
#
#
#
# Elastic Compliance Matrix: (Units=1/GPa)
#
#
# Indices 1 2 3 4 5 6 
#
# 1 0.014429 -0.012778 -0.003922 0.000000 0.000000 0.000000
# 2 -0.012778 0.051374 -0.004161 0.000000 0.000000 0.000000
# 3 -0.003922 -0.004161 0.011990 0.000000 0.000000 0.000000
# 4 0.000000 0.000000 0.000000 0.039420 0.000000 0.000000
# 5 0.000000 0.000000 0.000000 0.000000 0.032168 0.000000
# 6 0.000000 0.000000 0.000000 0.000000 0.000000 0.033153
#
#
# Mechanical properties :
#
#
# Convention : Reuss Voigt Hill
#
# Bulk Modulus (GPa) = 27.72356 48.78396 38.25376
# Shear Modulus (GPa) = 21.16118 27.06711 24.11414
#
# Velocity S-wave (km/s) = 3.27878 3.70820 3.50008
# Velocity P-wave (km/s) = 5.33086 6.56641 5.98063
#
# Compressibility (1/GPa) = 0.03607040
#
# Stress axis : x y z
#
# Youngs Moduli (GPa) = 69.30367 19.46517 83.39943
#
# Poissons Ratio (x) = 0.24873 0.32712
# Poissons Ratio (y) = 0.88556 0.34705
# Poissons Ratio (z) = 0.27183 0.08100
#
# Static dielectric constant tensor:
#      x y z
#    x 1.680150 0.000000 0.000000 
#    y 0.000000 1.666110 0.000000 
#    z 0.000000 0.000000 1.741360 
# 
# From -- ./inp_files/20998.got.cif
#   From: 2010.05.17/outbox.cif.g08.bks.cpg/sg62_11_cif.got.tgz:20998.got - 2010.06.03 15:25:27.
