data_PCOD9462168
_publ_section_title
;
Structure prediction by ZEFSAII (Michael W. Deem and Ramdas Pophale) SiO2 
 PCOD9462168
Probable space group: P N M A
;
_chemical_formula_sum "Si O2"
_cell_formula_units_Z 48
_cell_length_a 9.360990
_cell_length_b 14.971666
_cell_length_c 15.384070
_cell_angle_alpha 90.000000
_cell_angle_beta 90.000000
_cell_angle_gamma 90.000000
_cell_volume 2156.071499
_symmetry_space_group_name_H-M "P N M A"
_symmetry_group_IT_number 62
_symmetry_cell_setting 'orthorhombic'
loop_
_space_group_symop_operation_xyz
x,y,z
1/2-x,-y,1/2+z
1/2+x,1/2-y,1/2-z
-x,1/2+y,-z
-x,-y,-z
1/2+x,y,1/2-z
1/2-x,1/2+y,1/2+z
x,1/2-y,z
loop_
_atom_site_type_symbol
_atom_site_label
_atom_site_fract_x
_atom_site_fract_y
_atom_site_fract_z
Si Si1 0.965957 0.847332 0.782464
Si Si2 0.687589 0.540508 0.057143
Si Si3 0.759458 0.548187 0.874869
Si Si4 0.187516 0.654061 0.943652
Si Si5 0.992865 0.410023 0.898054
Si Si6 0.522430 0.457353 0.791802
O O1 0.970623 0.750000 0.740099
O O2 0.808904 0.864691 0.824160
O O3 0.986576 0.938006 0.728599
O O4 0.083871 0.847755 0.859452
O O5 0.841066 0.582633 0.079816
O O6 0.570672 0.570074 0.126009
O O7 0.659378 0.564559 0.957069
O O8 0.714183 0.433429 0.059920
O O9 0.687869 0.470575 0.816906
O O10 0.907527 0.504109 0.908507
O O11 0.262852 0.750000 0.943847
O O12 0.091149 0.648593 0.031643
O O13 0.993606 0.398590 0.793411
#
# Coordination Sequence:
#
# PCOD9462168 Si02
#       6
#     8   8   8   8   8   8
#     4  10  20  33  52  78 108 137 173 214 261 319
#     4  11  19  36  54  79 108 140 180 217 265 317
#     4  10  19  35  53  78 106 142 176 213 262 317
#     4  10  19  34  56  76 100 138 179 217 257 313
#     4  10  18  35  55  75 101 138 187 220 245 312
#     4  11  22  31  53  84 111 137 169 225 277 305
#
# _framework density 22.262713000000002
#
# number of rings (size 3 to 8) (size 9 to 14) (size 15 to 20)
#    0.000    1.667    5.000    3.500    0.000    1.333 
#    0.000    0.000    0.000   10.000    0.000    0.000 
#    0.000    0.000    0.000    0.000    0.000    0.000 
#
# Total GULP energy -267654.922930 kJ/mol
# GULP energy per Si atom -5576.144228 kJ/mol
# Density = 2.221204 g / cm^3
# Si number density = 22.262713 Si / 1000 Ang^3
#
#
#
# Elastic Constant Matrix: (Units=GPa)
#
#
# Indices 1 2 3 4 5 6 
#
# 1 52.2128 -9.3898 12.5541 0.0000 0.0000 0.0000
# 2 -9.3898 29.8782 -20.6048 0.0000 0.0000 0.0000
# 3 12.5541 -20.6048 79.6665 0.0000 0.0000 0.0000
# 4 0.0000 0.0000 0.0000 8.5025 0.0000 0.0000
# 5 0.0000 0.0000 0.0000 0.0000 29.2376 0.0000
# 6 0.0000 0.0000 0.0000 0.0000 0.0000 9.1609
#
#
#
# Elastic Compliance Matrix: (Units=1/GPa)
#
#
# Indices 1 2 3 4 5 6 
#
# 1 0.020535 0.005138 -0.001907 0.000000 0.000000 0.000000
# 2 0.005138 0.042021 0.010058 0.000000 0.000000 0.000000
# 3 -0.001907 0.010058 0.015454 0.000000 0.000000 0.000000
# 4 0.000000 0.000000 0.000000 0.117612 0.000000 0.000000
# 5 0.000000 0.000000 0.000000 0.000000 0.034203 0.000000
# 6 0.000000 0.000000 0.000000 0.000000 0.000000 0.109160
#
#
# Mechanical properties :
#
#
# Convention : Reuss Voigt Hill
#
# Bulk Modulus (GPa) = 9.56120 14.09740 11.82930
# Shear Modulus (GPa) = 14.39811 21.32673 17.86242
#
# Velocity S-wave (km/s) = 2.54586 3.09845 2.83565
# Velocity P-wave (km/s) = 3.59804 4.37568 4.00577
#
# Compressibility (1/GPa) = 0.10458939
#
# Stress axis : x y z
#
# Youngs Moduli (GPa) = 48.69744 23.79789 64.70688
#
# Poissons Ratio (x) = -0.12228 0.12339
# Poissons Ratio (y) = -0.25023 -0.65085
# Poissons Ratio (z) = 0.09286 -0.23937
#
# Static dielectric constant tensor:
#      x y z
#    x 1.916250 0.000000 0.000000 
#    y 0.000000 1.801900 0.000000 
#    z 0.000000 0.000000 1.926170 
# 
# From -- ./inp_files/18149.got.cif
#   From: 2010.05.17/outbox.cif.g08.bks.cpg/sg62_10_cif.got.tgz:18149.got - 2010.06.03 15:25:27.
