data_PCOD9462448
_publ_section_title
;
Structure prediction by ZEFSAII (Michael W. Deem and Ramdas Pophale) SiO2 
 PCOD9462448
Probable space group: P N M A
;
_chemical_formula_sum "Si O2"
_cell_formula_units_Z 48
_cell_length_a 8.716376
_cell_length_b 25.351884
_cell_length_c 13.948975
_cell_angle_alpha 90.000000
_cell_angle_beta 90.000000
_cell_angle_gamma 90.000000
_cell_volume 3082.396417
_symmetry_space_group_name_H-M "P N M A"
_symmetry_group_IT_number 62
_symmetry_cell_setting 'orthorhombic'
loop_
_space_group_symop_operation_xyz
x,y,z
1/2-x,-y,1/2+z
1/2+x,1/2-y,1/2-z
-x,1/2+y,-z
-x,-y,-z
1/2+x,y,1/2-z
1/2-x,1/2+y,1/2+z
x,1/2-y,z
loop_
_atom_site_type_symbol
_atom_site_label
_atom_site_fract_x
_atom_site_fract_y
_atom_site_fract_z
Si Si1 0.337990 0.310320 0.884545
Si Si2 0.707702 0.989243 0.866136
Si Si3 0.111692 0.591590 0.120014
Si Si4 0.213245 0.090454 0.972053
Si Si5 0.189437 0.189034 0.681450
Si Si6 0.884699 0.472707 0.694350
O O1 0.323895 0.250000 0.917272
O O2 0.295318 0.353241 0.963104
O O3 0.511141 0.317493 0.845108
O O4 0.222375 0.318094 0.794672
O O5 0.528267 0.998605 0.852539
O O6 0.785313 0.055374 0.613637
O O7 0.783484 0.988843 0.760498
O O8 0.753533 0.940205 0.930440
O O9 0.220612 0.542971 0.088516
O O10 0.207333 0.645153 0.129942
O O11 0.965822 0.596150 0.052275
O O12 0.938621 0.071680 0.772596
O O13 0.233253 0.250000 0.659384
#
# Coordination Sequence:
#
# PCOD9462448 Si02
#       6
#     8   8   8   8   8   8
#     4  10  20  31  45  70  99 130 170 206 241 299
#     4  10  21  33  51  71  98 137 165 205 253 294
#     4  10  19  32  47  69 102 131 163 205 238 289
#     4  12  20  32  52  73  98 137 168 201 250 296
#     4  10  19  31  48  68  98 140 167 194 249 299
#     4  10  19  34  46  68 103 128 166 204 241 288
#
# _framework density 15.5723
#
# number of rings (size 3 to 8) (size 9 to 14) (size 15 to 20)
#    1.000    0.667    3.333    3.000    0.000    2.000 
#    0.000    0.000    0.000    0.000    0.000    1.167 
#    0.000    1.333    0.000    0.000    0.000    0.000 
#
# Total GULP energy -267563.066258 kJ/mol
# GULP energy per Si atom -5574.230547 kJ/mol
# Density = 1.553686 g / cm^3
# Si number density = 15.572300 Si / 1000 Ang^3
#
#
#
# Elastic Constant Matrix: (Units=GPa)
#
#
# Indices 1 2 3 4 5 6 
#
# 1 45.7263 22.5978 8.9616 0.0000 0.0000 0.0000
# 2 22.5978 96.3462 29.0609 0.0000 0.0000 0.0000
# 3 8.9616 29.0609 30.6363 0.0000 0.0000 0.0000
# 4 0.0000 0.0000 0.0000 29.6853 0.0000 0.0000
# 5 0.0000 0.0000 0.0000 0.0000 7.9657 0.0000
# 6 0.0000 0.0000 0.0000 0.0000 0.0000 23.3639
#
#
#
# Elastic Compliance Matrix: (Units=1/GPa)
#
#
# Indices 1 2 3 4 5 6 
#
# 1 0.024866 -0.005097 -0.002439 0.000000 0.000000 0.000000
# 2 -0.005097 0.015584 -0.013292 0.000000 0.000000 0.000000
# 3 -0.002439 -0.013292 0.045963 0.000000 0.000000 0.000000
# 4 0.000000 0.000000 0.000000 0.033687 0.000000 0.000000
# 5 0.000000 0.000000 0.000000 0.000000 0.125538 0.000000
# 6 0.000000 0.000000 0.000000 0.000000 0.000000 0.042801
#
#
# Mechanical properties :
#
#
# Convention : Reuss Voigt Hill
#
# Bulk Modulus (GPa) = 22.34253 32.66104 27.50179
# Shear Modulus (GPa) = 14.49224 19.67555 17.08390
#
# Velocity S-wave (km/s) = 3.05395 3.55843 3.31580
# Velocity P-wave (km/s) = 5.17825 6.15650 5.68844
#
# Compressibility (1/GPa) = 0.04475768
#
# Stress axis : x y z
#
# Youngs Moduli (GPa) = 40.21555 64.16941 21.75678
#
# Poissons Ratio (x) = 0.32704 0.05307
# Poissons Ratio (y) = 0.20496 0.28918
# Poissons Ratio (z) = 0.09810 0.85291
#
# Static dielectric constant tensor:
#      x y z
#    x 1.531010 0.000000 0.000000 
#    y 0.000000 1.529670 0.000000 
#    z 0.000000 0.000000 1.499190 
# 
# From -- ./inp_files/11287.got.cif
#   From: 2010.05.17/outbox.cif.g08.bks.cpg/sg62_6_cif.got.tgz:11287.got - 2010.06.03 15:25:27.
