data_PCOD9462698
_publ_section_title
;
Structure prediction by ZEFSAII (Michael W. Deem and Ramdas Pophale) SiO2 
 PCOD9462698
Probable space group: P N M A
;
_chemical_formula_sum "Si O2"
_cell_formula_units_Z 64
_cell_length_a 17.825029
_cell_length_b 7.582734
_cell_length_c 19.529210
_cell_angle_alpha 90.000000
_cell_angle_beta 90.000000
_cell_angle_gamma 90.000000
_cell_volume 2639.615938
_symmetry_space_group_name_H-M "P N M A"
_symmetry_group_IT_number 62
_symmetry_cell_setting 'orthorhombic'
loop_
_space_group_symop_operation_xyz
x,y,z
1/2-x,-y,1/2+z
1/2+x,1/2-y,1/2-z
-x,1/2+y,-z
-x,-y,-z
1/2+x,y,1/2-z
1/2-x,1/2+y,1/2+z
x,1/2-y,z
loop_
_atom_site_type_symbol
_atom_site_label
_atom_site_fract_x
_atom_site_fract_y
_atom_site_fract_z
Si Si1 0.500721 0.035130 0.600052
Si Si2 0.629301 0.466626 0.064029
Si Si3 0.720034 0.462129 0.199578
Si Si4 0.275795 0.547838 0.062253
Si Si5 0.566334 0.541466 0.256400
Si Si6 0.873822 0.548268 0.009256
Si Si7 0.335388 0.048471 0.196303
Si Si8 0.018019 0.947402 0.625496
O O1 0.498645 0.250000 0.594720
O O2 0.475273 0.985223 0.675210
O O3 0.583422 0.977193 0.576245
O O4 0.438886 0.961745 0.547946
O O5 0.627826 0.250000 0.065429
O O6 0.686390 0.522161 0.125825
O O7 0.543623 0.529888 0.074620
O O8 0.662346 0.520775 0.991159
O O9 0.726259 0.250000 0.195440
O O10 0.654871 0.510714 0.253608
O O11 0.797097 0.527952 0.235197
O O12 0.291828 0.750000 0.078648
O O13 0.275376 0.449672 0.134273
O O14 0.198271 0.544106 0.020858
O O15 0.552842 0.750000 0.246677
O O16 0.534090 0.438031 0.192608
O O17 0.852105 0.750000 0.021663
O O18 0.357433 0.250000 0.212705
O O19 0.407339 0.966381 0.157315
O O20 0.037191 0.750000 0.601315
#
# Coordination Sequence:
#
# PCOD9462698 Si02
#       8
#     8   8   8   8   8   8   8   8
#     4   9  19  34  51  74 106 140 171 211 264 319
#     4   8  17  35  55  74 102 141 178 213 259 315
#     4   9  18  35  56  77 104 138 176 216 259 312
#     4  11  22  35  53  77 107 142 178 221 271 319
#     4  10  19  32  52  78 106 135 169 211 263 317
#     4  10  20  34  51  73 103 138 177 217 257 311
#     4  10  21  36  57  83 107 136 177 223 266 312
#     4   9  19  37  57  77 103 136 178 222 261 309
#
# _framework density 24.245950000000001
#
# number of rings (size 3 to 8) (size 9 to 14) (size 15 to 20)
#    0.000    2.500    0.000    2.625    0.000    6.000 
#    0.000    6.250    0.000    0.000    0.000    0.000 
#    0.000    0.000    0.000    0.000    0.000    0.000 
#
# Total GULP energy -357145.039562 kJ/mol
# GULP energy per Si atom -5580.391243 kJ/mol
# Density = 2.419077 g / cm^3
# Si number density = 24.245950 Si / 1000 Ang^3
#
#
#
# Elastic Constant Matrix: (Units=GPa)
#
#
# Indices 1 2 3 4 5 6 
#
# 1 79.8219 8.0470 0.9583 0.0000 0.0000 0.0000
# 2 8.0470 64.8941 4.7640 0.0000 0.0000 0.0000
# 3 0.9583 4.7640 59.4127 0.0000 0.0000 0.0000
# 4 0.0000 0.0000 0.0000 5.8060 0.0000 0.0000
# 5 0.0000 0.0000 0.0000 0.0000 28.9830 0.0000
# 6 0.0000 0.0000 0.0000 0.0000 0.0000 7.9436
#
#
#
# Elastic Compliance Matrix: (Units=1/GPa)
#
#
# Indices 1 2 3 4 5 6 
#
# 1 0.012687 -0.001567 -0.000079 0.000000 0.000000 0.000000
# 2 -0.001567 0.015695 -0.001233 0.000000 0.000000 0.000000
# 3 -0.000079 -0.001233 0.016932 0.000000 0.000000 0.000000
# 4 0.000000 0.000000 0.000000 0.172236 0.000000 0.000000
# 5 0.000000 0.000000 0.000000 0.000000 0.034503 0.000000
# 6 0.000000 0.000000 0.000000 0.000000 0.000000 0.125887
#
#
# Mechanical properties :
#
#
# Convention : Reuss Voigt Hill
#
# Bulk Modulus (GPa) = 25.28191 25.74080 25.51135
# Shear Modulus (GPa) = 12.59816 21.23715 16.91765
#
# Velocity S-wave (km/s) = 2.28194 2.96278 2.64436
# Velocity P-wave (km/s) = 4.17048 4.72691 4.45739
#
# Compressibility (1/GPa) = 0.03955398
#
# Stress axis : x y z
#
# Youngs Moduli (GPa) = 78.82177 63.71608 59.06121
#
# Poissons Ratio (x) = 0.09987 0.00466
# Poissons Ratio (y) = 0.12354 0.07283
# Poissons Ratio (z) = 0.00622 0.07857
#
# Static dielectric constant tensor:
#      x y z
#    x 2.046000 0.000000 0.000000 
#    y 0.000000 1.898380 0.000000 
#    z 0.000000 0.000000 1.951050 
# 
# From -- ./inp_files/27767.got.cif
#   From: 2010.05.17/outbox.cif.g08.bks.cpg/sg62_14_cif.got.tgz:27767.got - 2010.06.03 15:25:27.
