data_PCOD9462175
_publ_section_title
;
Structure prediction by ZEFSAII (Michael W. Deem and Ramdas Pophale) SiO2 
 PCOD9462175
Probable space group: P N M A
;
_chemical_formula_sum "Si O2"
_cell_formula_units_Z 64
_cell_length_a 21.219104
_cell_length_b 8.758120
_cell_length_c 20.186664
_cell_angle_alpha 90.000000
_cell_angle_beta 90.000000
_cell_angle_gamma 90.000000
_cell_volume 3751.478719
_symmetry_space_group_name_H-M "P N M A"
_symmetry_group_IT_number 62
_symmetry_cell_setting 'orthorhombic'
loop_
_space_group_symop_operation_xyz
x,y,z
1/2-x,-y,1/2+z
1/2+x,1/2-y,1/2-z
-x,1/2+y,-z
-x,-y,-z
1/2+x,y,1/2-z
1/2-x,1/2+y,1/2+z
x,1/2-y,z
loop_
_atom_site_type_symbol
_atom_site_label
_atom_site_fract_x
_atom_site_fract_y
_atom_site_fract_z
Si Si1 0.310174 0.568309 0.207370
Si Si2 0.192279 0.434944 0.288758
Si Si3 0.764730 0.432061 0.427440
Si Si4 0.383871 0.566783 0.568137
Si Si5 0.928257 0.064968 0.215335
Si Si6 0.068364 0.435995 0.209700
Si Si7 0.734447 0.066929 0.067055
Si Si8 0.116921 0.932420 0.929027
O O1 0.309176 0.750000 0.210133
O O2 0.251330 0.502183 0.249088
O O3 0.300941 0.511367 0.132367
O O4 0.374149 0.505397 0.239542
O O5 0.196631 0.250000 0.284295
O O6 0.127034 0.484163 0.254869
O O7 0.198264 0.476165 0.365998
O O8 0.769278 0.250000 0.420670
O O9 0.690190 0.473873 0.423102
O O10 0.786519 0.485222 0.499946
O O11 0.387612 0.750000 0.565206
O O12 0.419865 0.514106 0.633857
O O13 0.406297 0.502413 0.497933
O O14 0.923023 0.250000 0.218348
O O15 0.916438 0.019495 0.138679
O O16 0.999222 0.018816 0.233789
O O17 0.069322 0.250000 0.208730
O O18 0.729977 0.250000 0.058297
O O19 0.808615 0.030075 0.077496
O O20 0.111328 0.750000 0.933921
#
# Coordination Sequence:
#
# PCOD9462175 Si02
#       8
#     8   8   8   8   8   8   8   8
#     4  12  23  34  53  80 107 138 179 223 264 310
#     4  10  18  35  58  80 106 140 177 219 267 316
#     4  10  19  33  54  77 106 137 171 218 267 313
#     4   9  17  30  49  74 104 137 175 214 251 305
#     4  10  20  36  54  74 104 144 181 217 262 316
#     4   9  18  33  55  78 102 138 183 217 257 316
#     4   9  17  30  51  78 107 134 168 214 265 315
#     4   9  17  29  46  71 104 141 175 208 253 307
#
# _framework density 17.059937999999999
#
# number of rings (size 3 to 8) (size 9 to 14) (size 15 to 20)
#    0.000    2.250    2.500    1.500    0.000    2.000 
#    0.000    1.250    0.000    0.750    0.000    0.000 
#    0.000    0.000    0.000    0.000    0.000    0.000 
#
# Total GULP energy -357065.538426 kJ/mol
# GULP energy per Si atom -5579.149038 kJ/mol
# Density = 1.702111 g / cm^3
# Si number density = 17.059938 Si / 1000 Ang^3
#
#
#
# Elastic Constant Matrix: (Units=GPa)
#
#
# Indices 1 2 3 4 5 6 
#
# 1 106.8096 32.0740 65.1357 0.0000 0.0000 0.0000
# 2 32.0740 23.6145 37.1248 0.0000 0.0000 0.0000
# 3 65.1357 37.1248 122.4104 0.0000 0.0000 0.0000
# 4 0.0000 0.0000 0.0000 28.0818 0.0000 0.0000
# 5 0.0000 0.0000 0.0000 0.0000 21.7420 0.0000
# 6 0.0000 0.0000 0.0000 0.0000 0.0000 -23.6338
#
#
#
# Elastic Compliance Matrix: (Units=1/GPa)
#
#
# Indices 1 2 3 4 5 6 
#
# 1 0.016704 -0.016656 -0.003837 0.000000 0.000000 0.000000
# 2 -0.016656 0.097544 -0.020721 0.000000 0.000000 0.000000
# 3 -0.003837 -0.020721 0.016495 0.000000 0.000000 0.000000
# 4 0.000000 0.000000 0.000000 0.035610 0.000000 0.000000
# 5 0.000000 0.000000 0.000000 0.000000 0.045994 0.000000
# 6 0.000000 0.000000 0.000000 0.000000 0.000000 -0.042312
#
#
# Mechanical properties :
#
#
# Convention : Reuss Voigt Hill
#
# Bulk Modulus (GPa) = 20.69676 57.94483 39.32079
# Shear Modulus (GPa) = 18.61729 13.13802 15.87765
#
# Velocity S-wave (km/s) = 3.30705 2.77809 3.05404
# Velocity P-wave (km/s) = 5.17109 6.65805 5.96112
#
# Compressibility (1/GPa) = 0.04831675
#
# Stress axis : x y z
#
# Youngs Moduli (GPa) = 59.86640 10.25174 60.62386
#
# Poissons Ratio (x) = 0.17075 0.23261
# Poissons Ratio (y) = 0.99711 1.25618
# Poissons Ratio (z) = 0.22970 0.21242
#
# Static dielectric constant tensor:
#      x y z
#    x 1.574220 0.000000 0.000000 
#    y 0.000000 1.573760 0.000000 
#    z 0.000000 0.000000 1.573720 
# 
# From -- ./inp_files/27891.got.cif
#   From: 2010.05.17/outbox.cif.g08.bks.cpg/sg62_14_cif.got.tgz:27891.got - 2010.06.03 15:25:27.
