data_PCOD9462779
_publ_section_title
;
Structure prediction by ZEFSAII (Michael W. Deem and Ramdas Pophale) SiO2 
 PCOD9462779
Probable space group: P N M A
;
_chemical_formula_sum "Si O2"
_cell_formula_units_Z 48
_cell_length_a 10.535497
_cell_length_b 8.808596
_cell_length_c 28.910127
_cell_angle_alpha 90.000000
_cell_angle_beta 90.000000
_cell_angle_gamma 90.000000
_cell_volume 2682.944687
_symmetry_space_group_name_H-M "P N M A"
_symmetry_group_IT_number 62
_symmetry_cell_setting 'orthorhombic'
loop_
_space_group_symop_operation_xyz
x,y,z
1/2-x,-y,1/2+z
1/2+x,1/2-y,1/2-z
-x,1/2+y,-z
-x,-y,-z
1/2+x,y,1/2-z
1/2-x,1/2+y,1/2+z
x,1/2-y,z
loop_
_atom_site_type_symbol
_atom_site_label
_atom_site_fract_x
_atom_site_fract_y
_atom_site_fract_z
Si Si1 0.366241 0.932097 0.948788
Si Si2 0.232879 0.931593 0.645392
Si Si3 0.992492 0.566918 0.802359
Si Si4 0.247166 0.067523 0.352427
Si Si5 0.493888 0.069102 0.799965
Si Si6 0.853608 0.930950 0.446808
O O1 0.389882 0.750000 0.948064
O O2 0.273723 0.969081 0.906461
O O3 0.500525 0.014747 0.941209
O O4 0.318086 0.970185 0.000228
O O5 0.220023 0.750000 0.646165
O O6 0.363365 0.973228 0.670945
O O7 0.113832 0.003006 0.672261
O O8 0.227324 0.989228 0.592809
O O9 0.993378 0.750000 0.796008
O O10 0.116304 0.525142 0.832158
O O11 0.997852 0.489814 0.752489
O O12 0.233682 0.250000 0.347528
O O13 0.134471 0.990387 0.323858
O O14 0.497708 0.250000 0.801382
O O15 0.847134 0.750000 0.441089
#
# Coordination Sequence:
#
# PCOD9462779 Si02
#       6
#     8   8   8   8   8   8
#     4   9  18  33  56  83 111 144 181 229 281 330
#     4  11  22  38  58  81 112 151 190 226 271 329
#     4  10  23  40  58  80 110 150 191 227 271 333
#     4  10  20  38  61  83 109 145 188 230 274 329
#     4  12  24  37  57  85 112 143 186 234 282 329
#     4  10  19  32  54  85 114 141 182 232 280 326
#
# _framework density 17.890789999999999
#
# number of rings (size 3 to 8) (size 9 to 14) (size 15 to 20)
#    0.000    1.667    1.667    3.500    0.000    6.667 
#    0.000    0.833    0.000    0.000    0.000    0.000 
#    0.000    0.000    0.000    0.000    0.000    0.000 
#
# Total GULP energy -268139.031681 kJ/mol
# GULP energy per Si atom -5586.229827 kJ/mol
# Density = 1.785007 g / cm^3
# Si number density = 17.890790 Si / 1000 Ang^3
#
#
#
# Elastic Constant Matrix: (Units=GPa)
#
#
# Indices 1 2 3 4 5 6 
#
# 1 122.2178 45.2686 73.9492 0.0000 0.0000 0.0000
# 2 45.2686 39.4346 51.9219 0.0000 0.0000 0.0000
# 3 73.9492 51.9219 163.7924 0.0000 0.0000 0.0000
# 4 0.0000 0.0000 0.0000 26.6480 0.0000 0.0000
# 5 0.0000 0.0000 0.0000 0.0000 -5.6677 0.0000
# 6 0.0000 0.0000 0.0000 0.0000 0.0000 -0.8419
#
#
#
# Elastic Compliance Matrix: (Units=1/GPa)
#
#
# Indices 1 2 3 4 5 6 
#
# 1 0.014685 -0.013951 -0.002208 0.000000 0.000000 0.000000
# 2 -0.013951 0.056778 -0.011700 0.000000 0.000000 0.000000
# 3 -0.002208 -0.011700 0.010811 0.000000 0.000000 0.000000
# 4 0.000000 0.000000 0.000000 0.037526 0.000000 0.000000
# 5 0.000000 0.000000 0.000000 0.000000 -0.176438 0.000000
# 6 0.000000 0.000000 0.000000 0.000000 0.000000 -1.187762
#
#
# Mechanical properties :
#
#
# Convention : Reuss Voigt Hill
#
# Bulk Modulus (GPa) = 37.65476 74.19159 55.92317
# Shear Modulus (GPa) = -4.23790 14.31468 5.03839
#
# Velocity S-wave (km/s) = -1.54075 2.83170 1.67997
# Velocity P-wave (km/s) = 4.23409 7.22845 5.92360
#
# Compressibility (1/GPa) = 0.02655707
#
# Stress axis : x y z
#
# Youngs Moduli (GPa) = 68.09545 17.61232 92.49942
#
# Poissons Ratio (x) = 0.24571 0.20421
# Poissons Ratio (y) = 0.95001 1.08224
# Poissons Ratio (z) = 0.15033 0.20606
#
# Static dielectric constant tensor:
#      x y z
#    x 1.574480 0.000000 0.000000 
#    y 0.000000 1.599910 0.000000 
#    z 0.000000 0.000000 1.618190 
# 
# From -- ./inp_files/31966.got.cif
#   From: 2010.05.17/outbox.cif.g08.bks.cpg/sg62_16_cif.got.tgz:31966.got - 2010.06.03 15:25:27.
