data_PCOD9462106
_publ_section_title
;
Structure prediction by ZEFSAII (Michael W. Deem and Ramdas Pophale) SiO2 
 PCOD9462106
Probable space group: P N M A
;
_chemical_formula_sum "Si O2"
_cell_formula_units_Z 64
_cell_length_a 31.787647
_cell_length_b 7.678423
_cell_length_c 12.124438
_cell_angle_alpha 90.000000
_cell_angle_beta 90.000000
_cell_angle_gamma 90.000000
_cell_volume 2959.320701
_symmetry_space_group_name_H-M "P N M A"
_symmetry_group_IT_number 62
_symmetry_cell_setting 'orthorhombic'
loop_
_space_group_symop_operation_xyz
x,y,z
1/2-x,-y,1/2+z
1/2+x,1/2-y,1/2-z
-x,1/2+y,-z
-x,-y,-z
1/2+x,y,1/2-z
1/2-x,1/2+y,1/2+z
x,1/2-y,z
loop_
_atom_site_type_symbol
_atom_site_label
_atom_site_fract_x
_atom_site_fract_y
_atom_site_fract_z
Si Si1 0.877712 0.462680 0.403361
Si Si2 0.933043 0.461258 0.005780
Si Si3 0.952754 0.547776 0.765874
Si Si4 0.300268 0.463265 0.250504
Si Si5 0.792477 0.548168 0.808903
Si Si6 0.632754 0.548100 0.152494
Si Si7 0.956258 0.037063 0.254420
Si Si8 0.839053 0.450895 0.023841
O O1 0.879266 0.250000 0.403217
O O2 0.835040 0.512988 0.339896
O O3 0.876369 0.521447 0.529964
O O4 0.918750 0.520649 0.334692
O O5 0.935620 0.250000 0.998478
O O6 0.956422 0.532068 0.898439
O O7 0.947298 0.514055 0.127798
O O8 0.884732 0.524357 0.995950
O O9 0.948729 0.750000 0.736893
O O10 0.909909 0.461850 0.724037
O O11 0.996529 0.479103 0.715911
O O12 0.298850 0.250000 0.252690
O O13 0.252902 0.521721 0.226904
O O14 0.316764 0.526585 0.368919
O O15 0.787193 0.750000 0.838971
O O16 0.828082 0.536901 0.715048
O O17 0.810225 0.457048 0.917220
O O18 0.644516 0.750000 0.141362
O O19 0.956343 0.250000 0.255546
O O20 0.848021 0.250000 0.053041
#
# Coordination Sequence:
#
# PCOD9462106 Si02
#       8
#     8   8   8   8   8   8   8   8
#     4   9  18  36  59  81 107 143 190 231 270 330
#     4  10  18  33  59  85 112 144 184 226 271 331
#     4  11  22  35  55  83 117 147 180 230 284 330
#     4   9  19  36  58  85 113 145 183 229 280 328
#     4  11  23  37  57  85 118 148 182 231 282 326
#     4  11  23  38  58  80 108 149 193 232 273 331
#     4   9  18  34  57  85 111 144 186 231 278 327
#     4  10  19  35  61  86 111 146 187 226 272 331
#
# _framework density 21.626584000000001
#
# number of rings (size 3 to 8) (size 9 to 14) (size 15 to 20)
#    0.000    2.000    2.500    1.500    1.750    0.500 
#    0.000    1.250    0.000    5.250    0.000    0.000 
#    0.000    0.000    0.000    0.000    0.000    0.000 
#
# Total GULP energy -357477.417670 kJ/mol
# GULP energy per Si atom -5585.584651 kJ/mol
# Density = 2.157736 g / cm^3
# Si number density = 21.626584 Si / 1000 Ang^3
#
#
#
# Elastic Constant Matrix: (Units=GPa)
#
#
# Indices 1 2 3 4 5 6 
#
# 1 88.0461 3.5047 13.2765 0.0000 0.0000 0.0000
# 2 3.5047 35.9270 -8.6760 0.0000 0.0000 0.0000
# 3 13.2765 -8.6760 98.1541 0.0000 0.0000 0.0000
# 4 0.0000 0.0000 0.0000 210.7058 0.0000 0.0000
# 5 0.0000 0.0000 0.0000 0.0000 15.5547 0.0000
# 6 0.0000 0.0000 0.0000 0.0000 0.0000 31.2981
#
#
#
# Elastic Compliance Matrix: (Units=1/GPa)
#
#
# Indices 1 2 3 4 5 6 
#
# 1 0.011678 -0.001554 -0.001717 0.000000 0.000000 0.000000
# 2 -0.001554 0.028648 0.002742 0.000000 0.000000 0.000000
# 3 -0.001717 0.002742 0.010663 0.000000 0.000000 0.000000
# 4 0.000000 0.000000 0.000000 0.004746 0.000000 0.000000
# 5 0.000000 0.000000 0.000000 0.000000 0.064289 0.000000
# 6 0.000000 0.000000 0.000000 0.000000 0.000000 0.031951
#
#
# Mechanical properties :
#
#
# Convention : Reuss Voigt Hill
#
# Bulk Modulus (GPa) = 20.02709 26.48195 23.25452
# Shear Modulus (GPa) = 29.46786 65.77985 47.62385
#
# Velocity S-wave (km/s) = 3.69531 5.52107 4.69774
# Velocity P-wave (km/s) = 5.24286 7.27425 6.34044
#
# Compressibility (1/GPa) = 0.04993237
#
# Stress axis : x y z
#
# Youngs Moduli (GPa) = 85.62785 34.90636 93.78473
#
# Poissons Ratio (x) = 0.05424 0.16103
# Poissons Ratio (y) = 0.13305 -0.25720
# Poissons Ratio (z) = 0.14702 -0.09573
#
# Static dielectric constant tensor:
#      x y z
#    x 1.783830 0.000000 0.000000 
#    y 0.000000 1.880710 0.000000 
#    z 0.000000 0.000000 1.748630 
# 
# From -- ./inp_files/15890.got.cif
#   From: 2010.05.17/outbox.cif.g08.bks.cpg/sg62_8_cif.got.tgz:15890.got - 2010.06.03 15:25:27.
