data_PCOD9462388
_publ_section_title
;
Structure prediction by ZEFSAII (Michael W. Deem and Ramdas Pophale) SiO2 
 PCOD9462388
Probable space group: P N M A
;
_chemical_formula_sum "Si O2"
_cell_formula_units_Z 56
_cell_length_a 12.089796
_cell_length_b 12.953952
_cell_length_c 20.002639
_cell_angle_alpha 90.000000
_cell_angle_beta 90.000000
_cell_angle_gamma 90.000000
_cell_volume 3132.626037
_symmetry_space_group_name_H-M "P N M A"
_symmetry_group_IT_number 62
_symmetry_cell_setting 'orthorhombic'
loop_
_space_group_symop_operation_xyz
x,y,z
1/2-x,-y,1/2+z
1/2+x,1/2-y,1/2-z
-x,1/2+y,-z
-x,-y,-z
1/2+x,y,1/2-z
1/2-x,1/2+y,1/2+z
x,1/2-y,z
loop_
_atom_site_type_symbol
_atom_site_label
_atom_site_fract_x
_atom_site_fract_y
_atom_site_fract_z
Si Si1 0.448770 0.636670 0.520011
Si Si2 0.000290 0.129706 0.312156
Si Si3 0.177451 0.931597 0.017783
Si Si4 0.781678 0.950854 0.616651
Si Si5 0.440866 0.129177 0.336750
Si Si6 0.120963 0.493970 0.586142
Si Si7 0.594517 0.872360 0.048147
O O1 0.399049 0.750000 0.514827
O O2 0.564132 0.631445 0.479221
O O3 0.368442 0.545676 0.499267
O O4 0.484829 0.615937 0.597030
O O5 0.972654 0.250000 0.323148
O O6 0.002449 0.111128 0.232767
O O7 0.911124 0.055601 0.347540
O O8 0.117474 0.104741 0.346421
O O9 0.251980 0.897432 0.954793
O O10 0.257890 0.944120 0.080341
O O11 0.668194 0.940375 0.656982
O O12 0.824069 0.065060 0.597802
O O13 0.405386 0.250000 0.337730
O O14 0.112122 0.577012 0.525189
O O15 0.028038 0.408205 0.570893
O O16 0.607550 0.750000 0.047874
#
# Coordination Sequence:
#
# PCOD9462388 Si02
#       7
#     8   8   8   8   8   8   8
#     4   9  18  32  49  70  96 126 164 206 242 289
#     4  10  19  30  48  76 106 134 162 192 242 312
#     4   9  18  31  46  68  97 127 162 200 247 292
#     4   9  18  32  48  68  98 133 164 201 245 289
#     4   9  18  32  50  73 101 132 162 195 243 302
#     4   9  18  29  45  73 102 126 154 200 251 292
#     4   9  17  30  48  70  96 128 166 201 240 294
#
# _framework density 17.876376
#
# number of rings (size 3 to 8) (size 9 to 14) (size 15 to 20)
#    0.000    2.857    0.000    1.714    0.000    5.143 
#    0.000    6.429    0.000    3.429    0.000   12.000 
#    0.000    0.000    0.000    0.000    0.000    0.000 
#
# Total GULP energy -311991.137567 kJ/mol
# GULP energy per Si atom -5571.270314 kJ/mol
# Density = 1.783569 g / cm^3
# Si number density = 17.876376 Si / 1000 Ang^3
#
#
#
# Elastic Constant Matrix: (Units=GPa)
#
#
# Indices 1 2 3 4 5 6 
#
# 1 64.0911 10.2978 17.4383 0.0000 0.0000 0.0000
# 2 10.2978 61.0370 21.3718 0.0000 0.0000 0.0000
# 3 17.4383 21.3718 50.9671 0.0000 0.0000 0.0000
# 4 0.0000 0.0000 0.0000 19.6684 0.0000 0.0000
# 5 0.0000 0.0000 0.0000 0.0000 21.0838 0.0000
# 6 0.0000 0.0000 0.0000 0.0000 0.0000 7.8945
#
#
#
# Elastic Compliance Matrix: (Units=1/GPa)
#
#
# Indices 1 2 3 4 5 6 
#
# 1 0.017255 -0.000989 -0.005489 0.000000 0.000000 0.000000
# 2 -0.000989 0.019260 -0.007738 0.000000 0.000000 0.000000
# 3 -0.005489 -0.007738 0.024743 0.000000 0.000000 0.000000
# 4 0.000000 0.000000 0.000000 0.050843 0.000000 0.000000
# 5 0.000000 0.000000 0.000000 0.000000 0.047430 0.000000
# 6 0.000000 0.000000 0.000000 0.000000 0.000000 0.126670
#
#
# Mechanical properties :
#
#
# Convention : Reuss Voigt Hill
#
# Bulk Modulus (GPa) = 30.46337 30.47898 30.47118
# Shear Modulus (GPa) = 15.35745 18.19517 16.77631
#
# Velocity S-wave (km/s) = 2.93421 3.19381 3.06676
# Velocity P-wave (km/s) = 5.34393 5.53963 5.44266
#
# Compressibility (1/GPa) = 0.03282631
#
# Stress axis : x y z
#
# Youngs Moduli (GPa) = 57.95343 51.92196 40.41529
#
# Poissons Ratio (x) = 0.05136 0.22184
# Poissons Ratio (y) = 0.05733 0.31272
# Poissons Ratio (z) = 0.31811 0.40175
#
# Static dielectric constant tensor:
#      x y z
#    x 1.649400 0.000000 0.000000 
#    y 0.000000 1.603930 0.000000 
#    z 0.000000 0.000000 1.613640 
# 
# From -- ./inp_files/26602.got.cif
#   From: 2010.05.17/outbox.cif.g08.bks.cpg/sg62_14_cif.got.tgz:26602.got - 2010.06.03 15:25:27.
