data_PCOD9462100
_publ_section_title
;
Structure prediction by ZEFSAII (Michael W. Deem and Ramdas Pophale) SiO2 
 PCOD9462100
Probable space group: P N M A
;
_chemical_formula_sum "Si O2"
_cell_formula_units_Z 40
_cell_length_a 9.027617
_cell_length_b 12.847067
_cell_length_c 17.831285
_cell_angle_alpha 90.000000
_cell_angle_beta 90.000000
_cell_angle_gamma 90.000000
_cell_volume 2068.043912
_symmetry_space_group_name_H-M "P N M A"
_symmetry_group_IT_number 62
_symmetry_cell_setting 'orthorhombic'
loop_
_space_group_symop_operation_xyz
x,y,z
1/2-x,-y,1/2+z
1/2+x,1/2-y,1/2-z
-x,1/2+y,-z
-x,-y,-z
1/2+x,y,1/2-z
1/2-x,1/2+y,1/2+z
x,1/2-y,z
loop_
_atom_site_type_symbol
_atom_site_label
_atom_site_fract_x
_atom_site_fract_y
_atom_site_fract_z
Si Si1 0.455290 0.547770 0.327439
Si Si2 0.851824 0.365179 0.704574
Si Si3 0.748540 0.869949 0.609991
Si Si4 0.508471 0.484702 0.911294
Si Si5 0.699734 0.871543 0.430656
O O1 0.573901 0.552207 0.260599
O O2 0.322569 0.621163 0.300026
O O3 0.371778 0.440848 0.347372
O O4 0.541523 0.593076 0.399181
O O5 0.890866 0.250000 0.730223
O O6 0.914773 0.388651 0.621933
O O7 0.742581 0.750000 0.632028
O O8 0.712034 0.877789 0.520794
O O9 0.914444 0.917366 0.620017
O O10 0.677378 0.450508 0.896118
O O11 0.500000 0.500000 0.000000
O O12 0.728207 0.750000 0.410072
#
# Coordination Sequence:
#
# PCOD9462100 Si02
#       5
#     8   8   8   8   8
#     4  11  22  36  55  84 116 148 187 232 283 341
#     4  11  21  34  54  82 113 145 181 231 288 340
#     4   9  20  38  58  80 114 156 196 233 273 326
#     4   9  19  35  56  83 113 146 185 227 276 337
#     4  10  18  33  58  87 118 151 185 233 288 338
#
# _framework density 19.341949
#
# number of rings (size 3 to 8) (size 9 to 14) (size 15 to 20)
#    0.000    2.000    0.000    4.200    0.000    0.800 
#    0.000    5.000    0.000    1.200    0.000    0.000 
#    0.000    0.000    0.000    0.000    0.000    0.000 
#
# Total GULP energy -222809.550149 kJ/mol
# GULP energy per Si atom -5570.238754 kJ/mol
# Density = 1.929793 g / cm^3
# Si number density = 19.341949 Si / 1000 Ang^3
#
#
#
# Elastic Constant Matrix: (Units=GPa)
#
#
# Indices 1 2 3 4 5 6 
#
# 1 118.5894 59.7937 23.9604 0.0000 0.0000 0.0000
# 2 59.7937 147.3034 37.1863 0.0000 0.0000 0.0000
# 3 23.9604 37.1863 55.9155 0.0000 0.0000 0.0000
# 4 0.0000 0.0000 0.0000 13.5190 0.0000 0.0000
# 5 0.0000 0.0000 0.0000 0.0000 33.4003 0.0000
# 6 0.0000 0.0000 0.0000 0.0000 0.0000 27.2180
#
#
#
# Elastic Compliance Matrix: (Units=1/GPa)
#
#
# Indices 1 2 3 4 5 6 
#
# 1 0.010796 -0.003863 -0.002057 0.000000 0.000000 0.000000
# 2 -0.003863 0.009541 -0.004690 0.000000 0.000000 0.000000
# 3 -0.002057 -0.004690 0.021884 0.000000 0.000000 0.000000
# 4 0.000000 0.000000 0.000000 0.073970 0.000000 0.000000
# 5 0.000000 0.000000 0.000000 0.000000 0.029940 0.000000
# 6 0.000000 0.000000 0.000000 0.000000 0.000000 0.036740
#
#
# Mechanical properties :
#
#
# Convention : Reuss Voigt Hill
#
# Bulk Modulus (GPa) = 47.61559 62.63214 55.12386
# Shear Modulus (GPa) = 23.68644 28.21863 25.95253
#
# Velocity S-wave (km/s) = 3.50325 3.82374 3.66700
# Velocity P-wave (km/s) = 6.40585 7.20739 6.81841
#
# Compressibility (1/GPa) = 0.02100152
#
# Stress axis : x y z
#
# Youngs Moduli (GPa) = 92.62848 104.81455 45.69459
#
# Poissons Ratio (x) = 0.40489 0.09400
# Poissons Ratio (y) = 0.35782 0.21429
# Poissons Ratio (z) = 0.19054 0.49154
#
# Static dielectric constant tensor:
#      x y z
#    x 1.684700 0.000000 0.000000 
#    y 0.000000 1.666190 0.000000 
#    z 0.000000 0.000000 1.721520 
# 
# From -- ./inp_files/21880.got.cif
#   From: 2010.05.17/outbox.cif.g08.bks.cpg/sg62_11_cif.got.tgz:21880.got - 2010.06.03 15:25:27.
