data_PCOD9462638
_publ_section_title
;
Structure prediction by ZEFSAII (Michael W. Deem and Ramdas Pophale) SiO2 
 PCOD9462638
Probable space group: P N M A
;
_chemical_formula_sum "Si O2"
_cell_formula_units_Z 64
_cell_length_a 34.448708
_cell_length_b 8.793819
_cell_length_c 12.221724
_cell_angle_alpha 90.000000
_cell_angle_beta 90.000000
_cell_angle_gamma 90.000000
_cell_volume 3702.396551
_symmetry_space_group_name_H-M "P N M A"
_symmetry_group_IT_number 62
_symmetry_cell_setting 'orthorhombic'
loop_
_space_group_symop_operation_xyz
x,y,z
1/2-x,-y,1/2+z
1/2+x,1/2-y,1/2-z
-x,1/2+y,-z
-x,-y,-z
1/2+x,y,1/2-z
1/2-x,1/2+y,1/2+z
x,1/2-y,z
loop_
_atom_site_type_symbol
_atom_site_label
_atom_site_fract_x
_atom_site_fract_y
_atom_site_fract_z
Si Si1 0.169454 0.567524 0.455925
Si Si2 0.390405 0.066018 0.764532
Si Si3 0.318382 0.066913 0.355651
Si Si4 0.029878 0.568031 0.350761
Si Si5 0.050622 0.929789 0.605725
Si Si6 0.632523 0.430383 0.831093
Si Si7 0.268814 0.932177 0.795485
Si Si8 0.322286 0.066044 0.609510
O O1 0.172195 0.750000 0.460288
O O2 0.134015 0.526588 0.373550
O O3 0.159390 0.502777 0.574008
O O4 0.207451 0.499883 0.398280
O O5 0.392283 0.250000 0.762748
O O6 0.434620 0.013083 0.774927
O O7 0.363482 0.018689 0.663367
O O8 0.322822 0.250000 0.349551
O O9 0.276270 0.027327 0.306277
O O10 0.319202 0.023267 0.483213
O O11 0.351444 0.989163 0.284210
O O12 0.024517 0.750000 0.338065
O O13 0.044071 0.542390 0.475929
O O14 0.988869 0.486109 0.337262
O O15 0.056013 0.750000 0.620249
O O16 0.088774 0.014516 0.646667
O O17 0.634636 0.250000 0.837717
O O18 0.272308 0.750000 0.796910
O O19 0.289002 0.996954 0.686578
O O20 0.319625 0.250000 0.617577
#
# Coordination Sequence:
#
# PCOD9462638 Si02
#       8
#     8   8   8   8   8   8   8   8
#     4  10  19  35  56  79 109 146 181 219 274 329
#     4   8  14  29  54  79 103 137 177 217 265 318
#     4  10  23  40  56  77 108 146 186 226 276 330
#     4   9  16  29  50  79 111 142 178 219 268 328
#     4  10  19  32  50  76 113 148 178 218 274 335
#     4  12  24  36  54  80 110 146 186 229 278 328
#     4  10  21  36  55  83 111 139 179 230 276 321
#     4   9  19  37  58  78 105 145 187 225 270 328
#
# _framework density 17.286102
#
# number of rings (size 3 to 8) (size 9 to 14) (size 15 to 20)
#    0.000    2.250    1.250    3.000    1.750    2.000 
#    0.000    0.625    0.000    0.750    0.000    0.000 
#    0.000    0.000    0.000    0.000    0.000    0.000 
#
# Total GULP energy -357119.740209 kJ/mol
# GULP energy per Si atom -5579.995941 kJ/mol
# Density = 1.724676 g / cm^3
# Si number density = 17.286102 Si / 1000 Ang^3
#
#
#
# Elastic Constant Matrix: (Units=GPa)
#
#
# Indices 1 2 3 4 5 6 
#
# 1 83.8787 37.1369 41.0745 0.0000 0.0000 0.0000
# 2 37.1369 42.0316 35.9973 0.0000 0.0000 0.0000
# 3 41.0745 35.9973 96.2656 0.0000 0.0000 0.0000
# 4 0.0000 0.0000 0.0000 22.4695 0.0000 0.0000
# 5 0.0000 0.0000 0.0000 0.0000 16.9298 0.0000
# 6 0.0000 0.0000 0.0000 0.0000 0.0000 25.9197
#
#
#
# Elastic Compliance Matrix: (Units=1/GPa)
#
#
# Indices 1 2 3 4 5 6 
#
# 1 0.020099 -0.015320 -0.002847 0.000000 0.000000 0.000000
# 2 -0.015320 0.046678 -0.010918 0.000000 0.000000 0.000000
# 3 -0.002847 -0.010918 0.015685 0.000000 0.000000 0.000000
# 4 0.000000 0.000000 0.000000 0.044505 0.000000 0.000000
# 5 0.000000 0.000000 0.000000 0.000000 0.059067 0.000000
# 6 0.000000 0.000000 0.000000 0.000000 0.000000 0.038581
#
#
# Mechanical properties :
#
#
# Convention : Reuss Voigt Hill
#
# Bulk Modulus (GPa) = 41.16530 50.06592 45.61561
# Shear Modulus (GPa) = 17.18903 20.26163 18.72533
#
# Velocity S-wave (km/s) = 3.15681 3.42736 3.29486
# Velocity P-wave (km/s) = 6.09533 6.68494 6.39693
#
# Compressibility (1/GPa) = 0.02429231
#
# Stress axis : x y z
#
# Youngs Moduli (GPa) = 49.75356 21.42326 63.75369
#
# Poissons Ratio (x) = 0.32821 0.18151
# Poissons Ratio (y) = 0.76223 0.69606
# Poissons Ratio (z) = 0.14165 0.23390
#
# Static dielectric constant tensor:
#      x y z
#    x 1.589200 0.000000 0.000000 
#    y 0.000000 1.582080 0.000000 
#    z 0.000000 0.000000 1.570860 
# 
# From -- ./inp_files/15901.got.cif
#   From: 2010.05.17/outbox.cif.g08.bks.cpg/sg62_8_cif.got.tgz:15901.got - 2010.06.03 15:25:27.
