data_PCOD9462373
_publ_section_title
;
Structure prediction by ZEFSAII (Michael W. Deem and Ramdas Pophale) SiO2 
 PCOD9462373
Probable space group: P N M A
;
_chemical_formula_sum "Si O2"
_cell_formula_units_Z 56
_cell_length_a 22.521022
_cell_length_b 18.660048
_cell_length_c 7.320917
_cell_angle_alpha 90.000000
_cell_angle_beta 90.000000
_cell_angle_gamma 90.000000
_cell_volume 3076.566696
_symmetry_space_group_name_H-M "P N M A"
_symmetry_group_IT_number 62
_symmetry_cell_setting 'orthorhombic'
loop_
_space_group_symop_operation_xyz
x,y,z
1/2-x,-y,1/2+z
1/2+x,1/2-y,1/2-z
-x,1/2+y,-z
-x,-y,-z
1/2+x,y,1/2-z
1/2-x,1/2+y,1/2+z
x,1/2-y,z
loop_
_atom_site_type_symbol
_atom_site_label
_atom_site_fract_x
_atom_site_fract_y
_atom_site_fract_z
Si Si1 0.668625 0.331152 0.915992
Si Si2 0.060789 0.071232 0.653145
Si Si3 0.256307 0.449212 0.562643
Si Si4 0.625936 0.472534 0.476643
Si Si5 0.304104 0.089550 0.964673
Si Si6 0.428447 0.056734 0.865014
Si Si7 0.192343 0.170167 0.023454
O O1 0.669702 0.250000 0.981220
O O2 0.604763 0.368771 0.926702
O O3 0.681509 0.329964 0.696756
O O4 0.719249 0.381068 0.006547
O O5 0.085586 0.046203 0.849984
O O6 0.064175 0.003745 0.518898
O O7 0.991902 0.093583 0.664614
O O8 0.316115 0.479771 0.470687
O O9 0.209803 0.514792 0.566389
O O10 0.278942 0.428380 0.763049
O O11 0.591602 0.515515 0.319490
O O12 0.653244 0.396687 0.406084
O O13 0.261525 0.149709 0.047628
O O14 0.373279 0.104236 0.936038
O O15 0.178115 0.250000 0.089131
#
# Coordination Sequence:
#
# PCOD9462373 Si02
#       7
#     8   8   8   8   8   8   8
#     4   9  16  29  48  70  98 126 158 198 243 294
#     4  10  19  32  48  69  96 129 159 201 243 277
#     4   9  16  27  47  70  92 119 154 199 246 282
#     4   9  18  31  50  72  96 123 160 207 241 286
#     4   9  16  27  45  68  95 120 156 201 234 287
#     4  10  19  30  48  71  94 122 168 200 233 288
#     4   8  15  28  48  72  97 127 154 194 254 291
#
# _framework density 18.202109
#
# number of rings (size 3 to 8) (size 9 to 14) (size 15 to 20)
#    0.000    2.857    1.429    1.286    0.000    0.000 
#    0.000    1.429    0.000    0.857    0.000    5.000 
#    0.000    0.000    0.000    0.000    0.000    0.000 
#
# Total GULP energy -311907.526529 kJ/mol
# GULP energy per Si atom -5569.777259 kJ/mol
# Density = 1.816068 g / cm^3
# Si number density = 18.202109 Si / 1000 Ang^3
#
#
#
# Elastic Constant Matrix: (Units=GPa)
#
#
# Indices 1 2 3 4 5 6 
#
# 1 143.6144 37.5099 14.9721 0.0000 0.0000 0.0000
# 2 37.5099 81.6110 -6.7038 0.0000 0.0000 0.0000
# 3 14.9721 -6.7038 45.7788 0.0000 0.0000 0.0000
# 4 0.0000 0.0000 0.0000 9.0193 0.0000 0.0000
# 5 0.0000 0.0000 0.0000 0.0000 20.6008 0.0000
# 6 0.0000 0.0000 0.0000 0.0000 0.0000 17.3956
#
#
#
# Elastic Compliance Matrix: (Units=1/GPa)
#
#
# Indices 1 2 3 4 5 6 
#
# 1 0.008392 -0.004132 -0.003350 0.000000 0.000000 0.000000
# 2 -0.004132 0.014437 0.003466 0.000000 0.000000 0.000000
# 3 -0.003350 0.003466 0.023447 0.000000 0.000000 0.000000
# 4 0.000000 0.000000 0.000000 0.110873 0.000000 0.000000
# 5 0.000000 0.000000 0.000000 0.000000 0.048542 0.000000
# 6 0.000000 0.000000 0.000000 0.000000 0.000000 0.057486
#
#
# Mechanical properties :
#
#
# Convention : Reuss Voigt Hill
#
# Bulk Modulus (GPa) = 26.14814 40.28452 33.21633
# Shear Modulus (GPa) = 17.60835 24.41820 21.01328
#
# Velocity S-wave (km/s) = 3.11365 3.66663 3.40139
# Velocity P-wave (km/s) = 5.22714 6.33288 5.80639
#
# Compressibility (1/GPa) = 0.03824363
#
# Stress axis : x y z
#
# Youngs Moduli (GPa) = 119.16793 69.26605 42.64910
#
# Poissons Ratio (x) = 0.28621 0.14286
# Poissons Ratio (y) = 0.49241 -0.14780
# Poissons Ratio (z) = 0.39916 -0.24004
#
# Static dielectric constant tensor:
#      x y z
#    x 1.665140 0.000000 0.000000 
#    y 0.000000 1.618170 0.000000 
#    z 0.000000 0.000000 1.687830 
# 
# From -- ./inp_files/8820.got.cif
#   From: 2010.05.17/outbox.cif.g08.bks.cpg/sg62_5_cif.got.tgz:8820.got - 2010.06.03 15:25:27.
