data_PCOD9462463
_publ_section_title
;
Structure prediction by ZEFSAII (Michael W. Deem and Ramdas Pophale) SiO2 
 PCOD9462463
Probable space group: P N M A
;
_chemical_formula_sum "Si O2"
_cell_formula_units_Z 56
_cell_length_a 24.512933
_cell_length_b 7.488002
_cell_length_c 14.112474
_cell_angle_alpha 90.000000
_cell_angle_beta 90.000000
_cell_angle_gamma 90.000000
_cell_volume 2590.385407
_symmetry_space_group_name_H-M "P N M A"
_symmetry_group_IT_number 62
_symmetry_cell_setting 'orthorhombic'
loop_
_space_group_symop_operation_xyz
x,y,z
1/2-x,-y,1/2+z
1/2+x,1/2-y,1/2-z
-x,1/2+y,-z
-x,-y,-z
1/2+x,y,1/2-z
1/2-x,1/2+y,1/2+z
x,1/2-y,z
loop_
_atom_site_type_symbol
_atom_site_label
_atom_site_fract_x
_atom_site_fract_y
_atom_site_fract_z
Si Si1 0.618839 0.031543 0.549093
Si Si2 0.337557 0.960566 0.955105
Si Si3 0.443231 0.965332 0.636457
Si Si4 0.273045 0.965330 0.559285
Si Si5 0.941696 0.542652 0.227882
Si Si6 0.445226 0.535269 0.058357
Si Si7 0.332808 0.967533 0.743628
O O1 0.618451 0.250000 0.549803
O O2 0.574602 0.977607 0.469081
O O3 0.678095 0.976027 0.511004
O O4 0.601277 0.965871 0.652311
O O5 0.347569 0.750000 0.941592
O O6 0.325228 0.033046 0.850209
O O7 0.285615 0.979957 0.022349
O O8 0.392284 0.034362 0.002644
O O9 0.446574 0.750000 0.636255
O O10 0.392752 0.015602 0.704507
O O11 0.499816 0.034868 0.676317
O O12 0.274338 0.750000 0.559863
O O13 0.289501 0.027510 0.664566
O O14 0.926489 0.750000 0.239339
O O15 0.946174 0.465922 0.333497
O O16 0.440892 0.750000 0.063886
O O17 0.500000 0.500000 0.000000
O O18 0.330395 0.750000 0.743232
#
# Coordination Sequence:
#
# PCOD9462463 Si02
#       7
#     8   8   8   8   8   8   8
#     4   8  16  31  50  72 102 134 163 196 242 294
#     4  10  20  35  53  74 100 130 161 201 249 291
#     4   9  16  30  52  74  96 132 173 200 230 287
#     4   9  18  34  54  75  97 128 168 204 237 288
#     4  10  19  31  48  74 105 132 157 200 254 292
#     4  10  22  37  53  73 100 131 164 201 245 294
#     4   8  16  32  52  70  96 133 167 198 241 292
#
# _framework density 21.618404999999999
#
# number of rings (size 3 to 8) (size 9 to 14) (size 15 to 20)
#    0.000    2.857    0.000    3.000    0.000    3.429 
#    0.000    6.429    0.000    0.000    0.000    0.000 
#    0.000    0.000    0.000    0.000    0.000    0.000 
#
# Total GULP energy -312624.918514 kJ/mol
# GULP energy per Si atom -5582.587831 kJ/mol
# Density = 2.156920 g / cm^3
# Si number density = 21.618405 Si / 1000 Ang^3
#
#
#
# Elastic Constant Matrix: (Units=GPa)
#
#
# Indices 1 2 3 4 5 6 
#
# 1 137.7086 -7.6405 106.6288 0.0000 0.0000 0.0000
# 2 -7.6405 57.9351 8.3113 0.0000 0.0000 0.0000
# 3 106.6288 8.3113 184.9833 0.0000 0.0000 0.0000
# 4 0.0000 0.0000 0.0000 9.7233 0.0000 0.0000
# 5 0.0000 0.0000 0.0000 0.0000 17.2109 0.0000
# 6 0.0000 0.0000 0.0000 0.0000 0.0000 17.1787
#
#
#
# Elastic Compliance Matrix: (Units=1/GPa)
#
#
# Indices 1 2 3 4 5 6 
#
# 1 0.013594 0.002936 -0.007968 0.000000 0.000000 0.000000
# 2 0.002936 0.018007 -0.002501 0.000000 0.000000 0.000000
# 3 -0.007968 -0.002501 0.010111 0.000000 0.000000 0.000000
# 4 0.000000 0.000000 0.000000 0.102845 0.000000 0.000000
# 5 0.000000 0.000000 0.000000 0.000000 0.058103 0.000000
# 6 0.000000 0.000000 0.000000 0.000000 0.000000 0.058212
#
#
# Mechanical properties :
#
#
# Convention : Reuss Voigt Hill
#
# Bulk Modulus (GPa) = 37.53003 66.13622 51.83312
# Shear Modulus (GPa) = 17.55492 27.04442 22.29967
#
# Velocity S-wave (km/s) = 2.85272 3.54077 3.21520
# Velocity P-wave (km/s) = 5.31494 6.88295 6.14913
#
# Compressibility (1/GPa) = 0.02664533
#
# Stress axis : x y z
#
# Youngs Moduli (GPa) = 73.56052 55.53480 98.90023
#
# Poissons Ratio (x) = -0.16304 0.78803
# Poissons Ratio (y) = -0.21597 0.24738
# Poissons Ratio (z) = 0.58613 0.13891
#
# Static dielectric constant tensor:
#      x y z
#    x 1.732350 0.000000 0.000000 
#    y 0.000000 1.837560 0.000000 
#    z 0.000000 0.000000 1.799680 
# 
# From -- ./inp_files/14806.got.cif
#   From: 2010.05.17/outbox.cif.g08.bks.cpg/sg62_8_cif.got.tgz:14806.got - 2010.06.03 15:25:27.
