data_PCOD9462527
_publ_section_title
;
Structure prediction by ZEFSAII (Michael W. Deem and Ramdas Pophale) SiO2 
 PCOD9462527
Probable space group: P N M A
;
_chemical_formula_sum "Si O2"
_cell_formula_units_Z 64
_cell_length_a 9.271936
_cell_length_b 14.860906
_cell_length_c 23.106394
_cell_angle_alpha 90.000000
_cell_angle_beta 90.000000
_cell_angle_gamma 90.000000
_cell_volume 3183.815457
_symmetry_space_group_name_H-M "P N M A"
_symmetry_group_IT_number 62
_symmetry_cell_setting 'orthorhombic'
loop_
_space_group_symop_operation_xyz
x,y,z
1/2-x,-y,1/2+z
1/2+x,1/2-y,1/2-z
-x,1/2+y,-z
-x,-y,-z
1/2+x,y,1/2-z
1/2-x,1/2+y,1/2+z
x,1/2-y,z
loop_
_atom_site_type_symbol
_atom_site_label
_atom_site_fract_x
_atom_site_fract_y
_atom_site_fract_z
Si Si1 0.156211 0.351225 0.149193
Si Si2 0.942420 0.860453 0.449586
Si Si3 0.054863 0.917165 0.226458
Si Si4 0.354675 0.850334 0.181174
Si Si5 0.523800 0.849690 0.885915
Si Si6 0.606127 0.517474 0.638246
Si Si7 0.646922 0.097938 0.220227
Si Si8 0.166427 0.487564 0.458801
O O1 0.108986 0.250000 0.135700
O O2 0.307751 0.369076 0.118678
O O3 0.182234 0.357993 0.218401
O O4 0.033860 0.420637 0.131282
O O5 0.942896 0.750000 0.457714
O O6 0.913433 0.877308 0.381574
O O7 0.826155 0.920627 0.485839
O O8 0.089692 0.915003 0.466859
O O9 0.218633 0.904937 0.205596
O O10 0.983514 0.850908 0.272279
O O11 0.057060 0.009802 0.262206
O O12 0.950882 0.929110 0.171369
O O13 0.296134 0.750000 0.174543
O O14 0.502608 0.750000 0.912159
O O15 0.454933 0.846948 0.822160
O O16 0.440712 0.928177 0.918556
O O17 0.714611 0.567950 0.682868
O O18 0.689470 0.501756 0.578650
#
# Coordination Sequence:
#
# PCOD9462527 Si02
#       8
#     8   8   8   8   8   8   8   8
#     4  10  20  30  46  81 121 156 198 251 308 367
#     4  10  23  42  68  94 121 159 217 267 309 373
#     4  11  21  37  57  89 122 159 204 250 317 381
#     4  11  23  39  62  89 122 162 204 262 318 373
#     4  10  20  33  55  83 117 161 208 254 304 371
#     4  10  21  34  57  85 117 161 199 252 308 375
#     4  10  19  31  50  78 113 162 201 247 302 366
#     4  10  22  42  65  91 117 164 210 257 314 362
#
# _framework density 20.101668
#
# number of rings (size 3 to 8) (size 9 to 14) (size 15 to 20)
#    0.000    1.750    1.250    4.125    5.250    4.000 
#    0.000    1.250    0.000    0.000    0.000    0.000 
#    0.000    0.000    0.000    0.000    0.000    0.000 
#
# Total GULP energy -356861.723448 kJ/mol
# GULP energy per Si atom -5575.964429 kJ/mol
# Density = 2.005592 g / cm^3
# Si number density = 20.101668 Si / 1000 Ang^3
#
#
#
# Elastic Constant Matrix: (Units=GPa)
#
#
# Indices 1 2 3 4 5 6 
#
# 1 51.3647 9.2468 16.6727 0.0000 0.0000 0.0000
# 2 9.2468 76.7087 22.5043 0.0000 0.0000 0.0000
# 3 16.6727 22.5043 74.6614 0.0000 0.0000 0.0000
# 4 0.0000 0.0000 0.0000 10.1637 0.0000 0.0000
# 5 0.0000 0.0000 0.0000 0.0000 18.3891 0.0000
# 6 0.0000 0.0000 0.0000 0.0000 0.0000 13.3475
#
#
#
# Elastic Compliance Matrix: (Units=1/GPa)
#
#
# Indices 1 2 3 4 5 6 
#
# 1 0.021103 -0.001274 -0.004329 0.000000 0.000000 0.000000
# 2 -0.001274 0.014378 -0.004049 0.000000 0.000000 0.000000
# 3 -0.004329 -0.004049 0.015581 0.000000 0.000000 0.000000
# 4 0.000000 0.000000 0.000000 0.098389 0.000000 0.000000
# 5 0.000000 0.000000 0.000000 0.000000 0.054380 0.000000
# 6 0.000000 0.000000 0.000000 0.000000 0.000000 0.074920
#
#
# Mechanical properties :
#
#
# Convention : Reuss Voigt Hill
#
# Bulk Modulus (GPa) = 31.48786 33.28692 32.38739
# Shear Modulus (GPa) = 16.20008 18.66748 17.43378
#
# Velocity S-wave (km/s) = 2.84193 3.05069 2.94816
# Velocity P-wave (km/s) = 5.14462 5.38555 5.26646
#
# Compressibility (1/GPa) = 0.03175827
#
# Stress axis : x y z
#
# Youngs Moduli (GPa) = 47.38665 69.55143 64.18104
#
# Poissons Ratio (x) = 0.08861 0.27781
# Poissons Ratio (y) = 0.06037 0.25989
# Poissons Ratio (z) = 0.20511 0.28163
#
# Static dielectric constant tensor:
#      x y z
#    x 1.696410 0.000000 0.000000 
#    y 0.000000 1.747550 0.000000 
#    z 0.000000 0.000000 1.773870 
# 
# From -- ./inp_files/28998.got.cif
#   From: 2010.05.17/outbox.cif.g08.bks.cpg/sg62_15_cif.got.tgz:28998.got - 2010.06.03 15:25:27.
