data_PCOD9462781
_publ_section_title
;
Structure prediction by ZEFSAII (Michael W. Deem and Ramdas Pophale) SiO2 
 PCOD9462781
Probable space group: P N M A
;
_chemical_formula_sum "Si O2"
_cell_formula_units_Z 64
_cell_length_a 20.818419
_cell_length_b 8.768433
_cell_length_c 19.811106
_cell_angle_alpha 90.000000
_cell_angle_beta 90.000000
_cell_angle_gamma 90.000000
_cell_volume 3616.416605
_symmetry_space_group_name_H-M "P N M A"
_symmetry_group_IT_number 62
_symmetry_cell_setting 'orthorhombic'
loop_
_space_group_symop_operation_xyz
x,y,z
1/2-x,-y,1/2+z
1/2+x,1/2-y,1/2-z
-x,1/2+y,-z
-x,-y,-z
1/2+x,y,1/2-z
1/2-x,1/2+y,1/2+z
x,1/2-y,z
loop_
_atom_site_type_symbol
_atom_site_label
_atom_site_fract_x
_atom_site_fract_y
_atom_site_fract_z
Si Si1 0.817989 0.932112 0.538796
Si Si2 0.257029 0.933000 0.824293
Si Si3 0.257545 0.932903 0.670864
Si Si4 0.437666 0.932767 0.464301
Si Si5 0.614155 0.433419 0.828704
Si Si6 0.315495 0.431252 0.540581
Si Si7 0.938873 0.068803 0.461972
Si Si8 0.384981 0.566556 0.323816
O O1 0.831504 0.750000 0.535602
O O2 0.805284 0.978413 0.616311
O O3 0.750824 0.958235 0.500049
O O4 0.875212 0.020286 0.503052
O O5 0.249781 0.750000 0.828958
O O6 0.277257 0.969915 0.747875
O O7 0.186798 0.004066 0.835450
O O8 0.254125 0.750000 0.663616
O O9 0.186326 0.002596 0.660945
O O10 0.303907 0.003124 0.615078
O O11 0.440734 0.750000 0.466027
O O12 0.429483 0.982312 0.385981
O O13 0.500000 0.000000 0.500000
O O14 0.374258 0.988876 0.503151
O O15 0.615957 0.250000 0.833967
O O16 0.569771 0.500737 0.886994
O O17 0.594910 0.477774 0.752151
O O18 0.326388 0.250000 0.542645
O O19 0.943918 0.250000 0.458367
O O20 0.000000 0.000000 0.500000
O O21 0.381619 0.750000 0.324759
#
# Coordination Sequence:
#
# PCOD9462781 Si02
#       8
#     8   8   8   8   8   8   8   8
#     4  10  20  36  58  84 115 147 185 231 282 336
#     4   9  18  33  55  83 114 147 185 233 283 333
#     4  10  19  32  54  85 116 147 188 234 281 332
#     4  11  23  39  58  84 117 152 194 238 283 339
#     4  10  19  35  57  83 113 146 185 230 282 337
#     4  11  21  35  58  84 115 151 187 231 284 334
#     4  12  25  40  59  84 115 151 191 235 284 340
#     4   9  19  34  56  83 112 145 185 233 280 334
#
# _framework density 17.697075999999999
#
# number of rings (size 3 to 8) (size 9 to 14) (size 15 to 20)
#    0.000    1.750    2.500    2.625    0.000    2.500 
#    0.000    1.250    0.000    0.000    0.000    0.000 
#    0.000    0.000    0.000    0.000    0.000    0.000 
#
# Total GULP energy -357336.668778 kJ/mol
# GULP energy per Si atom -5583.385450 kJ/mol
# Density = 1.765680 g / cm^3
# Si number density = 17.697076 Si / 1000 Ang^3
#
#
#
# Elastic Constant Matrix: (Units=GPa)
#
#
# Indices 1 2 3 4 5 6 
#
# 1 80.3031 43.1869 67.0586 0.0000 0.0000 0.0000
# 2 43.1869 63.1497 52.8607 0.0000 0.0000 0.0000
# 3 67.0586 52.8607 170.0345 0.0000 0.0000 0.0000
# 4 0.0000 0.0000 0.0000 25.3354 0.0000 0.0000
# 5 0.0000 0.0000 0.0000 0.0000 29.5671 0.0000
# 6 0.0000 0.0000 0.0000 0.0000 0.0000 30.4349
#
#
#
# Elastic Compliance Matrix: (Units=1/GPa)
#
#
# Indices 1 2 3 4 5 6 
#
# 1 0.023162 -0.011076 -0.005691 0.000000 0.000000 0.000000
# 2 -0.011076 0.026702 -0.003933 0.000000 0.000000 0.000000
# 3 -0.005691 -0.003933 0.009348 0.000000 0.000000 0.000000
# 4 0.000000 0.000000 0.000000 0.039470 0.000000 0.000000
# 5 0.000000 0.000000 0.000000 0.000000 0.033821 0.000000
# 6 0.000000 0.000000 0.000000 0.000000 0.000000 0.032857
#
#
# Mechanical properties :
#
#
# Convention : Reuss Voigt Hill
#
# Bulk Modulus (GPa) = 56.14221 71.07774 63.60998
# Shear Modulus (GPa) = 23.50724 27.09289 25.30006
#
# Velocity S-wave (km/s) = 3.64856 3.91695 3.78513
# Velocity P-wave (km/s) = 7.03862 7.79149 7.42461
#
# Compressibility (1/GPa) = 0.01781191
#
# Stress axis : x y z
#
# Youngs Moduli (GPa) = 43.17368 37.44986 106.96930
#
# Poissons Ratio (x) = 0.41480 0.60881
# Poissons Ratio (y) = 0.47820 0.42072
# Poissons Ratio (z) = 0.24572 0.14729
#
# Static dielectric constant tensor:
#      x y z
#    x 1.555850 0.000000 0.000000 
#    y 0.000000 1.590250 0.000000 
#    z 0.000000 0.000000 1.640710 
# 
# From -- ./inp_files/24810.got.cif
#   From: 2010.05.17/outbox.cif.g08.bks.cpg/sg62_13_cif.got.tgz:24810.got - 2010.06.03 15:25:27.
