data_PCOD9462190
_publ_section_title
;
Structure prediction by ZEFSAII (Michael W. Deem and Ramdas Pophale) SiO2 
 PCOD9462190
Probable space group: P N M A
;
_chemical_formula_sum "Si O2"
_cell_formula_units_Z 56
_cell_length_a 14.001506
_cell_length_b 22.752135
_cell_length_c 8.258615
_cell_angle_alpha 90.000000
_cell_angle_beta 90.000000
_cell_angle_gamma 90.000000
_cell_volume 2630.898707
_symmetry_space_group_name_H-M "P N M A"
_symmetry_group_IT_number 62
_symmetry_cell_setting 'orthorhombic'
loop_
_space_group_symop_operation_xyz
x,y,z
1/2-x,-y,1/2+z
1/2+x,1/2-y,1/2-z
-x,1/2+y,-z
-x,-y,-z
1/2+x,y,1/2-z
1/2-x,1/2+y,1/2+z
x,1/2-y,z
loop_
_atom_site_type_symbol
_atom_site_label
_atom_site_fract_x
_atom_site_fract_y
_atom_site_fract_z
Si Si1 0.348711 0.567656 0.828595
Si Si2 0.932460 0.687697 0.161243
Si Si3 0.618419 0.947448 0.685380
Si Si4 0.619727 0.628049 0.368092
Si Si5 0.861461 0.934270 0.031079
Si Si6 0.180042 0.182587 0.515489
Si Si7 0.131672 0.553729 0.459549
O O1 0.234631 0.556508 0.815146
O O2 0.392592 0.555896 0.653322
O O3 0.386418 0.516245 0.944556
O O4 0.355450 0.634788 0.885478
O O5 0.899792 0.750000 0.090942
O O6 0.899498 0.685888 0.346329
O O7 0.045289 0.680540 0.147411
O O8 0.887381 0.630952 0.080586
O O9 0.407842 0.090618 0.471958
O O10 0.597219 0.015613 0.647854
O O11 0.589819 0.926872 0.865909
O O12 0.725548 0.653563 0.401019
O O13 0.607936 0.588780 0.205375
O O14 0.746720 0.939476 0.033255
O O15 0.199213 0.250000 0.459892
#
# Coordination Sequence:
#
# PCOD9462190 Si02
#       7
#     8   8   8   8   8   8   8
#     4   9  18  33  61  91 120 157 196 246 295 351
#     4  11  24  39  59  85 116 159 207 247 292 354
#     4   9  19  33  61  93 121 153 192 243 302 361
#     4  11  21  40  62  88 119 157 198 250 302 353
#     4  10  18  36  58  87 125 152 195 245 298 356
#     4  10  21  40  62  84 118 165 204 243 299 359
#     4  10  18  35  62  91 120 154 194 246 302 354
#
# _framework density 21.285502000000001
#
# number of rings (size 3 to 8) (size 9 to 14) (size 15 to 20)
#    0.000    2.000    2.857    1.286    4.000    1.143 
#    2.571    1.429    0.000    1.714    0.000    0.000 
#    0.000    0.000    0.000    0.000    0.000    0.000 
#
# Total GULP energy -312554.624740 kJ/mol
# GULP energy per Si atom -5581.332585 kJ/mol
# Density = 2.123706 g / cm^3
# Si number density = 21.285502 Si / 1000 Ang^3
#
#
#
# Elastic Constant Matrix: (Units=GPa)
#
#
# Indices 1 2 3 4 5 6 
#
# 1 45.8370 6.2155 10.8024 0.0000 0.0000 0.0000
# 2 6.2155 151.8861 55.8121 0.0000 0.0000 0.0000
# 3 10.8024 55.8121 132.3946 0.0000 0.0000 0.0000
# 4 0.0000 0.0000 0.0000 29.2951 0.0000 0.0000
# 5 0.0000 0.0000 0.0000 0.0000 18.4832 0.0000
# 6 0.0000 0.0000 0.0000 0.0000 0.0000 16.8934
#
#
#
# Elastic Compliance Matrix: (Units=1/GPa)
#
#
# Indices 1 2 3 4 5 6 
#
# 1 0.022255 -0.000288 -0.001694 0.000000 0.000000 0.000000
# 2 -0.000288 0.007794 -0.003262 0.000000 0.000000 0.000000
# 3 -0.001694 -0.003262 0.009067 0.000000 0.000000 0.000000
# 4 0.000000 0.000000 0.000000 0.034135 0.000000 0.000000
# 5 0.000000 0.000000 0.000000 0.000000 0.054103 0.000000
# 6 0.000000 0.000000 0.000000 0.000000 0.000000 0.059195
#
#
# Mechanical properties :
#
#
# Convention : Reuss Voigt Hill
#
# Bulk Modulus (GPa) = 34.93281 52.86417 43.89849
# Shear Modulus (GPa) = 24.20358 30.08685 27.14521
#
# Velocity S-wave (km/s) = 3.37574 3.76372 3.57500
# Velocity P-wave (km/s) = 5.62506 6.61643 6.14078
#
# Compressibility (1/GPa) = 0.02862638
#
# Stress axis : x y z
#
# Youngs Moduli (GPa) = 44.93410 128.29661 110.29392
#
# Poissons Ratio (x) = 0.03696 0.18688
# Poissons Ratio (y) = 0.01295 0.35981
# Poissons Ratio (z) = 0.07614 0.41854
#
# Static dielectric constant tensor:
#      x y z
#    x 1.814630 0.000000 0.000000 
#    y 0.000000 1.751890 0.000000 
#    z 0.000000 0.000000 1.786190 
# 
# From -- ./inp_files/6782.got.cif
#   From: 2010.05.17/outbox.cif.g08.bks.cpg/sg62_4_cif.got.tgz:6782.got - 2010.06.03 15:25:27.
