data_PCOD9462331
_publ_section_title
;
Structure prediction by ZEFSAII (Michael W. Deem and Ramdas Pophale) SiO2 
 PCOD9462331
Probable space group: P N M A
;
_chemical_formula_sum "Si O2"
_cell_formula_units_Z 24
_cell_length_a 10.378714
_cell_length_b 5.498899
_cell_length_c 16.501589
_cell_angle_alpha 90.000000
_cell_angle_beta 90.000000
_cell_angle_gamma 90.000000
_cell_volume 941.770437
_symmetry_space_group_name_H-M "P N M A"
_symmetry_group_IT_number 62
_symmetry_cell_setting 'orthorhombic'
loop_
_space_group_symop_operation_xyz
x,y,z
1/2-x,-y,1/2+z
1/2+x,1/2-y,1/2-z
-x,1/2+y,-z
-x,-y,-z
1/2+x,y,1/2-z
1/2-x,1/2+y,1/2+z
x,1/2-y,z
loop_
_atom_site_type_symbol
_atom_site_label
_atom_site_fract_x
_atom_site_fract_y
_atom_site_fract_z
Si Si1 0.566292 0.750000 0.881118
Si Si2 0.677186 0.250000 0.610675
Si Si3 0.367371 0.750000 0.570282
Si Si4 0.298705 0.750000 0.941966
Si Si5 0.394236 0.750000 0.209335
Si Si6 0.358233 0.250000 0.613874
O O1 0.453288 0.750000 0.947526
O O2 0.553433 0.501005 0.829331
O O3 0.711426 0.750000 0.917328
O O4 0.603371 0.250000 0.524229
O O5 0.756996 0.503040 0.603861
O O6 0.602034 0.250000 0.694639
O O7 0.421291 0.512196 0.611572
O O8 0.227242 0.750000 0.029149
O O9 0.242566 0.750000 0.186805
#
# Coordination Sequence:
#
# PCOD9462331 Si02
#       6
#     4   4   4   4   4   4
#     4  10  19  31  48  69  95 124 153 186 228 278
#     4  10  19  30  44  66  98 126 151 185 227 276
#     4   8  16  27  42  63  89 118 151 177 216 268
#     4  10  19  31  48  69  95 124 153 186 228 278
#     4  10  19  30  44  66  98 126 151 185 227 276
#     4   8  16  27  42  63  89 118 151 177 216 268
#
# _framework density 25.483916000000001
#
# number of rings (size 3 to 8) (size 9 to 14) (size 15 to 20)
#    0.000    2.667    0.000    2.000    0.000   12.000 
#    0.000    0.000    0.000    0.000    0.000    0.000 
#    0.000  240.000    0.000    0.000    0.000    0.000 
#
# Total GULP energy -134308.952611 kJ/mol
# GULP energy per Si atom -5596.206359 kJ/mol
# Density = 2.542591 g / cm^3
# Si number density = 25.483916 Si / 1000 Ang^3
#
#
#
# Elastic Constant Matrix: (Units=GPa)
#
#
# Indices 1 2 3 4 5 6 
#
# 1 85.2830 39.9847 22.6802 0.0000 0.0000 0.0000
# 2 39.9847 281.2715 55.6777 0.0000 0.0000 0.0000
# 3 22.6802 55.6777 78.9576 0.0000 0.0000 0.0000
# 4 0.0000 0.0000 0.0000 30.3310 0.0000 0.0000
# 5 0.0000 0.0000 0.0000 0.0000 29.2354 0.0000
# 6 0.0000 0.0000 0.0000 0.0000 0.0000 9.9305
#
#
#
# Elastic Compliance Matrix: (Units=1/GPa)
#
#
# Indices 1 2 3 4 5 6 
#
# 1 0.013091 -0.001298 -0.002845 0.000000 0.000000 0.000000
# 2 -0.001298 0.004261 -0.002632 0.000000 0.000000 0.000000
# 3 -0.002845 -0.002632 0.015338 0.000000 0.000000 0.000000
# 4 0.000000 0.000000 0.000000 0.032970 0.000000 0.000000
# 5 0.000000 0.000000 0.000000 0.000000 0.034205 0.000000
# 6 0.000000 0.000000 0.000000 0.000000 0.000000 0.100700
#
#
# Mechanical properties :
#
#
# Convention : Reuss Voigt Hill
#
# Bulk Modulus (GPa) = 52.24571 75.79969 64.02270
# Shear Modulus (GPa) = 22.67641 35.71067 29.19354
#
# Velocity S-wave (km/s) = 2.98624 3.74746 3.38829
# Velocity P-wave (km/s) = 5.69527 6.96658 6.36276
#
# Compressibility (1/GPa) = 0.01914033
#
# Stress axis : x y z
#
# Youngs Moduli (GPa) = 76.38984 234.70238 65.19738
#
# Poissons Ratio (x) = 0.30458 0.18549
# Poissons Ratio (y) = 0.09913 0.17158
# Poissons Ratio (z) = 0.21734 0.61767
#
# Static dielectric constant tensor:
#      x y z
#    x 2.089620 0.000000 0.000000 
#    y 0.000000 2.023140 0.000000 
#    z 0.000000 0.000000 1.928560 
# 
# From -- ./inp_files/12642.got.cif
#   From: 2010.05.17/outbox.cif.g08.bks.cpg/sg62_7_cif.got.tgz:12642.got - 2010.06.03 15:25:27.
