data_PCOD9462282
_publ_section_title
;
Structure prediction by ZEFSAII (Michael W. Deem and Ramdas Pophale) SiO2 
 PCOD9462282
Probable space group: P N M A
;
_chemical_formula_sum "Si O2"
_cell_formula_units_Z 64
_cell_length_a 23.067143
_cell_length_b 8.682347
_cell_length_c 17.851892
_cell_angle_alpha 90.000000
_cell_angle_beta 90.000000
_cell_angle_gamma 90.000000
_cell_volume 3575.322300
_symmetry_space_group_name_H-M "P N M A"
_symmetry_group_IT_number 62
_symmetry_cell_setting 'orthorhombic'
loop_
_space_group_symop_operation_xyz
x,y,z
1/2-x,-y,1/2+z
1/2+x,1/2-y,1/2-z
-x,1/2+y,-z
-x,-y,-z
1/2+x,y,1/2-z
1/2-x,1/2+y,1/2+z
x,1/2-y,z
loop_
_atom_site_type_symbol
_atom_site_label
_atom_site_fract_x
_atom_site_fract_y
_atom_site_fract_z
Si Si1 0.512960 0.435749 0.731645
Si Si2 0.947194 0.424308 0.458227
Si Si3 0.970454 0.565253 0.926111
Si Si4 0.663741 0.923382 0.064920
Si Si5 0.845211 0.565814 0.872917
Si Si6 0.395026 0.933761 0.790869
Si Si7 0.882886 0.569543 0.325482
Si Si8 0.276321 0.934040 0.076747
O O1 0.512378 0.250000 0.733587
O O2 0.498709 0.495746 0.648865
O O3 0.459676 0.494065 0.784219
O O4 0.577230 0.490718 0.757471
O O5 0.959174 0.250000 0.430401
O O6 0.895019 0.414061 0.516815
O O7 0.926479 0.538864 0.393922
O O8 0.000000 0.500000 0.500000
O O9 0.975460 0.750000 0.923183
O O10 0.901994 0.527080 0.921747
O O11 0.000000 0.500000 0.000000
O O12 0.683681 0.750000 0.082639
O O13 0.644276 0.009195 0.140346
O O14 0.707240 0.002031 0.005586
O O15 0.835970 0.750000 0.876975
O O16 0.862951 0.528086 0.787392
O O17 0.787679 0.482132 0.899570
O O18 0.401942 0.750000 0.795136
O O19 0.873258 0.750000 0.311421
O O20 0.822428 0.506033 0.359647
O O21 0.282406 0.750000 0.074078
#
# Coordination Sequence:
#
# PCOD9462282 Si02
#       8
#     8   8   8   8   8   8   8   8
#     4  10  19  33  54  79 109 142 175 216 269 324
#     4  10  19  28  42  66  97 134 171 207 249 296
#     4  10  21  38  60  85 110 136 172 221 275 327
#     4  10  20  33  49  72 103 138 176 218 263 311
#     4   9  20  38  57  78 106 138 172 217 270 319
#     4  10  20  34  53  78 106 136 176 224 270 319
#     4   9  19  33  48  71 103 136 170 209 252 302
#     4  10  20  35  55  77 104 142 184 220 260 316
#
# _framework density 17.900485
#
# number of rings (size 3 to 8) (size 9 to 14) (size 15 to 20)
#    0.000    2.250    0.000    3.750    0.000    9.000 
#    0.000    1.250    0.000    4.500    0.000    0.000 
#    0.000    0.000    0.000    0.000    0.000    0.000 
#
# Total GULP energy -356652.282633 kJ/mol
# GULP energy per Si atom -5572.691916 kJ/mol
# Density = 1.785974 g / cm^3
# Si number density = 17.900485 Si / 1000 Ang^3
#
#
#
# Elastic Constant Matrix: (Units=GPa)
#
#
# Indices 1 2 3 4 5 6 
#
# 1 108.7180 34.4113 64.0256 0.0000 0.0000 0.0000
# 2 34.4113 46.6402 30.3135 0.0000 0.0000 0.0000
# 3 64.0256 30.3135 88.6520 0.0000 0.0000 0.0000
# 4 0.0000 0.0000 0.0000 29.5581 0.0000 0.0000
# 5 0.0000 0.0000 0.0000 0.0000 24.4840 0.0000
# 6 0.0000 0.0000 0.0000 0.0000 0.0000 22.0734
#
#
#
# Elastic Compliance Matrix: (Units=1/GPa)
#
#
# Indices 1 2 3 4 5 6 
#
# 1 0.017195 -0.005934 -0.010389 0.000000 0.000000 0.000000
# 2 -0.005934 0.029615 -0.005841 0.000000 0.000000 0.000000
# 3 -0.010389 -0.005841 0.020780 0.000000 0.000000 0.000000
# 4 0.000000 0.000000 0.000000 0.033832 0.000000 0.000000
# 5 0.000000 0.000000 0.000000 0.000000 0.040843 0.000000
# 6 0.000000 0.000000 0.000000 0.000000 0.000000 0.045303
#
#
# Mechanical properties :
#
#
# Convention : Reuss Voigt Hill
#
# Bulk Modulus (GPa) = 42.98831 55.72344 49.35587
# Shear Modulus (GPa) = 20.86372 22.90709 21.88540
#
# Velocity S-wave (km/s) = 3.41770 3.58116 3.50038
# Velocity P-wave (km/s) = 6.29615 6.94959 6.63092
#
# Compressibility (1/GPa) = 0.02326214
#
# Stress axis : x y z
#
# Youngs Moduli (GPa) = 58.15771 33.76654 48.12204
#
# Poissons Ratio (x) = 0.20037 0.49995
# Poissons Ratio (y) = 0.34510 0.28108
# Poissons Ratio (z) = 0.60421 0.19723
#
# Static dielectric constant tensor:
#      x y z
#    x 1.606420 0.000000 0.000000 
#    y 0.000000 1.624100 0.000000 
#    z 0.000000 0.000000 1.601710 
# 
# From -- ./inp_files/24764.got.cif
#   From: 2010.05.17/outbox.cif.g08.bks.cpg/sg62_13_cif.got.tgz:24764.got - 2010.06.03 15:25:27.
