data_PCOD9462010
_publ_section_title
;
Structure prediction by ZEFSAII (Michael W. Deem and Ramdas Pophale) SiO2 
 PCOD9462010
Probable space group: P N M A
;
_chemical_formula_sum "Si O2"
_cell_formula_units_Z 64
_cell_length_a 20.372302
_cell_length_b 7.932244
_cell_length_c 21.448458
_cell_angle_alpha 90.000000
_cell_angle_beta 90.000000
_cell_angle_gamma 90.000000
_cell_volume 3466.029424
_symmetry_space_group_name_H-M "P N M A"
_symmetry_group_IT_number 62
_symmetry_cell_setting 'orthorhombic'
loop_
_space_group_symop_operation_xyz
x,y,z
1/2-x,-y,1/2+z
1/2+x,1/2-y,1/2-z
-x,1/2+y,-z
-x,-y,-z
1/2+x,y,1/2-z
1/2-x,1/2+y,1/2+z
x,1/2-y,z
loop_
_atom_site_type_symbol
_atom_site_label
_atom_site_fract_x
_atom_site_fract_y
_atom_site_fract_z
Si Si1 0.214387 0.049009 0.692688
Si Si2 0.212314 0.547088 0.934481
Si Si3 0.567083 0.952648 0.379663
Si Si4 0.206568 0.546446 0.314065
Si Si5 0.793158 0.456718 0.927993
Si Si6 0.076328 0.547339 0.877875
Si Si7 0.424638 0.049557 0.234690
Si Si8 0.568359 0.546923 0.235683
O O1 0.224756 0.250000 0.692973
O O2 0.248751 0.983755 0.756113
O O3 0.249647 0.984173 0.630356
O O4 0.137127 0.016161 0.696408
O O5 0.208784 0.750000 0.937150
O O6 0.262174 0.503188 0.879533
O O7 0.139598 0.484860 0.915073
O O8 0.229723 0.487129 0.003797
O O9 0.568875 0.750000 0.378258
O O10 0.631218 0.008593 0.416890
O O11 0.572975 0.013115 0.307719
O O12 0.495415 0.003201 0.403639
O O13 0.206542 0.750000 0.311689
O O14 0.132057 0.488114 0.301970
O O15 0.791832 0.250000 0.927122
O O16 0.080063 0.750000 0.875755
O O17 0.079928 0.483250 0.806235
O O18 0.419236 0.250000 0.237338
O O19 0.497068 0.004317 0.210987
O O20 0.570447 0.750000 0.237439
#
# Coordination Sequence:
#
# PCOD9462010 Si02
#       8
#     8   8   8   8   8   8   8   8
#     4  10  18  32  54  76  97 128 170 211 247 288
#     4  10  20  34  50  70 103 139 167 200 249 304
#     4   9  16  29  49  71  95 129 171 205 236 281
#     4  10  19  32  53  77 100 127 168 214 249 288
#     4   9  18  33  52  73  98 133 172 207 246 295
#     4   9  18  30  43  67 103 137 164 194 239 294
#     4  10  19  31  48  75 106 132 161 201 250 301
#     4   9  17  31  51  75 100 128 164 209 251 288
#
# _framework density 18.464934
#
# number of rings (size 3 to 8) (size 9 to 14) (size 15 to 20)
#    0.000    2.500    2.500    0.375    0.000    2.000 
#    0.000    1.875    0.000    0.750    0.000    0.000 
#    0.000    0.000    0.000    0.000    0.000    0.000 
#
# Total GULP energy -356942.083160 kJ/mol
# GULP energy per Si atom -5577.220049 kJ/mol
# Density = 1.842291 g / cm^3
# Si number density = 18.464934 Si / 1000 Ang^3
#
#
#
# Elastic Constant Matrix: (Units=GPa)
#
#
# Indices 1 2 3 4 5 6 
#
# 1 120.8585 1.9592 64.6095 0.0000 0.0000 0.0000
# 2 1.9592 11.3103 9.2649 0.0000 0.0000 0.0000
# 3 64.6095 9.2649 99.3215 0.0000 0.0000 0.0000
# 4 0.0000 0.0000 0.0000 13.3987 0.0000 0.0000
# 5 0.0000 0.0000 0.0000 0.0000 21.7348 0.0000
# 6 0.0000 0.0000 0.0000 0.0000 0.0000 -9.6204
#
#
#
# Elastic Compliance Matrix: (Units=1/GPa)
#
#
# Indices 1 2 3 4 5 6 
#
# 1 0.012946 0.005041 -0.008892 0.000000 0.000000 0.000000
# 2 0.005041 0.097693 -0.012392 0.000000 0.000000 0.000000
# 3 -0.008892 -0.012392 0.017008 0.000000 0.000000 0.000000
# 4 0.000000 0.000000 0.000000 0.074634 0.000000 0.000000
# 5 0.000000 0.000000 0.000000 0.000000 0.046009 0.000000
# 6 0.000000 0.000000 0.000000 0.000000 0.000000 -0.103946
#
#
# Mechanical properties :
#
#
# Convention : Reuss Voigt Hill
#
# Bulk Modulus (GPa) = 10.50842 42.57304 26.54073
# Shear Modulus (GPa) = 23.97498 15.47974 19.72736
#
# Velocity S-wave (km/s) = 3.60725 2.89854 3.27214
# Velocity P-wave (km/s) = 4.80136 5.85732 5.35543
#
# Compressibility (1/GPa) = 0.09516178
#
# Stress axis : x y z
#
# Youngs Moduli (GPa) = 77.24550 10.23613 58.79474
#
# Poissons Ratio (x) = -0.05160 0.52278
# Poissons Ratio (y) = -0.38940 0.72860
# Poissons Ratio (z) = 0.68683 0.12685
#
# Static dielectric constant tensor:
#      x y z
#    x 1.637410 0.000000 0.000000 
#    y 0.000000 1.670310 0.000000 
#    z 0.000000 0.000000 1.636500 
# 
# From -- ./inp_files/24802.got.cif
#   From: 2010.05.17/outbox.cif.g08.bks.cpg/sg62_13_cif.got.tgz:24802.got - 2010.06.03 15:25:27.
