data_PCOD9462830
_publ_section_title
;
Structure prediction by ZEFSAII (Michael W. Deem and Ramdas Pophale) SiO2 
 PCOD9462830
Probable space group: P N M A
;
_chemical_formula_sum "Si O2"
_cell_formula_units_Z 64
_cell_length_a 19.576854
_cell_length_b 8.855784
_cell_length_c 23.777222
_cell_angle_alpha 90.000000
_cell_angle_beta 90.000000
_cell_angle_gamma 90.000000
_cell_volume 4122.218707
_symmetry_space_group_name_H-M "P N M A"
_symmetry_group_IT_number 62
_symmetry_cell_setting 'orthorhombic'
loop_
_space_group_symop_operation_xyz
x,y,z
1/2-x,-y,1/2+z
1/2+x,1/2-y,1/2-z
-x,1/2+y,-z
-x,-y,-z
1/2+x,y,1/2-z
1/2-x,1/2+y,1/2+z
x,1/2-y,z
loop_
_atom_site_type_symbol
_atom_site_label
_atom_site_fract_x
_atom_site_fract_y
_atom_site_fract_z
Si Si1 0.263489 0.930992 0.340576
Si Si2 0.725247 0.068756 0.334456
Si Si3 0.352923 0.430502 0.436588
Si Si4 0.003067 0.931300 0.877586
Si Si5 0.499614 0.931211 0.253262
Si Si6 0.640016 0.430911 0.222646
Si Si7 0.362969 0.567836 0.559396
Si Si8 0.347396 0.931196 0.228351
O O1 0.259687 0.750000 0.343018
O O2 0.314397 0.973358 0.288863
O O3 0.295365 0.996500 0.397200
O O4 0.190528 0.999725 0.323658
O O5 0.730205 0.250000 0.334533
O O6 0.673883 0.028020 0.283264
O O7 0.692067 0.021460 0.393287
O O8 0.798293 0.000537 0.318653
O O9 0.346239 0.250000 0.436127
O O10 0.426646 0.468820 0.409205
O O11 0.350898 0.492160 0.499664
O O12 0.000839 0.750000 0.867728
O O13 0.937687 0.970315 0.915680
O O14 0.999339 0.013156 0.817804
O O15 0.504147 0.750000 0.251947
O O16 0.426302 0.977747 0.227774
O O17 0.564234 0.003110 0.222216
O O18 0.638912 0.250000 0.218576
O O19 0.360158 0.750000 0.553518
O O20 0.344449 0.750000 0.224457
#
# Coordination Sequence:
#
# PCOD9462830 Si02
#       8
#     8   8   8   8   8   8   8   8
#     4  10  19  34  51  71  98 132 167 207 252 295
#     4   9  18  32  50  70  94 128 166 203 249 294
#     4  11  22  33  49  73  98 134 176 211 249 293
#     4  10  20  34  48  67 100 137 174 209 244 288
#     4  11  20  31  49  75 102 133 167 201 249 302
#     4  10  19  33  51  73 100 129 164 208 251 297
#     4  10  20  35  50  68  98 135 172 210 249 292
#     4   9  19  32  48  71  99 127 162 204 248 294
#
# _framework density 15.525619000000001
#
# number of rings (size 3 to 8) (size 9 to 14) (size 15 to 20)
#    0.000    2.000    2.500    1.875    0.000    3.500 
#    0.000    0.000    0.000    0.000    0.000    0.875 
#    0.000    0.000    0.000    0.000    0.000    0.000 
#
# Total GULP energy -357189.478741 kJ/mol
# GULP energy per Si atom -5581.085605 kJ/mol
# Density = 1.549028 g / cm^3
# Si number density = 15.525619 Si / 1000 Ang^3
#
#
#
# Elastic Constant Matrix: (Units=GPa)
#
#
# Indices 1 2 3 4 5 6 
#
# 1 135.1252 40.0861 58.8564 0.0000 0.0000 0.0000
# 2 40.0861 31.5220 30.6450 0.0000 0.0000 0.0000
# 3 58.8564 30.6450 80.7580 0.0000 0.0000 0.0000
# 4 0.0000 0.0000 0.0000 26.8759 0.0000 0.0000
# 5 0.0000 0.0000 0.0000 0.0000 20.1934 0.0000
# 6 0.0000 0.0000 0.0000 0.0000 0.0000 26.2069
#
#
#
# Elastic Compliance Matrix: (Units=1/GPa)
#
#
# Indices 1 2 3 4 5 6 
#
# 1 0.013091 -0.011682 -0.005108 0.000000 0.000000 0.000000
# 2 -0.011682 0.060693 -0.014517 0.000000 0.000000 0.000000
# 3 -0.005108 -0.014517 0.021614 0.000000 0.000000 0.000000
# 4 0.000000 0.000000 0.000000 0.037208 0.000000 0.000000
# 5 0.000000 0.000000 0.000000 0.000000 0.049521 0.000000
# 6 0.000000 0.000000 0.000000 0.000000 0.000000 0.038158
#
#
# Mechanical properties :
#
#
# Convention : Reuss Voigt Hill
#
# Bulk Modulus (GPa) = 30.50262 56.28672 43.39467
# Shear Modulus (GPa) = 17.01687 22.50974 19.76331
#
# Velocity S-wave (km/s) = 3.31426 3.81181 3.57171
# Velocity P-wave (km/s) = 5.85961 7.46365 6.70973
#
# Compressibility (1/GPa) = 0.03278407
#
# Stress axis : x y z
#
# Youngs Moduli (GPa) = 76.38931 16.47646 46.26639
#
# Poissons Ratio (x) = 0.19247 0.23632
# Poissons Ratio (y) = 0.89237 0.67166
# Poissons Ratio (z) = 0.39018 0.23919
#
# Static dielectric constant tensor:
#      x y z
#    x 1.516550 0.000000 0.000000 
#    y 0.000000 1.517630 0.000000 
#    z 0.000000 0.000000 1.486930 
# 
# From -- ./inp_files/27644.got.cif
#   From: 2010.05.17/outbox.cif.g08.bks.cpg/sg62_14_cif.got.tgz:27644.got - 2010.06.03 15:25:27.
