data_PCOD9462694
_publ_section_title
;
Structure prediction by ZEFSAII (Michael W. Deem and Ramdas Pophale) SiO2 
 PCOD9462694
Probable space group: P N M A
;
_chemical_formula_sum "Si O2"
_cell_formula_units_Z 64
_cell_length_a 20.258142
_cell_length_b 7.500134
_cell_length_c 19.143781
_cell_angle_alpha 90.000000
_cell_angle_beta 90.000000
_cell_angle_gamma 90.000000
_cell_volume 2908.682722
_symmetry_space_group_name_H-M "P N M A"
_symmetry_group_IT_number 62
_symmetry_cell_setting 'orthorhombic'
loop_
_space_group_symop_operation_xyz
x,y,z
1/2-x,-y,1/2+z
1/2+x,1/2-y,1/2-z
-x,1/2+y,-z
-x,-y,-z
1/2+x,y,1/2-z
1/2-x,1/2+y,1/2+z
x,1/2-y,z
loop_
_atom_site_type_symbol
_atom_site_label
_atom_site_fract_x
_atom_site_fract_y
_atom_site_fract_z
Si Si1 0.360289 0.965967 0.276646
Si Si2 0.946353 0.035999 0.440999
Si Si3 0.104034 0.035020 0.189188
Si Si4 0.429628 0.963190 0.534683
Si Si5 0.753803 0.960809 0.336956
Si Si6 0.495880 0.457887 0.207365
Si Si7 0.304392 0.046056 0.015295
Si Si8 0.815061 0.968937 0.070059
O O1 0.361212 0.750000 0.276174
O O2 0.310309 0.025559 0.215839
O O3 0.334663 0.023685 0.352224
O O4 0.433563 0.029529 0.259141
O O5 0.938044 0.250000 0.432361
O O6 0.971909 0.964369 0.366554
O O7 0.875079 0.964345 0.465330
O O8 0.000000 0.000000 0.500000
O O9 0.097588 0.250000 0.189088
O O10 0.077807 0.969021 0.113826
O O11 0.059240 0.965780 0.252662
O O12 0.181193 0.992231 0.193240
O O13 0.422304 0.750000 0.538332
O O14 0.370974 0.028599 0.484619
O O15 0.500000 0.000000 0.500000
O O16 0.762814 0.750000 0.346755
O O17 0.762760 0.046420 0.412801
O O18 0.510556 0.250000 0.193725
O O19 0.317521 0.250000 0.993695
O O20 0.256343 0.967988 0.956659
O O21 0.814171 0.750000 0.068974
#
# Coordination Sequence:
#
# PCOD9462694 Si02
#       8
#     8   8   8   8   8   8   8   8
#     4  10  21  36  56  84 115 147 185 237 294 344
#     4  10  22  38  61  88 114 153 196 240 291 343
#     4  10  21  37  57  81 113 153 191 230 279 341
#     4  10  19  32  52  77 107 146 183 223 273 328
#     4  11  22  35  56  86 115 148 190 239 288 339
#     4  10  21  38  59  85 116 152 197 239 283 345
#     4  10  19  38  63  81 108 154 197 236 287 348
#     4   9  18  34  56  80 107 143 190 231 278 343
#
# _framework density 22.003088000000002
#
# number of rings (size 3 to 8) (size 9 to 14) (size 15 to 20)
#    0.000    2.000    2.500    1.125    0.000    3.500 
#    0.000    1.875    0.000    0.000    0.000    0.000 
#    0.000    0.000    0.000    0.000    0.000    0.000 
#
# Total GULP energy -357643.046786 kJ/mol
# GULP energy per Si atom -5588.172606 kJ/mol
# Density = 2.195301 g / cm^3
# Si number density = 22.003088 Si / 1000 Ang^3
#
#
#
# Elastic Constant Matrix: (Units=GPa)
#
#
# Indices 1 2 3 4 5 6 
#
# 1 112.8442 -17.5559 14.3737 0.0000 0.0000 0.0000
# 2 -17.5559 59.5834 -6.7661 0.0000 0.0000 0.0000
# 3 14.3737 -6.7661 75.9729 0.0000 0.0000 0.0000
# 4 0.0000 0.0000 0.0000 3.2931 0.0000 0.0000
# 5 0.0000 0.0000 0.0000 0.0000 43.7909 0.0000
# 6 0.0000 0.0000 0.0000 0.0000 0.0000 16.4059
#
#
#
# Elastic Compliance Matrix: (Units=1/GPa)
#
#
# Indices 1 2 3 4 5 6 
#
# 1 0.009467 0.002612 -0.001558 0.000000 0.000000 0.000000
# 2 0.002612 0.017676 0.001080 0.000000 0.000000 0.000000
# 3 -0.001558 0.001080 0.013554 0.000000 0.000000 0.000000
# 4 0.000000 0.000000 0.000000 0.303662 0.000000 0.000000
# 5 0.000000 0.000000 0.000000 0.000000 0.022836 0.000000
# 6 0.000000 0.000000 0.000000 0.000000 0.000000 0.060954
#
#
# Mechanical properties :
#
#
# Convention : Reuss Voigt Hill
#
# Bulk Modulus (GPa) = 22.24023 25.38933 23.81478
# Shear Modulus (GPa) = 11.39295 29.92123 20.65709
#
# Velocity S-wave (km/s) = 2.27797 3.69164 3.06735
# Velocity P-wave (km/s) = 4.12899 5.45297 4.83650
#
# Compressibility (1/GPa) = 0.04496357
#
# Stress axis : x y z
#
# Youngs Moduli (GPa) = 105.63342 56.57535 73.78111
#
# Poissons Ratio (x) = -0.14779 0.11498
# Poissons Ratio (y) = -0.27595 -0.07968
# Poissons Ratio (z) = 0.16462 -0.06110
#
# Static dielectric constant tensor:
#      x y z
#    x 1.776120 0.000000 0.000000 
#    y 0.000000 1.809720 0.000000 
#    z 0.000000 0.000000 1.782180 
# 
# From -- ./inp_files/24752.got.cif
#   From: 2010.05.17/outbox.cif.g08.bks.cpg/sg62_13_cif.got.tgz:24752.got - 2010.06.03 15:25:27.
