data_PCOD9462129
_publ_section_title
;
Structure prediction by ZEFSAII (Michael W. Deem and Ramdas Pophale) SiO2 
 PCOD9462129
Probable space group: P N M A
;
_chemical_formula_sum "Si O2"
_cell_formula_units_Z 64
_cell_length_a 9.050698
_cell_length_b 17.320185
_cell_length_c 21.303571
_cell_angle_alpha 90.000000
_cell_angle_beta 90.000000
_cell_angle_gamma 90.000000
_cell_volume 3339.542757
_symmetry_space_group_name_H-M "P N M A"
_symmetry_group_IT_number 62
_symmetry_cell_setting 'orthorhombic'
loop_
_space_group_symop_operation_xyz
x,y,z
1/2-x,-y,1/2+z
1/2+x,1/2-y,1/2-z
-x,1/2+y,-z
-x,-y,-z
1/2+x,y,1/2-z
1/2-x,1/2+y,1/2+z
x,1/2-y,z
loop_
_atom_site_type_symbol
_atom_site_label
_atom_site_fract_x
_atom_site_fract_y
_atom_site_fract_z
Si Si1 0.624872 0.040848 0.542111
Si Si2 0.019567 0.065952 0.254744
Si Si3 0.398670 0.504785 0.890609
Si Si4 0.107106 0.839464 0.339188
Si Si5 0.705985 0.922957 0.925274
Si Si6 0.294164 0.661550 0.224112
Si Si7 0.757984 0.337185 0.304960
Si Si8 0.409741 0.048861 0.646727
O O1 0.742751 0.982748 0.574641
O O2 0.723461 0.089368 0.493378
O O3 0.532367 0.079494 0.598282
O O4 0.500000 0.000000 0.500000
O O5 0.100373 0.138062 0.221934
O O6 0.861915 0.097121 0.275468
O O7 0.096237 0.036238 0.318967
O O8 0.016027 0.998796 0.203442
O O9 0.412736 0.411280 0.886013
O O10 0.538205 0.544932 0.924734
O O11 0.111767 0.750000 0.362510
O O12 0.249379 0.855405 0.295603
O O13 0.965687 0.845048 0.292720
O O14 0.723710 0.850221 0.879335
O O15 0.804983 0.988851 0.891012
O O16 0.250182 0.750000 0.214010
O O17 0.199125 0.609749 0.177670
O O18 0.795680 0.250000 0.287934
#
# Coordination Sequence:
#
# PCOD9462129 Si02
#       8
#     8   8   8   8   8   8   8   8
#     4  10  22  36  55  81 108 145 190 237 276 323
#     4  10  20  31  56  88 108 138 180 221 294 345
#     4  11  19  34  59  80 114 144 185 239 270 337
#     4  10  21  33  51  82 118 152 177 213 276 337
#     4   9  20  36  53  76 100 148 192 230 281 322
#     4  10  20  33  50  78 119 150 173 212 274 339
#     4  10  20  35  53  77 111 142 176 235 286 340
#     4  10  18  34  55  80 115 138 182 234 275 338
#
# _framework density 19.164300000000001
#
# number of rings (size 3 to 8) (size 9 to 14) (size 15 to 20)
#    0.000    2.000    2.500    1.500    1.750    0.000 
#    0.000    1.250    0.000    0.000    0.000    8.750 
#    0.000    0.000    0.000    0.000    0.000    0.000 
#
# Total GULP energy -356844.998340 kJ/mol
# GULP energy per Si atom -5575.703099 kJ/mol
# Density = 1.912068 g / cm^3
# Si number density = 19.164300 Si / 1000 Ang^3
#
#
#
# Elastic Constant Matrix: (Units=GPa)
#
#
# Indices 1 2 3 4 5 6 
#
# 1 66.6406 8.6790 31.2467 0.0000 0.0000 0.0000
# 2 8.6790 56.6922 6.1065 0.0000 0.0000 0.0000
# 3 31.2467 6.1065 63.5712 0.0000 0.0000 0.0000
# 4 0.0000 0.0000 0.0000 13.1873 0.0000 0.0000
# 5 0.0000 0.0000 0.0000 0.0000 42.2354 0.0000
# 6 0.0000 0.0000 0.0000 0.0000 0.0000 14.7868
#
#
#
# Elastic Compliance Matrix: (Units=1/GPa)
#
#
# Indices 1 2 3 4 5 6 
#
# 1 0.019721 -0.001996 -0.009502 0.000000 0.000000 0.000000
# 2 -0.001996 0.018025 -0.000751 0.000000 0.000000 0.000000
# 3 -0.009502 -0.000751 0.020473 0.000000 0.000000 0.000000
# 4 0.000000 0.000000 0.000000 0.075831 0.000000 0.000000
# 5 0.000000 0.000000 0.000000 0.000000 0.023677 0.000000
# 6 0.000000 0.000000 0.000000 0.000000 0.000000 0.067628
#
#
# Mechanical properties :
#
#
# Convention : Reuss Voigt Hill
#
# Bulk Modulus (GPa) = 29.65290 30.99650 30.32470
# Shear Modulus (GPa) = 19.15040 23.43336 21.29188
#
# Velocity S-wave (km/s) = 3.16456 3.50059 3.33681
# Velocity P-wave (km/s) = 5.37207 5.70509 5.54108
#
# Compressibility (1/GPa) = 0.03372351
#
# Stress axis : x y z
#
# Youngs Moduli (GPa) = 50.70761 55.47709 48.84539
#
# Poissons Ratio (x) = 0.11071 0.46411
# Poissons Ratio (y) = 0.10119 0.03666
# Poissons Ratio (z) = 0.48180 0.04164
#
# Static dielectric constant tensor:
#      x y z
#    x 1.701570 0.000000 0.000000 
#    y 0.000000 1.641790 0.000000 
#    z 0.000000 0.000000 1.717160 
# 
# From -- ./inp_files/26184.got.cif
#   From: 2010.05.17/outbox.cif.g08.bks.cpg/sg62_14_cif.got.tgz:26184.got - 2010.06.03 15:25:27.
