data_PCOD9462027
_publ_section_title
;
Structure prediction by ZEFSAII (Michael W. Deem and Ramdas Pophale) SiO2 
 PCOD9462027
Probable space group: P N M A
;
_chemical_formula_sum "Si O2"
_cell_formula_units_Z 56
_cell_length_a 19.413595
_cell_length_b 15.759354
_cell_length_c 9.481014
_cell_angle_alpha 90.000000
_cell_angle_beta 90.000000
_cell_angle_gamma 90.000000
_cell_volume 2900.675617
_symmetry_space_group_name_H-M "P N M A"
_symmetry_group_IT_number 62
_symmetry_cell_setting 'orthorhombic'
loop_
_space_group_symop_operation_xyz
x,y,z
1/2-x,-y,1/2+z
1/2+x,1/2-y,1/2-z
-x,1/2+y,-z
-x,-y,-z
1/2+x,y,1/2-z
1/2-x,1/2+y,1/2+z
x,1/2-y,z
loop_
_atom_site_type_symbol
_atom_site_label
_atom_site_fract_x
_atom_site_fract_y
_atom_site_fract_z
Si Si1 0.290464 0.848554 0.919667
Si Si2 0.343596 0.444086 0.422928
Si Si3 0.643508 0.468209 0.843766
Si Si4 0.877941 0.559364 0.811376
Si Si5 0.485510 0.150705 0.430363
Si Si6 0.523031 0.343852 0.756450
Si Si7 0.563676 0.554868 0.060056
O O1 0.306526 0.750000 0.936852
O O2 0.209384 0.866913 0.932658
O O3 0.323937 0.881772 0.773035
O O4 0.322026 0.905123 0.045554
O O5 0.316187 0.499781 0.291686
O O6 0.347541 0.504431 0.559684
O O7 0.419785 0.407064 0.392229
O O8 0.579525 0.415873 0.779473
O O9 0.618498 0.549305 0.934923
O O10 0.906111 0.494343 0.694154
O O11 0.943872 0.612826 0.866728
O O12 0.477432 0.250000 0.390547
O O13 0.491822 0.147025 0.600687
O O14 0.553478 0.250000 0.767719
O O15 0.466541 0.358727 0.878435
O O16 0.500000 0.500000 0.000000
#
# Coordination Sequence:
#
# PCOD9462027 Si02
#       7
#     8   8   8   8   8   8   8
#     4  11  25  43  60  86 122 162 204 258 313 365
#     4  12  22  40  63  91 121 161 207 254 310 366
#     4  10  21  38  60  82 116 159 203 242 294 368
#     4  11  21  39  64  87 119 162 212 246 293 373
#     4  11  21  34  60  95 125 156 199 258 307 351
#     4  10  18  32  55  88 121 150 189 245 300 352
#     4   9  18  33  54  85 116 152 191 240 294 354
#
# _framework density 19.305848000000001
#
# number of rings (size 3 to 8) (size 9 to 14) (size 15 to 20)
#    0.000    1.429    2.857    4.286    0.000    0.000 
#    0.000    6.429    0.000    0.000    0.000    0.000 
#    0.000    0.000    0.000    0.000    0.000    0.000 
#
# Total GULP energy -312388.690163 kJ/mol
# GULP energy per Si atom -5578.369467 kJ/mol
# Density = 1.926191 g / cm^3
# Si number density = 19.305848 Si / 1000 Ang^3
#
#
#
# Elastic Constant Matrix: (Units=GPa)
#
#
# Indices 1 2 3 4 5 6 
#
# 1 59.0096 10.4097 14.7541 0.0000 0.0000 0.0000
# 2 10.4097 51.1303 17.0371 0.0000 0.0000 0.0000
# 3 14.7541 17.0371 106.0804 0.0000 0.0000 0.0000
# 4 0.0000 0.0000 0.0000 19.4141 0.0000 0.0000
# 5 0.0000 0.0000 0.0000 0.0000 12.2288 0.0000
# 6 0.0000 0.0000 0.0000 0.0000 0.0000 21.2018
#
#
#
# Elastic Compliance Matrix: (Units=1/GPa)
#
#
# Indices 1 2 3 4 5 6 
#
# 1 0.017979 -0.002987 -0.002021 0.000000 0.000000 0.000000
# 2 -0.002987 0.021160 -0.002983 0.000000 0.000000 0.000000
# 3 -0.002021 -0.002983 0.010187 0.000000 0.000000 0.000000
# 4 0.000000 0.000000 0.000000 0.051509 0.000000 0.000000
# 5 0.000000 0.000000 0.000000 0.000000 0.081774 0.000000
# 6 0.000000 0.000000 0.000000 0.000000 0.000000 0.047166
#
#
# Mechanical properties :
#
#
# Convention : Reuss Voigt Hill
#
# Bulk Modulus (GPa) = 29.99037 33.40246 31.69642
# Shear Modulus (GPa) = 19.46507 22.17023 20.81765
#
# Velocity S-wave (km/s) = 3.17874 3.39244 3.28732
# Velocity P-wave (km/s) = 5.38893 5.71700 5.55539
#
# Compressibility (1/GPa) = 0.03334403
#
# Stress axis : x y z
#
# Youngs Moduli (GPa) = 55.62174 47.25909 98.16470
#
# Poissons Ratio (x) = 0.14116 0.19837
# Poissons Ratio (y) = 0.16614 0.29282
# Poissons Ratio (z) = 0.11240 0.14097
#
# Static dielectric constant tensor:
#      x y z
#    x 1.712480 0.000000 0.000000 
#    y 0.000000 1.675140 0.000000 
#    z 0.000000 0.000000 1.695640 
# 
# From -- ./inp_files/8707.got.cif
#   From: 2010.05.17/outbox.cif.g08.bks.cpg/sg62_5_cif.got.tgz:8707.got - 2010.06.03 15:25:27.
