data_PCOD9462813
_publ_section_title
;
Structure prediction by ZEFSAII (Michael W. Deem and Ramdas Pophale) SiO2 
 PCOD9462813
Probable space group: P N M A
;
_chemical_formula_sum "Si O2"
_cell_formula_units_Z 40
_cell_length_a 17.858536
_cell_length_b 9.431703
_cell_length_c 10.965769
_cell_angle_alpha 90.000000
_cell_angle_beta 90.000000
_cell_angle_gamma 90.000000
_cell_volume 1847.034737
_symmetry_space_group_name_H-M "P N M A"
_symmetry_group_IT_number 62
_symmetry_cell_setting 'orthorhombic'
loop_
_space_group_symop_operation_xyz
x,y,z
1/2-x,-y,1/2+z
1/2+x,1/2-y,1/2-z
-x,1/2+y,-z
-x,-y,-z
1/2+x,y,1/2-z
1/2-x,1/2+y,1/2+z
x,1/2-y,z
loop_
_atom_site_type_symbol
_atom_site_label
_atom_site_fract_x
_atom_site_fract_y
_atom_site_fract_z
Si Si1 0.596262 0.905842 0.065593
Si Si2 0.765585 0.586702 0.155582
Si Si3 0.304490 0.080117 0.590805
Si Si4 0.026531 0.591580 0.679936
Si Si5 0.977949 0.085607 0.883384
O O1 0.562919 0.750000 0.103024
O O2 0.679562 0.907709 0.111087
O O3 0.548265 0.038978 0.110469
O O4 0.590697 0.908701 0.920039
O O5 0.794692 0.750000 0.155750
O O6 0.753427 0.538317 0.298505
O O7 0.800276 0.494958 0.043025
O O8 0.294938 0.250000 0.573847
O O9 0.389548 0.057796 0.640665
O O10 0.017984 0.750000 0.730165
O O11 0.033224 0.473846 0.781147
O O12 0.987069 0.250000 0.901746
O O13 0.000000 0.000000 0.000000
#
# Coordination Sequence:
#
# PCOD9462813 Si02
#       5
#     8   8   8   8   8
#     4   9  18  35  57  83 117 153 188 239 295 345
#     4  10  21  40  63  87 122 162 202 248 302 360
#     4  10  23  42  62  87 121 160 200 248 304 358
#     4  10  19  32  57  89 116 148 194 237 290 353
#     4  11  23  41  61  83 120 157 195 247 304 361
#
# _framework density 21.656334000000001
#
# number of rings (size 3 to 8) (size 9 to 14) (size 15 to 20)
#    0.000    2.000    2.000    1.200    0.000    5.600 
#    0.000    6.000    0.000    0.000    0.000    0.000 
#    0.000    0.000    0.000    0.000    0.000    0.000 
#
# Total GULP energy -222823.576113 kJ/mol
# GULP energy per Si atom -5570.589403 kJ/mol
# Density = 2.160704 g / cm^3
# Si number density = 21.656334 Si / 1000 Ang^3
#
#
#
# Elastic Constant Matrix: (Units=GPa)
#
#
# Indices 1 2 3 4 5 6 
#
# 1 19.3580 21.5669 4.4853 0.0000 0.0000 0.0000
# 2 21.5669 82.5616 52.5930 0.0000 0.0000 0.0000
# 3 4.4853 52.5930 97.0817 0.0000 0.0000 0.0000
# 4 0.0000 0.0000 0.0000 41.4689 0.0000 0.0000
# 5 0.0000 0.0000 0.0000 0.0000 40.0452 0.0000
# 6 0.0000 0.0000 0.0000 0.0000 0.0000 21.3022
#
#
#
# Elastic Compliance Matrix: (Units=1/GPa)
#
#
# Indices 1 2 3 4 5 6 
#
# 1 0.080792 -0.028595 0.011758 0.000000 0.000000 0.000000
# 2 -0.028595 0.028615 -0.014181 0.000000 0.000000 0.000000
# 3 0.011758 -0.014181 0.017440 0.000000 0.000000 0.000000
# 4 0.000000 0.000000 0.000000 0.024114 0.000000 0.000000
# 5 0.000000 0.000000 0.000000 0.000000 0.024972 0.000000
# 6 0.000000 0.000000 0.000000 0.000000 0.000000 0.046943
#
#
# Mechanical properties :
#
#
# Convention : Reuss Voigt Hill
#
# Bulk Modulus (GPa) = 15.42931 39.58797 27.50864
# Shear Modulus (GPa) = 16.31244 28.58703 22.44973
#
# Velocity S-wave (km/s) = 2.74750 3.63716 3.22318
# Velocity P-wave (km/s) = 4.14790 5.99653 5.15575
#
# Compressibility (1/GPa) = 0.06481172
#
# Stress axis : x y z
#
# Youngs Moduli (GPa) = 12.37753 34.94658 57.34056
#
# Poissons Ratio (x) = 0.99929 -0.67422
# Poissons Ratio (y) = 0.35393 0.81314
# Poissons Ratio (z) = -0.14554 0.49557
#
# Static dielectric constant tensor:
#      x y z
#    x 2.197000 0.000000 0.000000 
#    y 0.000000 4.730870 0.000000 
#    z 0.000000 0.000000 1.487560 
# 
# From -- ./inp_files/14608.got.cif
#   From: 2010.05.17/outbox.cif.g08.bks.cpg/sg62_8_cif.got.tgz:14608.got - 2010.06.03 15:25:27.
