data_PCOD9462714
_publ_section_title
;
Structure prediction by ZEFSAII (Michael W. Deem and Ramdas Pophale) SiO2 
 PCOD9462714
Probable space group: P N M A
;
_chemical_formula_sum "Si O2"
_cell_formula_units_Z 48
_cell_length_a 14.758380
_cell_length_b 10.195215
_cell_length_c 17.491275
_cell_angle_alpha 90.000000
_cell_angle_beta 90.000000
_cell_angle_gamma 90.000000
_cell_volume 2631.822194
_symmetry_space_group_name_H-M "P N M A"
_symmetry_group_IT_number 62
_symmetry_cell_setting 'orthorhombic'
loop_
_space_group_symop_operation_xyz
x,y,z
1/2-x,-y,1/2+z
1/2+x,1/2-y,1/2-z
-x,1/2+y,-z
-x,-y,-z
1/2+x,y,1/2-z
1/2-x,1/2+y,1/2+z
x,1/2-y,z
loop_
_atom_site_type_symbol
_atom_site_label
_atom_site_fract_x
_atom_site_fract_y
_atom_site_fract_z
Si Si1 0.851838 0.027161 0.461496
Si Si2 0.083321 0.902718 0.984560
Si Si3 0.868580 0.098037 0.704425
Si Si4 0.794137 0.099649 0.863306
Si Si5 0.545434 0.107369 0.093609
Si Si6 0.209734 0.106697 0.914086
O O1 0.780542 0.103562 0.514858
O O2 0.942172 0.099966 0.434941
O O3 0.795838 0.975058 0.389408
O O4 0.890605 0.916424 0.519573
O O5 0.062245 0.750000 0.964999
O O6 0.141904 0.899778 0.062437
O O7 0.145030 0.981944 0.923791
O O8 0.000000 0.000000 0.000000
O O9 0.900373 0.250000 0.705676
O O10 0.849028 0.049342 0.789980
O O11 0.772446 0.096496 0.660237
O O12 0.933575 0.006759 0.654134
O O13 0.769907 0.250000 0.844689
O O14 0.565190 0.250000 0.126615
O O15 0.162933 0.250000 0.914547
#
# Coordination Sequence:
#
# PCOD9462714 Si02
#       6
#     8   8   8   8   8   8
#     4   9  18  31  54  78 104 136 175 213 256 307
#     4  10  20  35  56  77 101 134 178 221 256 302
#     4   9  19  35  53  75 105 138 173 213 257 308
#     4   9  18  35  55  76 101 136 180 216 252 303
#     4  10  19  32  52  81 111 136 168 213 265 313
#     4   9  17  32  54  77 102 133 170 213 260 305
#
# _framework density 18.238313999999999
#
# number of rings (size 3 to 8) (size 9 to 14) (size 15 to 20)
#    0.000    2.667    0.000    1.500    0.000    8.667 
#    3.000    5.000    0.000    0.000    0.000    0.000 
#    0.000    0.000    0.000    0.000    0.000    0.000 
#
# Total GULP energy -267282.165488 kJ/mol
# GULP energy per Si atom -5568.378448 kJ/mol
# Density = 1.819680 g / cm^3
# Si number density = 18.238314 Si / 1000 Ang^3
#
#
#
# Elastic Constant Matrix: (Units=GPa)
#
#
# Indices 1 2 3 4 5 6 
#
# 1 42.3830 29.0511 -17.8974 0.0000 0.0000 0.0000
# 2 29.0511 111.6975 4.1053 0.0000 0.0000 0.0000
# 3 -17.8974 4.1053 32.2240 0.0000 0.0000 0.0000
# 4 0.0000 0.0000 0.0000 14.7945 0.0000 0.0000
# 5 0.0000 0.0000 0.0000 0.0000 14.3999 0.0000
# 6 0.0000 0.0000 0.0000 0.0000 0.0000 2.6763
#
#
#
# Elastic Compliance Matrix: (Units=1/GPa)
#
#
# Indices 1 2 3 4 5 6 
#
# 1 0.042350 -0.011935 0.025042 0.000000 0.000000 0.000000
# 2 -0.011935 0.012358 -0.008203 0.000000 0.000000 0.000000
# 3 0.025042 -0.008203 0.045986 0.000000 0.000000 0.000000
# 4 0.000000 0.000000 0.000000 0.067593 0.000000 0.000000
# 5 0.000000 0.000000 0.000000 0.000000 0.069445 0.000000
# 6 0.000000 0.000000 0.000000 0.000000 0.000000 0.373647
#
#
# Mechanical properties :
#
#
# Convention : Reuss Voigt Hill
#
# Bulk Modulus (GPa) = 9.04964 24.09138 16.57051
# Shear Modulus (GPa) = 7.83201 17.77718 12.80460
#
# Velocity S-wave (km/s) = 2.07451 3.12543 2.65254
# Velocity P-wave (km/s) = 3.27273 5.12468 4.29960
#
# Compressibility (1/GPa) = 0.11050164
#
# Stress axis : x y z
#
# Youngs Moduli (GPa) = 23.61287 80.91664 21.74564
#
# Poissons Ratio (x) = 0.96574 -0.54455
# Poissons Ratio (y) = 0.28182 0.17838
# Poissons Ratio (z) = -0.59131 0.66378
#
# Static dielectric constant tensor:
#      x y z
#    x 1.634560 0.000000 0.000000 
#    y 0.000000 1.661320 0.000000 
#    z 0.000000 0.000000 1.623370 
# 
# From -- ./inp_files/23848.got.cif
#   From: 2010.05.17/outbox.cif.g08.bks.cpg/sg62_12_cif.got.tgz:23848.got - 2010.06.03 15:25:27.
