data_PCOD9462333
_publ_section_title
;
Structure prediction by ZEFSAII (Michael W. Deem and Ramdas Pophale) SiO2 
 PCOD9462333
Probable space group: P N M A
;
_chemical_formula_sum "Si O2"
_cell_formula_units_Z 56
_cell_length_a 30.519096
_cell_length_b 8.474000
_cell_length_c 14.056755
_cell_angle_alpha 90.000000
_cell_angle_beta 90.000000
_cell_angle_gamma 90.000000
_cell_volume 3635.341384
_symmetry_space_group_name_H-M "P N M A"
_symmetry_group_IT_number 62
_symmetry_cell_setting 'orthorhombic'
loop_
_space_group_symop_operation_xyz
x,y,z
1/2-x,-y,1/2+z
1/2+x,1/2-y,1/2-z
-x,1/2+y,-z
-x,-y,-z
1/2+x,y,1/2-z
1/2-x,1/2+y,1/2+z
x,1/2-y,z
loop_
_atom_site_type_symbol
_atom_site_label
_atom_site_fract_x
_atom_site_fract_y
_atom_site_fract_z
Si Si1 0.318362 0.557888 0.285674
Si Si2 0.770626 0.938955 0.403018
Si Si3 0.906055 0.557582 0.113690
Si Si4 0.905681 0.940128 0.891972
Si Si5 0.315281 0.560901 0.701330
Si Si6 0.998151 0.061135 0.891503
Si Si7 0.271171 0.438711 0.886696
O O1 0.319529 0.750000 0.285779
O O2 0.304505 0.508635 0.179525
O O3 0.364865 0.501215 0.325028
O O4 0.278049 0.512006 0.354467
O O5 0.771862 0.750000 0.408173
O O6 0.722824 0.990586 0.365394
O O7 0.779678 0.008815 0.506206
O O8 0.904934 0.750000 0.113836
O O9 0.954543 0.511139 0.149878
O O10 0.901468 0.509024 0.002853
O O11 0.906622 0.750000 0.892422
O O12 0.863058 0.992186 0.833894
O O13 0.952292 0.998070 0.852047
O O14 0.313331 0.750000 0.693521
O O15 0.303697 0.510505 0.808419
O O16 0.996686 0.250000 0.891820
O O17 0.000000 0.000000 0.000000
O O18 0.273203 0.250000 0.879475
#
# Coordination Sequence:
#
# PCOD9462333 Si02
#       7
#     8   8   8   8   8   8   8
#     4   8  15  27  43  62  84 112 146 176 209 256
#     4  10  19  30  45  66  90 117 148 183 220 261
#     4   8  13  24  41  61  84 112 143 172 207 256
#     4   9  17  28  43  62  87 118 147 176 218 267
#     4  10  19  31  47  66  88 117 151 185 221 263
#     4   9  16  25  40  61  86 114 144 178 216 259
#     4  10  19  31  46  64  89 120 149 182 220 260
#
# _framework density 15.40433
#
# number of rings (size 3 to 8) (size 9 to 14) (size 15 to 20)
#    0.000    2.857    0.000    4.286    0.000    3.429 
#    0.000    0.000    0.000   16.286    0.000    1.000 
#    0.000    0.000    0.000    0.000    0.000    0.000 
#
# Total GULP energy -311880.045604 kJ/mol
# GULP energy per Si atom -5569.286529 kJ/mol
# Density = 1.536927 g / cm^3
# Si number density = 15.404330 Si / 1000 Ang^3
#
#
#
# Elastic Constant Matrix: (Units=GPa)
#
#
# Indices 1 2 3 4 5 6 
#
# 1 151.8197 9.9116 50.8442 0.0000 0.0000 0.0000
# 2 9.9116 12.6341 0.2184 0.0000 0.0000 0.0000
# 3 50.8442 0.2184 70.4792 0.0000 0.0000 0.0000
# 4 0.0000 0.0000 0.0000 20.5919 0.0000 0.0000
# 5 0.0000 0.0000 0.0000 0.0000 23.6557 0.0000
# 6 0.0000 0.0000 0.0000 0.0000 0.0000 21.3515
#
#
#
# Elastic Compliance Matrix: (Units=1/GPa)
#
#
# Indices 1 2 3 4 5 6 
#
# 1 0.009293 -0.007175 -0.006682 0.000000 0.000000 0.000000
# 2 -0.007175 0.084694 0.004914 0.000000 0.000000 0.000000
# 3 -0.006682 0.004914 0.018994 0.000000 0.000000 0.000000
# 4 0.000000 0.000000 0.000000 0.048563 0.000000 0.000000
# 5 0.000000 0.000000 0.000000 0.000000 0.042273 0.000000
# 6 0.000000 0.000000 0.000000 0.000000 0.000000 0.046835
#
#
# Mechanical properties :
#
#
# Convention : Reuss Voigt Hill
#
# Bulk Modulus (GPa) = 10.51580 39.65349 25.08465
# Shear Modulus (GPa) = 16.65355 24.71708 20.68532
#
# Velocity S-wave (km/s) = 3.29157 4.01003 3.66843
# Velocity P-wave (km/s) = 4.61381 6.87300 5.85344
#
# Compressibility (1/GPa) = 0.09509496
#
# Stress axis : x y z
#
# Youngs Moduli (GPa) = 107.60937 11.80715 52.64936
#
# Poissons Ratio (x) = 0.08471 0.35179
# Poissons Ratio (y) = 0.77208 -0.25870
# Poissons Ratio (z) = 0.71901 -0.05802
#
# Static dielectric constant tensor:
#      x y z
#    x 1.538100 0.000000 0.000000 
#    y 0.000000 1.529260 0.000000 
#    z 0.000000 0.000000 1.489820 
# 
# From -- ./inp_files/21168.got.cif
#   From: 2010.05.17/outbox.cif.g08.bks.cpg/sg62_11_cif.got.tgz:21168.got - 2010.06.03 15:25:27.
