data_PCOD9462115
_publ_section_title
;
Structure prediction by ZEFSAII (Michael W. Deem and Ramdas Pophale) SiO2 
 PCOD9462115
Probable space group: P N M A
;
_chemical_formula_sum "Si O2"
_cell_formula_units_Z 64
_cell_length_a 11.519975
_cell_length_b 16.970588
_cell_length_c 17.005425
_cell_angle_alpha 90.000000
_cell_angle_beta 90.000000
_cell_angle_gamma 90.000000
_cell_volume 3324.573333
_symmetry_space_group_name_H-M "P N M A"
_symmetry_group_IT_number 62
_symmetry_cell_setting 'orthorhombic'
loop_
_space_group_symop_operation_xyz
x,y,z
1/2-x,-y,1/2+z
1/2+x,1/2-y,1/2-z
-x,1/2+y,-z
-x,-y,-z
1/2+x,y,1/2-z
1/2-x,1/2+y,1/2+z
x,1/2-y,z
loop_
_atom_site_type_symbol
_atom_site_label
_atom_site_fract_x
_atom_site_fract_y
_atom_site_fract_z
Si Si1 0.490766 0.481413 0.825364
Si Si2 0.252403 0.666105 0.962473
Si Si3 0.956565 0.838323 0.418198
Si Si4 0.971234 0.160977 0.934934
Si Si5 0.133678 0.158762 0.073474
Si Si6 0.371332 0.414366 0.047025
Si Si7 0.736668 0.493942 0.093918
Si Si8 0.002613 0.003523 0.142857
O O1 0.545743 0.396959 0.845300
O O2 0.552742 0.540829 0.887359
O O3 0.354485 0.470040 0.845637
O O4 0.503956 0.507478 0.736639
O O5 0.268079 0.750000 0.923762
O O6 0.286871 0.598613 0.904064
O O7 0.332872 0.662752 0.039111
O O8 0.122769 0.658094 0.994659
O O9 0.989941 0.750000 0.396352
O O10 0.043982 0.870985 0.485336
O O11 0.961756 0.250000 0.899351
O O12 0.948304 0.082676 0.883643
O O13 0.093395 0.156385 0.981693
O O14 0.107000 0.250000 0.099696
O O15 0.271202 0.142166 0.080295
O O16 0.069464 0.082085 0.112130
O O17 0.301169 0.476826 0.992566
O O18 0.871684 0.501398 0.110039
#
# Coordination Sequence:
#
# PCOD9462115 Si02
#       8
#     8   8   8   8   8   8   8   8
#     4  11  25  38  59  90 127 163 199 249 315 374
#     4  10  18  33  62  88 111 147 206 263 294 339
#     4  10  20  37  62  90 117 154 205 254 302 358
#     4  10  21  38  62  93 120 156 207 253 298 365
#     4  11  23  39  62  90 118 156 210 257 298 358
#     4  11  20  40  64  85 118 159 210 256 296 354
#     4  11  20  40  61  87 114 162 212 246 296 362
#     4  12  25  39  62  90 129 169 194 251 323 371
#
# _framework density 19.250589000000002
#
# number of rings (size 3 to 8) (size 9 to 14) (size 15 to 20)
#    0.000    1.250    5.000    2.250    1.750    0.500 
#    0.000    1.875    0.000    0.000    0.000    0.000 
#    0.000    0.000    0.000    0.000    0.000    0.000 
#
# Total GULP energy -356577.744910 kJ/mol
# GULP energy per Si atom -5571.527264 kJ/mol
# Density = 1.920677 g / cm^3
# Si number density = 19.250589 Si / 1000 Ang^3
#
#
#
# Elastic Constant Matrix: (Units=GPa)
#
#
# Indices 1 2 3 4 5 6 
#
# 1 55.9042 15.0202 -3.3508 0.0000 0.0000 0.0000
# 2 15.0202 133.9434 31.9948 0.0000 0.0000 0.0000
# 3 -3.3508 31.9948 56.1189 0.0000 0.0000 0.0000
# 4 0.0000 0.0000 0.0000 16.5339 0.0000 0.0000
# 5 0.0000 0.0000 0.0000 0.0000 12.1384 0.0000
# 6 0.0000 0.0000 0.0000 0.0000 0.0000 20.5626
#
#
#
# Elastic Compliance Matrix: (Units=1/GPa)
#
#
# Indices 1 2 3 4 5 6 
#
# 1 0.018788 -0.002749 0.002689 0.000000 0.000000 0.000000
# 2 -0.002749 0.009045 -0.005321 0.000000 0.000000 0.000000
# 3 0.002689 -0.005321 0.021014 0.000000 0.000000 0.000000
# 4 0.000000 0.000000 0.000000 0.060482 0.000000 0.000000
# 5 0.000000 0.000000 0.000000 0.000000 0.082383 0.000000
# 6 0.000000 0.000000 0.000000 0.000000 0.000000 0.048632
#
#
# Mechanical properties :
#
#
# Convention : Reuss Voigt Hill
#
# Bulk Modulus (GPa) = 26.25761 37.03277 31.64519
# Shear Modulus (GPa) = 18.95379 23.33382 21.14381
#
# Velocity S-wave (km/s) = 3.14121 3.48531 3.31773
# Velocity P-wave (km/s) = 5.17936 5.95613 5.58128
#
# Compressibility (1/GPa) = 0.03808420
#
# Stress axis : x y z
#
# Youngs Moduli (GPa) = 53.22667 110.55652 47.58841
#
# Poissons Ratio (x) = 0.30394 -0.12797
# Poissons Ratio (y) = 0.14633 0.25322
# Poissons Ratio (z) = -0.14313 0.58827
#
# Static dielectric constant tensor:
#      x y z
#    x 1.711940 0.000000 0.000000 
#    y 0.000000 1.739070 0.000000 
#    z 0.000000 0.000000 1.632920 
# 
# From -- ./inp_files/18259.got.cif
#   From: 2010.05.17/outbox.cif.g08.bks.cpg/sg62_10_cif.got.tgz:18259.got - 2010.06.03 15:25:27.
