data_PCOD9462642
_publ_section_title
;
Structure prediction by ZEFSAII (Michael W. Deem and Ramdas Pophale) SiO2 
 PCOD9462642
Probable space group: P N M A
;
_chemical_formula_sum "Si O2"
_cell_formula_units_Z 56
_cell_length_a 19.820951
_cell_length_b 7.567043
_cell_length_c 18.604077
_cell_angle_alpha 90.000000
_cell_angle_beta 90.000000
_cell_angle_gamma 90.000000
_cell_volume 2790.350879
_symmetry_space_group_name_H-M "P N M A"
_symmetry_group_IT_number 62
_symmetry_cell_setting 'orthorhombic'
loop_
_space_group_symop_operation_xyz
x,y,z
1/2-x,-y,1/2+z
1/2+x,1/2-y,1/2-z
-x,1/2+y,-z
-x,-y,-z
1/2+x,y,1/2-z
1/2-x,1/2+y,1/2+z
x,1/2-y,z
loop_
_atom_site_type_symbol
_atom_site_label
_atom_site_fract_x
_atom_site_fract_y
_atom_site_fract_z
Si Si1 0.109848 0.035055 0.112523
Si Si2 0.352151 0.457766 0.448491
Si Si3 0.748597 0.450530 0.335389
Si Si4 0.283849 0.957976 0.004096
Si Si5 0.392416 0.033139 0.191684
Si Si6 0.962837 0.466539 0.163589
Si Si7 0.927288 0.040797 0.468083
O O1 0.112225 0.250000 0.113488
O O2 0.173798 0.970347 0.159670
O O3 0.037513 0.976126 0.141096
O O4 0.121049 0.980261 0.029882
O O5 0.348252 0.250000 0.431609
O O6 0.274640 0.523589 0.450601
O O7 0.406355 0.531068 0.392780
O O8 0.741349 0.250000 0.308446
O O9 0.771360 0.448471 0.419415
O O10 0.814795 0.528458 0.297685
O O11 0.271241 0.750000 0.016635
O O12 0.362439 0.977699 0.986371
O O13 0.390332 0.250000 0.190760
O O14 0.439911 0.980495 0.256978
O O15 0.418306 0.972423 0.113650
O O16 0.964065 0.250000 0.161584
O O17 0.921073 0.250000 0.464491
O O18 0.000000 0.000000 0.500000
#
# Coordination Sequence:
#
# PCOD9462642 Si02
#       7
#     8   8   8   8   8   8   8
#     4   9  16  26  44  67  89 116 154 191 225 267
#     4   9  17  28  44  66  93 123 153 185 226 270
#     4   8  14  26  43  62  82 111 149 186 223 267
#     4   9  16  27  44  67  90 114 146 182 220 267
#     4   8  15  28  45  64  88 116 149 187 229 272
#     4   9  16  27  43  66  94 120 148 190 234 272
#     4  10  19  32  51  72  91 116 150 191 233 271
#
# _framework density 20.069161000000001
#
# number of rings (size 3 to 8) (size 9 to 14) (size 15 to 20)
#    0.000    3.143    0.000    2.143    0.000    0.571 
#    0.000    1.429    0.000   15.429    0.000    8.000 
#    0.000    0.000    0.000    0.000    0.000    0.000 
#
# Total GULP energy -311897.766479 kJ/mol
# GULP energy per Si atom -5569.602973 kJ/mol
# Density = 2.002348 g / cm^3
# Si number density = 20.069161 Si / 1000 Ang^3
#
#
#
# Elastic Constant Matrix: (Units=GPa)
#
#
# Indices 1 2 3 4 5 6 
#
# 1 219.0451 -1.1952 69.8518 0.0000 0.0000 0.0000
# 2 -1.1952 49.8281 -6.4339 0.0000 0.0000 0.0000
# 3 69.8518 -6.4339 56.4144 0.0000 0.0000 0.0000
# 4 0.0000 0.0000 0.0000 9.4338 0.0000 0.0000
# 5 0.0000 0.0000 0.0000 0.0000 12.3945 0.0000
# 6 0.0000 0.0000 0.0000 0.0000 0.0000 10.8533
#
#
#
# Elastic Compliance Matrix: (Units=1/GPa)
#
#
# Indices 1 2 3 4 5 6 
#
# 1 0.007598 -0.001048 -0.009527 0.000000 0.000000 0.000000
# 2 -0.001048 0.020513 0.003637 0.000000 0.000000 0.000000
# 3 -0.009527 0.003637 0.029937 0.000000 0.000000 0.000000
# 4 0.000000 0.000000 0.000000 0.106001 0.000000 0.000000
# 5 0.000000 0.000000 0.000000 0.000000 0.080681 0.000000
# 6 0.000000 0.000000 0.000000 0.000000 0.000000 0.092138
#
#
# Mechanical properties :
#
#
# Convention : Reuss Voigt Hill
#
# Bulk Modulus (GPa) = 22.63855 49.97033 36.30444
# Shear Modulus (GPa) = 13.68109 24.07398 18.87753
#
# Velocity S-wave (km/s) = 2.61377 3.46721 3.07029
# Velocity P-wave (km/s) = 4.51816 6.40171 5.54056
#
# Compressibility (1/GPa) = 0.04417243
#
# Stress axis : x y z
#
# Youngs Moduli (GPa) = 131.62129 48.74847 33.40383
#
# Poissons Ratio (x) = 0.05108 0.31823
# Poissons Ratio (y) = 0.13792 -0.12149
# Poissons Ratio (z) = 1.25392 -0.17730
#
# Static dielectric constant tensor:
#      x y z
#    x 1.774320 0.000000 0.000000 
#    y 0.000000 1.790770 0.000000 
#    z 0.000000 0.000000 1.670550 
# 
# From -- ./inp_files/27560.got.cif
#   From: 2010.05.17/outbox.cif.g08.bks.cpg/sg62_14_cif.got.tgz:27560.got - 2010.06.03 15:25:27.
