data_PCOD9462529
_publ_section_title
;
Structure prediction by ZEFSAII (Michael W. Deem and Ramdas Pophale) SiO2 
 PCOD9462529
Probable space group: P N M A
;
_chemical_formula_sum "Si O2"
_cell_formula_units_Z 64
_cell_length_a 21.006158
_cell_length_b 7.790841
_cell_length_c 20.346259
_cell_angle_alpha 90.000000
_cell_angle_beta 90.000000
_cell_angle_gamma 90.000000
_cell_volume 3329.779977
_symmetry_space_group_name_H-M "P N M A"
_symmetry_group_IT_number 62
_symmetry_cell_setting 'orthorhombic'
loop_
_space_group_symop_operation_xyz
x,y,z
1/2-x,-y,1/2+z
1/2+x,1/2-y,1/2-z
-x,1/2+y,-z
-x,-y,-z
1/2+x,y,1/2-z
1/2-x,1/2+y,1/2+z
x,1/2-y,z
loop_
_atom_site_type_symbol
_atom_site_label
_atom_site_fract_x
_atom_site_fract_y
_atom_site_fract_z
Si Si1 0.224172 0.539974 0.076385
Si Si2 0.445928 0.953929 0.407639
Si Si3 0.729195 0.460215 0.069296
Si Si4 0.334079 0.547092 0.172653
Si Si5 0.171762 0.949730 0.822400
Si Si6 0.952221 0.542855 0.408770
Si Si7 0.412700 0.954992 0.945507
Si Si8 0.916316 0.457756 0.942027
O O1 0.223534 0.750000 0.077521
O O2 0.274688 0.478225 0.130322
O O3 0.151287 0.483479 0.086054
O O4 0.246958 0.489843 0.003321
O O5 0.446156 0.750000 0.397165
O O6 0.518974 0.018008 0.406829
O O7 0.397151 0.031891 0.356032
O O8 0.421359 0.990495 0.481504
O O9 0.731056 0.250000 0.070263
O O10 0.776709 0.522473 0.125952
O O11 0.656170 0.517316 0.077703
O O12 0.335052 0.750000 0.158694
O O13 0.326924 0.525791 0.249982
O O14 0.401377 0.479834 0.144625
O O15 0.186288 0.750000 0.814440
O O16 0.951528 0.750000 0.409823
O O17 0.928709 0.480377 0.480767
O O18 0.025764 0.492604 0.401494
O O19 0.407229 0.750000 0.951043
O O20 0.917382 0.250000 0.940583
#
# Coordination Sequence:
#
# PCOD9462529 Si02
#       8
#     8   8   8   8   8   8   8   8
#     4   9  15  30  56  79  99 134 177 214 257 310
#     4  10  19  31  50  79 109 136 171 214 258 308
#     4   9  16  30  54  78  99 132 176 214 255 311
#     4  10  20  35  55  76 103 138 178 216 258 316
#     4  11  22  36  54  74 104 142 177 216 266 318
#     4   9  17  30  49  75 103 131 161 206 258 303
#     4   9  16  29  52  78 100 126 167 212 252 299
#     4   9  17  31  54  80 105 134 172 215 260 306
#
# _framework density 19.220488
#
# number of rings (size 3 to 8) (size 9 to 14) (size 15 to 20)
#    0.000    2.500    2.500    0.750    0.000    1.000 
#    0.000    3.125    0.000    4.500    0.000    0.000 
#    0.000    0.000    0.000    0.000    0.000    0.000 
#
# Total GULP energy -356905.332069 kJ/mol
# GULP energy per Si atom -5576.645814 kJ/mol
# Density = 1.917674 g / cm^3
# Si number density = 19.220488 Si / 1000 Ang^3
#
#
#
# Elastic Constant Matrix: (Units=GPa)
#
#
# Indices 1 2 3 4 5 6 
#
# 1 181.3601 -1.5622 72.6171 0.0000 0.0000 0.0000
# 2 -1.5622 18.0520 -9.4660 0.0000 0.0000 0.0000
# 3 72.6171 -9.4660 91.0103 0.0000 0.0000 0.0000
# 4 0.0000 0.0000 0.0000 20.3693 0.0000 0.0000
# 5 0.0000 0.0000 0.0000 0.0000 22.1971 0.0000
# 6 0.0000 0.0000 0.0000 0.0000 0.0000 16.8463
#
#
#
# Elastic Compliance Matrix: (Units=1/GPa)
#
#
# Indices 1 2 3 4 5 6 
#
# 1 0.008243 -0.002893 -0.006878 0.000000 0.000000 0.000000
# 2 -0.002893 0.059607 0.008508 0.000000 0.000000 0.000000
# 3 -0.006878 0.008508 0.017361 0.000000 0.000000 0.000000
# 4 0.000000 0.000000 0.000000 0.049093 0.000000 0.000000
# 5 0.000000 0.000000 0.000000 0.000000 0.045051 0.000000
# 6 0.000000 0.000000 0.000000 0.000000 0.000000 0.059360
#
#
# Mechanical properties :
#
#
# Convention : Reuss Voigt Hill
#
# Bulk Modulus (GPa) = 12.09421 45.95557 29.02489
# Shear Modulus (GPa) = 18.60103 27.13810 22.86956
#
# Velocity S-wave (km/s) = 3.11428 3.76165 3.45317
# Velocity P-wave (km/s) = 4.38607 6.54433 5.57072
#
# Compressibility (1/GPa) = 0.08268419
#
# Stress axis : x y z
#
# Youngs Moduli (GPa) = 121.31626 16.77665 57.60166
#
# Poissons Ratio (x) = 0.04854 0.39618
# Poissons Ratio (y) = 0.35100 -0.49009
# Poissons Ratio (z) = 0.83441 -0.14274
#
# Static dielectric constant tensor:
#      x y z
#    x 1.707490 0.000000 0.000000 
#    y 0.000000 1.705070 0.000000 
#    z 0.000000 0.000000 1.625760 
# 
# From -- ./inp_files/27886.got.cif
#   From: 2010.05.17/outbox.cif.g08.bks.cpg/sg62_14_cif.got.tgz:27886.got - 2010.06.03 15:25:27.
