data_PCOD9462340
_publ_section_title
;
Structure prediction by ZEFSAII (Michael W. Deem and Ramdas Pophale) SiO2 
 PCOD9462340
Probable space group: P N M A
;
_chemical_formula_sum "Si O2"
_cell_formula_units_Z 56
_cell_length_a 19.401846
_cell_length_b 9.154139
_cell_length_c 18.593986
_cell_angle_alpha 90.000000
_cell_angle_beta 90.000000
_cell_angle_gamma 90.000000
_cell_volume 3302.425700
_symmetry_space_group_name_H-M "P N M A"
_symmetry_group_IT_number 62
_symmetry_cell_setting 'orthorhombic'
loop_
_space_group_symop_operation_xyz
x,y,z
1/2-x,-y,1/2+z
1/2+x,1/2-y,1/2-z
-x,1/2+y,-z
-x,-y,-z
1/2+x,y,1/2-z
1/2-x,1/2+y,1/2+z
x,1/2-y,z
loop_
_atom_site_type_symbol
_atom_site_label
_atom_site_fract_x
_atom_site_fract_y
_atom_site_fract_z
Si Si1 0.647345 0.075411 0.544048
Si Si2 0.740422 0.581002 0.343562
Si Si3 0.394617 0.575508 0.619360
Si Si4 0.036262 0.073101 0.835621
Si Si5 0.388608 0.572548 0.190495
Si Si6 0.431399 0.572661 0.029848
Si Si7 0.283103 0.917946 0.987282
O O1 0.653983 0.250000 0.546784
O O2 0.617810 0.037310 0.464959
O O3 0.593205 0.030540 0.604849
O O4 0.723197 0.007345 0.551305
O O5 0.726011 0.750000 0.324109
O O6 0.672132 0.485316 0.338791
O O7 0.808671 0.525904 0.302818
O O8 0.763504 0.580615 0.427634
O O9 0.398863 0.750000 0.625111
O O10 0.463881 0.500191 0.646435
O O11 0.029236 0.250000 0.837598
O O12 0.065042 0.029221 0.757603
O O13 0.385671 0.750000 0.189502
O O14 0.418626 0.528775 0.113060
O O15 0.435635 0.750000 0.027415
O O16 0.362194 0.529716 0.985807
O O17 0.500000 0.500000 0.000000
O O18 0.280929 0.750000 0.963333
#
# Coordination Sequence:
#
# PCOD9462340 Si02
#       7
#     8   8   8   8   8   8   8
#     4   9  18  30  46  69  95 122 157 196 233 273
#     4   8  14  29  51  68  83 113 154 192 227 270
#     4  10  19  30  45  70  99 124 153 192 233 278
#     4  10  19  32  49  69  94 126 160 195 232 274
#     4   8  16  32  52  70  90 119 160 199 230 270
#     4   9  17  31  51  74  95 120 155 196 237 278
#     4   8  15  28  47  68  90 116 149 186 229 279
#
# _framework density 16.957232000000001
#
# number of rings (size 3 to 8) (size 9 to 14) (size 15 to 20)
#    0.000    3.143    0.000    2.571    0.000    1.714 
#    0.000    5.000    0.000    6.857    0.000    0.000 
#    0.000    0.000    0.000    0.000    0.000    0.000 
#
# Total GULP energy -311883.233199 kJ/mol
# GULP energy per Si atom -5569.343450 kJ/mol
# Density = 1.691864 g / cm^3
# Si number density = 16.957232 Si / 1000 Ang^3
#
#
#
# Elastic Constant Matrix: (Units=GPa)
#
#
# Indices 1 2 3 4 5 6 
#
# 1 195.8651 51.5226 69.8185 0.0000 0.0000 0.0000
# 2 51.5226 23.9279 25.5779 0.0000 0.0000 0.0000
# 3 69.8185 25.5779 59.7175 0.0000 0.0000 0.0000
# 4 0.0000 0.0000 0.0000 14.6253 0.0000 0.0000
# 5 0.0000 0.0000 0.0000 0.0000 16.2613 0.0000
# 6 0.0000 0.0000 0.0000 0.0000 0.0000 35.0878
#
#
#
# Elastic Compliance Matrix: (Units=1/GPa)
#
#
# Indices 1 2 3 4 5 6 
#
# 1 0.012786 -0.021307 -0.005822 0.000000 0.000000 0.000000
# 2 -0.021307 0.112595 -0.023314 0.000000 0.000000 0.000000
# 3 -0.005822 -0.023314 0.033539 0.000000 0.000000 0.000000
# 4 0.000000 0.000000 0.000000 0.068375 0.000000 0.000000
# 5 0.000000 0.000000 0.000000 0.000000 0.061496 0.000000
# 6 0.000000 0.000000 0.000000 0.000000 0.000000 0.028500
#
#
# Mechanical properties :
#
#
# Convention : Reuss Voigt Hill
#
# Bulk Modulus (GPa) = 17.23227 63.70539 40.46883
# Shear Modulus (GPa) = 11.42801 22.03431 16.73116
#
# Velocity S-wave (km/s) = 2.59883 3.60864 3.14453
# Velocity P-wave (km/s) = 4.38058 7.41706 6.09107
#
# Compressibility (1/GPa) = 0.05803064
#
# Stress axis : x y z
#
# Youngs Moduli (GPa) = 78.21095 8.88142 29.81639
#
# Poissons Ratio (x) = 0.18924 0.17360
# Poissons Ratio (y) = 1.66647 0.69515
# Poissons Ratio (z) = 0.45537 0.20707
#
# Static dielectric constant tensor:
#      x y z
#    x 1.571270 0.000000 0.000000 
#    y 0.000000 1.566810 0.000000 
#    z 0.000000 0.000000 1.573740 
# 
# From -- ./inp_files/27522.got.cif
#   From: 2010.05.17/outbox.cif.g08.bks.cpg/sg62_14_cif.got.tgz:27522.got - 2010.06.03 15:25:27.
