data_PCOD9462334
_publ_section_title
;
Structure prediction by ZEFSAII (Michael W. Deem and Ramdas Pophale) SiO2 
 PCOD9462334
Probable space group: P N M A
;
_chemical_formula_sum "Si O2"
_cell_formula_units_Z 56
_cell_length_a 21.563209
_cell_length_b 8.661553
_cell_length_c 18.888732
_cell_angle_alpha 90.000000
_cell_angle_beta 90.000000
_cell_angle_gamma 90.000000
_cell_volume 3527.865052
_symmetry_space_group_name_H-M "P N M A"
_symmetry_group_IT_number 62
_symmetry_cell_setting 'orthorhombic'
loop_
_space_group_symop_operation_xyz
x,y,z
1/2-x,-y,1/2+z
1/2+x,1/2-y,1/2-z
-x,1/2+y,-z
-x,-y,-z
1/2+x,y,1/2-z
1/2-x,1/2+y,1/2+z
x,1/2-y,z
loop_
_atom_site_type_symbol
_atom_site_label
_atom_site_fract_x
_atom_site_fract_y
_atom_site_fract_z
Si Si1 0.248937 0.432487 0.920496
Si Si2 0.372551 0.064648 0.342641
Si Si3 0.807009 0.565871 0.282251
Si Si4 0.126270 0.436888 0.153801
Si Si5 0.247751 0.566286 0.075218
Si Si6 0.001318 0.936270 0.920814
Si Si7 0.813929 0.567147 0.705695
O O1 0.240924 0.250000 0.916273
O O2 0.186097 0.510306 0.889801
O O3 0.305111 0.483434 0.868974
O O4 0.258409 0.485186 0.000698
O O5 0.370888 0.250000 0.337215
O O6 0.436107 0.016164 0.380367
O O7 0.364213 0.991512 0.264666
O O8 0.798733 0.750000 0.272121
O O9 0.800715 0.534699 0.365694
O O10 0.749125 0.476214 0.247453
O O11 0.132212 0.250000 0.149357
O O12 0.182803 0.509780 0.109430
O O13 0.060718 0.483518 0.120944
O O14 0.134080 0.478382 0.236876
O O15 0.244323 0.750000 0.064570
O O16 0.001519 0.750000 0.923994
O O17 0.000000 0.000000 0.000000
O O18 0.816947 0.750000 0.693679
#
# Coordination Sequence:
#
# PCOD9462334 Si02
#       7
#     8   8   8   8   8   8   8
#     4  11  20  29  44  66  92 118 146 182 223 265
#     4  10  19  31  46  64  90 121 152 183 216 258
#     4   9  17  29  45  64  87 114 145 182 221 263
#     4   9  18  32  47  64  89 120 152 183 218 260
#     4  10  19  30  45  67  92 116 146 183 224 266
#     4  10  21  33  45  65  91 121 154 184 213 250
#     4   9  16  28  46  64  85 114 146 181 221 264
#
# _framework density 15.873623
#
# number of rings (size 3 to 8) (size 9 to 14) (size 15 to 20)
#    0.000    2.286    0.000    5.571    0.000    6.286 
#    0.000    0.000    0.000    0.000    0.000    1.000 
#    0.000    0.000    0.000    0.000    0.000    0.000 
#
# Total GULP energy -312080.402674 kJ/mol
# GULP energy per Si atom -5572.864333 kJ/mol
# Density = 1.583749 g / cm^3
# Si number density = 15.873623 Si / 1000 Ang^3
#
#
#
# Elastic Constant Matrix: (Units=GPa)
#
#
# Indices 1 2 3 4 5 6 
#
# 1 75.2847 16.6787 59.2541 0.0000 0.0000 0.0000
# 2 16.6787 35.4898 29.8934 0.0000 0.0000 0.0000
# 3 59.2541 29.8934 138.2499 0.0000 0.0000 0.0000
# 4 0.0000 0.0000 0.0000 29.1034 0.0000 0.0000
# 5 0.0000 0.0000 0.0000 0.0000 26.3339 0.0000
# 6 0.0000 0.0000 0.0000 0.0000 0.0000 -6.9511
#
#
#
# Elastic Compliance Matrix: (Units=1/GPa)
#
#
# Indices 1 2 3 4 5 6 
#
# 1 0.020254 -0.002698 -0.008097 0.000000 0.000000 0.000000
# 2 -0.002698 0.034811 -0.006371 0.000000 0.000000 0.000000
# 3 -0.008097 -0.006371 0.012081 0.000000 0.000000 0.000000
# 4 0.000000 0.000000 0.000000 0.034360 0.000000 0.000000
# 5 0.000000 0.000000 0.000000 0.000000 0.037974 0.000000
# 6 0.000000 0.000000 0.000000 0.000000 0.000000 -0.143862
#
#
# Mechanical properties :
#
#
# Convention : Reuss Voigt Hill
#
# Bulk Modulus (GPa) = 30.47466 51.18632 40.83049
# Shear Modulus (GPa) = 122.28318 19.24379 70.76348
#
# Velocity S-wave (km/s) = 8.78651 3.48560 6.68402
# Velocity P-wave (km/s) = 11.05337 6.96530 9.23830
#
# Compressibility (1/GPa) = 0.03281414
#
# Stress axis : x y z
#
# Youngs Moduli (GPa) = 49.37323 28.72633 82.77172
#
# Poissons Ratio (x) = 0.07750 0.67024
# Poissons Ratio (y) = 0.13320 0.52732
# Poissons Ratio (z) = 0.39980 0.18301
#
# Static dielectric constant tensor:
#      x y z
#    x 1.522660 0.000000 0.000000 
#    y 0.000000 1.535260 0.000000 
#    z 0.000000 0.000000 1.556830 
# 
# From -- ./inp_files/24884.got.cif
#   From: 2010.05.17/outbox.cif.g08.bks.cpg/sg62_13_cif.got.tgz:24884.got - 2010.06.03 15:25:27.
