data_PCOD9462072
_publ_section_title
;
Structure prediction by ZEFSAII (Michael W. Deem and Ramdas Pophale) SiO2 
 PCOD9462072
Probable space group: P N M A
;
_chemical_formula_sum "Si O2"
_cell_formula_units_Z 56
_cell_length_a 17.793616
_cell_length_b 8.957245
_cell_length_c 19.465040
_cell_angle_alpha 90.000000
_cell_angle_beta 90.000000
_cell_angle_gamma 90.000000
_cell_volume 3102.372683
_symmetry_space_group_name_H-M "P N M A"
_symmetry_group_IT_number 62
_symmetry_cell_setting 'orthorhombic'
loop_
_space_group_symop_operation_xyz
x,y,z
1/2-x,-y,1/2+z
1/2+x,1/2-y,1/2-z
-x,1/2+y,-z
-x,-y,-z
1/2+x,y,1/2-z
1/2-x,1/2+y,1/2+z
x,1/2-y,z
loop_
_atom_site_type_symbol
_atom_site_label
_atom_site_fract_x
_atom_site_fract_y
_atom_site_fract_z
Si Si1 0.181389 0.428868 0.316771
Si Si2 0.576421 0.578208 0.780432
Si Si3 0.159185 0.425643 0.840029
Si Si4 0.512325 0.070686 0.574799
Si Si5 0.419004 0.919376 0.077333
Si Si6 0.901359 0.080418 0.558495
Si Si7 0.422631 0.924079 0.698491
O O1 0.177110 0.250000 0.318187
O O2 0.263817 0.483910 0.337576
O O3 0.127898 0.498665 0.374282
O O4 0.150819 0.475974 0.241009
O O5 0.600921 0.750000 0.769684
O O6 0.620079 0.464163 0.732033
O O7 0.588489 0.527612 0.857960
O O8 0.490194 0.569844 0.754691
O O9 0.174346 0.250000 0.847161
O O10 0.095734 0.469074 0.896130
O O11 0.507728 0.250000 0.571337
O O12 0.500000 0.000000 0.500000
O O13 0.452547 0.011936 0.631856
O O14 0.393424 0.750000 0.091274
O O15 0.508366 0.912090 0.062852
O O16 0.381473 0.988441 0.009735
O O17 0.872552 0.250000 0.555179
O O18 0.413110 0.750000 0.679026
#
# Coordination Sequence:
#
# PCOD9462072 Si02
#       7
#     8   8   8   8   8   8   8
#     4  11  21  36  56  82 113 148 186 230 283 340
#     4  10  18  33  55  79 107 141 180 225 271 324
#     4  10  22  38  56  82 113 146 185 231 283 339
#     4  10  21  38  62  87 113 146 190 239 287 339
#     4  10  19  31  50  77 108 141 180 224 267 318
#     4  10  20  32  50  76 109 147 182 221 269 324
#     4   9  19  34  56  83 111 142 182 227 276 332
#
# _framework density 18.050699999999999
#
# number of rings (size 3 to 8) (size 9 to 14) (size 15 to 20)
#    0.000    2.000    1.429    2.571    0.000    4.571 
#    0.000    1.429    0.000    5.143    0.000    0.000 
#    0.000    0.000    0.000    0.000    0.000    0.000 
#
# Total GULP energy -312225.578098 kJ/mol
# GULP energy per Si atom -5575.456752 kJ/mol
# Density = 1.800962 g / cm^3
# Si number density = 18.050700 Si / 1000 Ang^3
#
#
#
# Elastic Constant Matrix: (Units=GPa)
#
#
# Indices 1 2 3 4 5 6 
#
# 1 55.7229 35.6062 35.3085 0.0000 0.0000 0.0000
# 2 35.6062 71.9510 41.3513 0.0000 0.0000 0.0000
# 3 35.3085 41.3513 126.2463 0.0000 0.0000 0.0000
# 4 0.0000 0.0000 0.0000 30.0120 0.0000 0.0000
# 5 0.0000 0.0000 0.0000 0.0000 10.9100 0.0000
# 6 0.0000 0.0000 0.0000 0.0000 0.0000 25.9885
#
#
#
# Elastic Compliance Matrix: (Units=1/GPa)
#
#
# Indices 1 2 3 4 5 6 
#
# 1 0.027815 -0.011449 -0.004029 0.000000 0.000000 0.000000
# 2 -0.011449 0.021834 -0.003950 0.000000 0.000000 0.000000
# 3 -0.004029 -0.003950 0.010342 0.000000 0.000000 0.000000
# 4 0.000000 0.000000 0.000000 0.033320 0.000000 0.000000
# 5 0.000000 0.000000 0.000000 0.000000 0.091659 0.000000
# 6 0.000000 0.000000 0.000000 0.000000 0.000000 0.038479
#
#
# Mechanical properties :
#
#
# Convention : Reuss Voigt Hill
#
# Bulk Modulus (GPa) = 47.31521 53.16135 50.23828
# Shear Modulus (GPa) = 18.56333 22.82571 20.69452
#
# Velocity S-wave (km/s) = 3.21035 3.55989 3.38962
# Velocity P-wave (km/s) = 6.32543 6.81264 6.57355
#
# Compressibility (1/GPa) = 0.02113485
#
# Stress axis : x y z
#
# Youngs Moduli (GPa) = 35.95218 45.80027 96.69729
#
# Poissons Ratio (x) = 0.52437 0.38961
# Poissons Ratio (y) = 0.41162 0.38191
# Poissons Ratio (z) = 0.14486 0.18089
#
# Static dielectric constant tensor:
#      x y z
#    x 1.649520 0.000000 0.000000 
#    y 0.000000 1.610110 0.000000 
#    z 0.000000 0.000000 1.600020 
# 
# From -- ./inp_files/24642.got.cif
#   From: 2010.05.17/outbox.cif.g08.bks.cpg/sg62_13_cif.got.tgz:24642.got - 2010.06.03 15:25:27.
