data_PCOD9462594
_publ_section_title
;
Structure prediction by ZEFSAII (Michael W. Deem and Ramdas Pophale) SiO2 
 PCOD9462594
Probable space group: P N M A
;
_chemical_formula_sum "Si O2"
_cell_formula_units_Z 52
_cell_length_a 18.214394
_cell_length_b 9.644711
_cell_length_c 11.950712
_cell_angle_alpha 90.000000
_cell_angle_beta 90.000000
_cell_angle_gamma 90.000000
_cell_volume 2099.412245
_symmetry_space_group_name_H-M "P N M A"
_symmetry_group_IT_number 62
_symmetry_cell_setting 'orthorhombic'
loop_
_space_group_symop_operation_xyz
x,y,z
1/2-x,-y,1/2+z
1/2+x,1/2-y,1/2-z
-x,1/2+y,-z
-x,-y,-z
1/2+x,y,1/2-z
1/2-x,1/2+y,1/2+z
x,1/2-y,z
loop_
_atom_site_type_symbol
_atom_site_label
_atom_site_fract_x
_atom_site_fract_y
_atom_site_fract_z
Si Si1 0.151360 0.250000 0.657500
Si Si2 0.958425 0.091826 0.192001
Si Si3 0.688236 0.543686 0.824955
Si Si4 0.497822 0.592165 0.111825
Si Si5 0.851479 0.903010 0.758724
Si Si6 0.877167 0.584318 0.016380
Si Si7 0.710234 0.907610 0.077527
O O1 0.205295 0.121684 0.685063
O O2 0.087696 0.366526 0.630397
O O3 0.980331 0.250000 0.165673
O O4 0.879642 0.097873 0.253823
O O5 0.010455 0.007820 0.279640
O O6 0.938051 0.998496 0.085180
O O7 0.764489 0.609052 0.786323
O O8 0.678609 0.584359 0.953301
O O9 0.532601 0.750000 0.107652
O O10 0.500000 0.500000 0.000000
O O11 0.877272 0.750000 0.721681
O O12 0.882246 0.937438 0.883066
O O13 0.844744 0.007436 0.655424
O O14 0.883707 0.750000 0.039634
O O15 0.795350 0.542354 0.060427
O O16 0.714203 0.750000 0.113246
#
# Coordination Sequence:
#
# PCOD9462594 Si02
#       7
#     4   8   8   8   8   8   8
#     4   8  20  30  50  70  90 130 152 200 240 296
#     4  11  19  29  49  70  96 128 160 198 241 297
#     4  10  19  32  44  67  96 126 171 200 242 283
#     4   9  18  32  48  71  97 125 152 191 247 304
#     4  10  20  32  45  65  95 134 177 214 238 270
#     4   9  19  32  43  61  94 131 169 205 244 279
#     4  10  20  30  46  63  92 131 169 213 237 272
#
# _framework density 24.768836
#
# number of rings (size 3 to 8) (size 9 to 14) (size 15 to 20)
#    0.462    1.846    1.538    3.231    3.231    0.615 
#    2.769    0.000    0.000    0.000    0.000    0.000 
#    0.000    4.923    6.462    0.000    0.000    0.000 
#
# Total GULP energy -289506.463548 kJ/mol
# GULP energy per Si atom -5567.431991 kJ/mol
# Density = 2.471246 g / cm^3
# Si number density = 24.768836 Si / 1000 Ang^3
#
#
#
# Elastic Constant Matrix: (Units=GPa)
#
#
# Indices 1 2 3 4 5 6 
#
# 1 63.0855 0.4068 20.5556 0.0000 0.0000 0.0000
# 2 0.4068 148.1192 34.3863 0.0000 0.0000 0.0000
# 3 20.5556 34.3863 123.4027 0.0000 0.0000 0.0000
# 4 0.0000 0.0000 0.0000 30.1675 0.0000 0.0000
# 5 0.0000 0.0000 0.0000 0.0000 49.4342 0.0000
# 6 0.0000 0.0000 0.0000 0.0000 0.0000 -235.2872
#
#
#
# Elastic Compliance Matrix: (Units=1/GPa)
#
#
# Indices 1 2 3 4 5 6 
#
# 1 0.016819 0.000646 -0.002982 0.000000 0.000000 0.000000
# 2 0.000646 0.007243 -0.002126 0.000000 0.000000 0.000000
# 3 -0.002982 -0.002126 0.009193 0.000000 0.000000 0.000000
# 4 0.000000 0.000000 0.000000 0.033148 0.000000 0.000000
# 5 0.000000 0.000000 0.000000 0.000000 0.020229 0.000000
# 6 0.000000 0.000000 0.000000 0.000000 0.000000 -0.004250
#
#
# Mechanical properties :
#
#
# Convention : Reuss Voigt Hill
#
# Bulk Modulus (GPa) = 41.09893 49.47832 45.28863
# Shear Modulus (GPa) = 50.29422 -12.51985 18.88718
#
# Velocity S-wave (km/s) = 4.51104 -2.25070 2.76441
# Velocity P-wave (km/s) = 6.61526 3.64214 5.33980
#
# Compressibility (1/GPa) = 0.02433154
#
# Stress axis : x y z
#
# Youngs Moduli (GPa) = 59.45713 138.06288 108.78332
#
# Poissons Ratio (x) = -0.08919 0.32435
# Poissons Ratio (y) = -0.03841 0.23126
# Poissons Ratio (z) = 0.17728 0.29351
#
# Static dielectric constant tensor:
#      x y z
#    x 2.114770 0.000000 0.000000 
#    y 0.000000 2.038580 0.000000 
#    z 0.000000 0.000000 1.987070 
# 
# From -- ./inp_files/15673.got.cif
#   From: 2010.05.17/outbox.cif.g08.bks.cpg/sg62_8_cif.got.tgz:15673.got - 2010.06.03 15:25:27.
