data_PCOD9462304
_publ_section_title
;
Structure prediction by ZEFSAII (Michael W. Deem and Ramdas Pophale) SiO2 
 PCOD9462304
Probable space group: P N M A
;
_chemical_formula_sum "Si O2"
_cell_formula_units_Z 64
_cell_length_a 9.201001
_cell_length_b 14.292186
_cell_length_c 28.538599
_cell_angle_alpha 90.000000
_cell_angle_beta 90.000000
_cell_angle_gamma 90.000000
_cell_volume 3752.894766
_symmetry_space_group_name_H-M "P N M A"
_symmetry_group_IT_number 62
_symmetry_cell_setting 'orthorhombic'
loop_
_space_group_symop_operation_xyz
x,y,z
1/2-x,-y,1/2+z
1/2+x,1/2-y,1/2-z
-x,1/2+y,-z
-x,-y,-z
1/2+x,y,1/2-z
1/2-x,1/2+y,1/2+z
x,1/2-y,z
loop_
_atom_site_type_symbol
_atom_site_label
_atom_site_fract_x
_atom_site_fract_y
_atom_site_fract_z
Si Si1 0.018981 0.858402 0.029361
Si Si2 0.497265 0.055986 0.892269
Si Si3 0.169290 0.363424 0.695424
Si Si4 0.727405 0.646618 0.985176
Si Si5 0.505366 0.136408 0.709524
Si Si6 0.169505 0.061663 0.509799
Si Si7 0.519635 0.353140 0.080881
Si Si8 0.176365 0.362669 0.882556
O O1 0.059782 0.750000 0.037697
O O2 0.927963 0.892159 0.074533
O O3 0.163636 0.913472 0.018805
O O4 0.900455 0.860558 0.987820
O O5 0.598332 0.092914 0.850617
O O6 0.584029 0.072479 0.941128
O O7 0.341191 0.105675 0.889708
O O8 0.464837 0.944926 0.888163
O O9 0.164599 0.250000 0.691308
O O10 0.337621 0.391185 0.702597
O O11 0.075051 0.390927 0.740956
O O12 0.692889 0.750000 0.007470
O O13 0.667955 0.548068 0.004899
O O14 0.649209 0.649631 0.935231
O O15 0.506524 0.250000 0.708941
O O16 0.605847 0.104957 0.666259
O O17 0.105572 0.124246 0.467813
O O18 0.561068 0.250000 0.098152
O O19 0.175520 0.250000 0.882408
#
# Coordination Sequence:
#
# PCOD9462304 Si02
#       8
#     8   8   8   8   8   8   8   8
#     4  10  19  29  45  69  96 129 165 202 241 282
#     4  11  21  32  49  73  96 130 168 199 240 288
#     4  10  19  32  51  76 105 131 157 188 228 283
#     4   9  18  32  47  64  90 123 158 198 245 292
#     4   9  18  32  50  76 109 137 156 184 230 285
#     4  11  20  32  49  69  93 124 167 210 246 286
#     4  10  21  36  50  66  92 126 166 210 250 286
#     4  10  19  31  47  71 104 134 160 193 237 290
#
# _framework density 17.053502000000002
#
# number of rings (size 3 to 8) (size 9 to 14) (size 15 to 20)
#    0.000    2.000    0.000    5.625    0.000    6.000 
#    0.000    0.625    0.000    0.000    0.000    3.500 
#    0.000    0.000    0.000    0.000    0.000    0.000 
#
# Total GULP energy -356677.526544 kJ/mol
# GULP energy per Si atom -5573.086352 kJ/mol
# Density = 1.701469 g / cm^3
# Si number density = 17.053502 Si / 1000 Ang^3
#
#
#
# Elastic Constant Matrix: (Units=GPa)
#
#
# Indices 1 2 3 4 5 6 
#
# 1 132.1426 26.6609 64.3201 0.0000 0.0000 0.0000
# 2 26.6609 57.4106 24.8887 0.0000 0.0000 0.0000
# 3 64.3201 24.8887 81.7400 0.0000 0.0000 0.0000
# 4 0.0000 0.0000 0.0000 19.8461 0.0000 0.0000
# 5 0.0000 0.0000 0.0000 0.0000 27.2623 0.0000
# 6 0.0000 0.0000 0.0000 0.0000 0.0000 26.0321
#
#
#
# Elastic Compliance Matrix: (Units=1/GPa)
#
#
# Indices 1 2 3 4 5 6 
#
# 1 0.012418 -0.001763 -0.009235 0.000000 0.000000 0.000000
# 2 -0.001763 0.020318 -0.004799 0.000000 0.000000 0.000000
# 3 -0.009235 -0.004799 0.020962 0.000000 0.000000 0.000000
# 4 0.000000 0.000000 0.000000 0.050388 0.000000 0.000000
# 5 0.000000 0.000000 0.000000 0.000000 0.036681 0.000000
# 6 0.000000 0.000000 0.000000 0.000000 0.000000 0.038414
#
#
# Mechanical properties :
#
#
# Convention : Reuss Voigt Hill
#
# Bulk Modulus (GPa) = 45.24141 55.89251 50.56696
# Shear Modulus (GPa) = 22.92073 24.98967 23.95520
#
# Velocity S-wave (km/s) = 3.67010 3.83217 3.75201
# Velocity P-wave (km/s) = 6.67430 7.24062 6.96322
#
# Compressibility (1/GPa) = 0.02210364
#
# Stress axis : x y z
#
# Youngs Moduli (GPa) = 80.52512 49.21812 47.70543
#
# Poissons Ratio (x) = 0.08679 0.44056
# Poissons Ratio (y) = 0.14200 0.22893
# Poissons Ratio (z) = 0.74365 0.23619
#
# Static dielectric constant tensor:
#      x y z
#    x 1.593220 0.000000 0.000000 
#    y 0.000000 1.617970 0.000000 
#    z 0.000000 0.000000 1.579410 
# 
# From -- ./inp_files/32327.got.cif
#   From: 2010.05.17/outbox.cif.g08.bks.cpg/sg62_17_cif.got.tgz:32327.got - 2010.06.03 15:25:27.
