data_PCOD9462421
_publ_section_title
;
Structure prediction by ZEFSAII (Michael W. Deem and Ramdas Pophale) SiO2 
 PCOD9462421
Probable space group: P N M A
;
_chemical_formula_sum "Si O2"
_cell_formula_units_Z 48
_cell_length_a 14.617957
_cell_length_b 7.573077
_cell_length_c 18.965763
_cell_angle_alpha 90.000000
_cell_angle_beta 90.000000
_cell_angle_gamma 90.000000
_cell_volume 2099.565229
_symmetry_space_group_name_H-M "P N M A"
_symmetry_group_IT_number 62
_symmetry_cell_setting 'orthorhombic'
loop_
_space_group_symop_operation_xyz
x,y,z
1/2-x,-y,1/2+z
1/2+x,1/2-y,1/2-z
-x,1/2+y,-z
-x,-y,-z
1/2+x,y,1/2-z
1/2-x,1/2+y,1/2+z
x,1/2-y,z
loop_
_atom_site_type_symbol
_atom_site_label
_atom_site_fract_x
_atom_site_fract_y
_atom_site_fract_z
Si Si1 0.359932 0.967380 0.145792
Si Si2 0.547718 0.964470 0.400556
Si Si3 0.858887 0.953187 0.048617
Si Si4 0.562612 0.954273 0.150885
Si Si5 0.841300 0.549017 0.514186
Si Si6 0.817384 0.035056 0.773947
O O1 0.358795 0.750000 0.146139
O O2 0.461988 0.029913 0.162906
O O3 0.280752 0.027563 0.198589
O O4 0.338340 0.022672 0.065275
O O5 0.547795 0.750000 0.406782
O O6 0.441601 0.021300 0.402422
O O7 0.606125 0.010587 0.332347
O O8 0.597824 0.036011 0.470156
O O9 0.840785 0.750000 0.067834
O O10 0.761239 0.043970 0.045067
O O11 0.554631 0.750000 0.171897
O O12 0.643425 0.028980 0.199509
O O13 0.591324 0.960298 0.069578
O O14 0.872815 0.750000 0.508971
O O15 0.809987 0.250000 0.772356
#
# Coordination Sequence:
#
# PCOD9462421 Si02
#       6
#     8   8   8   8   8   8
#     4   9  18  34  57  81 106 144 184 223 274 329
#     4   9  17  32  53  79 111 146 180 219 277 331
#     4  10  19  30  52  85 112 139 184 233 268 316
#     4  10  21  35  56  84 108 135 186 237 271 322
#     4  11  21  36  56  76 111 152 184 225 280 335
#     4   9  17  33  57  81 109 144 180 224 279 334
#
# _framework density 22.861877
#
# number of rings (size 3 to 8) (size 9 to 14) (size 15 to 20)
#    0.000    2.333    1.667    1.500    0.000    2.000 
#    0.000    6.667    0.000    2.000    0.000    0.000 
#    0.000    0.000    0.000    0.000    0.000    0.000 
#
# Total GULP energy -268057.403637 kJ/mol
# GULP energy per Si atom -5584.529242 kJ/mol
# Density = 2.280984 g / cm^3
# Si number density = 22.861877 Si / 1000 Ang^3
#
#
#
# Elastic Constant Matrix: (Units=GPa)
#
#
# Indices 1 2 3 4 5 6 
#
# 1 161.1260 7.3512 67.5401 0.0000 0.0000 0.0000
# 2 7.3512 46.3344 3.6873 0.0000 0.0000 0.0000
# 3 67.5401 3.6873 69.9963 0.0000 0.0000 0.0000
# 4 0.0000 0.0000 0.0000 11.4173 0.0000 0.0000
# 5 0.0000 0.0000 0.0000 0.0000 17.8277 0.0000
# 6 0.0000 0.0000 0.0000 0.0000 0.0000 9.2077
#
#
#
# Elastic Compliance Matrix: (Units=1/GPa)
#
#
# Indices 1 2 3 4 5 6 
#
# 1 0.010455 -0.000860 -0.010043 0.000000 0.000000 0.000000
# 2 -0.000860 0.021744 -0.000316 0.000000 0.000000 0.000000
# 3 -0.010043 -0.000316 0.023994 0.000000 0.000000 0.000000
# 4 0.000000 0.000000 0.000000 0.087586 0.000000 0.000000
# 5 0.000000 0.000000 0.000000 0.000000 0.056092 0.000000
# 6 0.000000 0.000000 0.000000 0.000000 0.000000 0.108605
#
#
# Mechanical properties :
#
#
# Convention : Reuss Voigt Hill
#
# Bulk Modulus (GPa) = 29.62486 48.29043 38.95765
# Shear Modulus (GPa) = 14.61275 20.94907 17.78091
#
# Velocity S-wave (km/s) = 2.53093 3.03038 2.79185
# Velocity P-wave (km/s) = 4.63974 5.78038 5.24118
#
# Compressibility (1/GPa) = 0.03375543
#
# Stress axis : x y z
#
# Youngs Moduli (GPa) = 95.64393 45.99020 41.67708
#
# Poissons Ratio (x) = 0.03953 0.41858
# Poissons Ratio (y) = 0.08221 0.01317
# Poissons Ratio (z) = 0.96058 0.01454
#
# Static dielectric constant tensor:
#      x y z
#    x 1.847490 0.000000 0.000000 
#    y 0.000000 1.860100 0.000000 
#    z 0.000000 0.000000 1.829570 
# 
# From -- ./inp_files/23642.got.cif
#   From: 2010.05.17/outbox.cif.g08.bks.cpg/sg62_12_cif.got.tgz:23642.got - 2010.06.03 15:25:27.
