data_PCOD9462033
_publ_section_title
;
Structure prediction by ZEFSAII (Michael W. Deem and Ramdas Pophale) SiO2 
 PCOD9462033
Probable space group: P N M A
;
_chemical_formula_sum "Si O2"
_cell_formula_units_Z 64
_cell_length_a 20.018935
_cell_length_b 8.452095
_cell_length_c 20.503432
_cell_angle_alpha 90.000000
_cell_angle_beta 90.000000
_cell_angle_gamma 90.000000
_cell_volume 3469.220480
_symmetry_space_group_name_H-M "P N M A"
_symmetry_group_IT_number 62
_symmetry_cell_setting 'orthorhombic'
loop_
_space_group_symop_operation_xyz
x,y,z
1/2-x,-y,1/2+z
1/2+x,1/2-y,1/2-z
-x,1/2+y,-z
-x,-y,-z
1/2+x,y,1/2-z
1/2-x,1/2+y,1/2+z
x,1/2-y,z
loop_
_atom_site_type_symbol
_atom_site_label
_atom_site_fract_x
_atom_site_fract_y
_atom_site_fract_z
Si Si1 0.900089 0.558605 0.816863
Si Si2 0.932008 0.558927 0.672305
Si Si3 0.781426 0.939943 0.640776
Si Si4 0.318124 0.557102 0.094102
Si Si5 0.564534 0.439372 0.461505
Si Si6 0.245761 0.938973 0.219690
Si Si7 0.966498 0.939065 0.434227
Si Si8 0.293152 0.058023 0.489825
O O1 0.894951 0.750000 0.817151
O O2 0.936039 0.514145 0.748824
O O3 0.932513 0.507995 0.885266
O O4 0.825724 0.489582 0.809961
O O5 0.933682 0.750000 0.668533
O O6 0.858930 0.506088 0.645394
O O7 0.989850 0.491299 0.627499
O O8 0.784192 0.750000 0.636936
O O9 0.739551 0.995406 0.578518
O O10 0.748461 0.987680 0.708993
O O11 0.318385 0.750000 0.092553
O O12 0.300987 0.508902 0.167666
O O13 0.390472 0.501741 0.071530
O O14 0.258494 0.507428 0.046297
O O15 0.500000 0.500000 0.500000
O O16 0.563020 0.250000 0.461548
O O17 0.633199 0.495464 0.495226
O O18 0.247134 0.750000 0.225380
O O19 0.964586 0.750000 0.436658
O O20 0.000000 0.000000 0.500000
O O21 0.296112 0.250000 0.489719
#
# Coordination Sequence:
#
# PCOD9462033 Si02
#       8
#     8   8   8   8   8   8   8   8
#     4   9  19  37  59  80 110 146 184 228 279 333
#     4   9  18  36  58  81 111 150 190 228 273 330
#     4   9  19  35  57  82 114 151 183 225 280 334
#     4   9  19  35  56  79 108 146 182 225 278 330
#     4  11  23  39  59  84 113 146 185 234 284 339
#     4  10  18  32  57  82 107 139 183 231 273 327
#     4  11  22  37  55  80 114 150 188 230 278 331
#     4  10  19  37  61  82 108 147 188 226 280 337
#
# _framework density 18.447948
#
# number of rings (size 3 to 8) (size 9 to 14) (size 15 to 20)
#    0.000    2.250    1.250    2.625    0.000    5.000 
#    2.250    5.000    0.000    0.000    0.000    0.000 
#    0.000    0.000    0.000    0.000    0.000    0.000 
#
# Total GULP energy -357105.489086 kJ/mol
# GULP energy per Si atom -5579.773267 kJ/mol
# Density = 1.840596 g / cm^3
# Si number density = 18.447948 Si / 1000 Ang^3
#
#
#
# Elastic Constant Matrix: (Units=GPa)
#
#
# Indices 1 2 3 4 5 6 
#
# 1 132.8907 16.8864 76.0221 0.0000 0.0000 0.0000
# 2 16.8864 9.7251 17.0506 0.0000 0.0000 0.0000
# 3 76.0221 17.0506 125.8073 0.0000 0.0000 0.0000
# 4 0.0000 0.0000 0.0000 29.7259 0.0000 0.0000
# 5 0.0000 0.0000 0.0000 0.0000 30.5620 0.0000
# 6 0.0000 0.0000 0.0000 0.0000 0.0000 25.8337
#
#
#
# Elastic Compliance Matrix: (Units=1/GPa)
#
#
# Indices 1 2 3 4 5 6 
#
# 1 0.012329 -0.010947 -0.005967 0.000000 0.000000 0.000000
# 2 -0.010947 0.144596 -0.012982 0.000000 0.000000 0.000000
# 3 -0.005967 -0.012982 0.013314 0.000000 0.000000 0.000000
# 4 0.000000 0.000000 0.000000 0.033641 0.000000 0.000000
# 5 0.000000 0.000000 0.000000 0.000000 0.032720 0.000000
# 6 0.000000 0.000000 0.000000 0.000000 0.000000 0.038709
#
#
# Mechanical properties :
#
#
# Convention : Reuss Voigt Hill
#
# Bulk Modulus (GPa) = 9.05406 54.26012 31.65709
# Shear Modulus (GPa) = 13.44386 27.78859 20.61622
#
# Velocity S-wave (km/s) = 2.70246 3.88535 3.34658
# Velocity P-wave (km/s) = 3.82835 7.04303 5.66836
#
# Compressibility (1/GPa) = 0.11044769
#
# Stress axis : x y z
#
# Youngs Moduli (GPa) = 81.10733 6.91580 75.11138
#
# Poissons Ratio (x) = 0.07571 0.44816
# Poissons Ratio (y) = 0.88791 0.97509
# Poissons Ratio (z) = 0.48394 0.08978
#
# Static dielectric constant tensor:
#      x y z
#    x 1.610740 0.000000 0.000000 
#    y 0.000000 1.638200 0.000000 
#    z 0.000000 0.000000 1.642020 
# 
# From -- ./inp_files/27677.got.cif
#   From: 2010.05.17/outbox.cif.g08.bks.cpg/sg62_14_cif.got.tgz:27677.got - 2010.06.03 15:25:27.
