data_PCOD9462354
_publ_section_title
;
Structure prediction by ZEFSAII (Michael W. Deem and Ramdas Pophale) SiO2 
 PCOD9462354
Probable space group: P N M A
;
_chemical_formula_sum "Si O2"
_cell_formula_units_Z 40
_cell_length_a 24.055188
_cell_length_b 8.251668
_cell_length_c 7.812719
_cell_angle_alpha 90.000000
_cell_angle_beta 90.000000
_cell_angle_gamma 90.000000
_cell_volume 1550.788979
_symmetry_space_group_name_H-M "P N M A"
_symmetry_group_IT_number 62
_symmetry_cell_setting 'orthorhombic'
loop_
_space_group_symop_operation_xyz
x,y,z
1/2-x,-y,1/2+z
1/2+x,1/2-y,1/2-z
-x,1/2+y,-z
-x,-y,-z
1/2+x,y,1/2-z
1/2-x,1/2+y,1/2+z
x,1/2-y,z
loop_
_atom_site_type_symbol
_atom_site_label
_atom_site_fract_x
_atom_site_fract_y
_atom_site_fract_z
Si Si1 0.267955 0.949336 0.730659
Si Si2 0.662511 0.560422 0.596065
Si Si3 0.465127 0.057000 0.165845
Si Si4 0.060721 0.059973 0.109703
Si Si5 0.365740 0.939617 0.960358
O O1 0.270143 0.750000 0.718894
O O2 0.299629 0.025211 0.571415
O O3 0.204829 0.007844 0.760389
O O4 0.306210 0.999545 0.893699
O O5 0.659177 0.750000 0.627922
O O6 0.601334 0.508546 0.535804
O O7 0.469063 0.250000 0.179514
O O8 0.501229 0.988550 0.326526
O O9 0.401911 0.017123 0.112445
O O10 0.500000 0.000000 0.000000
O O11 0.054919 0.250000 0.074850
O O12 0.097088 0.045057 0.286034
O O13 0.362156 0.750000 0.999834
#
# Coordination Sequence:
#
# PCOD9462354 Si02
#       5
#     8   8   8   8   8
#     4   9  19  33  45  64  94 119 145 185 224 258
#     4  10  19  30  47  68  88 117 154 183 214 263
#     4   9  15  22  34  55  82 109 138 172 212 257
#     4   8  15  26  38  56  86 116 138 174 223 258
#     4   8  14  25  39  55  81 113 138 170 217 258
#
# _framework density 25.793320999999999
#
# number of rings (size 3 to 8) (size 9 to 14) (size 15 to 20)
#    0.000    3.200    0.000    3.600    0.000    9.600 
#    0.000    0.000    0.000    0.000    0.000    1.400 
#    0.000    0.000    0.000    0.000    0.000    0.000 
#
# Total GULP energy -223440.480392 kJ/mol
# GULP energy per Si atom -5586.012010 kJ/mol
# Density = 2.573461 g / cm^3
# Si number density = 25.793321 Si / 1000 Ang^3
#
#
#
# Elastic Constant Matrix: (Units=GPa)
#
#
# Indices 1 2 3 4 5 6 
#
# 1 232.8714 14.0882 -3.3624 0.0000 0.0000 0.0000
# 2 14.0882 15.7525 -12.0299 0.0000 0.0000 0.0000
# 3 -3.3624 -12.0299 83.3761 0.0000 0.0000 0.0000
# 4 0.0000 0.0000 0.0000 25.9628 0.0000 0.0000
# 5 0.0000 0.0000 0.0000 0.0000 60.1386 0.0000
# 6 0.0000 0.0000 0.0000 0.0000 0.0000 32.3528
#
#
#
# Elastic Compliance Matrix: (Units=1/GPa)
#
#
# Indices 1 2 3 4 5 6 
#
# 1 0.004555 -0.004421 -0.000454 0.000000 0.000000 0.000000
# 2 -0.004421 0.075633 0.010734 0.000000 0.000000 0.000000
# 3 -0.000454 0.010734 0.013524 0.000000 0.000000 0.000000
# 4 0.000000 0.000000 0.000000 0.038517 0.000000 0.000000
# 5 0.000000 0.000000 0.000000 0.000000 0.016628 0.000000
# 6 0.000000 0.000000 0.000000 0.000000 0.000000 0.030909
#
#
# Mechanical properties :
#
#
# Convention : Reuss Voigt Hill
#
# Bulk Modulus (GPa) = 9.48478 36.59911 23.04195
# Shear Modulus (GPa) = 24.60731 45.91111 35.25921
#
# Velocity S-wave (km/s) = 3.09207 4.22354 3.70129
# Velocity P-wave (km/s) = 4.05377 6.16478 5.21716
#
# Compressibility (1/GPa) = 0.10543202
#
# Stress axis : x y z
#
# Youngs Moduli (GPa) = 219.53429 13.22169 73.94078
#
# Poissons Ratio (x) = 0.05845 0.03358
# Poissons Ratio (y) = 0.97048 -0.79371
# Poissons Ratio (z) = 0.09970 -0.14193
#
# Static dielectric constant tensor:
#      x y z
#    x 2.140810 0.000000 0.000000 
#    y 0.000000 1.848160 0.000000 
#    z 0.000000 0.000000 2.178850 
# 
# From -- ./inp_files/9709.got.cif
#   From: 2010.05.17/outbox.cif.g08.bks.cpg/sg62_5_cif.got.tgz:9709.got - 2010.06.03 15:25:27.
