data_PCOD9462621
_publ_section_title
;
Structure prediction by ZEFSAII (Michael W. Deem and Ramdas Pophale) SiO2 
 PCOD9462621
Probable space group: P N M A
;
_chemical_formula_sum "Si O2"
_cell_formula_units_Z 36
_cell_length_a 5.349944
_cell_length_b 29.963160
_cell_length_c 11.902308
_cell_angle_alpha 90.000000
_cell_angle_beta 90.000000
_cell_angle_gamma 90.000000
_cell_volume 1907.954589
_symmetry_space_group_name_H-M "P N M A"
_symmetry_group_IT_number 62
_symmetry_cell_setting 'orthorhombic'
loop_
_space_group_symop_operation_xyz
x,y,z
1/2-x,-y,1/2+z
1/2+x,1/2-y,1/2-z
-x,1/2+y,-z
-x,-y,-z
1/2+x,y,1/2-z
1/2-x,1/2+y,1/2+z
x,1/2-y,z
loop_
_atom_site_type_symbol
_atom_site_label
_atom_site_fract_x
_atom_site_fract_y
_atom_site_fract_z
Si Si1 0.976137 0.750000 0.820575
Si Si2 0.962630 0.573029 0.006111
Si Si3 0.462016 0.466256 0.283623
Si Si4 0.896300 0.652239 0.826377
Si Si5 0.465949 0.961513 0.095245
O O1 0.763895 0.750000 0.721580
O O2 0.923653 0.702344 0.877079
O O3 0.930436 0.615794 0.924848
O O4 0.971958 0.533006 0.912823
O O5 0.500000 0.500000 0.000000
O O6 0.721330 0.566304 0.083445
O O7 0.195496 0.442716 0.274727
O O8 0.724724 0.568497 0.430260
O O9 0.437671 0.511315 0.211526
O O10 0.626473 0.649011 0.763729
#
# Coordination Sequence:
#
# PCOD9462621 Si02
#       5
#     4   8   8   8   8
#     4   8  16  30  48  70  96 122 156 198 242 288
#     4  12  22  35  49  70  96 132 171 203 237 288
#     4  12  21  33  48  64  90 128 168 201 239 276
#     4  10  19  32  50  72  96 128 165 201 240 295
#     4  12  23  34  48  68  95 126 175 210 240 277
#
# _framework density 18.868375
#
# number of rings (size 3 to 8) (size 9 to 14) (size 15 to 20)
#    0.000    0.889    4.444    4.667    0.000    0.000 
#    0.000    0.000    0.000    0.000    0.000    0.000 
#    0.000    0.000    0.000   20.000    0.000   20.000 
#
# Total GULP energy -200751.335843 kJ/mol
# GULP energy per Si atom -5576.425996 kJ/mol
# Density = 1.882543 g / cm^3
# Si number density = 18.868375 Si / 1000 Ang^3
#
#
#
# Elastic Constant Matrix: (Units=GPa)
#
#
# Indices 1 2 3 4 5 6 
#
# 1 167.9022 24.8228 8.8572 0.0000 0.0000 0.0000
# 2 24.8228 114.5558 39.6459 0.0000 0.0000 0.0000
# 3 8.8572 39.6459 46.5857 0.0000 0.0000 0.0000
# 4 0.0000 0.0000 0.0000 23.1972 0.0000 0.0000
# 5 0.0000 0.0000 0.0000 0.0000 32.3017 0.0000
# 6 0.0000 0.0000 0.0000 0.0000 0.0000 21.2991
#
#
#
# Elastic Compliance Matrix: (Units=1/GPa)
#
#
# Indices 1 2 3 4 5 6 
#
# 1 0.006153 -0.001316 -0.000050 0.000000 0.000000 0.000000
# 2 -0.001316 0.012655 -0.010520 0.000000 0.000000 0.000000
# 3 -0.000050 -0.010520 0.030428 0.000000 0.000000 0.000000
# 4 0.000000 0.000000 0.000000 0.043109 0.000000 0.000000
# 5 0.000000 0.000000 0.000000 0.000000 0.030958 0.000000
# 6 0.000000 0.000000 0.000000 0.000000 0.000000 0.046950
#
#
# Mechanical properties :
#
#
# Convention : Reuss Voigt Hill
#
# Bulk Modulus (GPa) = 39.26983 52.85506 46.06245
# Shear Modulus (GPa) = 24.68977 32.40746 28.54861
#
# Velocity S-wave (km/s) = 3.62128 4.14883 3.89400
# Velocity P-wave (km/s) = 6.19214 7.14309 6.68455
#
# Compressibility (1/GPa) = 0.02546484
#
# Stress axis : x y z
#
# Youngs Moduli (GPa) = 162.52122 79.01850 32.86451
#
# Poissons Ratio (x) = 0.10399 0.00164
# Poissons Ratio (y) = 0.21388 0.34573
# Poissons Ratio (z) = 0.00811 0.83126
#
# Static dielectric constant tensor:
#      x y z
#    x 1.813190 0.000000 0.000000 
#    y 0.000000 1.736810 0.000000 
#    z 0.000000 0.000000 1.655000 
# 
# From -- ./inp_files/21565.got.cif
#   From: 2010.05.17/outbox.cif.g08.bks.cpg/sg62_11_cif.got.tgz:21565.got - 2010.06.03 15:25:27.
