data_PCOD9462725
_publ_section_title
;
Structure prediction by ZEFSAII (Michael W. Deem and Ramdas Pophale) SiO2 
 PCOD9462725
Probable space group: P N M A
;
_chemical_formula_sum "Si O2"
_cell_formula_units_Z 64
_cell_length_a 17.280779
_cell_length_b 9.530625
_cell_length_c 19.451882
_cell_angle_alpha 90.000000
_cell_angle_beta 90.000000
_cell_angle_gamma 90.000000
_cell_volume 3203.659303
_symmetry_space_group_name_H-M "P N M A"
_symmetry_group_IT_number 62
_symmetry_cell_setting 'orthorhombic'
loop_
_space_group_symop_operation_xyz
x,y,z
1/2-x,-y,1/2+z
1/2+x,1/2-y,1/2-z
-x,1/2+y,-z
-x,-y,-z
1/2+x,y,1/2-z
1/2-x,1/2+y,1/2+z
x,1/2-y,z
loop_
_atom_site_type_symbol
_atom_site_label
_atom_site_fract_x
_atom_site_fract_y
_atom_site_fract_z
Si Si1 0.824873 0.085996 0.320962
Si Si2 0.921592 0.089418 0.791280
Si Si3 0.343200 0.583136 0.911036
Si Si4 0.995707 0.911586 0.674615
Si Si5 0.726113 0.917125 0.970265
Si Si6 0.109396 0.095317 0.959952
Si Si7 0.260601 0.086010 0.789822
Si Si8 0.990738 0.905444 0.903176
O O1 0.809299 0.250000 0.303886
O O2 0.776449 0.048856 0.389462
O O3 0.914500 0.074456 0.343393
O O4 0.804522 0.990425 0.255641
O O5 0.941731 0.250000 0.804754
O O6 0.836282 0.082651 0.759360
O O7 0.976770 0.019210 0.734900
O O8 0.933198 0.998654 0.858764
O O9 0.326454 0.750000 0.912011
O O10 0.431186 0.564482 0.883909
O O11 0.286923 0.501329 0.857136
O O12 0.331258 0.511156 0.984640
O O13 0.983427 0.750000 0.697890
O O14 0.708464 0.750000 0.976302
O O15 0.809818 0.940539 0.004495
O O16 0.115729 0.250000 0.927801
O O17 0.073313 0.981778 0.909176
O O18 0.047814 0.106217 0.021998
O O19 0.244595 0.250000 0.805589
O O20 0.998648 0.750000 0.874004
#
# Coordination Sequence:
#
# PCOD9462725 Si02
#       8
#     8   8   8   8   8   8   8   8
#     4  10  21  38  60  85 113 145 182 227 278 329
#     4  10  20  34  54  79 107 139 175 218 269 323
#     4  10  21  38  59  82 111 148 188 229 274 326
#     4   9  20  38  57  79 107 140 181 225 270 323
#     4  10  21  37  57  81 111 147 185 227 278 332
#     4   9  19  34  50  73 106 141 177 217 265 323
#     4  10  21  37  58  84 112 144 183 227 276 329
#     4  10  19  32  53  78 105 140 179 219 266 321
#
# _framework density 19.977155
#
# number of rings (size 3 to 8) (size 9 to 14) (size 15 to 20)
#    0.000    2.250    0.000    2.250    0.000    6.500 
#    0.000    0.000    0.000    0.000    0.000    0.000 
#    0.000    0.000    0.000    0.000    0.000    0.000 
#
# Total GULP energy -357143.983662 kJ/mol
# GULP energy per Si atom -5580.374745 kJ/mol
# Density = 1.993169 g / cm^3
# Si number density = 19.977155 Si / 1000 Ang^3
#
#
#
# Elastic Constant Matrix: (Units=GPa)
#
#
# Indices 1 2 3 4 5 6 
#
# 1 58.0609 19.3143 3.2004 0.0000 0.0000 0.0000
# 2 19.3143 85.8685 22.9910 0.0000 0.0000 0.0000
# 3 3.2004 22.9910 37.3949 0.0000 0.0000 0.0000
# 4 0.0000 0.0000 0.0000 36.6617 0.0000 0.0000
# 5 0.0000 0.0000 0.0000 0.0000 6.0741 0.0000
# 6 0.0000 0.0000 0.0000 0.0000 0.0000 8.7822
#
#
#
# Elastic Compliance Matrix: (Units=1/GPa)
#
#
# Indices 1 2 3 4 5 6 
#
# 1 0.018659 -0.004512 0.001177 0.000000 0.000000 0.000000
# 2 -0.004512 0.015032 -0.008856 0.000000 0.000000 0.000000
# 3 0.001177 -0.008856 0.032085 0.000000 0.000000 0.000000
# 4 0.000000 0.000000 0.000000 0.027276 0.000000 0.000000
# 5 0.000000 0.000000 0.000000 0.000000 0.164632 0.000000
# 6 0.000000 0.000000 0.000000 0.000000 0.000000 0.113867
#
#
# Mechanical properties :
#
#
# Convention : Reuss Voigt Hill
#
# Bulk Modulus (GPa) = 24.15723 30.25950 27.20836
# Shear Modulus (GPa) = 12.20311 19.35818 15.78065
#
# Velocity S-wave (km/s) = 2.47423 3.11628 2.81363
# Velocity P-wave (km/s) = 4.50345 5.30360 4.91982
#
# Compressibility (1/GPa) = 0.04139548
#
# Stress axis : x y z
#
# Youngs Moduli (GPa) = 53.59224 66.52610 31.16679
#
# Poissons Ratio (x) = 0.30018 -0.03669
# Poissons Ratio (y) = 0.24182 0.27600
# Poissons Ratio (z) = -0.06309 0.58913
#
# Static dielectric constant tensor:
#      x y z
#    x 1.710070 0.000000 0.000000 
#    y 0.000000 1.704540 0.000000 
#    z 0.000000 0.000000 1.703270 
# 
# From -- ./inp_files/27633.got.cif
#   From: 2010.05.17/outbox.cif.g08.bks.cpg/sg62_14_cif.got.tgz:27633.got - 2010.06.03 15:25:27.
