data_PCOD9462861
_publ_section_title
;
Structure prediction by ZEFSAII (Michael W. Deem and Ramdas Pophale) SiO2 
 PCOD9462861
Probable space group: P N M A
;
_chemical_formula_sum "Si O2"
_cell_formula_units_Z 48
_cell_length_a 16.450201
_cell_length_b 8.325329
_cell_length_c 19.238328
_cell_angle_alpha 90.000000
_cell_angle_beta 90.000000
_cell_angle_gamma 90.000000
_cell_volume 2634.753188
_symmetry_space_group_name_H-M "P N M A"
_symmetry_group_IT_number 62
_symmetry_cell_setting 'orthorhombic'
loop_
_space_group_symop_operation_xyz
x,y,z
1/2-x,-y,1/2+z
1/2+x,1/2-y,1/2-z
-x,1/2+y,-z
-x,-y,-z
1/2+x,y,1/2-z
1/2-x,1/2+y,1/2+z
x,1/2-y,z
loop_
_atom_site_type_symbol
_atom_site_label
_atom_site_fract_x
_atom_site_fract_y
_atom_site_fract_z
Si Si1 0.075282 0.055731 0.954849
Si Si2 0.918078 0.940592 0.205648
Si Si3 0.569355 0.058912 0.206604
Si Si4 0.750497 0.438742 0.539735
Si Si5 0.926638 0.056293 0.547634
Si Si6 0.248471 0.440758 0.303965
O O1 0.077127 0.250000 0.954994
O O2 0.068277 0.003696 0.874224
O O3 0.162963 0.995517 0.983405
O O4 0.000000 0.000000 0.000000
O O5 0.905590 0.750000 0.204707
O O6 0.833818 0.019112 0.232272
O O7 0.997055 0.980370 0.250354
O O8 0.560339 0.250000 0.212076
O O9 0.661803 0.017159 0.230465
O O10 0.564054 0.008908 0.125830
O O11 0.750532 0.250000 0.523148
O O12 0.838799 0.503168 0.518567
O O13 0.749215 0.462943 0.623301
O O14 0.924780 0.250000 0.550614
O O15 0.000000 0.000000 0.500000
O O16 0.246027 0.250000 0.319102
#
# Coordination Sequence:
#
# PCOD9462861 Si02
#       6
#     8   8   8   8   8   8
#     4   9  18  32  50  73  98 126 162 201 242 289
#     4  10  20  34  52  74 101 133 168 206 249 300
#     4  10  20  34  53  77 102 130 167 209 253 301
#     4   8  16  31  49  69  96 131 166 199 242 297
#     4  10  19  33  53  75 101 133 167 206 250 297
#     4   9  17  30  50  74  98 127 165 207 248 296
#
# _framework density 18.218024
#
# number of rings (size 3 to 8) (size 9 to 14) (size 15 to 20)
#    0.000    2.667    0.000    3.000    0.000    6.000 
#    0.000    1.667    0.000    6.000    0.000    0.000 
#    0.000    0.000    0.000    0.000    0.000    0.000 
#
# Total GULP energy -267284.794703 kJ/mol
# GULP energy per Si atom -5568.433223 kJ/mol
# Density = 1.817656 g / cm^3
# Si number density = 18.218024 Si / 1000 Ang^3
#
#
#
# Elastic Constant Matrix: (Units=GPa)
#
#
# Indices 1 2 3 4 5 6 
#
# 1 211.6633 12.3780 56.9865 0.0000 0.0000 0.0000
# 2 12.3780 17.0659 4.0784 0.0000 0.0000 0.0000
# 3 56.9865 4.0784 36.0344 0.0000 0.0000 0.0000
# 4 0.0000 0.0000 0.0000 23.1826 0.0000 0.0000
# 5 0.0000 0.0000 0.0000 0.0000 33.1090 0.0000
# 6 0.0000 0.0000 0.0000 0.0000 0.0000 25.7526
#
#
#
# Elastic Compliance Matrix: (Units=1/GPa)
#
#
# Indices 1 2 3 4 5 6 
#
# 1 0.008373 -0.002990 -0.012904 0.000000 0.000000 0.000000
# 2 -0.002990 0.061293 -0.002209 0.000000 0.000000 0.000000
# 3 -0.012904 -0.002209 0.048408 0.000000 0.000000 0.000000
# 4 0.000000 0.000000 0.000000 0.043136 0.000000 0.000000
# 5 0.000000 0.000000 0.000000 0.000000 0.030203 0.000000
# 6 0.000000 0.000000 0.000000 0.000000 0.000000 0.038831
#
#
# Mechanical properties :
#
#
# Convention : Reuss Voigt Hill
#
# Bulk Modulus (GPa) = 12.21464 45.73881 28.97672
# Shear Modulus (GPa) = 17.02192 29.16357 23.09274
#
# Velocity S-wave (km/s) = 3.06002 4.00535 3.56417
# Velocity P-wave (km/s) = 4.38226 6.82285 5.73391
#
# Compressibility (1/GPa) = 0.08186898
#
# Stress axis : x y z
#
# Youngs Moduli (GPa) = 119.42558 16.31514 20.65777
#
# Poissons Ratio (x) = 0.04878 0.26656
# Poissons Ratio (y) = 0.35703 0.04564
# Poissons Ratio (z) = 1.54104 0.03604
#
# Static dielectric constant tensor:
#      x y z
#    x 1.691660 0.000000 0.000000 
#    y 0.000000 1.636000 0.000000 
#    z 0.000000 0.000000 1.592150 
# 
# From -- ./inp_files/26872.got.cif
#   From: 2010.05.17/outbox.cif.g08.bks.cpg/sg62_14_cif.got.tgz:26872.got - 2010.06.03 15:25:27.
