data_PCOD9462079
_publ_section_title
;
Structure prediction by ZEFSAII (Michael W. Deem and Ramdas Pophale) SiO2 
 PCOD9462079
Probable space group: P N M A
;
_chemical_formula_sum "Si O2"
_cell_formula_units_Z 40
_cell_length_a 18.865443
_cell_length_b 8.469247
_cell_length_c 13.941990
_cell_angle_alpha 90.000000
_cell_angle_beta 90.000000
_cell_angle_gamma 90.000000
_cell_volume 2227.596740
_symmetry_space_group_name_H-M "P N M A"
_symmetry_group_IT_number 62
_symmetry_cell_setting 'orthorhombic'
loop_
_space_group_symop_operation_xyz
x,y,z
1/2-x,-y,1/2+z
1/2+x,1/2-y,1/2-z
-x,1/2+y,-z
-x,-y,-z
1/2+x,y,1/2-z
1/2-x,1/2+y,1/2+z
x,1/2-y,z
loop_
_atom_site_type_symbol
_atom_site_label
_atom_site_fract_x
_atom_site_fract_y
_atom_site_fract_z
Si Si1 0.791870 0.438829 0.112546
Si Si2 0.213464 0.941588 0.102217
Si Si3 0.639240 0.438542 0.802694
Si Si4 0.495351 0.563019 0.891702
Si Si5 0.351915 0.439093 0.800327
O O1 0.801090 0.250000 0.117807
O O2 0.839778 0.518517 0.193980
O O3 0.710646 0.480994 0.138391
O O4 0.806193 0.495101 0.004145
O O5 0.214203 0.750000 0.099416
O O6 0.292965 0.990112 0.133167
O O7 0.162171 0.987460 0.189638
O O8 0.631935 0.250000 0.811981
O O9 0.567828 0.519154 0.837832
O O10 0.485667 0.750000 0.893800
O O11 0.428173 0.486492 0.838936
O O12 0.500000 0.500000 0.000000
O O13 0.342692 0.250000 0.806378
#
# Coordination Sequence:
#
# PCOD9462079 Si02
#       5
#     8   8   8   8   8
#     4  10  18  33  56  82 109 142 182 226 269 318
#     4   8  17  33  55  78 105 139 178 220 265 312
#     4  10  20  36  55  80 111 144 180 223 270 322
#     4  12  24  38  56  81 109 141 177 221 274 329
#     4  10  20  36  55  79 109 144 182 224 270 321
#
# _framework density 17.956571
#
# number of rings (size 3 to 8) (size 9 to 14) (size 15 to 20)
#    0.000    2.000    0.000    6.000    0.000    1.600 
#    0.000   12.000    0.000    0.000    0.000    0.000 
#    0.000    0.000    0.000    0.000    0.000    0.000 
#
# Total GULP energy -223338.958526 kJ/mol
# GULP energy per Si atom -5583.473963 kJ/mol
# Density = 1.791570 g / cm^3
# Si number density = 17.956571 Si / 1000 Ang^3
#
#
#
# Elastic Constant Matrix: (Units=GPa)
#
#
# Indices 1 2 3 4 5 6 
#
# 1 80.5160 -17.9128 34.1296 0.0000 0.0000 0.0000
# 2 -17.9128 28.9646 -12.9845 0.0000 0.0000 0.0000
# 3 34.1296 -12.9845 117.3087 0.0000 0.0000 0.0000
# 4 0.0000 0.0000 0.0000 27.4693 0.0000 0.0000
# 5 0.0000 0.0000 0.0000 0.0000 12.6808 0.0000
# 6 0.0000 0.0000 0.0000 0.0000 0.0000 31.9054
#
#
#
# Elastic Compliance Matrix: (Units=1/GPa)
#
#
# Indices 1 2 3 4 5 6 
#
# 1 0.015791 0.008108 -0.003697 0.000000 0.000000 0.000000
# 2 0.008108 0.040491 0.002123 0.000000 0.000000 0.000000
# 3 -0.003697 0.002123 0.009835 0.000000 0.000000 0.000000
# 4 0.000000 0.000000 0.000000 0.036404 0.000000 0.000000
# 5 0.000000 0.000000 0.000000 0.000000 0.078859 0.000000
# 6 0.000000 0.000000 0.000000 0.000000 0.000000 0.031343
#
#
# Mechanical properties :
#
#
# Convention : Reuss Voigt Hill
#
# Bulk Modulus (GPa) = 12.62846 25.91707 19.27277
# Shear Modulus (GPa) = 22.11907 29.31490 25.71698
#
# Velocity S-wave (km/s) = 3.51352 4.04486 3.78852
# Velocity P-wave (km/s) = 4.84849 6.02321 5.46749
#
# Compressibility (1/GPa) = 0.07918619
#
# Stress axis : x y z
#
# Youngs Moduli (GPa) = 63.32802 24.69673 101.67789
#
# Poissons Ratio (x) = -0.20025 0.37587
# Poissons Ratio (y) = -0.51349 -0.21584
# Poissons Ratio (z) = 0.23410 -0.05243
#
# Static dielectric constant tensor:
#      x y z
#    x 1.584910 0.000000 0.000000 
#    y 0.000000 1.613610 0.000000 
#    z 0.000000 0.000000 1.655540 
# 
# From -- ./inp_files/13872.got.cif
#   From: 2010.05.17/outbox.cif.g08.bks.cpg/sg62_7_cif.got.tgz:13872.got - 2010.06.03 15:25:27.
