data_PCOD9462705
_publ_section_title
;
Structure prediction by ZEFSAII (Michael W. Deem and Ramdas Pophale) SiO2 
 PCOD9462705
Probable space group: P N M A
;
_chemical_formula_sum "Si O2"
_cell_formula_units_Z 56
_cell_length_a 14.896422
_cell_length_b 8.280060
_cell_length_c 23.189195
_cell_angle_alpha 90.000000
_cell_angle_beta 90.000000
_cell_angle_gamma 90.000000
_cell_volume 2860.231092
_symmetry_space_group_name_H-M "P N M A"
_symmetry_group_IT_number 62
_symmetry_cell_setting 'orthorhombic'
loop_
_space_group_symop_operation_xyz
x,y,z
1/2-x,-y,1/2+z
1/2+x,1/2-y,1/2-z
-x,1/2+y,-z
-x,-y,-z
1/2+x,y,1/2-z
1/2-x,1/2+y,1/2+z
x,1/2-y,z
loop_
_atom_site_type_symbol
_atom_site_label
_atom_site_fract_x
_atom_site_fract_y
_atom_site_fract_z
Si Si1 0.102756 0.445693 0.000402
Si Si2 0.393664 0.441903 0.720729
Si Si3 0.396458 0.942222 0.850766
Si Si4 0.597258 0.556875 0.851671
Si Si5 0.602196 0.056359 0.722241
Si Si6 0.215276 0.055341 0.110643
Si Si7 0.711417 0.444065 0.611787
O O1 0.103769 0.250000 0.000561
O O2 0.155628 0.503483 0.057245
O O3 0.155563 0.501796 0.943346
O O4 0.000000 0.500000 0.000000
O O5 0.380508 0.250000 0.725023
O O6 0.377597 0.514924 0.783848
O O7 0.498227 0.473413 0.705980
O O8 0.331426 0.509286 0.670642
O O9 0.397195 0.750000 0.856630
O O10 0.496923 0.006727 0.864051
O O11 0.315649 0.011070 0.888353
O O12 0.593299 0.750000 0.858778
O O13 0.617509 0.520970 0.784515
O O14 0.681842 0.495151 0.888089
O O15 0.613599 0.250000 0.728620
O O16 0.666099 0.996597 0.671263
O O17 0.218043 0.250000 0.107175
O O18 0.704314 0.250000 0.612781
#
# Coordination Sequence:
#
# PCOD9462705 Si02
#       7
#     8   8   8   8   8   8   8
#     4  10  22  39  58  79 106 138 175 218 263 312
#     4  10  19  32  52  79 109 138 169 212 261 312
#     4  10  20  34  52  76 105 137 173 215 260 311
#     4   9  19  34  51  73 103 134 168 210 256 305
#     4   9  18  31  49  74 104 135 167 205 256 311
#     4  10  20  35  54  76 103 139 177 214 259 310
#     4  10  20  35  53  75 104 139 176 216 262 311
#
# _framework density 19.578837
#
# number of rings (size 3 to 8) (size 9 to 14) (size 15 to 20)
#    0.000    2.286    0.000    2.571    0.000    6.857 
#    0.000    0.714    0.000    0.000    0.000    0.000 
#    0.000    0.000    0.000    0.000    0.000    0.000 
#
# Total GULP energy -312615.632899 kJ/mol
# GULP energy per Si atom -5582.422016 kJ/mol
# Density = 1.953427 g / cm^3
# Si number density = 19.578837 Si / 1000 Ang^3
#
#
#
# Elastic Constant Matrix: (Units=GPa)
#
#
# Indices 1 2 3 4 5 6 
#
# 1 149.0834 10.1264 63.8999 0.0000 0.0000 0.0000
# 2 10.1264 4.2709 2.2861 0.0000 0.0000 0.0000
# 3 63.8999 2.2861 38.0049 0.0000 0.0000 0.0000
# 4 0.0000 0.0000 0.0000 13.5927 0.0000 0.0000
# 5 0.0000 0.0000 0.0000 0.0000 32.5340 0.0000
# 6 0.0000 0.0000 0.0000 0.0000 0.0000 25.3483
#
#
#
# Elastic Compliance Matrix: (Units=1/GPa)
#
#
# Indices 1 2 3 4 5 6 
#
# 1 0.031157 -0.047358 -0.049537 0.000000 0.000000 0.000000
# 2 -0.047358 0.313915 0.060742 0.000000 0.000000 0.000000
# 3 -0.049537 0.060742 0.105948 0.000000 0.000000 0.000000
# 4 0.000000 0.000000 0.000000 0.073569 0.000000 0.000000
# 5 0.000000 0.000000 0.000000 0.000000 0.030737 0.000000
# 6 0.000000 0.000000 0.000000 0.000000 0.000000 0.039450
#
#
# Mechanical properties :
#
#
# Convention : Reuss Voigt Hill
#
# Bulk Modulus (GPa) = 2.64051 38.22045 20.43048
# Shear Modulus (GPa) = 6.30262 21.96481 14.13371
#
# Velocity S-wave (km/s) = 1.79613 3.35306 2.68971
# Velocity P-wave (km/s) = 2.37761 5.87830 4.48371
#
# Compressibility (1/GPa) = 0.37871451
#
# Stress axis : x y z
#
# Youngs Moduli (GPa) = 32.09554 3.18557 9.43857
#
# Poissons Ratio (x) = 0.15086 0.46756
# Poissons Ratio (y) = 1.51997 -0.57332
# Poissons Ratio (z) = 1.58992 -0.19350
#
# Static dielectric constant tensor:
#      x y z
#    x 1.738170 0.000000 0.000000 
#    y 0.000000 1.681400 0.000000 
#    z 0.000000 0.000000 1.658140 
# 
# From -- ./inp_files/27178.got.cif
#   From: 2010.05.17/outbox.cif.g08.bks.cpg/sg62_14_cif.got.tgz:27178.got - 2010.06.03 15:25:27.
