data_PCOD9462179
_publ_section_title
;
Structure prediction by ZEFSAII (Michael W. Deem and Ramdas Pophale) SiO2 
 PCOD9462179
Probable space group: P N M A
;
_chemical_formula_sum "Si O2"
_cell_formula_units_Z 64
_cell_length_a 10.265655
_cell_length_b 7.502706
_cell_length_c 38.328253
_cell_angle_alpha 90.000000
_cell_angle_beta 90.000000
_cell_angle_gamma 90.000000
_cell_volume 2952.049381
_symmetry_space_group_name_H-M "P N M A"
_symmetry_group_IT_number 62
_symmetry_cell_setting 'orthorhombic'
loop_
_space_group_symop_operation_xyz
x,y,z
1/2-x,-y,1/2+z
1/2+x,1/2-y,1/2-z
-x,1/2+y,-z
-x,-y,-z
1/2+x,y,1/2-z
1/2-x,1/2+y,1/2+z
x,1/2-y,z
loop_
_atom_site_type_symbol
_atom_site_label
_atom_site_fract_x
_atom_site_fract_y
_atom_site_fract_z
Si Si1 0.953133 0.031590 0.390228
Si Si2 0.681720 0.035685 0.714020
Si Si3 0.490969 0.032158 0.398233
Si Si4 0.897790 0.036529 0.469424
Si Si5 0.607043 0.036626 0.471010
Si Si6 0.766706 0.536665 0.634964
Si Si7 0.608479 0.957612 0.268598
Si Si8 0.707465 0.034491 0.343718
O O1 0.951056 0.250000 0.390426
O O2 0.935358 0.973294 0.430430
O O3 0.834401 0.976276 0.365224
O O4 0.090146 0.969994 0.374398
O O5 0.677214 0.250000 0.717991
O O6 0.798487 0.965518 0.738533
O O7 0.537144 0.967550 0.724598
O O8 0.717778 0.999460 0.674000
O O9 0.490759 0.250000 0.398933
O O10 0.554952 0.969314 0.433933
O O11 0.344494 0.971312 0.391452
O O12 0.581665 0.979220 0.366018
O O13 0.891609 0.250000 0.466653
O O14 0.752577 0.969629 0.478536
O O15 0.000000 0.000000 0.500000
O O16 0.616908 0.250000 0.467928
O O17 0.500000 0.000000 0.500000
O O18 0.772604 0.750000 0.631260
O O19 0.589076 0.750000 0.259723
O O20 0.688912 0.969067 0.304588
O O21 0.709741 0.250000 0.342387
#
# Coordination Sequence:
#
# PCOD9462179 Si02
#       8
#     8   8   8   8   8   8   8   8
#     4   9  19  35  57  83 109 140 178 224 273 320
#     4  10  22  39  55  76 109 145 177 214 265 321
#     4   9  17  33  57  79 104 139 178 222 271 317
#     4  10  21  38  57  80 114 150 186 227 275 331
#     4  10  21  37  57  83 113 147 187 229 276 331
#     4  10  20  35  57  84 108 135 179 226 269 318
#     4  10  22  38  55  77 108 144 177 213 265 322
#     4  10  18  35  59  80 103 136 179 224 267 311
#
# _framework density 21.679853999999999
#
# number of rings (size 3 to 8) (size 9 to 14) (size 15 to 20)
#    0.000    2.250    2.500    0.000    3.500    1.000 
#    0.000    2.500    0.000    0.000    0.000    0.000 
#    0.000    0.000    0.000    0.000    0.000    0.000 
#
# Total GULP energy -357450.546007 kJ/mol
# GULP energy per Si atom -5585.164781 kJ/mol
# Density = 2.163051 g / cm^3
# Si number density = 21.679854 Si / 1000 Ang^3
#
#
#
# Elastic Constant Matrix: (Units=GPa)
#
#
# Indices 1 2 3 4 5 6 
#
# 1 196.6576 5.4673 63.9895 0.0000 0.0000 0.0000
# 2 5.4673 57.6835 -8.1925 0.0000 0.0000 0.0000
# 3 63.9895 -8.1925 94.2753 0.0000 0.0000 0.0000
# 4 0.0000 0.0000 0.0000 -54.5366 0.0000 0.0000
# 5 0.0000 0.0000 0.0000 0.0000 44.2271 0.0000
# 6 0.0000 0.0000 0.0000 0.0000 0.0000 5.6282
#
#
#
# Elastic Compliance Matrix: (Units=1/GPa)
#
#
# Indices 1 2 3 4 5 6 
#
# 1 0.006619 -0.001281 -0.004604 0.000000 0.000000 0.000000
# 2 -0.001281 0.017801 0.002416 0.000000 0.000000 0.000000
# 3 -0.004604 0.002416 0.013942 0.000000 0.000000 0.000000
# 4 0.000000 0.000000 0.000000 -0.018336 0.000000 0.000000
# 5 0.000000 0.000000 0.000000 0.000000 0.022611 0.000000
# 6 0.000000 0.000000 0.000000 0.000000 0.000000 0.177678
#
#
# Mechanical properties :
#
#
# Convention : Reuss Voigt Hill
#
# Bulk Modulus (GPa) = 31.82244 52.34944 42.08594
# Shear Modulus (GPa) = 21.03268 18.22052 19.62660
#
# Velocity S-wave (km/s) = 3.11810 2.90217 3.01207
# Velocity P-wave (km/s) = 5.26057 5.95224 5.61706
#
# Compressibility (1/GPa) = 0.03142437
#
# Stress axis : x y z
#
# Youngs Moduli (GPa) = 151.08990 56.17784 71.72580
#
# Poissons Ratio (x) = 0.07197 0.33020
# Poissons Ratio (y) = 0.19357 -0.17332
# Poissons Ratio (z) = 0.69557 -0.13575
#
# Static dielectric constant tensor:
#      x y z
#    x 1.622720 0.000000 0.000000 
#    y 0.000000 1.836620 0.000000 
#    z 0.000000 0.000000 1.777100 
# 
# From -- ./inp_files/32246.got.cif
#   From: 2010.05.17/outbox.cif.g08.bks.cpg/sg62_17_cif.got.tgz:32246.got - 2010.06.03 15:25:27.
