data_PCOD9462346
_publ_section_title
;
Structure prediction by ZEFSAII (Michael W. Deem and Ramdas Pophale) SiO2 
 PCOD9462346
Probable space group: P N M A
;
_chemical_formula_sum "Si O2"
_cell_formula_units_Z 56
_cell_length_a 13.753879
_cell_length_b 8.923500
_cell_length_c 29.976180
_cell_angle_alpha 90.000000
_cell_angle_beta 90.000000
_cell_angle_gamma 90.000000
_cell_volume 3679.058684
_symmetry_space_group_name_H-M "P N M A"
_symmetry_group_IT_number 62
_symmetry_cell_setting 'orthorhombic'
loop_
_space_group_symop_operation_xyz
x,y,z
1/2-x,-y,1/2+z
1/2+x,1/2-y,1/2-z
-x,1/2+y,-z
-x,-y,-z
1/2+x,y,1/2-z
1/2-x,1/2+y,1/2+z
x,1/2-y,z
loop_
_atom_site_type_symbol
_atom_site_label
_atom_site_fract_x
_atom_site_fract_y
_atom_site_fract_z
Si Si1 0.299412 0.071074 0.817562
Si Si2 0.883038 0.570826 0.593684
Si Si3 0.107849 0.428148 0.230251
Si Si4 0.286738 0.571445 0.181750
Si Si5 0.107551 0.570421 0.497614
Si Si6 0.114725 0.928612 0.596942
Si Si7 0.403487 0.927661 0.271049
O O1 0.314733 0.250000 0.818304
O O2 0.187403 0.043450 0.803729
O O3 0.328415 0.999009 0.864295
O O4 0.363697 0.000554 0.777938
O O5 0.872976 0.750000 0.592425
O O6 0.847766 0.500304 0.546873
O O7 0.998902 0.537390 0.598713
O O8 0.114721 0.250000 0.233163
O O9 0.186923 0.490982 0.195476
O O10 0.999435 0.479948 0.218637
O O11 0.271883 0.750000 0.182300
O O12 0.329162 0.516576 0.135077
O O13 0.363419 0.536442 0.221435
O O14 0.100898 0.750000 0.493236
O O15 0.150827 0.537606 0.546566
O O16 0.000000 0.500000 0.500000
O O17 0.124825 0.750000 0.604239
O O18 0.425543 0.750000 0.272399
#
# Coordination Sequence:
#
# PCOD9462346 Si02
#       7
#     8   8   8   8   8   8   8
#     4  10  20  33  49  68  92 123 156 189 227 272
#     4  10  19  30  46  69  96 124 155 191 229 273
#     4  11  21  32  48  68  93 122 152 191 231 269
#     4  10  20  32  48  68  91 122 156 189 226 271
#     4   9  17  29  44  64  93 125 155 189 229 273
#     4   9  18  30  44  66  95 124 154 189 227 267
#     4   9  19  34  48  65  91 122 156 190 225 269
#
# _framework density 15.221285
#
# number of rings (size 3 to 8) (size 9 to 14) (size 15 to 20)
#    0.000    2.286    0.000    5.571    0.000    9.143 
#    0.000    0.000    0.000    0.000    0.000    1.000 
#    0.000    0.000    0.000    0.000    0.000    0.000 
#
# Total GULP energy -312319.959623 kJ/mol
# GULP energy per Si atom -5577.142136 kJ/mol
# Density = 1.518664 g / cm^3
# Si number density = 15.221285 Si / 1000 Ang^3
#
#
#
# Elastic Constant Matrix: (Units=GPa)
#
#
# Indices 1 2 3 4 5 6 
#
# 1 64.1870 51.8438 47.8016 0.0000 0.0000 0.0000
# 2 51.8438 83.0978 66.1993 0.0000 0.0000 0.0000
# 3 47.8016 66.1993 139.4200 0.0000 0.0000 0.0000
# 4 0.0000 0.0000 0.0000 30.8603 0.0000 0.0000
# 5 0.0000 0.0000 0.0000 0.0000 18.1812 0.0000
# 6 0.0000 0.0000 0.0000 0.0000 0.0000 21.0860
#
#
#
# Elastic Compliance Matrix: (Units=1/GPa)
#
#
# Indices 1 2 3 4 5 6 
#
# 1 0.031893 -0.017992 -0.002392 0.000000 0.000000 0.000000
# 2 -0.017992 0.029506 -0.007841 0.000000 0.000000 0.000000
# 3 -0.002392 -0.007841 0.011716 0.000000 0.000000 0.000000
# 4 0.000000 0.000000 0.000000 0.032404 0.000000 0.000000
# 5 0.000000 0.000000 0.000000 0.000000 0.055002 0.000000
# 6 0.000000 0.000000 0.000000 0.000000 0.000000 0.047425
#
#
# Mechanical properties :
#
#
# Convention : Reuss Voigt Hill
#
# Bulk Modulus (GPa) = 60.00881 68.71046 64.35963
# Shear Modulus (GPa) = 18.52194 22.08285 20.30239
#
# Velocity S-wave (km/s) = 3.49211 3.81305 3.65611
# Velocity P-wave (km/s) = 7.46791 8.03896 7.75869
#
# Compressibility (1/GPa) = 0.01666422
#
# Stress axis : x y z
#
# Youngs Moduli (GPa) = 31.35477 33.89173 85.35568
#
# Poissons Ratio (x) = 0.60979 0.20415
# Poissons Ratio (y) = 0.56415 0.66928
# Poissons Ratio (z) = 0.07499 0.26575
#
# Static dielectric constant tensor:
#      x y z
#    x 1.489910 0.000000 0.000000 
#    y 0.000000 1.506330 0.000000 
#    z 0.000000 0.000000 1.516760 
# 
# From -- ./inp_files/32647.got.cif
#   From: 2010.05.17/outbox.cif.g08.bks.cpg/sg62_17_cif.got.tgz:32647.got - 2010.06.03 15:25:27.
