data_PCOD9462383
_publ_section_title
;
Structure prediction by ZEFSAII (Michael W. Deem and Ramdas Pophale) SiO2 
 PCOD9462383
Probable space group: P N M A
;
_chemical_formula_sum "Si O2"
_cell_formula_units_Z 64
_cell_length_a 17.688491
_cell_length_b 8.640179
_cell_length_c 19.549156
_cell_angle_alpha 90.000000
_cell_angle_beta 90.000000
_cell_angle_gamma 90.000000
_cell_volume 2987.731302
_symmetry_space_group_name_H-M "P N M A"
_symmetry_group_IT_number 62
_symmetry_cell_setting 'orthorhombic'
loop_
_space_group_symop_operation_xyz
x,y,z
1/2-x,-y,1/2+z
1/2+x,1/2-y,1/2-z
-x,1/2+y,-z
-x,-y,-z
1/2+x,y,1/2-z
1/2-x,1/2+y,1/2+z
x,1/2-y,z
loop_
_atom_site_type_symbol
_atom_site_label
_atom_site_fract_x
_atom_site_fract_y
_atom_site_fract_z
Si Si1 0.003198 0.069366 0.610732
Si Si2 0.016206 0.076596 0.134785
Si Si3 0.622596 0.436377 0.565474
Si Si4 0.272682 0.562875 0.551698
Si Si5 0.611546 0.563283 0.004214
Si Si6 0.911200 0.420156 0.267501
Si Si7 0.174766 0.436566 0.195033
Si Si8 0.221582 0.070170 0.804312
O O1 0.006056 0.250000 0.628639
O O2 0.920680 0.032999 0.579825
O O3 0.060288 0.031079 0.548719
O O4 0.033292 0.968586 0.672473
O O5 0.034048 0.250000 0.108576
O O6 0.093008 0.009118 0.166867
O O7 0.961414 0.089088 0.200006
O O8 0.962126 0.990890 0.081423
O O9 0.623086 0.250000 0.568435
O O10 0.655102 0.488928 0.492409
O O11 0.683016 0.489004 0.624797
O O12 0.275088 0.750000 0.552476
O O13 0.197323 0.520645 0.510921
O O14 0.272155 0.515837 0.630792
O O15 0.602235 0.750000 0.992610
O O16 0.877074 0.250000 0.281608
O O17 0.845335 0.540385 0.250813
O O18 0.171532 0.250000 0.199611
O O19 0.205853 0.496205 0.267266
O O20 0.237269 0.250000 0.814564
#
# Coordination Sequence:
#
# PCOD9462383 Si02
#       8
#     8   8   8   8   8   8   8   8
#     4  10  19  30  48  75 104 132 170 218 260 308
#     4   9  20  36  52  75 104 134 172 214 257 310
#     4   9  19  36  56  77 103 137 175 216 262 309
#     4   9  18  34  55  76 100 136 178 214 257 315
#     4   9  18  32  49  71 102 139 173 207 258 320
#     4  10  19  33  52  71  99 138 173 207 256 314
#     4  10  20  35  56  80 107 139 174 212 256 311
#     4  10  20  34  54  80 107 134 171 218 262 307
#
# _framework density 21.420936000000001
#
# number of rings (size 3 to 8) (size 9 to 14) (size 15 to 20)
#    0.000    2.500    0.000    1.875    0.000    4.500 
#    0.000    2.500    0.000    0.000    0.000    0.000 
#    0.000    0.000    0.000    0.000    0.000    0.000 
#
# Total GULP energy -356854.118902 kJ/mol
# GULP energy per Si atom -5575.845608 kJ/mol
# Density = 2.137218 g / cm^3
# Si number density = 21.420936 Si / 1000 Ang^3
#
#
#
# Elastic Constant Matrix: (Units=GPa)
#
#
# Indices 1 2 3 4 5 6 
#
# 1 63.7965 -5.0429 -5.1486 0.0000 0.0000 0.0000
# 2 -5.0429 6.6966 4.3219 0.0000 0.0000 0.0000
# 3 -5.1486 4.3219 53.5213 0.0000 0.0000 0.0000
# 4 0.0000 0.0000 0.0000 15.8450 0.0000 0.0000
# 5 0.0000 0.0000 0.0000 0.0000 23.2190 0.0000
# 6 0.0000 0.0000 0.0000 0.0000 0.0000 25.8887
#
#
#
# Elastic Compliance Matrix: (Units=1/GPa)
#
#
# Indices 1 2 3 4 5 6 
#
# 1 0.016687 0.012164 0.000623 0.000000 0.000000 0.000000
# 2 0.012164 0.166408 -0.012267 0.000000 0.000000 0.000000
# 3 0.000623 -0.012267 0.019735 0.000000 0.000000 0.000000
# 4 0.000000 0.000000 0.000000 0.063111 0.000000 0.000000
# 5 0.000000 0.000000 0.000000 0.000000 0.043068 0.000000
# 6 0.000000 0.000000 0.000000 0.000000 0.000000 0.038627
#
#
# Mechanical properties :
#
#
# Convention : Reuss Voigt Hill
#
# Bulk Modulus (GPa) = 4.90513 12.47501 8.69007
# Shear Modulus (GPa) = 12.06120 21.64947 16.85534
#
# Velocity S-wave (km/s) = 2.37546 3.18255 2.80815
# Velocity P-wave (km/s) = 3.13346 4.39787 3.81836
#
# Compressibility (1/GPa) = 0.20386829
#
# Stress axis : x y z
#
# Youngs Moduli (GPa) = 59.92819 6.00933 50.67227
#
# Poissons Ratio (x) = -0.07310 -0.03157
# Poissons Ratio (y) = -0.72897 0.62161
# Poissons Ratio (z) = -0.03733 0.07372
#
# Static dielectric constant tensor:
#      x y z
#    x 1.815670 0.000000 0.000000 
#    y 0.000000 1.759070 0.000000 
#    z 0.000000 0.000000 1.810900 
# 
# From -- ./inp_files/27738.got.cif
#   From: 2010.05.17/outbox.cif.g08.bks.cpg/sg62_14_cif.got.tgz:27738.got - 2010.06.03 15:25:27.
