data_PCOD9462599
_publ_section_title
;
Structure prediction by ZEFSAII (Michael W. Deem and Ramdas Pophale) SiO2 
 PCOD9462599
Probable space group: P N M A
;
_chemical_formula_sum "Si O2"
_cell_formula_units_Z 56
_cell_length_a 5.499399
_cell_length_b 21.393535
_cell_length_c 25.674945
_cell_angle_alpha 90.000000
_cell_angle_beta 90.000000
_cell_angle_gamma 90.000000
_cell_volume 3020.697974
_symmetry_space_group_name_H-M "P N M A"
_symmetry_group_IT_number 62
_symmetry_cell_setting 'orthorhombic'
loop_
_space_group_symop_operation_xyz
x,y,z
1/2-x,-y,1/2+z
1/2+x,1/2-y,1/2-z
-x,1/2+y,-z
-x,-y,-z
1/2+x,y,1/2-z
1/2-x,1/2+y,1/2+z
x,1/2-y,z
loop_
_atom_site_type_symbol
_atom_site_label
_atom_site_fract_x
_atom_site_fract_y
_atom_site_fract_z
Si Si1 0.028155 0.550441 0.608777
Si Si2 0.659003 0.608042 0.265656
Si Si3 0.671871 0.578381 0.387528
Si Si4 0.643452 0.465671 0.224727
Si Si5 0.199070 0.677815 0.022437
Si Si6 0.183136 0.629599 0.523965
Si Si7 0.697099 0.481406 0.542986
O O1 0.166364 0.483879 0.605274
O O2 0.185918 0.605690 0.583725
O O3 0.930991 0.554271 0.666971
O O4 0.806669 0.542509 0.568669
O O5 0.406421 0.640547 0.251881
O O6 0.670664 0.594846 0.327051
O O7 0.651518 0.541353 0.233853
O O8 0.736847 0.634679 0.426300
O O9 0.409991 0.556354 0.408150
O O10 0.415123 0.444307 0.260343
O O11 0.169488 0.750000 0.037007
O O12 0.445290 0.670799 0.988152
O O13 0.945457 0.656264 0.994449
O O14 0.141273 0.567122 0.488804
O O15 0.500000 0.500000 0.500000
#
# Coordination Sequence:
#
# PCOD9462599 Si02
#       7
#     8   8   8   8   8   8   8
#     4  12  20  32  55  86 119 144 187 219 300 358
#     4  10  19  32  47  76 109 151 178 216 275 340
#     4  11  21  32  57  78 112 155 188 227 284 348
#     4  10  20  31  48  75 118 155 169 212 269 353
#     4  11  25  43  57  77 110 153 203 243 278 324
#     4  11  23  36  58  83 111 147 185 239 285 347
#     4  11  20  31  48  83 119 144 179 232 284 356
#
# _framework density 18.538761000000001
#
# number of rings (size 3 to 8) (size 9 to 14) (size 15 to 20)
#    0.000    1.143    5.714    4.286    0.000    0.000 
#    0.000    0.000    0.000    0.857    0.000    0.000 
#    0.000   11.429    0.000    0.000    0.000    0.000 
#
# Total GULP energy -312110.789017 kJ/mol
# GULP energy per Si atom -5573.406947 kJ/mol
# Density = 1.849657 g / cm^3
# Si number density = 18.538761 Si / 1000 Ang^3
#
#
#
# Elastic Constant Matrix: (Units=GPa)
#
#
# Indices 1 2 3 4 5 6 
#
# 1 98.8892 13.9224 29.6884 0.0000 0.0000 0.0000
# 2 13.9224 45.9072 21.0495 0.0000 0.0000 0.0000
# 3 29.6884 21.0495 67.9499 0.0000 0.0000 0.0000
# 4 0.0000 0.0000 0.0000 8.4615 0.0000 0.0000
# 5 0.0000 0.0000 0.0000 0.0000 28.0436 0.0000
# 6 0.0000 0.0000 0.0000 0.0000 0.0000 17.1641
#
#
#
# Elastic Compliance Matrix: (Units=1/GPa)
#
#
# Indices 1 2 3 4 5 6 
#
# 1 0.011716 -0.001406 -0.004684 0.000000 0.000000 0.000000
# 2 -0.001406 0.025558 -0.007303 0.000000 0.000000 0.000000
# 3 -0.004684 -0.007303 0.019025 0.000000 0.000000 0.000000
# 4 0.000000 0.000000 0.000000 0.118183 0.000000 0.000000
# 5 0.000000 0.000000 0.000000 0.000000 0.035659 0.000000
# 6 0.000000 0.000000 0.000000 0.000000 0.000000 0.058261
#
#
# Mechanical properties :
#
#
# Convention : Reuss Voigt Hill
#
# Bulk Modulus (GPa) = 33.88125 38.00744 35.94434
# Shear Modulus (GPa) = 16.39206 20.60624 18.49915
#
# Velocity S-wave (km/s) = 2.97678 3.33757 3.16232
# Velocity P-wave (km/s) = 5.48913 5.94967 5.72403
#
# Compressibility (1/GPa) = 0.02951485
#
# Stress axis : x y z
#
# Youngs Moduli (GPa) = 85.35086 39.12654 52.56115
#
# Poissons Ratio (x) = 0.05500 0.24618
# Poissons Ratio (y) = 0.11998 0.38387
# Poissons Ratio (z) = 0.39975 0.28575
#
# Static dielectric constant tensor:
#      x y z
#    x 1.787640 0.000000 0.000000 
#    y 0.000000 1.639030 0.000000 
#    z 0.000000 0.000000 1.655570 
# 
# From -- ./inp_files/28384.got.cif
#   From: 2010.05.17/outbox.cif.g08.bks.cpg/sg62_15_cif.got.tgz:28384.got - 2010.06.03 15:25:27.
