data_PCOD9462745
_publ_section_title
;
Structure prediction by ZEFSAII (Michael W. Deem and Ramdas Pophale) SiO2 
 PCOD9462745
Probable space group: P N M A
;
_chemical_formula_sum "Si O2"
_cell_formula_units_Z 32
_cell_length_a 5.027934
_cell_length_b 11.594930
_cell_length_c 26.190842
_cell_angle_alpha 90.000000
_cell_angle_beta 90.000000
_cell_angle_gamma 90.000000
_cell_volume 1526.887923
_symmetry_space_group_name_H-M "P N M A"
_symmetry_group_IT_number 62
_symmetry_cell_setting 'orthorhombic'
loop_
_space_group_symop_operation_xyz
x,y,z
1/2-x,-y,1/2+z
1/2+x,1/2-y,1/2-z
-x,1/2+y,-z
-x,-y,-z
1/2+x,y,1/2-z
1/2-x,1/2+y,1/2+z
x,1/2-y,z
loop_
_atom_site_type_symbol
_atom_site_label
_atom_site_fract_x
_atom_site_fract_y
_atom_site_fract_z
Si Si1 0.466105 0.492724 0.112535
Si Si2 0.968961 0.375884 0.072236
Si Si3 0.340130 0.116534 0.215854
Si Si4 0.124262 0.121858 0.519647
O O1 0.771952 0.465320 0.099672
O O2 0.409990 0.473970 0.171777
O O3 0.376286 0.604811 0.080619
O O4 0.270774 0.398392 0.086331
O O5 0.890563 0.250000 0.091553
O O6 0.900903 0.378130 0.011977
O O7 0.543772 0.103411 0.262827
O O8 0.372595 0.250000 0.197438
O O9 0.008354 0.250000 0.508644
O O10 0.000000 0.000000 0.500000
#
# Coordination Sequence:
#
# PCOD9462745 Si02
#       4
#     8   8   8   8
#     4  11  20  34  54  79 111 149 186 230 283 334
#     4  10  19  32  53  82 114 147 182 221 273 338
#     4  10  20  33  51  76 106 141 186 237 284 330
#     4   9  20  37  58  87 120 153 189 228 276 340
#
# _framework density 20.957661999999999
#
# number of rings (size 3 to 8) (size 9 to 14) (size 15 to 20)
#    0.000    2.000    0.000    4.500    0.000    4.000 
#    0.000   10.000    0.000    1.500    0.000    0.000 
#    0.000    0.000    0.000    0.000    0.000    0.000 
#
# Total GULP energy -178213.774506 kJ/mol
# GULP energy per Si atom -5569.180453 kJ/mol
# Density = 2.090996 g / cm^3
# Si number density = 20.957662 Si / 1000 Ang^3
#
#
#
# Elastic Constant Matrix: (Units=GPa)
#
#
# Indices 1 2 3 4 5 6 
#
# 1 48.3523 9.2141 -4.7267 0.0000 0.0000 0.0000
# 2 9.2141 93.8588 22.7994 0.0000 0.0000 0.0000
# 3 -4.7267 22.7994 77.3666 0.0000 0.0000 0.0000
# 4 0.0000 0.0000 0.0000 32.9590 0.0000 0.0000
# 5 0.0000 0.0000 0.0000 0.0000 27.5327 0.0000
# 6 0.0000 0.0000 0.0000 0.0000 0.0000 20.0047
#
#
#
# Elastic Compliance Matrix: (Units=1/GPa)
#
#
# Indices 1 2 3 4 5 6 
#
# 1 0.021380 -0.002602 0.002073 0.000000 0.000000 0.000000
# 2 -0.002602 0.011793 -0.003634 0.000000 0.000000 0.000000
# 3 0.002073 -0.003634 0.014123 0.000000 0.000000 0.000000
# 4 0.000000 0.000000 0.000000 0.030341 0.000000 0.000000
# 5 0.000000 0.000000 0.000000 0.000000 0.036320 0.000000
# 6 0.000000 0.000000 0.000000 0.000000 0.000000 0.049988
#
#
# Mechanical properties :
#
#
# Convention : Reuss Voigt Hill
#
# Bulk Modulus (GPa) = 25.66156 30.46125 28.06141
# Shear Modulus (GPa) = 26.98881 28.91866 27.95373
#
# Velocity S-wave (km/s) = 3.59246 3.71868 3.65611
# Velocity P-wave (km/s) = 5.42943 5.74494 5.58941
#
# Compressibility (1/GPa) = 0.03896879
#
# Stress axis : x y z
#
# Youngs Moduli (GPa) = 46.77237 84.79911 70.80599
#
# Poissons Ratio (x) = 0.22069 -0.14679
# Poissons Ratio (y) = 0.12172 0.25732
# Poissons Ratio (z) = -0.09697 0.30818
#
# Static dielectric constant tensor:
#      x y z
#    x 1.762210 0.000000 0.000000 
#    y 0.000000 1.782430 0.000000 
#    z 0.000000 0.000000 1.867280 
# 
# From -- ./inp_files/28114.got.cif
#   From: 2010.05.17/outbox.cif.g08.bks.cpg/sg62_15_cif.got.tgz:28114.got - 2010.06.03 15:25:27.
