data_PCOD9462975
_publ_section_title
;
Structure prediction by ZEFSAII (Michael W. Deem and Ramdas Pophale) SiO2 
 PCOD9462975
Probable space group: P N M A
;
_chemical_formula_sum "Si O2"
_cell_formula_units_Z 64
_cell_length_a 19.096005
_cell_length_b 7.523798
_cell_length_c 20.503020
_cell_angle_alpha 90.000000
_cell_angle_beta 90.000000
_cell_angle_gamma 90.000000
_cell_volume 2945.760824
_symmetry_space_group_name_H-M "P N M A"
_symmetry_group_IT_number 62
_symmetry_cell_setting 'orthorhombic'
loop_
_space_group_symop_operation_xyz
x,y,z
1/2-x,-y,1/2+z
1/2+x,1/2-y,1/2-z
-x,1/2+y,-z
-x,-y,-z
1/2+x,y,1/2-z
1/2-x,1/2+y,1/2+z
x,1/2-y,z
loop_
_atom_site_type_symbol
_atom_site_label
_atom_site_fract_x
_atom_site_fract_y
_atom_site_fract_z
Si Si1 0.017011 0.031961 0.302974
Si Si2 0.401346 0.535111 0.676036
Si Si3 0.440973 0.537235 0.946622
Si Si4 0.246158 0.042177 0.627686
Si Si5 0.363565 0.455941 0.236833
Si Si6 0.285550 0.532147 0.982208
Si Si7 0.670822 0.532502 0.621608
Si Si8 0.518381 0.537685 0.574444
O O1 0.015899 0.250000 0.304451
O O2 0.939538 0.969153 0.281935
O O3 0.072557 0.979538 0.247562
O O4 0.037039 0.970628 0.375193
O O5 0.401835 0.750000 0.675367
O O6 0.323917 0.479850 0.655692
O O7 0.458503 0.470544 0.623335
O O8 0.435149 0.750000 0.941209
O O9 0.364795 0.472713 0.969045
O O10 0.500000 0.500000 0.000000
O O11 0.229444 0.250000 0.625131
O O12 0.240000 0.973483 0.553734
O O13 0.189440 0.962936 0.676841
O O14 0.378212 0.250000 0.252121
O O15 0.328826 0.527736 0.303114
O O16 0.284528 0.750000 0.982110
O O17 0.233543 0.472690 0.924891
O O18 0.673963 0.750000 0.620134
O O19 0.595856 0.474848 0.592869
O O20 0.500000 0.500000 0.500000
O O21 0.520061 0.750000 0.582987
#
# Coordination Sequence:
#
# PCOD9462975 Si02
#       8
#     8   8   8   8   8   8   8   8
#     4   9  18  34  58  87 110 135 184 239 274 319
#     4  10  20  36  57  84 111 144 190 232 269 324
#     4  10  20  35  57  81 108 142 182 227 276 324
#     4  11  23  37  53  79 115 147 183 229 281 338
#     4  10  19  35  60  84 107 141 185 231 280 329
#     4   9  19  34  53  78 107 145 186 219 265 333
#     4   9  17  32  55  81 106 140 184 225 264 322
#     4  10  19  33  55  82 113 144 181 224 271 327
#
# _framework density 21.726136
#
# number of rings (size 3 to 8) (size 9 to 14) (size 15 to 20)
#    0.000    2.250    1.250    1.875    1.750    1.500 
#    0.000    2.500    0.000    2.250    0.000    0.000 
#    0.000    0.000    0.000    0.000    0.000    0.000 
#
# Total GULP energy -357610.715077 kJ/mol
# GULP energy per Si atom -5587.667423 kJ/mol
# Density = 2.167669 g / cm^3
# Si number density = 21.726136 Si / 1000 Ang^3
#
#
#
# Elastic Constant Matrix: (Units=GPa)
#
#
# Indices 1 2 3 4 5 6 
#
# 1 166.3563 -5.0350 99.6854 0.0000 0.0000 0.0000
# 2 -5.0350 49.5937 -0.7180 0.0000 0.0000 0.0000
# 3 99.6854 -0.7180 214.0823 0.0000 0.0000 0.0000
# 4 0.0000 0.0000 0.0000 8.0011 0.0000 0.0000
# 5 0.0000 0.0000 0.0000 0.0000 42.8432 0.0000
# 6 0.0000 0.0000 0.0000 0.0000 0.0000 -0.8322
#
#
#
# Elastic Compliance Matrix: (Units=1/GPa)
#
#
# Indices 1 2 3 4 5 6 
#
# 1 0.008369 0.000793 -0.003894 0.000000 0.000000 0.000000
# 2 0.000793 0.020240 -0.000301 0.000000 0.000000 0.000000
# 3 -0.003894 -0.000301 0.006483 0.000000 0.000000 0.000000
# 4 0.000000 0.000000 0.000000 0.124983 0.000000 0.000000
# 5 0.000000 0.000000 0.000000 0.000000 0.023341 0.000000
# 6 0.000000 0.000000 0.000000 0.000000 0.000000 -1.201626
#
#
# Mechanical properties :
#
#
# Convention : Reuss Voigt Hill
#
# Bulk Modulus (GPa) = 35.35153 68.65523 52.00338
# Shear Modulus (GPa) = -4.99014 32.40908 13.70947
#
# Velocity S-wave (km/s) = -1.51718 3.86646 2.51472
# Velocity P-wave (km/s) = 3.63836 7.18342 5.69382
#
# Compressibility (1/GPa) = 0.02828732
#
# Stress axis : x y z
#
# Youngs Moduli (GPa) = 119.49313 49.40705 154.24104
#
# Poissons Ratio (x) = -0.03919 0.60064
# Poissons Ratio (y) = -0.09479 0.04650
# Poissons Ratio (z) = 0.46532 0.01490
#
# Static dielectric constant tensor:
#      x y z
#    x 1.735750 0.000000 0.000000 
#    y 0.000000 1.903710 0.000000 
#    z 0.000000 0.000000 1.782550 
# 
# From -- ./inp_files/27771.got.cif
#   From: 2010.05.17/outbox.cif.g08.bks.cpg/sg62_14_cif.got.tgz:27771.got - 2010.06.03 15:25:27.
