data_PCOD9462953
_publ_section_title
;
Structure prediction by ZEFSAII (Michael W. Deem and Ramdas Pophale) SiO2 
 PCOD9462953
Probable space group: P N M A
;
_chemical_formula_sum "Si O2"
_cell_formula_units_Z 40
_cell_length_a 13.871851
_cell_length_b 12.726471
_cell_length_c 12.604814
_cell_angle_alpha 90.000000
_cell_angle_beta 90.000000
_cell_angle_gamma 90.000000
_cell_volume 2225.250201
_symmetry_space_group_name_H-M "P N M A"
_symmetry_group_IT_number 62
_symmetry_cell_setting 'orthorhombic'
loop_
_space_group_symop_operation_xyz
x,y,z
1/2-x,-y,1/2+z
1/2+x,1/2-y,1/2-z
-x,1/2+y,-z
-x,-y,-z
1/2+x,y,1/2-z
1/2-x,1/2+y,1/2+z
x,1/2-y,z
loop_
_atom_site_type_symbol
_atom_site_label
_atom_site_fract_x
_atom_site_fract_y
_atom_site_fract_z
Si Si1 0.101412 0.544950 0.041047
Si Si2 0.492941 0.630675 0.267924
Si Si3 0.154037 0.628117 0.392522
Si Si4 0.246214 0.630184 0.611486
Si Si5 0.179178 0.971095 0.822319
O O1 0.072414 0.619746 0.137882
O O2 0.168487 0.451129 0.084848
O O3 0.153462 0.584744 0.934047
O O4 0.000000 0.500000 0.000000
O O5 0.455293 0.750000 0.268049
O O6 0.549903 0.609490 0.158812
O O7 0.409603 0.546768 0.289604
O O8 0.178859 0.750000 0.367061
O O9 0.166279 0.617084 0.518995
O O10 0.230533 0.548022 0.342878
O O11 0.281727 0.750000 0.605360
O O12 0.203612 0.605093 0.726117
#
# Coordination Sequence:
#
# PCOD9462953 Si02
#       5
#     8   8   8   8   8
#     4   9  19  34  54  82 107 141 183 229 271 320
#     4  10  19  33  55  80 105 137 180 227 273 321
#     4   9  18  33  53  76 105 140 178 221 273 322
#     4  10  20  35  54  77 110 148 179 219 275 328
#     4  10  19  33  55  79 108 141 183 224 271 324
#
# _framework density 17.975505999999999
#
# number of rings (size 3 to 8) (size 9 to 14) (size 15 to 20)
#    0.000    2.400    2.000    0.600    0.000    6.400 
#    0.000    3.000    0.000    0.000    0.000    0.000 
#    0.000    0.000    0.000    0.000    0.000    0.000 
#
# Total GULP energy -222831.226035 kJ/mol
# GULP energy per Si atom -5570.780651 kJ/mol
# Density = 1.793459 g / cm^3
# Si number density = 17.975506 Si / 1000 Ang^3
#
#
#
# Elastic Constant Matrix: (Units=GPa)
#
#
# Indices 1 2 3 4 5 6 
#
# 1 27.9847 1.6520 7.4001 0.0000 0.0000 0.0000
# 2 1.6520 24.7565 9.4276 0.0000 0.0000 0.0000
# 3 7.4001 9.4276 82.4236 0.0000 0.0000 0.0000
# 4 0.0000 0.0000 0.0000 25.3116 0.0000 0.0000
# 5 0.0000 0.0000 0.0000 0.0000 23.8457 0.0000
# 6 0.0000 0.0000 0.0000 0.0000 0.0000 15.1949
#
#
#
# Elastic Compliance Matrix: (Units=1/GPa)
#
#
# Indices 1 2 3 4 5 6 
#
# 1 0.036640 -0.001247 -0.003147 0.000000 0.000000 0.000000
# 2 -0.001247 0.042275 -0.004724 0.000000 0.000000 0.000000
# 3 -0.003147 -0.004724 0.012955 0.000000 0.000000 0.000000
# 4 0.000000 0.000000 0.000000 0.039508 0.000000 0.000000
# 5 0.000000 0.000000 0.000000 0.000000 0.041936 0.000000
# 6 0.000000 0.000000 0.000000 0.000000 0.000000 0.065812
#
#
# Mechanical properties :
#
#
# Convention : Reuss Voigt Hill
#
# Bulk Modulus (GPa) = 13.58030 19.12493 16.35262
# Shear Modulus (GPa) = 17.73646 20.64944 19.19295
#
# Velocity S-wave (km/s) = 3.14459 3.39300 3.27116
# Velocity P-wave (km/s) = 4.55586 5.10025 4.83572
#
# Compressibility (1/GPa) = 0.07363605
#
# Stress axis : x y z
#
# Youngs Moduli (GPa) = 27.29292 23.65443 77.18871
#
# Poissons Ratio (x) = 0.02949 0.24291
# Poissons Ratio (y) = 0.03402 0.36460
# Poissons Ratio (z) = 0.08589 0.11173
#
# Static dielectric constant tensor:
#      x y z
#    x 1.599240 0.000000 0.000000 
#    y 0.000000 1.590680 0.000000 
#    z 0.000000 0.000000 1.653080 
# 
# From -- ./inp_files/12039.got.cif
#   From: 2010.05.17/outbox.cif.g08.bks.cpg/sg62_7_cif.got.tgz:12039.got - 2010.06.03 15:25:27.
