data_PCOD9462435
_publ_section_title
;
Structure prediction by ZEFSAII (Michael W. Deem and Ramdas Pophale) SiO2 
 PCOD9462435
Probable space group: P N M A
;
_chemical_formula_sum "Si O2"
_cell_formula_units_Z 48
_cell_length_a 14.183223
_cell_length_b 8.597668
_cell_length_c 24.545731
_cell_angle_alpha 90.000000
_cell_angle_beta 90.000000
_cell_angle_gamma 90.000000
_cell_volume 2993.171301
_symmetry_space_group_name_H-M "P N M A"
_symmetry_group_IT_number 62
_symmetry_cell_setting 'orthorhombic'
loop_
_space_group_symop_operation_xyz
x,y,z
1/2-x,-y,1/2+z
1/2+x,1/2-y,1/2-z
-x,1/2+y,-z
-x,-y,-z
1/2+x,y,1/2-z
1/2-x,1/2+y,1/2+z
x,1/2-y,z
loop_
_atom_site_type_symbol
_atom_site_label
_atom_site_fract_x
_atom_site_fract_y
_atom_site_fract_z
Si Si1 0.887324 0.438106 0.776033
Si Si2 0.101484 0.061737 0.773288
Si Si3 0.389091 0.061969 0.943009
Si Si4 0.793797 0.065308 0.332153
Si Si5 0.784653 0.061087 0.664859
Si Si6 0.109068 0.435808 0.561508
O O1 0.883139 0.250000 0.779144
O O2 0.810798 0.505663 0.817448
O O3 0.852596 0.482802 0.715201
O O4 0.994846 0.488435 0.784725
O O5 0.102148 0.250000 0.771463
O O6 0.179640 0.011721 0.817587
O O7 0.138383 0.003543 0.714930
O O8 0.384541 0.250000 0.946383
O O9 0.324600 0.007469 0.892876
O O10 0.498484 0.020299 0.931616
O O11 0.362475 0.992524 0.001407
O O12 0.796109 0.250000 0.329179
O O13 0.829890 0.008860 0.390511
O O14 0.784817 0.250000 0.663051
O O15 0.115361 0.250000 0.564670
#
# Coordination Sequence:
#
# PCOD9462435 Si02
#       6
#     8   8   8   8   8   8
#     4   9  17  31  50  70  94 125 159 191 227 277
#     4   9  17  31  51  72  94 124 159 192 231 282
#     4   9  17  30  48  70  95 121 151 191 237 282
#     4  11  21  31  46  70  99 127 156 194 237 278
#     4   8  14  26  46  70  93 118 148 184 230 279
#     4  10  19  31  47  67  93 126 161 193 230 280
#
# _framework density 16.036501999999999
#
# number of rings (size 3 to 8) (size 9 to 14) (size 15 to 20)
#    0.000    2.667    0.000    4.000    0.000    4.000 
#    0.000    3.333    0.000    1.000    0.000    0.000 
#    0.000    0.000    0.000    0.000    0.000    0.000 
#
# Total GULP energy -267608.531828 kJ/mol
# GULP energy per Si atom -5575.177746 kJ/mol
# Density = 1.600000 g / cm^3
# Si number density = 16.036502 Si / 1000 Ang^3
#
#
#
# Elastic Constant Matrix: (Units=GPa)
#
#
# Indices 1 2 3 4 5 6 
#
# 1 136.4737 28.8204 89.1151 0.0000 0.0000 0.0000
# 2 28.8204 19.2248 25.2927 0.0000 0.0000 0.0000
# 3 89.1151 25.2927 137.3847 0.0000 0.0000 0.0000
# 4 0.0000 0.0000 0.0000 24.7688 0.0000 0.0000
# 5 0.0000 0.0000 0.0000 0.0000 23.4140 0.0000
# 6 0.0000 0.0000 0.0000 0.0000 0.0000 10.8756
#
#
#
# Elastic Compliance Matrix: (Units=1/GPa)
#
#
# Indices 1 2 3 4 5 6 
#
# 1 0.014686 -0.012515 -0.007222 0.000000 0.000000 0.000000
# 2 -0.012515 0.079306 -0.006483 0.000000 0.000000 0.000000
# 3 -0.007222 -0.006483 0.013157 0.000000 0.000000 0.000000
# 4 0.000000 0.000000 0.000000 0.040373 0.000000 0.000000
# 5 0.000000 0.000000 0.000000 0.000000 0.042709 0.000000
# 6 0.000000 0.000000 0.000000 0.000000 0.000000 0.091949
#
#
# Mechanical properties :
#
#
# Convention : Reuss Voigt Hill
#
# Bulk Modulus (GPa) = 18.27817 64.39329 41.33573
# Shear Modulus (GPa) = 14.17001 21.80201 17.98601
#
# Velocity S-wave (km/s) = 2.97578 3.69117 3.35261
# Velocity P-wave (km/s) = 4.81971 7.64249 6.38895
#
# Compressibility (1/GPa) = 0.05471007
#
# Stress axis : x y z
#
# Youngs Moduli (GPa) = 68.09021 12.60937 76.00449
#
# Poissons Ratio (x) = 0.15780 0.54893
# Poissons Ratio (y) = 0.85214 0.49271
# Poissons Ratio (z) = 0.49177 0.08174
#
# Static dielectric constant tensor:
#      x y z
#    x 1.538810 0.000000 0.000000 
#    y 0.000000 1.540530 0.000000 
#    z 0.000000 0.000000 1.514080 
# 
# From -- ./inp_files/26847.got.cif
#   From: 2010.05.17/outbox.cif.g08.bks.cpg/sg62_14_cif.got.tgz:26847.got - 2010.06.03 15:25:27.
