data_PCOD9462967
_publ_section_title
;
Structure prediction by ZEFSAII (Michael W. Deem and Ramdas Pophale) SiO2 
 PCOD9462967
Probable space group: P N M A
;
_chemical_formula_sum "Si O2"
_cell_formula_units_Z 64
_cell_length_a 16.955784
_cell_length_b 9.025980
_cell_length_c 21.021158
_cell_angle_alpha 90.000000
_cell_angle_beta 90.000000
_cell_angle_gamma 90.000000
_cell_volume 3217.131987
_symmetry_space_group_name_H-M "P N M A"
_symmetry_group_IT_number 62
_symmetry_cell_setting 'orthorhombic'
loop_
_space_group_symop_operation_xyz
x,y,z
1/2-x,-y,1/2+z
1/2+x,1/2-y,1/2-z
-x,1/2+y,-z
-x,-y,-z
1/2+x,y,1/2-z
1/2-x,1/2+y,1/2+z
x,1/2-y,z
loop_
_atom_site_type_symbol
_atom_site_label
_atom_site_fract_x
_atom_site_fract_y
_atom_site_fract_z
Si Si1 0.964369 0.418931 0.884724
Si Si2 0.547802 0.928446 0.845994
Si Si3 0.905801 0.072904 0.201409
Si Si4 0.286870 0.572426 0.385061
Si Si5 0.784737 0.427501 0.383381
Si Si6 0.646679 0.071497 0.479921
Si Si7 0.882987 0.427718 0.647095
Si Si8 0.820186 0.418629 0.784703
O O1 0.991489 0.250000 0.896468
O O2 0.927514 0.492724 0.947392
O O3 0.891816 0.414394 0.834954
O O4 0.030550 0.513076 0.849222
O O5 0.541829 0.750000 0.847828
O O6 0.566755 0.971135 0.772411
O O7 0.624525 0.976151 0.886353
O O8 0.465578 0.997002 0.867935
O O9 0.900902 0.250000 0.199927
O O10 0.824235 0.002967 0.176816
O O11 0.291437 0.750000 0.377517
O O12 0.336477 0.531077 0.447437
O O13 0.194541 0.535613 0.393960
O O14 0.785125 0.250000 0.381823
O O15 0.725055 0.471500 0.439487
O O16 0.746601 0.484839 0.317921
O O17 0.637883 0.250000 0.475186
O O18 0.893764 0.250000 0.646428
O O19 0.856402 0.472149 0.718523
O O20 0.791522 0.250000 0.775113
#
# Coordination Sequence:
#
# PCOD9462967 Si02
#       8
#     8   8   8   8   8   8   8   8
#     4  10  19  33  55  81 109 141 176 219 266 317
#     4  10  21  35  53  81 111 139 173 216 269 324
#     4  11  22  35  54  82 113 141 175 219 272 329
#     4  10  22  38  56  78 106 144 184 223 267 317
#     4   9  18  33  54  77 103 137 176 218 262 311
#     4   9  19  37  57  77 106 144 186 224 263 313
#     4  10  20  35  54  77 107 141 176 217 270 321
#     4   9  17  30  50  77 104 132 169 212 264 316
#
# _framework density 19.893494
#
# number of rings (size 3 to 8) (size 9 to 14) (size 15 to 20)
#    0.000    2.250    1.250    1.500    0.000    3.500 
#    0.000    0.625    0.000    0.000    0.000    0.000 
#    0.000    0.000    0.000    0.000    0.000    0.000 
#
# Total GULP energy -357262.181850 kJ/mol
# GULP energy per Si atom -5582.221591 kJ/mol
# Density = 1.984822 g / cm^3
# Si number density = 19.893494 Si / 1000 Ang^3
#
#
#
# Elastic Constant Matrix: (Units=GPa)
#
#
# Indices 1 2 3 4 5 6 
#
# 1 74.6068 11.6084 -12.5374 0.0000 0.0000 0.0000
# 2 11.6084 14.2062 5.6412 0.0000 0.0000 0.0000
# 3 -12.5374 5.6412 39.8510 0.0000 0.0000 0.0000
# 4 0.0000 0.0000 0.0000 15.2667 0.0000 0.0000
# 5 0.0000 0.0000 0.0000 0.0000 28.4546 0.0000
# 6 0.0000 0.0000 0.0000 0.0000 0.0000 32.2176
#
#
#
# Elastic Compliance Matrix: (Units=1/GPa)
#
#
# Indices 1 2 3 4 5 6 
#
# 1 0.017451 -0.017419 0.007956 0.000000 0.000000 0.000000
# 2 -0.017419 0.091971 -0.018499 0.000000 0.000000 0.000000
# 3 0.007956 -0.018499 0.030215 0.000000 0.000000 0.000000
# 4 0.000000 0.000000 0.000000 0.065502 0.000000 0.000000
# 5 0.000000 0.000000 0.000000 0.000000 0.035144 0.000000
# 6 0.000000 0.000000 0.000000 0.000000 0.000000 0.031039
#
#
# Mechanical properties :
#
#
# Convention : Reuss Voigt Hill
#
# Bulk Modulus (GPa) = 11.94562 15.34315 13.64438
# Shear Modulus (GPa) = 14.07854 23.45122 18.76488
#
# Velocity S-wave (km/s) = 2.66314 3.43715 3.07460
# Velocity P-wave (km/s) = 3.93373 4.84576 4.41337
#
# Compressibility (1/GPa) = 0.08371271
#
# Stress axis : x y z
#
# Youngs Moduli (GPa) = 57.30382 10.87298 33.09604
#
# Poissons Ratio (x) = 0.18940 -0.26331
# Poissons Ratio (y) = 0.99817 0.61225
# Poissons Ratio (z) = -0.45590 0.20114
#
# Static dielectric constant tensor:
#      x y z
#    x 1.732750 0.000000 0.000000 
#    y 0.000000 1.671480 0.000000 
#    z 0.000000 0.000000 1.704920 
# 
# From -- ./inp_files/27731.got.cif
#   From: 2010.05.17/outbox.cif.g08.bks.cpg/sg62_14_cif.got.tgz:27731.got - 2010.06.03 15:25:27.
