data_PCOD9462669
_publ_section_title
;
Structure prediction by ZEFSAII (Michael W. Deem and Ramdas Pophale) SiO2 
 PCOD9462669
Probable space group: P N M A
;
_chemical_formula_sum "Si O2"
_cell_formula_units_Z 52
_cell_length_a 14.141617
_cell_length_b 17.912738
_cell_length_c 7.870227
_cell_angle_alpha 90.000000
_cell_angle_beta 90.000000
_cell_angle_gamma 90.000000
_cell_volume 1993.647184
_symmetry_space_group_name_H-M "P N M A"
_symmetry_group_IT_number 62
_symmetry_cell_setting 'orthorhombic'
loop_
_space_group_symop_operation_xyz
x,y,z
1/2-x,-y,1/2+z
1/2+x,1/2-y,1/2-z
-x,1/2+y,-z
-x,-y,-z
1/2+x,y,1/2-z
1/2-x,1/2+y,1/2+z
x,1/2-y,z
loop_
_atom_site_type_symbol
_atom_site_label
_atom_site_fract_x
_atom_site_fract_y
_atom_site_fract_z
Si Si1 0.456282 0.669212 0.249420
Si Si2 0.279660 0.010584 0.037374
Si Si3 0.099858 0.486886 0.878962
Si Si4 0.844980 0.250000 0.070506
Si Si5 0.862939 0.333355 0.525630
Si Si6 0.837642 0.642646 0.596192
Si Si7 0.510748 0.637281 0.686779
O O1 0.432678 0.750000 0.322342
O O2 0.432234 0.598008 0.361136
O O3 0.563717 0.665553 0.180782
O O4 0.392915 0.663937 0.076732
O O5 0.168189 0.997106 0.035893
O O6 0.296381 0.094964 0.972140
O O7 0.324592 0.946154 0.920963
O O8 0.331229 0.000572 0.216023
O O9 0.021228 0.549560 0.851026
O O10 0.761769 0.314858 0.096859
O O11 0.928559 0.314532 0.056259
O O12 0.819279 0.250000 0.518923
O O13 0.927574 0.342982 0.357827
O O14 0.905180 0.658606 0.756655
#
# Coordination Sequence:
#
# PCOD9462669 Si02
#       7
#     8   8   8   4   8   8   8
#     4   9  17  31  52  77 103 136 180 229 267 308
#     4  10  20  34  53  80 108 141 180 223 268 321
#     4  10  20  34  53  80 108 141 180 223 268 321
#     4  12  18  28  52  82 108 136 168 228 280 318
#     4   9  17  31  52  77 103 136 180 229 267 308
#     4  10  19  32  51  79 111 139 177 227 271 318
#     4  10  19  32  51  79 111 139 177 227 271 318
#
# _framework density 26.082847999999998
#
# number of rings (size 3 to 8) (size 9 to 14) (size 15 to 20)
#    0.000    2.154    3.077    1.385    0.000    4.308 
#    0.000    0.000    0.000    3.692    0.000    0.000 
#    0.000    0.000    0.000    0.000    0.000    0.000 
#
# Total GULP energy -290233.423775 kJ/mol
# GULP energy per Si atom -5581.411996 kJ/mol
# Density = 2.602348 g / cm^3
# Si number density = 26.082848 Si / 1000 Ang^3
#
#
#
# Elastic Constant Matrix: (Units=GPa)
#
#
# Indices 1 2 3 4 5 6 
#
# 1 131.3692 62.7451 27.7019 0.0000 0.0000 0.0000
# 2 62.7451 232.2632 28.3476 0.0000 0.0000 0.0000
# 3 27.7019 28.3476 85.8462 0.0000 0.0000 0.0000
# 4 0.0000 0.0000 0.0000 -378.2359 0.0000 0.0000
# 5 0.0000 0.0000 0.0000 0.0000 30.4369 0.0000
# 6 0.0000 0.0000 0.0000 0.0000 0.0000 46.5381
#
#
#
# Elastic Compliance Matrix: (Units=1/GPa)
#
#
# Indices 1 2 3 4 5 6 
#
# 1 0.009129 -0.002195 -0.002221 0.000000 0.000000 0.000000
# 2 -0.002195 0.005014 -0.000947 0.000000 0.000000 0.000000
# 3 -0.002221 -0.000947 0.012678 0.000000 0.000000 0.000000
# 4 0.000000 0.000000 0.000000 -0.002644 0.000000 0.000000
# 5 0.000000 0.000000 0.000000 0.000000 0.032855 0.000000
# 6 0.000000 0.000000 0.000000 0.000000 0.000000 0.021488
#
#
# Mechanical properties :
#
#
# Convention : Reuss Voigt Hill
#
# Bulk Modulus (GPa) = 62.13354 76.34087 69.23721
# Shear Modulus (GPa) = 52.84759 -38.20659 7.32050
#
# Velocity S-wave (km/s) = 4.50615 -3.83144 1.67712
# Velocity P-wave (km/s) = 7.13773 3.12392 5.50936
#
# Compressibility (1/GPa) = 0.01609437
#
# Stress axis : x y z
#
# Youngs Moduli (GPa) = 109.54232 199.43844 78.87511
#
# Poissons Ratio (x) = 0.43778 0.17518
# Poissons Ratio (y) = 0.24045 0.07473
# Poissons Ratio (z) = 0.24329 0.18895
#
# Static dielectric constant tensor:
#      x y z
#    x 2.021580 0.000000 0.000000 
#    y 0.000000 1.993700 0.000000 
#    z 0.000000 0.000000 2.177360 
# 
# From -- ./inp_files/13516.got.cif
#   From: 2010.05.17/outbox.cif.g08.bks.cpg/sg62_7_cif.got.tgz:13516.got - 2010.06.03 15:25:27.
