data_PCOD9462917
_publ_section_title
;
Structure prediction by ZEFSAII (Michael W. Deem and Ramdas Pophale) SiO2 
 PCOD9462917
Probable space group: P N M A
;
_chemical_formula_sum "Si O2"
_cell_formula_units_Z 64
_cell_length_a 7.368580
_cell_length_b 20.556039
_cell_length_c 20.607364
_cell_angle_alpha 90.000000
_cell_angle_beta 90.000000
_cell_angle_gamma 90.000000
_cell_volume 3121.373064
_symmetry_space_group_name_H-M "P N M A"
_symmetry_group_IT_number 62
_symmetry_cell_setting 'orthorhombic'
loop_
_space_group_symop_operation_xyz
x,y,z
1/2-x,-y,1/2+z
1/2+x,1/2-y,1/2-z
-x,1/2+y,-z
-x,-y,-z
1/2+x,y,1/2-z
1/2-x,1/2+y,1/2+z
x,1/2-y,z
loop_
_atom_site_type_symbol
_atom_site_label
_atom_site_fract_x
_atom_site_fract_y
_atom_site_fract_z
Si Si1 0.247388 0.321517 0.961604
Si Si2 0.237843 0.958119 0.799306
Si Si3 0.268940 0.822149 0.847670
Si Si4 0.682702 0.958840 0.080052
Si Si5 0.667346 0.321213 0.003843
Si Si6 0.176347 0.041590 0.158698
Si Si7 0.263770 0.545495 0.037739
Si Si8 0.845715 0.821432 0.888893
O O1 0.196179 0.250000 0.934658
O O2 0.224239 0.387903 0.921053
O O3 0.465042 0.319065 0.975068
O O4 0.160118 0.328122 0.033170
O O5 0.314532 0.884299 0.803782
O O6 0.234167 0.980967 0.725487
O O7 0.034169 0.953353 0.824455
O O8 0.330561 0.006501 0.850495
O O9 0.319461 0.750000 0.822907
O O10 0.052556 0.820604 0.863069
O O11 0.353111 0.832995 0.919122
O O12 0.480722 0.952802 0.050775
O O13 0.778731 0.006541 0.028175
O O14 0.752008 0.250000 0.996013
O O15 0.782058 0.379157 0.972733
O O16 0.245019 0.113604 0.139196
O O17 0.191091 0.992701 0.099182
O O18 0.764712 0.750000 0.873305
#
# Coordination Sequence:
#
# PCOD9462917 Si02
#       8
#     8   8   8   8   8   8   8   8
#     4   9  17  30  51  78 105 134 168 207 252 302
#     4  11  23  36  52  74 104 140 177 215 258 306
#     4   9  18  32  49  72 103 137 172 209 249 298
#     4  10  19  33  54  79 106 135 170 213 258 304
#     4   9  17  30  51  78 105 134 168 207 252 302
#     4  11  23  36  52  74 104 140 177 215 258 306
#     4  10  19  33  54  79 106 135 170 213 258 304
#     4   9  18  32  49  72 103 137 172 209 249 298
#
# _framework density 20.503796999999999
#
# number of rings (size 3 to 8) (size 9 to 14) (size 15 to 20)
#    0.000    2.250    2.500    0.750    0.000    3.000 
#    0.000    0.000    0.000    0.750    0.000    0.000 
#    0.000    0.000    0.000    0.000    0.000    0.000 
#
# Total GULP energy -357259.427155 kJ/mol
# GULP energy per Si atom -5582.178549 kJ/mol
# Density = 2.045713 g / cm^3
# Si number density = 20.503797 Si / 1000 Ang^3
#
#
#
# Elastic Constant Matrix: (Units=GPa)
#
#
# Indices 1 2 3 4 5 6 
#
# 1 24.3284 17.2480 -2.8989 0.0000 0.0000 0.0000
# 2 17.2480 137.3147 66.1315 0.0000 0.0000 0.0000
# 3 -2.8989 66.1315 94.2395 0.0000 0.0000 0.0000
# 4 0.0000 0.0000 0.0000 20.4105 0.0000 0.0000
# 5 0.0000 0.0000 0.0000 0.0000 21.0083 0.0000
# 6 0.0000 0.0000 0.0000 0.0000 0.0000 9.1469
#
#
#
# Elastic Compliance Matrix: (Units=1/GPa)
#
#
# Indices 1 2 3 4 5 6 
#
# 1 0.049629 -0.010527 0.008914 0.000000 0.000000 0.000000
# 2 -0.010527 0.013233 -0.009610 0.000000 0.000000 0.000000
# 3 0.008914 -0.009610 0.017629 0.000000 0.000000 0.000000
# 4 0.000000 0.000000 0.000000 0.048994 0.000000 0.000000
# 5 0.000000 0.000000 0.000000 0.000000 0.047600 0.000000
# 6 0.000000 0.000000 0.000000 0.000000 0.000000 0.109327
#
#
# Mechanical properties :
#
#
# Convention : Reuss Voigt Hill
#
# Bulk Modulus (GPa) = 17.22785 46.31599 31.77192
# Shear Modulus (GPa) = 15.23425 21.80660 18.52043
#
# Velocity S-wave (km/s) = 2.72875 3.26473 3.00870
# Velocity P-wave (km/s) = 4.28353 6.07037 5.25347
#
# Compressibility (1/GPa) = 0.05804554
#
# Stress axis : x y z
#
# Youngs Moduli (GPa) = 20.14931 75.56866 56.72434
#
# Poissons Ratio (x) = 0.79550 -0.50562
# Poissons Ratio (y) = 0.21211 0.54512
# Poissons Ratio (z) = -0.17961 0.72621
#
# Static dielectric constant tensor:
#      x y z
#    x 1.813860 0.000000 0.000000 
#    y 0.000000 1.803910 0.000000 
#    z 0.000000 0.000000 1.700570 
# 
# From -- ./inp_files/22577.got.cif
#   From: 2010.05.17/outbox.cif.g08.bks.cpg/sg62_12_cif.got.tgz:22577.got - 2010.06.03 15:25:27.
