data_PCOD9462660
_publ_section_title
;
Structure prediction by ZEFSAII (Michael W. Deem and Ramdas Pophale) SiO2 
 PCOD9462660
Probable space group: P N M A
;
_chemical_formula_sum "Si O2"
_cell_formula_units_Z 64
_cell_length_a 9.512152
_cell_length_b 18.468935
_cell_length_c 20.717635
_cell_angle_alpha 90.000000
_cell_angle_beta 90.000000
_cell_angle_gamma 90.000000
_cell_volume 3639.659967
_symmetry_space_group_name_H-M "P N M A"
_symmetry_group_IT_number 62
_symmetry_cell_setting 'orthorhombic'
loop_
_space_group_symop_operation_xyz
x,y,z
1/2-x,-y,1/2+z
1/2+x,1/2-y,1/2-z
-x,1/2+y,-z
-x,-y,-z
1/2+x,y,1/2-z
1/2-x,1/2+y,1/2+z
x,1/2-y,z
loop_
_atom_site_type_symbol
_atom_site_label
_atom_site_fract_x
_atom_site_fract_y
_atom_site_fract_z
Si Si1 0.886474 0.830065 0.908617
Si Si2 0.681361 0.619243 0.588978
Si Si3 0.813058 0.467885 0.554252
Si Si4 0.832363 0.395666 0.317899
Si Si5 0.865261 0.669688 0.063102
Si Si6 0.642136 0.333917 0.207509
Si Si7 0.140997 0.475867 0.587122
Si Si8 0.809267 0.333147 0.940115
O O1 0.934900 0.750000 0.889130
O O2 0.743009 0.848568 0.873457
O O3 0.016998 0.881742 0.892249
O O4 0.865616 0.829746 0.985060
O O5 0.742352 0.538924 0.583978
O O6 0.774532 0.661797 0.640188
O O7 0.691917 0.654821 0.517880
O O8 0.734453 0.396788 0.579271
O O9 0.802064 0.480434 0.476376
O O10 0.976263 0.465447 0.572724
O O11 0.730881 0.382860 0.257143
O O12 0.839422 0.475439 0.349281
O O13 0.986233 0.365473 0.301670
O O14 0.820746 0.750000 0.085140
O O15 0.028271 0.658342 0.081480
O O16 0.636459 0.250000 0.229231
O O17 0.216695 0.398052 0.588592
O O18 0.765697 0.250000 0.926679
#
# Coordination Sequence:
#
# PCOD9462660 Si02
#       8
#     8   8   8   8   8   8   8   8
#     4  10  19  32  51  77 108 145 188 228 272 324
#     4  10  20  34  56  81 115 151 191 231 277 336
#     4  10  19  35  53  83 116 149 188 232 291 347
#     4  12  24  40  54  80 108 152 198 240 277 334
#     4   9  18  31  52  82 114 147 183 220 275 344
#     4  12  24  39  56  76 110 153 196 237 273 321
#     4  10  21  35  55  82 115 149 187 238 292 345
#     4   9  19  34  56  87 118 147 184 229 286 346
#
# _framework density 17.584059
#
# number of rings (size 3 to 8) (size 9 to 14) (size 15 to 20)
#    0.000    1.750    2.500    3.750    1.750    2.000 
#    0.000    0.000    0.000    0.000    0.000    1.750 
#    0.000    0.000    0.000    0.000    0.000    0.000 
#
# Total GULP energy -356985.658984 kJ/mol
# GULP energy per Si atom -5577.900922 kJ/mol
# Density = 1.754404 g / cm^3
# Si number density = 17.584059 Si / 1000 Ang^3
#
#
#
# Elastic Constant Matrix: (Units=GPa)
#
#
# Indices 1 2 3 4 5 6 
#
# 1 76.4302 55.2836 25.8628 0.0000 0.0000 0.0000
# 2 55.2836 147.1331 25.6519 0.0000 0.0000 0.0000
# 3 25.8628 25.6519 41.4281 0.0000 0.0000 0.0000
# 4 0.0000 0.0000 0.0000 17.6966 0.0000 0.0000
# 5 0.0000 0.0000 0.0000 0.0000 22.5761 0.0000
# 6 0.0000 0.0000 0.0000 0.0000 0.0000 31.0427
#
#
#
# Elastic Compliance Matrix: (Units=1/GPa)
#
#
# Indices 1 2 3 4 5 6 
#
# 1 0.020604 -0.006165 -0.009045 0.000000 0.000000 0.000000
# 2 -0.006165 0.009463 -0.002011 0.000000 0.000000 0.000000
# 3 -0.009045 -0.002011 0.031030 0.000000 0.000000 0.000000
# 4 0.000000 0.000000 0.000000 0.056508 0.000000 0.000000
# 5 0.000000 0.000000 0.000000 0.000000 0.044295 0.000000
# 6 0.000000 0.000000 0.000000 0.000000 0.000000 0.032214
#
#
# Mechanical properties :
#
#
# Convention : Reuss Voigt Hill
#
# Bulk Modulus (GPa) = 37.51637 53.17646 45.34641
# Shear Modulus (GPa) = 21.05782 24.80929 22.93356
#
# Velocity S-wave (km/s) = 3.46432 3.76027 3.61532
# Velocity P-wave (km/s) = 6.11423 7.01140 6.57813
#
# Compressibility (1/GPa) = 0.02665503
#
# Stress axis : x y z
#
# Youngs Moduli (GPa) = 48.53510 105.66931 32.22640
#
# Poissons Ratio (x) = 0.65141 0.29150
# Poissons Ratio (y) = 0.29920 0.06482
# Poissons Ratio (z) = 0.43902 0.21253
#
# Static dielectric constant tensor:
#      x y z
#    x 1.594860 0.000000 0.000000 
#    y 0.000000 1.608780 0.000000 
#    z 0.000000 0.000000 1.608150 
# 
# From -- ./inp_files/26179.got.cif
#   From: 2010.05.17/outbox.cif.g08.bks.cpg/sg62_14_cif.got.tgz:26179.got - 2010.06.03 15:25:27.
