data_PCOD9462674
_publ_section_title
;
Structure prediction by ZEFSAII (Michael W. Deem and Ramdas Pophale) SiO2 
 PCOD9462674
Probable space group: P N M A
;
_chemical_formula_sum "Si O2"
_cell_formula_units_Z 64
_cell_length_a 25.172124
_cell_length_b 7.415991
_cell_length_c 15.540898
_cell_angle_alpha 90.000000
_cell_angle_beta 90.000000
_cell_angle_gamma 90.000000
_cell_volume 2901.116483
_symmetry_space_group_name_H-M "P N M A"
_symmetry_group_IT_number 62
_symmetry_cell_setting 'orthorhombic'
loop_
_space_group_symop_operation_xyz
x,y,z
1/2-x,-y,1/2+z
1/2+x,1/2-y,1/2-z
-x,1/2+y,-z
-x,-y,-z
1/2+x,y,1/2-z
1/2-x,1/2+y,1/2+z
x,1/2-y,z
loop_
_atom_site_type_symbol
_atom_site_label
_atom_site_fract_x
_atom_site_fract_y
_atom_site_fract_z
Si Si1 0.563374 0.456751 0.140136
Si Si2 0.842673 0.470316 0.970346
Si Si3 0.751545 0.967308 0.703599
Si Si4 0.609949 0.469714 0.960098
Si Si5 0.225189 0.468848 0.491568
Si Si6 0.141965 0.957153 0.213231
Si Si7 0.133727 0.529423 0.836710
Si Si8 0.545127 0.957706 0.789904
O O1 0.548367 0.250000 0.120296
O O2 0.611622 0.454112 0.207529
O O3 0.511798 0.539811 0.185728
O O4 0.582131 0.532325 0.048721
O O5 0.843179 0.250000 0.968879
O O6 0.869442 0.531401 0.881907
O O7 0.781051 0.528242 0.969733
O O8 0.865598 0.524129 0.062985
O O9 0.751944 0.750000 0.708230
O O10 0.773051 0.020228 0.608948
O O11 0.690049 0.026191 0.706293
O O12 0.794673 0.035431 0.770873
O O13 0.609344 0.250000 0.958718
O O14 0.579449 0.536752 0.876970
O O15 0.671343 0.528673 0.963531
O O16 0.225170 0.250000 0.492985
O O17 0.125059 0.750000 0.215662
O O18 0.134254 0.750000 0.834877
O O19 0.082938 0.464072 0.784013
O O20 0.535295 0.750000 0.763721
#
# Coordination Sequence:
#
# PCOD9462674 Si02
#       8
#     8   8   8   8   8   8   8   8
#     4  10  21  38  54  71 104 143 177 209 255 316
#     4   8  16  30  49  74 104 136 168 205 251 311
#     4   9  16  31  53  73 101 138 169 199 249 318
#     4  10  19  32  52  75 102 142 174 201 253 319
#     4   8  14  28  49  71  98 135 170 192 235 315
#     4  11  21  31  51  80 104 129 171 221 257 291
#     4   8  16  33  55  76 102 137 173 209 255 310
#     4  10  21  35  54  79 102 132 178 225 258 293
#
# _framework density 22.060473999999999
#
# number of rings (size 3 to 8) (size 9 to 14) (size 15 to 20)
#    0.000    2.750    1.250    2.250    1.750    1.000 
#    0.000    0.625    0.000    7.500    0.000    0.000 
#    0.000    0.000    0.000    0.000    0.000    0.000 
#
# Total GULP energy -357241.584106 kJ/mol
# GULP energy per Si atom -5581.899752 kJ/mol
# Density = 2.201026 g / cm^3
# Si number density = 22.060474 Si / 1000 Ang^3
#
#
#
# Elastic Constant Matrix: (Units=GPa)
#
#
# Indices 1 2 3 4 5 6 
#
# 1 -8.5692 -5.7773 -5.6907 0.0000 0.0000 0.0000
# 2 -5.7773 70.8385 -11.0790 0.0000 0.0000 0.0000
# 3 -5.6907 -11.0790 86.3263 0.0000 0.0000 0.0000
# 4 0.0000 0.0000 0.0000 -11.4206 0.0000 0.0000
# 5 0.0000 0.0000 0.0000 0.0000 13.0787 0.0000
# 6 0.0000 0.0000 0.0000 0.0000 0.0000 6.3605
#
#
#
# Elastic Compliance Matrix: (Units=1/GPa)
#
#
# Indices 1 2 3 4 5 6 
#
# 1 -0.104663 -0.009812 -0.008159 0.000000 0.000000 0.000000
# 2 -0.009812 0.013486 0.001084 0.000000 0.000000 0.000000
# 3 -0.008159 0.001084 0.011185 0.000000 0.000000 0.000000
# 4 0.000000 0.000000 0.000000 -0.087561 0.000000 0.000000
# 5 0.000000 0.000000 0.000000 0.000000 0.076460 0.000000
# 6 0.000000 0.000000 0.000000 0.000000 0.000000 0.157220
#
#
# Mechanical properties :
#
#
# Convention : Reuss Voigt Hill
#
# Bulk Modulus (GPa) = -8.78999 11.50018 1.35509
# Shear Modulus (GPa) = 80.67276 13.01323 46.84299
#
# Velocity S-wave (km/s) = 6.05378 2.43140 4.61302
# Velocity P-wave (km/s) = 6.69860 3.62030 5.38414
#
# Compressibility (1/GPa) = -0.11376573
#
# Stress axis : x y z
#
# Youngs Moduli (GPa) = -9.55445 74.15146 89.40362
#
# Poissons Ratio (x) = 0.72757 0.72942
# Poissons Ratio (y) = -0.09375 -0.09691
# Poissons Ratio (z) = -0.07795 -0.08038
#
# Static dielectric constant tensor:
#      x y z
#    x 1.792820 0.000000 0.000000 
#    y 0.000000 1.839590 0.000000 
#    z 0.000000 0.000000 1.787040 
# 
# From -- ./inp_files/20985.got.cif
#   From: 2010.05.17/outbox.cif.g08.bks.cpg/sg62_11_cif.got.tgz:20985.got - 2010.06.03 15:25:27.
