data_PCOD9462189
_publ_section_title
;
Structure prediction by ZEFSAII (Michael W. Deem and Ramdas Pophale) SiO2 
 PCOD9462189
Probable space group: P N M A
;
_chemical_formula_sum "Si O2"
_cell_formula_units_Z 44
_cell_length_a 8.821715
_cell_length_b 14.955873
_cell_length_c 17.411266
_cell_angle_alpha 90.000000
_cell_angle_beta 90.000000
_cell_angle_gamma 90.000000
_cell_volume 2297.180612
_symmetry_space_group_name_H-M "P N M A"
_symmetry_group_IT_number 62
_symmetry_cell_setting 'orthorhombic'
loop_
_space_group_symop_operation_xyz
x,y,z
1/2-x,-y,1/2+z
1/2+x,1/2-y,1/2-z
-x,1/2+y,-z
-x,-y,-z
1/2+x,y,1/2-z
1/2-x,1/2+y,1/2+z
x,1/2-y,z
loop_
_atom_site_type_symbol
_atom_site_label
_atom_site_fract_x
_atom_site_fract_y
_atom_site_fract_z
Si Si1 0.569828 0.554451 0.426432
Si Si2 0.098644 0.750000 0.472552
Si Si3 0.970907 0.593043 0.802952
Si Si4 0.818195 0.750000 0.891017
Si Si5 0.563014 0.250000 0.553714
Si Si6 0.893168 0.584366 0.489673
Si Si7 0.311222 0.854268 0.840367
O O1 0.500000 0.500000 0.500000
O O2 0.533536 0.498109 0.350656
O O3 0.508548 0.655883 0.422317
O O4 0.749406 0.559991 0.438585
O O5 0.257532 0.750000 0.427581
O O6 0.996940 0.664099 0.458504
O O7 0.160867 0.750000 0.561648
O O8 0.851375 0.662204 0.841933
O O9 0.920844 0.589065 0.714870
O O10 0.138407 0.632610 0.813444
O O11 0.940775 0.750000 0.960389
O O12 0.828338 0.615922 0.571949
O O13 0.000000 0.500000 0.500000
O O14 0.351397 0.750000 0.832986
#
# Coordination Sequence:
#
# PCOD9462189 Si02
#       7
#     8   4   8   4   4   8   8
#     4  12  22  41  65  93 130 174 222 265 325 392
#     4  10  23  36  62  95 129 159 214 274 321 369
#     4  12  25  39  63  95 137 172 209 266 332 397
#     4  10  18  35  61  91 132 166 203 264 332 378
#     4  10  21  37  65  90 125 167 223 268 317 381
#     4  12  24  39  63  96 133 167 214 269 320 388
#     4  12  25  40  64  97 134 172 212 263 332 390
#
# _framework density 19.153912999999999
#
# number of rings (size 3 to 8) (size 9 to 14) (size 15 to 20)
#    0.545    0.000    6.364    2.727    5.091    0.000 
#    0.000    0.000    0.000    2.182    0.000    0.000 
#    0.000    0.000    0.000    0.000    0.000    0.000 
#
# Total GULP energy -245876.193425 kJ/mol
# GULP energy per Si atom -5588.095305 kJ/mol
# Density = 1.911032 g / cm^3
# Si number density = 19.153913 Si / 1000 Ang^3
#
#
#
# Elastic Constant Matrix: (Units=GPa)
#
#
# Indices 1 2 3 4 5 6 
#
# 1 111.6651 33.9721 -11.5083 0.0000 0.0000 0.0000
# 2 33.9721 134.3565 1.7209 0.0000 0.0000 0.0000
# 3 -11.5083 1.7209 38.1951 0.0000 0.0000 0.0000
# 4 0.0000 0.0000 0.0000 30.4348 0.0000 0.0000
# 5 0.0000 0.0000 0.0000 0.0000 25.0015 0.0000
# 6 0.0000 0.0000 0.0000 0.0000 0.0000 36.0900
#
#
#
# Elastic Compliance Matrix: (Units=1/GPa)
#
#
# Indices 1 2 3 4 5 6 
#
# 1 0.010067 -0.002586 0.003150 0.000000 0.000000 0.000000
# 2 -0.002586 0.008111 -0.001145 0.000000 0.000000 0.000000
# 3 0.003150 -0.001145 0.027182 0.000000 0.000000 0.000000
# 4 0.000000 0.000000 0.000000 0.032857 0.000000 0.000000
# 5 0.000000 0.000000 0.000000 0.000000 0.039998 0.000000
# 6 0.000000 0.000000 0.000000 0.000000 0.000000 0.027708
#
#
# Mechanical properties :
#
#
# Convention : Reuss Voigt Hill
#
# Bulk Modulus (GPa) = 22.62514 36.95401 29.78958
# Shear Modulus (GPa) = 30.89906 35.64073 33.26989
#
# Velocity S-wave (km/s) = 4.02082 4.31833 4.17223
# Velocity P-wave (km/s) = 5.77875 6.64823 6.22868
#
# Compressibility (1/GPa) = 0.04419862
#
# Stress axis : x y z
#
# Youngs Moduli (GPa) = 99.33842 123.28425 36.78915
#
# Poissons Ratio (x) = 0.31877 -0.11587
# Poissons Ratio (y) = 0.25686 0.04211
# Poissons Ratio (z) = -0.31288 0.14110
#
# Static dielectric constant tensor:
#      x y z
#    x 1.672690 0.000000 0.000000 
#    y 0.000000 1.640810 0.000000 
#    z 0.000000 0.000000 1.690010 
# 
# From -- ./inp_files/22155.got.cif
#   From: 2010.05.17/outbox.cif.g08.bks.cpg/sg62_12_cif.got.tgz:22155.got - 2010.06.03 15:25:27.
