data_PCOD9462992
_publ_section_title
;
Structure prediction by ZEFSAII (Michael W. Deem and Ramdas Pophale) SiO2 
 PCOD9462992
Probable space group: P N M A
;
_chemical_formula_sum "Si O2"
_cell_formula_units_Z 48
_cell_length_a 10.502046
_cell_length_b 24.530973
_cell_length_c 9.170062
_cell_angle_alpha 90.000000
_cell_angle_beta 90.000000
_cell_angle_gamma 90.000000
_cell_volume 2362.440954
_symmetry_space_group_name_H-M "P N M A"
_symmetry_group_IT_number 62
_symmetry_cell_setting 'orthorhombic'
loop_
_space_group_symop_operation_xyz
x,y,z
1/2-x,-y,1/2+z
1/2+x,1/2-y,1/2-z
-x,1/2+y,-z
-x,-y,-z
1/2+x,y,1/2-z
1/2-x,1/2+y,1/2+z
x,1/2-y,z
loop_
_atom_site_type_symbol
_atom_site_label
_atom_site_fract_x
_atom_site_fract_y
_atom_site_fract_z
Si Si1 0.668960 0.608829 0.357635
Si Si2 0.426265 0.078799 0.933047
Si Si3 0.971357 0.447115 0.088368
Si Si4 0.291491 0.313968 0.384516
Si Si5 0.462902 0.863385 0.787712
Si Si6 0.157300 0.497992 0.657962
O O1 0.633252 0.617075 0.190636
O O2 0.548632 0.595780 0.458997
O O3 0.728439 0.655822 0.458233
O O4 0.743453 0.551065 0.350948
O O5 0.523758 0.035516 0.859189
O O6 0.496123 0.115407 0.053389
O O7 0.331218 0.039930 0.023773
O O8 0.855517 0.465218 0.196437
O O9 0.068454 0.418913 0.198696
O O10 0.000000 0.500000 0.000000
O O11 0.309778 0.250000 0.405290
O O12 0.413466 0.337507 0.293711
O O13 0.161252 0.326434 0.297363
#
# Coordination Sequence:
#
# PCOD9462992 Si02
#       6
#     8   8   8   8   8   8
#     4  11  21  35  60  85 121 166 202 256 302 368
#     4  10  20  36  56  90 126 160 198 243 307 384
#     4  10  20  32  56  92 126 162 201 237 302 381
#     4  11  24  45  67  88 117 161 220 272 319 365
#     4  10  23  42  66  93 125 165 206 262 320 380
#     4  10  19  33  55  85 128 162 199 232 308 371
#
# _framework density 20.317969000000002
#
# number of rings (size 3 to 8) (size 9 to 14) (size 15 to 20)
#    0.000    1.667    3.333    1.500    0.000    5.333 
#    0.000    1.667    0.000    0.000    0.000    0.000 
#    0.000    0.000    0.000    0.000    0.000    0.000 
#
# Total GULP energy -267367.839834 kJ/mol
# GULP energy per Si atom -5570.163330 kJ/mol
# Density = 2.027172 g / cm^3
# Si number density = 20.317969 Si / 1000 Ang^3
#
#
#
# Elastic Constant Matrix: (Units=GPa)
#
#
# Indices 1 2 3 4 5 6 
#
# 1 57.5428 15.4006 30.7994 0.0000 0.0000 0.0000
# 2 15.4006 83.2647 33.9781 0.0000 0.0000 0.0000
# 3 30.7994 33.9781 135.4807 0.0000 0.0000 0.0000
# 4 0.0000 0.0000 0.0000 21.1818 0.0000 0.0000
# 5 0.0000 0.0000 0.0000 0.0000 15.1139 0.0000
# 6 0.0000 0.0000 0.0000 0.0000 0.0000 25.5343
#
#
#
# Elastic Compliance Matrix: (Units=1/GPa)
#
#
# Indices 1 2 3 4 5 6 
#
# 1 0.020099 -0.002064 -0.004052 0.000000 0.000000 0.000000
# 2 -0.002064 0.013591 -0.002939 0.000000 0.000000 0.000000
# 3 -0.004052 -0.002939 0.009039 0.000000 0.000000 0.000000
# 4 0.000000 0.000000 0.000000 0.047210 0.000000 0.000000
# 5 0.000000 0.000000 0.000000 0.000000 0.066164 0.000000
# 6 0.000000 0.000000 0.000000 0.000000 0.000000 0.039163
#
#
# Mechanical properties :
#
#
# Convention : Reuss Voigt Hill
#
# Bulk Modulus (GPa) = 40.61800 48.51605 44.56703
# Shear Modulus (GPa) = 22.56479 25.44002 24.00241
#
# Velocity S-wave (km/s) = 3.33616 3.54233 3.44079
# Velocity P-wave (km/s) = 5.90546 6.37660 6.14555
#
# Compressibility (1/GPa) = 0.02461963
#
# Stress axis : x y z
#
# Youngs Moduli (GPa) = 49.75267 73.57722 110.62719
#
# Poissons Ratio (x) = 0.15188 0.44822
# Poissons Ratio (y) = 0.10270 0.32517
# Poissons Ratio (z) = 0.20158 0.21627
#
# Static dielectric constant tensor:
#      x y z
#    x 1.903100 0.000000 0.000000 
#    y 0.000000 1.738870 0.000000 
#    z 0.000000 0.000000 1.747040 
# 
# From -- ./inp_files/5302.got.cif
#   From: 2010.05.17/outbox.cif.g08.bks.cpg/sg62_3_cif.got.tgz:5302.got - 2010.06.03 15:25:27.
