data_PCOD9462066
_publ_section_title
;
Structure prediction by ZEFSAII (Michael W. Deem and Ramdas Pophale) SiO2 
 PCOD9462066
Probable space group: P N M A
;
_chemical_formula_sum "Si O2"
_cell_formula_units_Z 64
_cell_length_a 20.452361
_cell_length_b 18.799042
_cell_length_c 7.150390
_cell_angle_alpha 90.000000
_cell_angle_beta 90.000000
_cell_angle_gamma 90.000000
_cell_volume 2749.216222
_symmetry_space_group_name_H-M "P N M A"
_symmetry_group_IT_number 62
_symmetry_cell_setting 'orthorhombic'
loop_
_space_group_symop_operation_xyz
x,y,z
1/2-x,-y,1/2+z
1/2+x,1/2-y,1/2-z
-x,1/2+y,-z
-x,-y,-z
1/2+x,y,1/2-z
1/2-x,1/2+y,1/2+z
x,1/2-y,z
loop_
_atom_site_type_symbol
_atom_site_label
_atom_site_fract_x
_atom_site_fract_y
_atom_site_fract_z
Si Si1 0.802184 0.435826 0.514422
Si Si2 0.946567 0.063671 0.512685
Si Si3 0.157361 0.071147 0.969337
Si Si4 0.919853 0.074827 0.955278
Si Si5 0.305309 0.332698 0.627700
Si Si6 0.958452 0.667734 0.023980
Si Si7 0.949709 0.830269 0.478918
Si Si8 0.819012 0.907628 0.475343
O O1 0.874536 0.435733 0.418854
O O2 0.728900 0.426408 0.434798
O O3 0.805030 0.378010 0.679941
O O4 0.801064 0.518676 0.572675
O O5 0.932093 0.066264 0.733373
O O6 0.984347 0.134065 0.451737
O O7 0.000000 0.000000 0.500000
O O8 0.112314 0.137123 0.030165
O O9 0.172373 0.076758 0.747313
O O10 0.113884 0.999679 0.990195
O O11 0.866677 0.136524 0.983053
O O12 0.987818 0.107640 0.030360
O O13 0.310823 0.250000 0.666314
O O14 0.239324 0.351525 0.517670
O O15 0.971077 0.750000 0.968325
O O16 0.955473 0.668535 0.252173
O O17 0.940658 0.750000 0.538414
O O18 0.888115 0.877276 0.536842
#
# Coordination Sequence:
#
# PCOD9462066 Si02
#       8
#     8   8   8   8   8   8   8   8
#     4  10  20  33  52  80 108 144 181 224 273 337
#     4  10  19  32  52  76 108 144 178 230 279 325
#     4  10  20  33  53  81 108 143 183 226 272 337
#     4  10  19  33  54  83 108 142 187 233 279 333
#     4  10  20  33  55  84 111 142 188 238 278 320
#     4   9  18  32  51  77 107 138 177 228 280 324
#     4   9  17  30  51  78 106 136 181 230 279 322
#     4  10  18  33  54  80 112 146 180 227 284 334
#
# _framework density 23.279361000000002
#
# number of rings (size 3 to 8) (size 9 to 14) (size 15 to 20)
#    0.000    2.250    2.500    1.125    0.000    6.000 
#    0.000    0.000    0.000    2.250    0.000    0.000 
#    0.000    0.000    0.000    0.000    0.000    0.000 
#
# Total GULP energy -357104.033615 kJ/mol
# GULP energy per Si atom -5579.750525 kJ/mol
# Density = 2.322638 g / cm^3
# Si number density = 23.279361 Si / 1000 Ang^3
#
#
#
# Elastic Constant Matrix: (Units=GPa)
#
#
# Indices 1 2 3 4 5 6 
#
# 1 181.3964 18.1908 -7.8849 0.0000 0.0000 0.0000
# 2 18.1908 74.4520 -15.9124 0.0000 0.0000 0.0000
# 3 -7.8849 -15.9124 65.7861 0.0000 0.0000 0.0000
# 4 0.0000 0.0000 0.0000 20.7402 0.0000 0.0000
# 5 0.0000 0.0000 0.0000 0.0000 -1.3349 0.0000
# 6 0.0000 0.0000 0.0000 0.0000 0.0000 29.4483
#
#
#
# Elastic Compliance Matrix: (Units=1/GPa)
#
#
# Indices 1 2 3 4 5 6 
#
# 1 0.005659 -0.001305 0.000363 0.000000 0.000000 0.000000
# 2 -0.001305 0.014465 0.003342 0.000000 0.000000 0.000000
# 3 0.000363 0.003342 0.016053 0.000000 0.000000 0.000000
# 4 0.000000 0.000000 0.000000 0.048216 0.000000 0.000000
# 5 0.000000 0.000000 0.000000 0.000000 -0.749127 0.000000
# 6 0.000000 0.000000 0.000000 0.000000 0.000000 0.033958
#
#
# Mechanical properties :
#
#
# Convention : Reuss Voigt Hill
#
# Bulk Modulus (GPa) = 24.40445 34.49128 29.44786
# Shear Modulus (GPa) = -8.03966 31.58678 11.77356
#
# Velocity S-wave (km/s) = -1.86039 3.68755 2.25133
# Velocity P-wave (km/s) = 2.42720 5.74275 4.40854
#
# Compressibility (1/GPa) = 0.04097614
#
# Stress axis : x y z
#
# Youngs Moduli (GPa) = 176.69577 69.13365 62.29486
#
# Poissons Ratio (x) = 0.09024 -0.02259
# Poissons Ratio (y) = 0.23064 -0.20821
# Poissons Ratio (z) = -0.06407 -0.23107
#
# Static dielectric constant tensor:
#      x y z
#    x 1.987480 0.000000 0.000000 
#    y 0.000000 1.819760 0.000000 
#    z 0.000000 0.000000 1.964250 
# 
# From -- ./inp_files/8879.got.cif
#   From: 2010.05.17/outbox.cif.g08.bks.cpg/sg62_5_cif.got.tgz:8879.got - 2010.06.03 15:25:27.
