data_PCOD9462693
_publ_section_title
;
Structure prediction by ZEFSAII (Michael W. Deem and Ramdas Pophale) SiO2 
 PCOD9462693
Probable space group: P N M A
;
_chemical_formula_sum "Si O2"
_cell_formula_units_Z 64
_cell_length_a 18.618904
_cell_length_b 9.151932
_cell_length_c 21.791534
_cell_angle_alpha 90.000000
_cell_angle_beta 90.000000
_cell_angle_gamma 90.000000
_cell_volume 3713.254367
_symmetry_space_group_name_H-M "P N M A"
_symmetry_group_IT_number 62
_symmetry_cell_setting 'orthorhombic'
loop_
_space_group_symop_operation_xyz
x,y,z
1/2-x,-y,1/2+z
1/2+x,1/2-y,1/2-z
-x,1/2+y,-z
-x,-y,-z
1/2+x,y,1/2-z
1/2-x,1/2+y,1/2+z
x,1/2-y,z
loop_
_atom_site_type_symbol
_atom_site_label
_atom_site_fract_x
_atom_site_fract_y
_atom_site_fract_z
Si Si1 0.554658 0.924051 0.047312
Si Si2 0.791838 0.921586 0.547858
Si Si3 0.333291 0.919073 0.385283
Si Si4 0.925549 0.918738 0.989565
Si Si5 0.046738 0.422838 0.659342
Si Si6 0.896420 0.418774 0.230138
Si Si7 0.698038 0.579380 0.423138
Si Si8 0.812046 0.081598 0.348480
O O1 0.557924 0.750000 0.035563
O O2 0.520442 0.945629 0.115095
O O3 0.632789 0.995739 0.043668
O O4 0.500000 0.000000 0.000000
O O5 0.802506 0.750000 0.560639
O O6 0.749459 0.933152 0.483142
O O7 0.739507 0.995134 0.597962
O O8 0.318170 0.750000 0.370221
O O9 0.381481 0.922238 0.446676
O O10 0.376755 0.996093 0.330876
O O11 0.936742 0.750000 0.972301
O O12 0.876072 0.001337 0.940344
O O13 0.000000 0.000000 0.000000
O O14 0.058536 0.250000 0.667083
O O15 0.045575 0.501683 0.725647
O O16 0.117545 0.494467 0.627665
O O17 0.915294 0.250000 0.218745
O O18 0.826817 0.420687 0.275476
O O19 0.687433 0.750000 0.410227
O O20 0.740844 0.498040 0.369679
O O21 0.813190 0.250000 0.369161
#
# Coordination Sequence:
#
# PCOD9462693 Si02
#       8
#     8   8   8   8   8   8   8   8
#     4  11  22  33  49  75 110 148 184 223 270 319
#     4  10  21  34  51  77 107 140 178 220 264 315
#     4  10  20  36  59  82 106 139 178 219 267 321
#     4  10  21  36  56  82 109 137 171 217 271 326
#     4   9  18  32  49  72 102 139 180 219 258 309
#     4   9  19  33  54  79 103 136 177 218 262 311
#     4  10  19  32  52  77 105 138 173 214 265 315
#     4   9  18  30  49  76 104 135 174 217 259 308
#
# _framework density 17.235555000000002
#
# number of rings (size 3 to 8) (size 9 to 14) (size 15 to 20)
#    0.750    1.500    0.000    3.375    0.000    8.000 
#    0.000    0.000    2.750    0.000    0.000    0.000 
#    0.000    0.000    0.000    0.000    0.000    0.000 
#
# Total GULP energy -356662.267783 kJ/mol
# GULP energy per Si atom -5572.847934 kJ/mol
# Density = 1.719633 g / cm^3
# Si number density = 17.235555 Si / 1000 Ang^3
#
#
#
# Elastic Constant Matrix: (Units=GPa)
#
#
# Indices 1 2 3 4 5 6 
#
# 1 72.1303 33.2335 -15.7777 0.0000 0.0000 0.0000
# 2 33.2335 126.3367 15.3340 0.0000 0.0000 0.0000
# 3 -15.7777 15.3340 19.7761 0.0000 0.0000 0.0000
# 4 0.0000 0.0000 0.0000 27.7899 0.0000 0.0000
# 5 0.0000 0.0000 0.0000 0.0000 18.1317 0.0000
# 6 0.0000 0.0000 0.0000 0.0000 0.0000 30.7032
#
#
#
# Elastic Compliance Matrix: (Units=1/GPa)
#
#
# Indices 1 2 3 4 5 6 
#
# 1 0.024108 -0.009578 0.026660 0.000000 0.000000 0.000000
# 2 -0.009578 0.012543 -0.017367 0.000000 0.000000 0.000000
# 3 0.026660 -0.017367 0.085302 0.000000 0.000000 0.000000
# 4 0.000000 0.000000 0.000000 0.035984 0.000000 0.000000
# 5 0.000000 0.000000 0.000000 0.000000 0.055152 0.000000
# 6 0.000000 0.000000 0.000000 0.000000 0.000000 0.032570
#
#
# Mechanical properties :
#
#
# Convention : Reuss Voigt Hill
#
# Bulk Modulus (GPa) = 8.23827 31.53586 19.88706
# Shear Modulus (GPa) = 17.44056 27.68852 22.56454
#
# Velocity S-wave (km/s) = 3.18448 4.01244 3.62219
# Velocity P-wave (km/s) = 4.27918 6.30895 5.39047
#
# Compressibility (1/GPa) = 0.12138478
#
# Stress axis : x y z
#
# Youngs Moduli (GPa) = 41.47950 79.72793 11.72310
#
# Poissons Ratio (x) = 0.76361 -0.31254
# Poissons Ratio (y) = 0.39728 0.20359
# Poissons Ratio (z) = -1.10586 1.38460
#
# Static dielectric constant tensor:
#      x y z
#    x 1.560090 0.000000 0.000000 
#    y 0.000000 1.582450 0.000000 
#    z 0.000000 0.000000 1.587100 
# 
# From -- ./inp_files/30039.got.cif
#   From: 2010.05.17/outbox.cif.g08.bks.cpg/sg62_16_cif.got.tgz:30039.got - 2010.06.03 15:25:27.
