data_PCOD9462607
_publ_section_title
;
Structure prediction by ZEFSAII (Michael W. Deem and Ramdas Pophale) SiO2 
 PCOD9462607
Probable space group: P N M A
;
_chemical_formula_sum "Si O2"
_cell_formula_units_Z 64
_cell_length_a 8.472132
_cell_length_b 16.970535
_cell_length_c 20.498311
_cell_angle_alpha 90.000000
_cell_angle_beta 90.000000
_cell_angle_gamma 90.000000
_cell_volume 2947.177720
_symmetry_space_group_name_H-M "P N M A"
_symmetry_group_IT_number 62
_symmetry_cell_setting 'orthorhombic'
loop_
_space_group_symop_operation_xyz
x,y,z
1/2-x,-y,1/2+z
1/2+x,1/2-y,1/2-z
-x,1/2+y,-z
-x,-y,-z
1/2+x,y,1/2-z
1/2-x,1/2+y,1/2+z
x,1/2-y,z
loop_
_atom_site_type_symbol
_atom_site_label
_atom_site_fract_x
_atom_site_fract_y
_atom_site_fract_z
Si Si1 0.730185 0.660902 0.967088
Si Si2 0.803839 0.162392 0.238759
Si Si3 0.756178 0.661539 0.485943
Si Si4 0.424803 0.837162 0.405816
Si Si5 0.554352 0.864262 0.607559
Si Si6 0.973587 0.553394 0.696680
Si Si7 0.132926 0.490038 0.585030
Si Si8 0.958127 0.022531 0.837495
O O1 0.657538 0.750000 0.958436
O O2 0.652819 0.577047 0.947237
O O3 0.893349 0.662983 0.925945
O O4 0.785621 0.652143 0.042109
O O5 0.761530 0.250000 0.258995
O O6 0.933691 0.166343 0.181240
O O7 0.871267 0.109181 0.296690
O O8 0.667351 0.114972 0.202390
O O9 0.820969 0.750000 0.473140
O O10 0.588742 0.656278 0.447241
O O11 0.700662 0.656817 0.561207
O O12 0.857131 0.585621 0.462912
O O13 0.413879 0.750000 0.378935
O O14 0.443844 0.899307 0.349230
O O15 0.540870 0.957680 0.616503
O O16 0.983668 0.500747 0.632612
O O17 0.964536 0.503098 0.762754
O O18 0.280542 0.474373 0.634597
#
# Coordination Sequence:
#
# PCOD9462607 Si02
#       8
#     8   8   8   8   8   8   8   8
#     4   9  16  27  48  79 109 133 165 211 263 316
#     4  11  22  36  53  73 102 136 175 213 252 302
#     4   9  16  29  51  77 103 131 172 216 260 311
#     4   8  14  26  48  78 103 127 166 218 266 306
#     4   9  17  30  51  77 102 135 170 211 256 309
#     4  11  22  37  49  74 101 141 177 210 250 306
#     4  10  19  32  49  73 105 138 169 213 262 303
#     4   9  17  31  49  70 102 136 171 215 256 297
#
# _framework density 21.715691
#
# number of rings (size 3 to 8) (size 9 to 14) (size 15 to 20)
#    0.000    2.500    1.250    3.000    0.000    4.000 
#    0.000    1.250    0.000    0.000    0.000    2.625 
#    0.000    0.000    0.000    0.000    0.000    0.000 
#
# Total GULP energy -357028.192765 kJ/mol
# GULP energy per Si atom -5578.565512 kJ/mol
# Density = 2.166627 g / cm^3
# Si number density = 21.715691 Si / 1000 Ang^3
#
#
#
# Elastic Constant Matrix: (Units=GPa)
#
#
# Indices 1 2 3 4 5 6 
#
# 1 35.9633 4.6116 7.3962 0.0000 0.0000 0.0000
# 2 4.6116 97.6730 32.9355 0.0000 0.0000 0.0000
# 3 7.3962 32.9355 55.1843 0.0000 0.0000 0.0000
# 4 0.0000 0.0000 0.0000 9.0345 0.0000 0.0000
# 5 0.0000 0.0000 0.0000 0.0000 21.1293 0.0000
# 6 0.0000 0.0000 0.0000 0.0000 0.0000 -3.2039
#
#
#
# Elastic Compliance Matrix: (Units=1/GPa)
#
#
# Indices 1 2 3 4 5 6 
#
# 1 0.028595 -0.000072 -0.003789 0.000000 0.000000 0.000000
# 2 -0.000072 0.012818 -0.007640 0.000000 0.000000 0.000000
# 3 -0.003789 -0.007640 0.023189 0.000000 0.000000 0.000000
# 4 0.000000 0.000000 0.000000 0.110687 0.000000 0.000000
# 5 0.000000 0.000000 0.000000 0.000000 0.047328 0.000000
# 6 0.000000 0.000000 0.000000 0.000000 0.000000 -0.312118
#
#
# Mechanical properties :
#
#
# Convention : Reuss Voigt Hill
#
# Bulk Modulus (GPa) = 24.03990 30.96748 27.50369
# Shear Modulus (GPa) = -95.00026 14.98379 -40.00823
#
# Velocity S-wave (km/s) = -6.62135 2.62963 -4.29693
# Velocity P-wave (km/s) = 6.88201 4.84885 3.45331
#
# Compressibility (1/GPa) = 0.04159751
#
# Stress axis : x y z
#
# Youngs Moduli (GPa) = 34.97154 78.01505 43.12384
#
# Poissons Ratio (x) = 0.00564 0.16341
# Poissons Ratio (y) = 0.00253 0.32949
# Poissons Ratio (z) = 0.13252 0.59607
#
# Static dielectric constant tensor:
#      x y z
#    x 1.880240 0.000000 0.000000 
#    y 0.000000 1.831610 0.000000 
#    z 0.000000 0.000000 1.770140 
# 
# From -- ./inp_files/26174.got.cif
#   From: 2010.05.17/outbox.cif.g08.bks.cpg/sg62_14_cif.got.tgz:26174.got - 2010.06.03 15:25:27.
