data_PCOD9462853
_publ_section_title
;
Structure prediction by ZEFSAII (Michael W. Deem and Ramdas Pophale) SiO2 
 PCOD9462853
Probable space group: P N M A
;
_chemical_formula_sum "Si O2"
_cell_formula_units_Z 64
_cell_length_a 19.500257
_cell_length_b 19.772293
_cell_length_c 9.279865
_cell_angle_alpha 90.000000
_cell_angle_beta 90.000000
_cell_angle_gamma 90.000000
_cell_volume 3577.989246
_symmetry_space_group_name_H-M "P N M A"
_symmetry_group_IT_number 62
_symmetry_cell_setting 'orthorhombic'
loop_
_space_group_symop_operation_xyz
x,y,z
1/2-x,-y,1/2+z
1/2+x,1/2-y,1/2-z
-x,1/2+y,-z
-x,-y,-z
1/2+x,y,1/2-z
1/2-x,1/2+y,1/2+z
x,1/2-y,z
loop_
_atom_site_type_symbol
_atom_site_label
_atom_site_fract_x
_atom_site_fract_y
_atom_site_fract_z
Si Si1 0.693514 0.174806 0.977540
Si Si2 0.686738 0.371010 0.413286
Si Si3 0.987607 0.528262 0.660819
Si Si4 0.880711 0.041842 0.156554
Si Si5 0.072284 0.325930 0.287442
Si Si6 0.855558 0.479596 0.825834
Si Si7 0.782074 0.920410 0.223057
Si Si8 0.191906 0.825489 0.785568
O O1 0.694090 0.250000 0.911458
O O2 0.687508 0.116519 0.861792
O O3 0.632037 0.172404 0.091671
O O4 0.763510 0.166544 0.067995
O O5 0.615205 0.337949 0.360857
O O6 0.680798 0.447925 0.354638
O O7 0.700594 0.376710 0.582167
O O8 0.750837 0.335298 0.337586
O O9 0.974351 0.609403 0.675881
O O10 0.919285 0.493180 0.722255
O O11 0.000000 0.500000 0.500000
O O12 0.051317 0.513994 0.767125
O O13 0.863278 0.115675 0.216891
O O14 0.818357 0.992204 0.197567
O O15 0.882437 0.043837 0.982751
O O16 0.042008 0.250000 0.287353
O O17 0.798252 0.432082 0.754570
O O18 0.163470 0.750000 0.779602
#
# Coordination Sequence:
#
# PCOD9462853 Si02
#       8
#     8   8   8   8   8   8   8   8
#     4   9  18  33  55  81 110 146 182 224 279 338
#     4   9  19  31  54  86 110 141 181 233 275 329
#     4  11  24  37  59  83 114 148 200 245 288 330
#     4  11  22  36  57  83 114 149 190 236 288 341
#     4   9  19  38  58  79 114 154 192 230 282 348
#     4  10  21  37  55  82 115 149 185 231 289 345
#     4  11  20  33  61  86 116 141 185 237 289 338
#     4  10  19  33  52  78 113 147 180 223 278 336
#
# _framework density 17.887142000000001
#
# number of rings (size 3 to 8) (size 9 to 14) (size 15 to 20)
#    0.000    2.000    2.500    2.250    1.750    1.500 
#    0.000    0.000    0.000    0.750    0.000    0.000 
#    0.000    0.000    0.000    0.000    0.000    0.000 
#
# Total GULP energy -356887.287021 kJ/mol
# GULP energy per Si atom -5576.363860 kJ/mol
# Density = 1.784643 g / cm^3
# Si number density = 17.887142 Si / 1000 Ang^3
#
#
#
# Elastic Constant Matrix: (Units=GPa)
#
#
# Indices 1 2 3 4 5 6 
#
# 1 68.8693 14.7019 43.6037 0.0000 0.0000 0.0000
# 2 14.7019 65.7944 32.8084 0.0000 0.0000 0.0000
# 3 43.6037 32.8084 101.0899 0.0000 0.0000 0.0000
# 4 0.0000 0.0000 0.0000 18.4091 0.0000 0.0000
# 5 0.0000 0.0000 0.0000 0.0000 22.2380 0.0000
# 6 0.0000 0.0000 0.0000 0.0000 0.0000 16.3268
#
#
#
# Elastic Compliance Matrix: (Units=1/GPa)
#
#
# Indices 1 2 3 4 5 6 
#
# 1 0.019978 -0.000199 -0.008552 0.000000 0.000000 0.000000
# 2 -0.000199 0.018135 -0.005800 0.000000 0.000000 0.000000
# 3 -0.008552 -0.005800 0.015463 0.000000 0.000000 0.000000
# 4 0.000000 0.000000 0.000000 0.054321 0.000000 0.000000
# 5 0.000000 0.000000 0.000000 0.000000 0.044968 0.000000
# 6 0.000000 0.000000 0.000000 0.000000 0.000000 0.061249
#
#
# Mechanical properties :
#
#
# Convention : Reuss Voigt Hill
#
# Bulk Modulus (GPa) = 40.86066 46.44239 43.65153
# Shear Modulus (GPa) = 19.89057 21.03742 20.46399
#
# Velocity S-wave (km/s) = 3.33829 3.43318 3.38607
# Velocity P-wave (km/s) = 6.14427 6.46035 6.30429
#
# Compressibility (1/GPa) = 0.02447342
#
# Stress axis : x y z
#
# Youngs Moduli (GPa) = 50.05596 55.14055 64.66881
#
# Poissons Ratio (x) = 0.01100 0.55307
# Poissons Ratio (y) = 0.00998 0.37506
# Poissons Ratio (z) = 0.42810 0.31980
#
# Static dielectric constant tensor:
#      x y z
#    x 1.599360 0.000000 0.000000 
#    y 0.000000 1.640870 0.000000 
#    z 0.000000 0.000000 1.606650 
# 
# From -- ./inp_files/8867.got.cif
#   From: 2010.05.17/outbox.cif.g08.bks.cpg/sg62_5_cif.got.tgz:8867.got - 2010.06.03 15:25:27.
