data_PCOD9462998
_publ_section_title
;
Structure prediction by ZEFSAII (Michael W. Deem and Ramdas Pophale) SiO2 
 PCOD9462998
Probable space group: P N M A
;
_chemical_formula_sum "Si O2"
_cell_formula_units_Z 48
_cell_length_a 7.373586
_cell_length_b 23.018476
_cell_length_c 14.698262
_cell_angle_alpha 90.000000
_cell_angle_beta 90.000000
_cell_angle_gamma 90.000000
_cell_volume 2494.717083
_symmetry_space_group_name_H-M "P N M A"
_symmetry_group_IT_number 62
_symmetry_cell_setting 'orthorhombic'
loop_
_space_group_symop_operation_xyz
x,y,z
1/2-x,-y,1/2+z
1/2+x,1/2-y,1/2-z
-x,1/2+y,-z
-x,-y,-z
1/2+x,y,1/2-z
1/2-x,1/2+y,1/2+z
x,1/2-y,z
loop_
_atom_site_type_symbol
_atom_site_label
_atom_site_fract_x
_atom_site_fract_y
_atom_site_fract_z
Si Si1 0.442364 0.683051 0.025822
Si Si2 0.144652 0.982937 0.384062
Si Si3 0.878931 0.127143 0.867479
Si Si4 0.751341 0.317083 0.679411
Si Si5 0.110894 0.920041 0.560675
Si Si6 0.261334 0.987057 0.183647
O O1 0.411149 0.750000 0.001009
O O2 0.255466 0.652041 0.055704
O O3 0.575713 0.682136 0.113395
O O4 0.551513 0.645887 0.950328
O O5 0.200806 0.942344 0.466680
O O6 0.254120 0.990542 0.292026
O O7 0.952264 0.958712 0.346554
O O8 0.078398 0.043772 0.427547
O O9 0.795898 0.147726 0.770387
O O10 0.880252 0.057191 0.861188
O O11 0.076726 0.155524 0.869279
O O12 0.710982 0.250000 0.703646
O O13 0.231518 0.948313 0.640646
#
# Coordination Sequence:
#
# PCOD9462998 Si02
#       6
#     8   8   8   8   8   8
#     4  11  21  36  54  74 110 154 186 231 283 329
#     4   9  17  34  55  77 109 142 176 228 285 331
#     4  12  19  32  51  78 111 149 184 221 275 345
#     4  11  22  31  47  78 114 147 188 222 267 346
#     4   9  19  37  54  77 117 142 184 235 282 340
#     4  10  19  33  56  80 108 145 183 229 280 340
#
# _framework density 19.240658
#
# number of rings (size 3 to 8) (size 9 to 14) (size 15 to 20)
#    1.000    0.667    3.333    3.500    0.000    0.000 
#    0.000    5.000    0.000    1.000    0.000    0.000 
#    0.000    0.000    0.000    0.000    0.000    0.000 
#
# Total GULP energy -267494.717823 kJ/mol
# GULP energy per Si atom -5572.806621 kJ/mol
# Density = 1.919687 g / cm^3
# Si number density = 19.240658 Si / 1000 Ang^3
#
#
#
# Elastic Constant Matrix: (Units=GPa)
#
#
# Indices 1 2 3 4 5 6 
#
# 1 46.9898 -1.2595 14.5771 0.0000 0.0000 0.0000
# 2 -1.2595 104.9638 23.3603 0.0000 0.0000 0.0000
# 3 14.5771 23.3603 70.1718 0.0000 0.0000 0.0000
# 4 0.0000 0.0000 0.0000 24.8671 0.0000 0.0000
# 5 0.0000 0.0000 0.0000 0.0000 23.3766 0.0000
# 6 0.0000 0.0000 0.0000 0.0000 0.0000 19.9625
#
#
#
# Elastic Compliance Matrix: (Units=1/GPa)
#
#
# Indices 1 2 3 4 5 6 
#
# 1 0.022948 0.001443 -0.005247 0.000000 0.000000 0.000000
# 2 0.001443 0.010380 -0.003755 0.000000 0.000000 0.000000
# 3 -0.005247 -0.003755 0.016591 0.000000 0.000000 0.000000
# 4 0.000000 0.000000 0.000000 0.040214 0.000000 0.000000
# 5 0.000000 0.000000 0.000000 0.000000 0.042778 0.000000
# 6 0.000000 0.000000 0.000000 0.000000 0.000000 0.050094
#
#
# Mechanical properties :
#
#
# Convention : Reuss Voigt Hill
#
# Bulk Modulus (GPa) = 28.73593 32.83126 30.78359
# Shear Modulus (GPa) = 23.84091 26.00442 24.92267
#
# Velocity S-wave (km/s) = 3.52389 3.68031 3.60295
# Velocity P-wave (km/s) = 5.61467 5.92960 5.77428
#
# Compressibility (1/GPa) = 0.03479963
#
# Stress axis : x y z
#
# Youngs Moduli (GPa) = 43.57721 96.33735 60.27371
#
# Poissons Ratio (x) = -0.13903 0.31629
# Poissons Ratio (y) = -0.06289 0.22635
# Poissons Ratio (z) = 0.22867 0.36178
#
# Static dielectric constant tensor:
#      x y z
#    x 1.740050 0.000000 0.000000 
#    y 0.000000 1.718550 0.000000 
#    z 0.000000 0.000000 1.678350 
# 
# From -- ./inp_files/17278.got.cif
#   From: 2010.05.17/outbox.cif.g08.bks.cpg/sg62_9_cif.got.tgz:17278.got - 2010.06.03 15:25:27.
