data_PCOD9462574
_publ_section_title
;
Structure prediction by ZEFSAII (Michael W. Deem and Ramdas Pophale) SiO2 
 PCOD9462574
Probable space group: P N M A
;
_chemical_formula_sum "Si O2"
_cell_formula_units_Z 56
_cell_length_a 20.789961
_cell_length_b 9.759017
_cell_length_c 15.169746
_cell_angle_alpha 90.000000
_cell_angle_beta 90.000000
_cell_angle_gamma 90.000000
_cell_volume 3077.783438
_symmetry_space_group_name_H-M "P N M A"
_symmetry_group_IT_number 62
_symmetry_cell_setting 'orthorhombic'
loop_
_space_group_symop_operation_xyz
x,y,z
1/2-x,-y,1/2+z
1/2+x,1/2-y,1/2-z
-x,1/2+y,-z
-x,-y,-z
1/2+x,y,1/2-z
1/2-x,1/2+y,1/2+z
x,1/2-y,z
loop_
_atom_site_type_symbol
_atom_site_label
_atom_site_fract_x
_atom_site_fract_y
_atom_site_fract_z
Si Si1 0.477325 0.903793 0.732231
Si Si2 0.033310 0.096393 0.619044
Si Si3 0.674620 0.411136 0.513034
Si Si4 0.327218 0.588801 0.690471
Si Si5 0.205656 0.911286 0.355092
Si Si6 0.403378 0.096020 0.992467
Si Si7 0.448442 0.092441 0.449424
O O1 0.476404 0.750000 0.772309
O O2 0.404612 0.933281 0.699775
O O3 0.525095 0.902239 0.649736
O O4 0.503634 0.013902 0.799984
O O5 0.053687 0.250000 0.642530
O O6 0.973850 0.107225 0.550787
O O7 0.089130 0.008837 0.572440
O O8 0.653510 0.250000 0.514456
O O9 0.692153 0.440626 0.410708
O O10 0.732894 0.425975 0.581481
O O11 0.618476 0.513805 0.540896
O O12 0.315301 0.750000 0.706648
O O13 0.294010 0.498701 0.765945
O O14 0.198181 0.750000 0.333427
O O15 0.144766 0.951806 0.415957
O O16 0.383072 0.250000 0.020057
O O17 0.445224 0.250000 0.482064
O O18 0.500000 0.000000 0.500000
#
# Coordination Sequence:
#
# PCOD9462574 Si02
#       7
#     8   8   8   8   8   8   8
#     4  10  20  35  56  82 112 148 186 231 287 348
#     4  10  19  31  52  82 112 144 188 237 283 334
#     4  10  22  42  62  85 119 156 195 245 301 350
#     4  10  20  37  61  85 113 151 195 239 289 349
#     4  10  21  39  62  85 116 157 199 243 290 351
#     4   9  18  33  52  78 112 149 186 229 287 343
#     4  11  22  38  61  88 117 149 190 241 298 353
#
# _framework density 18.194913
#
# number of rings (size 3 to 8) (size 9 to 14) (size 15 to 20)
#    0.000    2.000    2.857    0.857    0.000    3.429 
#    2.571    0.000    0.000    0.000    0.000    0.000 
#    0.000    0.000    0.000    0.000    0.000    0.000 
#
# Total GULP energy -312300.607126 kJ/mol
# GULP energy per Si atom -5576.796556 kJ/mol
# Density = 1.815350 g / cm^3
# Si number density = 18.194913 Si / 1000 Ang^3
#
#
#
# Elastic Constant Matrix: (Units=GPa)
#
#
# Indices 1 2 3 4 5 6 
#
# 1 45.2211 33.4648 27.5588 0.0000 0.0000 0.0000
# 2 33.4648 107.4382 67.6731 0.0000 0.0000 0.0000
# 3 27.5588 67.6731 94.3491 0.0000 0.0000 0.0000
# 4 0.0000 0.0000 0.0000 29.3565 0.0000 0.0000
# 5 0.0000 0.0000 0.0000 0.0000 25.3122 0.0000
# 6 0.0000 0.0000 0.0000 0.0000 0.0000 20.4786
#
#
#
# Elastic Compliance Matrix: (Units=1/GPa)
#
#
# Indices 1 2 3 4 5 6 
#
# 1 0.029424 -0.006843 -0.003686 0.000000 0.000000 0.000000
# 2 -0.006843 0.018570 -0.011321 0.000000 0.000000 0.000000
# 3 -0.003686 -0.011321 0.019796 0.000000 0.000000 0.000000
# 4 0.000000 0.000000 0.000000 0.034064 0.000000 0.000000
# 5 0.000000 0.000000 0.000000 0.000000 0.039507 0.000000
# 6 0.000000 0.000000 0.000000 0.000000 0.000000 0.048831
#
#
# Mechanical properties :
#
#
# Convention : Reuss Voigt Hill
#
# Bulk Modulus (GPa) = 41.51194 56.04466 48.77830
# Shear Modulus (GPa) = 20.66786 22.91689 21.79237
#
# Velocity S-wave (km/s) = 3.37399 3.55282 3.46456
# Velocity P-wave (km/s) = 6.16791 6.90647 6.54761
#
# Compressibility (1/GPa) = 0.02408945
#
# Stress axis : x y z
#
# Youngs Moduli (GPa) = 33.98569 53.85093 50.51647
#
# Poissons Ratio (x) = 0.36851 0.18622
# Poissons Ratio (y) = 0.23257 0.57188
# Poissons Ratio (z) = 0.12528 0.60962
#
# Static dielectric constant tensor:
#      x y z
#    x 1.610500 0.000000 0.000000 
#    y 0.000000 1.643700 0.000000 
#    z 0.000000 0.000000 1.837420 
# 
# From -- ./inp_files/20286.got.cif
#   From: 2010.05.17/outbox.cif.g08.bks.cpg/sg62_11_cif.got.tgz:20286.got - 2010.06.03 15:25:27.
