data_PCOD9462757
_publ_section_title
;
Structure prediction by ZEFSAII (Michael W. Deem and Ramdas Pophale) SiO2 
 PCOD9462757
Probable space group: P N M A
;
_chemical_formula_sum "Si O2"
_cell_formula_units_Z 64
_cell_length_a 15.978321
_cell_length_b 9.486195
_cell_length_c 23.217314
_cell_angle_alpha 90.000000
_cell_angle_beta 90.000000
_cell_angle_gamma 90.000000
_cell_volume 3519.128819
_symmetry_space_group_name_H-M "P N M A"
_symmetry_group_IT_number 62
_symmetry_cell_setting 'orthorhombic'
loop_
_space_group_symop_operation_xyz
x,y,z
1/2-x,-y,1/2+z
1/2+x,1/2-y,1/2-z
-x,1/2+y,-z
-x,-y,-z
1/2+x,y,1/2-z
1/2-x,1/2+y,1/2+z
x,1/2-y,z
loop_
_atom_site_type_symbol
_atom_site_label
_atom_site_fract_x
_atom_site_fract_y
_atom_site_fract_z
Si Si1 0.455069 0.905810 0.279545
Si Si2 0.756984 0.580660 0.543267
Si Si3 0.325343 0.407094 0.338264
Si Si4 0.569821 0.579427 0.038260
Si Si5 0.370791 0.092062 0.652550
Si Si6 0.551891 0.918887 0.174332
Si Si7 0.582203 0.919038 0.477136
Si Si8 0.317154 0.909182 0.749629
O O1 0.417475 0.750000 0.277288
O O2 0.546571 0.898925 0.307992
O O3 0.470753 0.954907 0.213855
O O4 0.402444 0.997164 0.323270
O O5 0.774505 0.750000 0.538189
O O6 0.733621 0.546814 0.609477
O O7 0.838691 0.490454 0.526620
O O8 0.669857 0.550937 0.509936
O O9 0.354079 0.250000 0.353906
O O10 0.271803 0.403304 0.280215
O O11 0.570476 0.750000 0.028948
O O12 0.549086 0.554415 0.106272
O O13 0.500000 0.500000 0.000000
O O14 0.334351 0.250000 0.647942
O O15 0.399330 0.046145 0.589505
O O16 0.313690 0.986540 0.688515
O O17 0.565348 0.750000 0.181950
O O18 0.625152 0.005930 0.205241
O O19 0.567220 0.750000 0.481318
O O20 0.500000 0.000000 0.500000
O O21 0.350012 0.750000 0.742960
#
# Coordination Sequence:
#
# PCOD9462757 Si02
#       8
#     8   8   8   8   8   8   8   8
#     4   9  18  32  53  79 107 139 179 226 272 335
#     4  10  21  39  60  85 119 156 199 247 296 352
#     4  10  20  33  51  80 113 141 178 228 283 340
#     4  11  23  40  63  86 113 153 201 252 303 354
#     4   9  19  36  53  76 109 145 185 225 274 338
#     4   9  19  37  57  80 108 141 185 233 285 345
#     4  10  21  37  60  87 120 160 197 243 297 352
#     4  10  19  32  54  79 106 142 178 224 281 333
#
# _framework density 18.186318
#
# number of rings (size 3 to 8) (size 9 to 14) (size 15 to 20)
#    0.000    2.250    1.250    2.250    0.000    5.000 
#    2.250    0.000    0.000    0.000    0.000    0.000 
#    0.000    0.000    0.000    0.000    0.000    0.000 
#
# Total GULP energy -356402.788498 kJ/mol
# GULP energy per Si atom -5568.793570 kJ/mol
# Density = 1.814493 g / cm^3
# Si number density = 18.186318 Si / 1000 Ang^3
#
#
#
# Elastic Constant Matrix: (Units=GPa)
#
#
# Indices 1 2 3 4 5 6 
#
# 1 72.8238 33.1159 33.7988 0.0000 0.0000 0.0000
# 2 33.1159 48.6600 35.1271 0.0000 0.0000 0.0000
# 3 33.7988 35.1271 118.4129 0.0000 0.0000 0.0000
# 4 0.0000 0.0000 0.0000 29.5010 0.0000 0.0000
# 5 0.0000 0.0000 0.0000 0.0000 28.9529 0.0000
# 6 0.0000 0.0000 0.0000 0.0000 0.0000 32.7646
#
#
#
# Elastic Compliance Matrix: (Units=1/GPa)
#
#
# Indices 1 2 3 4 5 6 
#
# 1 0.020311 -0.012264 -0.002159 0.000000 0.000000 0.000000
# 2 -0.012264 0.033556 -0.006454 0.000000 0.000000 0.000000
# 3 -0.002159 -0.006454 0.010976 0.000000 0.000000 0.000000
# 4 0.000000 0.000000 0.000000 0.033897 0.000000 0.000000
# 5 0.000000 0.000000 0.000000 0.000000 0.034539 0.000000
# 6 0.000000 0.000000 0.000000 0.000000 0.000000 0.030521
#
#
# Mechanical properties :
#
#
# Convention : Reuss Voigt Hill
#
# Bulk Modulus (GPa) = 43.31134 49.33116 46.32125
# Shear Modulus (GPa) = 23.44667 27.43402 25.44035
#
# Velocity S-wave (km/s) = 3.59451 3.88815 3.74421
# Velocity P-wave (km/s) = 6.41049 6.88050 6.64965
#
# Compressibility (1/GPa) = 0.02308864
#
# Stress axis : x y z
#
# Youngs Moduli (GPa) = 49.23487 29.80088 91.10881
#
# Poissons Ratio (x) = 0.36548 0.19673
# Poissons Ratio (y) = 0.60381 0.58801
# Poissons Ratio (z) = 0.10631 0.19233
#
# Static dielectric constant tensor:
#      x y z
#    x 1.621150 0.000000 0.000000 
#    y 0.000000 1.662240 0.000000 
#    z 0.000000 0.000000 1.648300 
# 
# From -- ./inp_files/29820.got.cif
#   From: 2010.05.17/outbox.cif.g08.bks.cpg/sg62_15_cif.got.tgz:29820.got - 2010.06.03 15:25:27.
