data_PCOD9462058
_publ_section_title
;
Structure prediction by ZEFSAII (Michael W. Deem and Ramdas Pophale) SiO2 
 PCOD9462058
Probable space group: P N M A
;
_chemical_formula_sum "Si O2"
_cell_formula_units_Z 56
_cell_length_a 19.713391
_cell_length_b 8.516998
_cell_length_c 19.908381
_cell_angle_alpha 90.000000
_cell_angle_beta 90.000000
_cell_angle_gamma 90.000000
_cell_volume 3342.595504
_symmetry_space_group_name_H-M "P N M A"
_symmetry_group_IT_number 62
_symmetry_cell_setting 'orthorhombic'
loop_
_space_group_symop_operation_xyz
x,y,z
1/2-x,-y,1/2+z
1/2+x,1/2-y,1/2-z
-x,1/2+y,-z
-x,-y,-z
1/2+x,y,1/2-z
1/2-x,1/2+y,1/2+z
x,1/2-y,z
loop_
_atom_site_type_symbol
_atom_site_label
_atom_site_fract_x
_atom_site_fract_y
_atom_site_fract_z
Si Si1 0.943182 0.939556 0.449125
Si Si2 0.366490 0.440956 0.771415
Si Si3 0.349493 0.436517 0.268180
Si Si4 0.789146 0.939907 0.480206
Si Si5 0.250544 0.062036 0.875648
Si Si6 0.980601 0.940115 0.297499
Si Si7 0.239125 0.939867 0.163371
O O1 0.944173 0.750000 0.449714
O O2 0.867680 0.989959 0.470765
O O3 0.959847 0.990025 0.372980
O O4 0.000000 0.000000 0.500000
O O5 0.368012 0.250000 0.772043
O O6 0.316713 0.489374 0.832213
O O7 0.443250 0.494706 0.781021
O O8 0.328781 0.489564 0.702754
O O9 0.348531 0.250000 0.266900
O O10 0.314535 0.496333 0.336411
O O11 0.424644 0.498433 0.254050
O O12 0.301927 0.501474 0.208113
O O13 0.788224 0.750000 0.482963
O O14 0.748743 0.990039 0.413287
O O15 0.758848 0.005347 0.548683
O O16 0.248052 0.250000 0.873203
O O17 0.979502 0.750000 0.296288
O O18 0.241588 0.750000 0.164603
#
# Coordination Sequence:
#
# PCOD9462058 Si02
#       7
#     8   8   8   8   8   8   8
#     4  10  20  31  46  71 107 144 170 206 255 310
#     4   8  16  30  53  76  96 130 173 211 250 304
#     4  11  21  33  51  76 102 133 174 215 256 304
#     4  10  19  32  50  73 104 137 169 210 260 305
#     4  10  20  35  54  75 101 134 173 215 259 310
#     4  10  18  33  52  73 102 137 172 207 254 308
#     4   9  17  34  54  74 102 137 174 212 257 307
#
# _framework density 16.753447000000001
#
# number of rings (size 3 to 8) (size 9 to 14) (size 15 to 20)
#    0.000    2.286    1.429    3.429    0.000    2.857 
#    0.000    3.571    0.000    0.857    0.000    0.000 
#    0.000    0.000    0.000    0.000    0.000    0.000 
#
# Total GULP energy -312417.696076 kJ/mol
# GULP energy per Si atom -5578.887430 kJ/mol
# Density = 1.671532 g / cm^3
# Si number density = 16.753447 Si / 1000 Ang^3
#
#
#
# Elastic Constant Matrix: (Units=GPa)
#
#
# Indices 1 2 3 4 5 6 
#
# 1 66.7807 15.7285 58.1648 0.0000 0.0000 0.0000
# 2 15.7285 14.3546 24.8895 0.0000 0.0000 0.0000
# 3 58.1648 24.8895 143.8013 0.0000 0.0000 0.0000
# 4 0.0000 0.0000 0.0000 22.1941 0.0000 0.0000
# 5 0.0000 0.0000 0.0000 0.0000 23.7313 0.0000
# 6 0.0000 0.0000 0.0000 0.0000 0.0000 16.1475
#
#
#
# Elastic Compliance Matrix: (Units=1/GPa)
#
#
# Indices 1 2 3 4 5 6 
#
# 1 0.024960 -0.014065 -0.007661 0.000000 0.000000 0.000000
# 2 -0.014065 0.107461 -0.012911 0.000000 0.000000 0.000000
# 3 -0.007661 -0.012911 0.012288 0.000000 0.000000 0.000000
# 4 0.000000 0.000000 0.000000 0.045057 0.000000 0.000000
# 5 0.000000 0.000000 0.000000 0.000000 0.042138 0.000000
# 6 0.000000 0.000000 0.000000 0.000000 0.000000 0.061929
#
#
# Mechanical properties :
#
#
# Convention : Reuss Voigt Hill
#
# Bulk Modulus (GPa) = 13.25648 46.94468 30.10058
# Shear Modulus (GPa) = 12.87824 20.82484 16.85154
#
# Velocity S-wave (km/s) = 2.77554 3.52947 3.17496
# Velocity P-wave (km/s) = 4.26630 6.68515 5.60770
#
# Compressibility (1/GPa) = 0.07543482
#
# Stress axis : x y z
#
# Youngs Moduli (GPa) = 40.06413 9.30570 81.38302
#
# Poissons Ratio (x) = 0.13088 0.62351
# Poissons Ratio (y) = 0.56349 1.05071
# Poissons Ratio (z) = 0.30695 0.12014
#
# Static dielectric constant tensor:
#      x y z
#    x 1.557650 0.000000 0.000000 
#    y 0.000000 1.571930 0.000000 
#    z 0.000000 0.000000 1.553680 
# 
# From -- ./inp_files/27587.got.cif
#   From: 2010.05.17/outbox.cif.g08.bks.cpg/sg62_14_cif.got.tgz:27587.got - 2010.06.03 15:25:27.
