data_PCOD9462641
_publ_section_title
;
Structure prediction by ZEFSAII (Michael W. Deem and Ramdas Pophale) SiO2 
 PCOD9462641
Probable space group: P N M A
;
_chemical_formula_sum "Si O2"
_cell_formula_units_Z 64
_cell_length_a 14.807853
_cell_length_b 8.920194
_cell_length_c 31.094994
_cell_angle_alpha 90.000000
_cell_angle_beta 90.000000
_cell_angle_gamma 90.000000
_cell_volume 4107.304221
_symmetry_space_group_name_H-M "P N M A"
_symmetry_group_IT_number 62
_symmetry_cell_setting 'orthorhombic'
loop_
_space_group_symop_operation_xyz
x,y,z
1/2-x,-y,1/2+z
1/2+x,1/2-y,1/2-z
-x,1/2+y,-z
-x,-y,-z
1/2+x,y,1/2-z
1/2-x,1/2+y,1/2+z
x,1/2-y,z
loop_
_atom_site_type_symbol
_atom_site_label
_atom_site_fract_x
_atom_site_fract_y
_atom_site_fract_z
Si Si1 0.197729 0.068477 0.706699
Si Si2 0.596929 0.428376 0.550617
Si Si3 0.012609 0.076521 0.175318
Si Si4 0.317859 0.424259 0.369839
Si Si5 0.998020 0.070425 0.732083
Si Si6 0.202632 0.570328 0.295283
Si Si7 0.678139 0.571665 0.371028
Si Si8 0.898880 0.928258 0.951230
O O1 0.205416 0.250000 0.706761
O O2 0.091919 0.031524 0.708898
O O3 0.249058 0.018756 0.750539
O O4 0.246634 0.017319 0.663096
O O5 0.587946 0.250000 0.555912
O O6 0.667142 0.492500 0.585028
O O7 0.498221 0.502297 0.557212
O O8 0.623151 0.459858 0.501092
O O9 0.042320 0.250000 0.172813
O O10 0.915122 0.065300 0.153527
O O11 0.004976 0.020594 0.223836
O O12 0.083936 0.971403 0.151602
O O13 0.297145 0.250000 0.377011
O O14 0.247541 0.496037 0.336704
O O15 0.000205 0.250000 0.741516
O O16 0.904311 0.040841 0.707766
O O17 0.215933 0.750000 0.297774
O O18 0.685740 0.750000 0.376103
O O19 0.671894 0.495172 0.417481
O O20 0.905510 0.750000 0.945310
#
# Coordination Sequence:
#
# PCOD9462641 Si02
#       8
#     8   8   8   8   8   8   8   8
#     4   9  18  31  49  73  96 124 168 207 237 284
#     4  10  20  33  51  71  97 132 165 198 241 296
#     4  11  21  30  44  69 100 131 164 205 245 286
#     4  11  22  33  47  71 102 132 165 204 246 289
#     4  10  19  34  51  68  96 131 168 210 243 284
#     4  10  19  32  51  71  94 130 170 203 242 290
#     4  11  20  32  50  72  97 134 171 199 241 292
#     4  10  20  33  48  73 102 128 161 202 246 290
#
# _framework density 15.581996
#
# number of rings (size 3 to 8) (size 9 to 14) (size 15 to 20)
#    0.000    1.750    3.750    1.875    0.000    3.000 
#    0.000    1.250    0.000    0.000    0.000    0.875 
#    0.000    0.000    0.000    0.000    0.000    0.000 
#
# Total GULP energy -357030.439981 kJ/mol
# GULP energy per Si atom -5578.600625 kJ/mol
# Density = 1.554653 g / cm^3
# Si number density = 15.581996 Si / 1000 Ang^3
#
#
#
# Elastic Constant Matrix: (Units=GPa)
#
#
# Indices 1 2 3 4 5 6 
#
# 1 81.3962 30.2130 54.6222 0.0000 0.0000 0.0000
# 2 30.2130 42.5274 50.5527 0.0000 0.0000 0.0000
# 3 54.6222 50.5527 135.7694 0.0000 0.0000 0.0000
# 4 0.0000 0.0000 0.0000 26.1212 0.0000 0.0000
# 5 0.0000 0.0000 0.0000 0.0000 22.6998 0.0000
# 6 0.0000 0.0000 0.0000 0.0000 0.0000 13.2009
#
#
#
# Elastic Compliance Matrix: (Units=1/GPa)
#
#
# Indices 1 2 3 4 5 6 
#
# 1 0.018081 -0.007532 -0.004470 0.000000 0.000000 0.000000
# 2 -0.007532 0.045324 -0.013846 0.000000 0.000000 0.000000
# 3 -0.004470 -0.013846 0.014319 0.000000 0.000000 0.000000
# 4 0.000000 0.000000 0.000000 0.038283 0.000000 0.000000
# 5 0.000000 0.000000 0.000000 0.000000 0.044053 0.000000
# 6 0.000000 0.000000 0.000000 0.000000 0.000000 0.075753
#
#
# Mechanical properties :
#
#
# Convention : Reuss Voigt Hill
#
# Bulk Modulus (GPa) = 38.41918 58.94098 48.68008
# Shear Modulus (GPa) = 16.88141 20.69138 18.78639
#
# Velocity S-wave (km/s) = 3.29506 3.64799 3.47601
# Velocity P-wave (km/s) = 6.25989 7.46004 6.88616
#
# Compressibility (1/GPa) = 0.02602867
#
# Stress axis : x y z
#
# Youngs Moduli (GPa) = 55.30724 22.06347 69.83730
#
# Poissons Ratio (x) = 0.16618 0.31215
# Poissons Ratio (y) = 0.41658 0.96695
# Poissons Ratio (z) = 0.24721 0.30548
#
# Static dielectric constant tensor:
#      x y z
#    x 1.505480 0.000000 0.000000 
#    y 0.000000 1.525810 0.000000 
#    z 0.000000 0.000000 1.530140 
# 
# From -- ./inp_files/32699.got.cif
#   From: 2010.05.17/outbox.cif.g08.bks.cpg/sg62_17_cif.got.tgz:32699.got - 2010.06.03 15:25:27.
