data_PCOD9462804
_publ_section_title
;
Structure prediction by ZEFSAII (Michael W. Deem and Ramdas Pophale) SiO2 
 PCOD9462804
Probable space group: P N M A
;
_chemical_formula_sum "Si O2"
_cell_formula_units_Z 48
_cell_length_a 24.776594
_cell_length_b 7.683352
_cell_length_c 12.359518
_cell_angle_alpha 90.000000
_cell_angle_beta 90.000000
_cell_angle_gamma 90.000000
_cell_volume 2352.847985
_symmetry_space_group_name_H-M "P N M A"
_symmetry_group_IT_number 62
_symmetry_cell_setting 'orthorhombic'
loop_
_space_group_symop_operation_xyz
x,y,z
1/2-x,-y,1/2+z
1/2+x,1/2-y,1/2-z
-x,1/2+y,-z
-x,-y,-z
1/2+x,y,1/2-z
1/2-x,1/2+y,1/2+z
x,1/2-y,z
loop_
_atom_site_type_symbol
_atom_site_label
_atom_site_fract_x
_atom_site_fract_y
_atom_site_fract_z
Si Si1 0.958619 0.541823 0.777873
Si Si2 0.283433 0.544150 0.669695
Si Si3 0.418936 0.463784 0.286199
Si Si4 0.165778 0.540693 0.606701
Si Si5 0.616859 0.957931 0.476726
Si Si6 0.358926 0.959681 0.859352
O O1 0.961832 0.750000 0.765102
O O2 0.916162 0.475626 0.688193
O O3 0.019486 0.475287 0.772061
O O4 0.930643 0.507352 0.893428
O O5 0.276076 0.750000 0.687490
O O6 0.225035 0.471761 0.639036
O O7 0.327142 0.523056 0.574236
O O8 0.312248 0.473634 0.778033
O O9 0.419534 0.250000 0.286856
O O10 0.379880 0.521409 0.189831
O O11 0.396154 0.519921 0.402762
O O12 0.167211 0.750000 0.616127
O O13 0.151767 0.501273 0.483038
O O14 0.620131 0.750000 0.479431
O O15 0.359631 0.750000 0.848778
#
# Coordination Sequence:
#
# PCOD9462804 Si02
#       6
#     8   8   8   8   8   8
#     4   9  18  36  57  76 107 144 174 210 265 320
#     4   9  20  37  55  74 105 144 175 212 267 319
#     4   9  19  34  54  80 107 140 177 215 261 313
#     4  10  21  36  54  77 105 140 180 217 257 310
#     4  10  19  32  56  84 106 134 177 224 262 303
#     4   9  19  35  54  75 103 139 174 212 263 316
#
# _framework density 20.400808999999999
#
# number of rings (size 3 to 8) (size 9 to 14) (size 15 to 20)
#    0.000    2.667    0.000    2.000    2.333    4.000 
#    0.000    3.333    0.000    0.000    0.000    0.000 
#    0.000    0.000    0.000    0.000    0.000    0.000 
#
# Total GULP energy -267914.003555 kJ/mol
# GULP energy per Si atom -5581.541741 kJ/mol
# Density = 2.035438 g / cm^3
# Si number density = 20.400809 Si / 1000 Ang^3
#
#
#
# Elastic Constant Matrix: (Units=GPa)
#
#
# Indices 1 2 3 4 5 6 
#
# 1 287.4149 1.0696 137.8517 0.0000 0.0000 0.0000
# 2 1.0696 26.8914 -5.1581 0.0000 0.0000 0.0000
# 3 137.8517 -5.1581 198.7150 0.0000 0.0000 0.0000
# 4 0.0000 0.0000 0.0000 27.4640 0.0000 0.0000
# 5 0.0000 0.0000 0.0000 0.0000 17.1654 0.0000
# 6 0.0000 0.0000 0.0000 0.0000 0.0000 9.0528
#
#
#
# Elastic Compliance Matrix: (Units=1/GPa)
#
#
# Indices 1 2 3 4 5 6 
#
# 1 0.005236 -0.000910 -0.003656 0.000000 0.000000 0.000000
# 2 -0.000910 0.037531 0.001605 0.000000 0.000000 0.000000
# 3 -0.003656 0.001605 0.007610 0.000000 0.000000 0.000000
# 4 0.000000 0.000000 0.000000 0.036411 0.000000 0.000000
# 5 0.000000 0.000000 0.000000 0.000000 0.058257 0.000000
# 6 0.000000 0.000000 0.000000 0.000000 0.000000 0.110462
#
#
# Mechanical properties :
#
#
# Convention : Reuss Voigt Hill
#
# Bulk Modulus (GPa) = 22.49398 86.72751 54.61074
# Shear Modulus (GPa) = 18.09972 36.02031 27.06002
#
# Velocity S-wave (km/s) = 2.98183 4.20650 3.64595
# Velocity P-wave (km/s) = 4.78592 8.13615 6.67465
#
# Compressibility (1/GPa) = 0.04445634
#
# Stress axis : x y z
#
# Youngs Moduli (GPa) = 190.97760 26.64482 131.40150
#
# Poissons Ratio (x) = 0.02423 0.48041
# Poissons Ratio (y) = 0.17370 -0.21092
# Poissons Ratio (z) = 0.69822 -0.04277
#
# Static dielectric constant tensor:
#      x y z
#    x 1.714120 0.000000 0.000000 
#    y 0.000000 1.762920 0.000000 
#    z 0.000000 0.000000 1.683520 
# 
# From -- ./inp_files/15111.got.cif
#   From: 2010.05.17/outbox.cif.g08.bks.cpg/sg62_8_cif.got.tgz:15111.got - 2010.06.03 15:25:27.
