data_PCOD9462336
_publ_section_title
;
Structure prediction by ZEFSAII (Michael W. Deem and Ramdas Pophale) SiO2 
 PCOD9462336
Probable space group: P N M A
;
_chemical_formula_sum "Si O2"
_cell_formula_units_Z 64
_cell_length_a 14.958372
_cell_length_b 8.771656
_cell_length_c 28.888257
_cell_angle_alpha 90.000000
_cell_angle_beta 90.000000
_cell_angle_gamma 90.000000
_cell_volume 3790.419347
_symmetry_space_group_name_H-M "P N M A"
_symmetry_group_IT_number 62
_symmetry_cell_setting 'orthorhombic'
loop_
_space_group_symop_operation_xyz
x,y,z
1/2-x,-y,1/2+z
1/2+x,1/2-y,1/2-z
-x,1/2+y,-z
-x,-y,-z
1/2+x,y,1/2-z
1/2-x,1/2+y,1/2+z
x,1/2-y,z
loop_
_atom_site_type_symbol
_atom_site_label
_atom_site_fract_x
_atom_site_fract_y
_atom_site_fract_z
Si Si1 0.204889 0.934496 0.856711
Si Si2 0.356325 0.923062 0.264304
Si Si3 0.220622 0.565353 0.136348
Si Si4 0.405994 0.068124 0.169724
Si Si5 0.599450 0.432644 0.174464
Si Si6 0.405874 0.066106 0.445624
Si Si7 0.601650 0.933966 0.449104
Si Si8 0.850446 0.077295 0.768079
O O1 0.203559 0.750000 0.853442
O O2 0.308030 0.985761 0.849198
O O3 0.162901 0.980551 0.905664
O O4 0.146260 0.001638 0.814670
O O5 0.390867 0.750000 0.265538
O O6 0.252669 0.915517 0.248470
O O7 0.400316 0.020537 0.223699
O O8 0.224163 0.750000 0.138816
O O9 0.320534 0.504607 0.144531
O O10 0.175291 0.518249 0.088367
O O11 0.157803 0.516064 0.179707
O O12 0.399384 0.250000 0.165765
O O13 0.504635 0.015850 0.153480
O O14 0.600152 0.250000 0.172328
O O15 0.602916 0.481223 0.228270
O O16 0.411613 0.250000 0.444783
O O17 0.378495 0.020377 0.497825
O O18 0.504269 0.999275 0.436956
O O19 0.596867 0.750000 0.447624
O O20 0.886144 0.250000 0.768751
#
# Coordination Sequence:
#
# PCOD9462336 Si02
#       8
#     8   8   8   8   8   8   8   8
#     4   9  17  31  49  69  94 123 156 191 228 275
#     4   9  17  29  44  64  90 120 153 188 226 265
#     4   9  18  32  48  67  92 123 157 191 231 278
#     4  10  19  30  45  67  94 125 159 192 227 267
#     4   9  18  30  44  64  92 124 154 186 223 264
#     4   9  18  32  51  73  94 119 152 191 238 288
#     4   9  18  33  51  71  95 120 150 192 240 287
#     4   8  15  27  42  61  85 114 149 185 219 260
#
# _framework density 16.884675000000001
#
# number of rings (size 3 to 8) (size 9 to 14) (size 15 to 20)
#    0.000    3.000    0.000    1.500    0.000    6.000 
#    0.000    2.500    0.000    0.750    0.000    0.000 
#    0.000    0.000    0.000    0.000    0.000    0.125 
#
# Total GULP energy -356358.727221 kJ/mol
# GULP energy per Si atom -5568.105113 kJ/mol
# Density = 1.684625 g / cm^3
# Si number density = 16.884675 Si / 1000 Ang^3
#
#
#
# Elastic Constant Matrix: (Units=GPa)
#
#
# Indices 1 2 3 4 5 6 
#
# 1 92.7038 15.4663 65.6058 0.0000 0.0000 0.0000
# 2 15.4663 10.2936 18.9620 0.0000 0.0000 0.0000
# 3 65.6058 18.9620 116.7034 0.0000 0.0000 0.0000
# 4 0.0000 0.0000 0.0000 18.3032 0.0000 0.0000
# 5 0.0000 0.0000 0.0000 0.0000 21.8965 0.0000
# 6 0.0000 0.0000 0.0000 0.0000 0.0000 9.2048
#
#
#
# Elastic Compliance Matrix: (Units=1/GPa)
#
#
# Indices 1 2 3 4 5 6 
#
# 1 0.019004 -0.012665 -0.008626 0.000000 0.000000 0.000000
# 2 -0.012665 0.147085 -0.016779 0.000000 0.000000 0.000000
# 3 -0.008626 -0.016779 0.016144 0.000000 0.000000 0.000000
# 4 0.000000 0.000000 0.000000 0.054635 0.000000 0.000000
# 5 0.000000 0.000000 0.000000 0.000000 0.045669 0.000000
# 6 0.000000 0.000000 0.000000 0.000000 0.000000 0.108639
#
#
# Mechanical properties :
#
#
# Convention : Reuss Voigt Hill
#
# Bulk Modulus (GPa) = 9.42556 46.64100 28.03328
# Shear Modulus (GPa) = 9.94670 17.85870 13.90270
#
# Velocity S-wave (km/s) = 2.42976 3.25574 2.87259
# Velocity P-wave (km/s) = 3.66962 6.46656 5.25749
#
# Compressibility (1/GPa) = 0.10609453
#
# Stress axis : x y z
#
# Youngs Moduli (GPa) = 52.61967 6.79881 61.94287
#
# Poissons Ratio (x) = 0.08611 0.53430
# Poissons Ratio (y) = 0.66642 1.03932
# Poissons Ratio (z) = 0.45388 0.11408
#
# Static dielectric constant tensor:
#      x y z
#    x 1.594870 0.000000 0.000000 
#    y 0.000000 1.575120 0.000000 
#    z 0.000000 0.000000 1.570820 
# 
# From -- ./inp_files/32731.got.cif
#   From: 2010.05.17/outbox.cif.g08.bks.cpg/sg62_17_cif.got.tgz:32731.got - 2010.06.03 15:25:27.
