data_PCOD9462146
_publ_section_title
;
Structure prediction by ZEFSAII (Michael W. Deem and Ramdas Pophale) SiO2 
 PCOD9462146
Probable space group: P N M A
;
_chemical_formula_sum "Si O2"
_cell_formula_units_Z 60
_cell_length_a 9.677548
_cell_length_b 7.533090
_cell_length_c 31.115639
_cell_angle_alpha 90.000000
_cell_angle_beta 90.000000
_cell_angle_gamma 90.000000
_cell_volume 2268.387338
_symmetry_space_group_name_H-M "P N M A"
_symmetry_group_IT_number 62
_symmetry_cell_setting 'orthorhombic'
loop_
_space_group_symop_operation_xyz
x,y,z
1/2-x,-y,1/2+z
1/2+x,1/2-y,1/2-z
-x,1/2+y,-z
-x,-y,-z
1/2+x,y,1/2-z
1/2-x,1/2+y,1/2+z
x,1/2-y,z
loop_
_atom_site_type_symbol
_atom_site_label
_atom_site_fract_x
_atom_site_fract_y
_atom_site_fract_z
Si Si1 0.379531 0.543863 0.564128
Si Si2 0.028282 0.538736 0.450629
Si Si3 0.609646 0.750000 0.796609
Si Si4 0.567865 0.951006 0.248341
Si Si5 0.240567 0.959228 0.330416
Si Si6 0.569721 0.038130 0.864299
Si Si7 0.948146 0.956536 0.844187
Si Si8 0.819629 0.533012 0.028661
O O1 0.342553 0.750000 0.567646
O O2 0.380953 0.465823 0.612205
O O3 0.540318 0.533856 0.549355
O O4 0.307835 0.469515 0.521043
O O5 0.031479 0.750000 0.445071
O O6 0.922627 0.478572 0.414101
O O7 0.185675 0.475145 0.445125
O O8 0.000000 0.500000 0.500000
O O9 0.543384 0.595627 0.765010
O O10 0.645118 0.592249 0.832107
O O11 0.528229 0.750000 0.235657
O O12 0.701577 0.000152 0.219362
O O13 0.588748 0.954505 0.299045
O O14 0.262755 0.750000 0.333984
O O15 0.094205 0.997275 0.353264
O O16 0.383345 0.037315 0.346831
O O17 0.594678 0.250000 0.859401
O O18 0.916013 0.750000 0.840253
O O19 0.825190 0.750000 0.027980
#
# Coordination Sequence:
#
# PCOD9462146 Si02
#       8
#     8   8   4   8   8   8   8   8
#     4   9  19  34  56  87 117 149 194 246 293 361
#     4  10  21  35  55  83 118 158 200 246 297 356
#     4  10  18  34  58  80 110 148 186 242 300 334
#     4  10  21  37  56  82 115 150 189 239 292 348
#     4   9  19  35  56  79 108 145 188 245 292 342
#     4   9  19  34  55  85 113 146 196 246 293 349
#     4  11  21  32  55  87 116 150 195 240 301 357
#     4   9  18  36  57  80 118 158 194 242 304 352
#
# _framework density 26.450509
#
# number of rings (size 3 to 8) (size 9 to 14) (size 15 to 20)
#    0.000    2.400    0.667    2.400    4.667    2.667 
#    0.000    0.000    5.867    0.000    0.000    0.000 
#    0.000    0.000    0.000    0.000    0.000    0.000 
#
# Total GULP energy -334697.130274 kJ/mol
# GULP energy per Si atom -5578.285505 kJ/mol
# Density = 2.639031 g / cm^3
# Si number density = 26.450509 Si / 1000 Ang^3
#
#
#
# Elastic Constant Matrix: (Units=GPa)
#
#
# Indices 1 2 3 4 5 6 
#
# 1 90.0797 34.0465 13.3881 0.0000 0.0000 0.0000
# 2 34.0465 117.4732 36.5881 0.0000 0.0000 0.0000
# 3 13.3881 36.5881 165.5047 0.0000 0.0000 0.0000
# 4 0.0000 0.0000 0.0000 17.9895 0.0000 0.0000
# 5 0.0000 0.0000 0.0000 0.0000 21.0969 0.0000
# 6 0.0000 0.0000 0.0000 0.0000 0.0000 21.6403
#
#
#
# Elastic Compliance Matrix: (Units=1/GPa)
#
#
# Indices 1 2 3 4 5 6 
#
# 1 0.012475 -0.003545 -0.000225 0.000000 0.000000 0.000000
# 2 -0.003545 0.010150 -0.001957 0.000000 0.000000 0.000000
# 3 -0.000225 -0.001957 0.006493 0.000000 0.000000 0.000000
# 4 0.000000 0.000000 0.000000 0.055588 0.000000 0.000000
# 5 0.000000 0.000000 0.000000 0.000000 0.047400 0.000000
# 6 0.000000 0.000000 0.000000 0.000000 0.000000 0.046210
#
#
# Mechanical properties :
#
#
# Convention : Reuss Voigt Hill
#
# Bulk Modulus (GPa) = 56.61848 60.12256 58.37052
# Shear Modulus (GPa) = 25.55477 31.41434 28.48455
#
# Velocity S-wave (km/s) = 3.11164 3.44999 3.28518
# Velocity P-wave (km/s) = 5.86188 6.21687 6.04198
#
# Compressibility (1/GPa) = 0.01766208
#
# Stress axis : x y z
#
# Youngs Moduli (GPa) = 80.16196 98.52591 154.01233
#
# Poissons Ratio (x) = 0.34930 0.03471
# Poissons Ratio (y) = 0.28420 0.30140
# Poissons Ratio (z) = 0.01807 0.19281
#
# Static dielectric constant tensor:
#      x y z
#    x 2.187040 0.000000 0.000000 
#    y 0.000000 1.951380 0.000000 
#    z 0.000000 0.000000 2.189160 
# 
# From -- ./inp_files/32422.got.cif
#   From: 2010.05.17/outbox.cif.g08.bks.cpg/sg62_17_cif.got.tgz:32422.got - 2010.06.03 15:25:27.
