data_PCOD9462260
_publ_section_title
;
Structure prediction by ZEFSAII (Michael W. Deem and Ramdas Pophale) SiO2 
 PCOD9462260
Probable space group: P N M A
;
_chemical_formula_sum "Si O2"
_cell_formula_units_Z 44
_cell_length_a 8.047579
_cell_length_b 16.617104
_cell_length_c 11.501494
_cell_angle_alpha 90.000000
_cell_angle_beta 90.000000
_cell_angle_gamma 90.000000
_cell_volume 1538.065547
_symmetry_space_group_name_H-M "P N M A"
_symmetry_group_IT_number 62
_symmetry_cell_setting 'orthorhombic'
loop_
_space_group_symop_operation_xyz
x,y,z
1/2-x,-y,1/2+z
1/2+x,1/2-y,1/2-z
-x,1/2+y,-z
-x,-y,-z
1/2+x,y,1/2-z
1/2-x,1/2+y,1/2+z
x,1/2-y,z
loop_
_atom_site_type_symbol
_atom_site_label
_atom_site_fract_x
_atom_site_fract_y
_atom_site_fract_z
Si Si1 0.078294 0.345818 0.658426
Si Si2 0.173317 0.598509 0.619161
Si Si3 0.976153 0.993147 0.783562
Si Si4 0.299799 0.250000 0.279752
Si Si5 0.670590 0.158670 0.589334
Si Si6 0.338715 0.393531 0.464389
O O1 0.023582 0.250000 0.637630
O O2 0.306986 0.529503 0.650407
O O3 0.984891 0.423160 0.716819
O O4 0.182209 0.378212 0.548281
O O5 0.003519 0.571321 0.678341
O O6 0.229953 0.679558 0.682025
O O7 0.179980 0.619274 0.483849
O O8 0.195566 0.163878 0.773474
O O9 0.121972 0.968882 0.877371
O O10 0.335750 0.319629 0.375931
O O11 0.648625 0.250000 0.551160
O O12 0.501119 0.115976 0.546597
#
# Coordination Sequence:
#
# PCOD9462260 Si02
#       6
#     8   8   8   4   8   8
#     4  11  24  41  66  97 135 185 235 285 345 419
#     4  10  22  41  70 100 136 173 234 282 351 408
#     4  10  25  41  68 102 135 182 230 294 338 417
#     4  10  18  40  68  98 128 182 214 278 346 418
#     4  10  20  38  68  97 126 175 230 279 330 420
#     4  10  21  42  70  94 137 181 226 280 361 406
#
# _framework density 28.607364
#
# number of rings (size 3 to 8) (size 9 to 14) (size 15 to 20)
#    0.000    1.818    2.727    0.000    5.091    2.182 
#    0.000    7.273    4.000    0.000    0.000    0.000 
#    0.000    0.000    0.000    0.000    0.000    0.000 
#
# Total GULP energy -245089.412593 kJ/mol
# GULP energy per Si atom -5570.213923 kJ/mol
# Density = 2.854225 g / cm^3
# Si number density = 28.607364 Si / 1000 Ang^3
#
#
#
# Elastic Constant Matrix: (Units=GPa)
#
#
# Indices 1 2 3 4 5 6 
#
# 1 75.1361 54.8619 -6.7826 0.0000 0.0000 0.0000
# 2 54.8619 258.5841 61.3815 0.0000 0.0000 0.0000
# 3 -6.7826 61.3815 172.8338 0.0000 0.0000 0.0000
# 4 0.0000 0.0000 0.0000 46.2887 0.0000 0.0000
# 5 0.0000 0.0000 0.0000 0.0000 39.5848 0.0000
# 6 0.0000 0.0000 0.0000 0.0000 0.0000 14.0945
#
#
#
# Elastic Compliance Matrix: (Units=1/GPa)
#
#
# Indices 1 2 3 4 5 6 
#
# 1 0.016389 -0.003964 0.002051 0.000000 0.000000 0.000000
# 2 -0.003964 0.005182 -0.001996 0.000000 0.000000 0.000000
# 3 0.002051 -0.001996 0.006575 0.000000 0.000000 0.000000
# 4 0.000000 0.000000 0.000000 0.021604 0.000000 0.000000
# 5 0.000000 0.000000 0.000000 0.000000 0.025262 0.000000
# 6 0.000000 0.000000 0.000000 0.000000 0.000000 0.070950
#
#
# Mechanical properties :
#
#
# Convention : Reuss Voigt Hill
#
# Bulk Modulus (GPa) = 49.19317 80.60842 64.90079
# Shear Modulus (GPa) = 31.14196 46.46648 38.80422
#
# Velocity S-wave (km/s) = 3.30297 4.03461 3.68699
# Velocity P-wave (km/s) = 5.63733 7.06702 6.39227
#
# Compressibility (1/GPa) = 0.02032802
#
# Stress axis : x y z
#
# Youngs Moduli (GPa) = 61.01798 192.97623 152.08580
#
# Poissons Ratio (x) = 0.76494 -0.31191
# Poissons Ratio (y) = 0.24187 0.30355
# Poissons Ratio (z) = -0.12514 0.38517
#
# Static dielectric constant tensor:
#      x y z
#    x 2.353470 0.000000 0.000000 
#    y 0.000000 2.058100 0.000000 
#    z 0.000000 0.000000 2.222050 
# 
# From -- ./inp_files/13175.got.cif
#   From: 2010.05.17/outbox.cif.g08.bks.cpg/sg62_7_cif.got.tgz:13175.got - 2010.06.03 15:25:27.
