data_PCOD9462935
_publ_section_title
;
Structure prediction by ZEFSAII (Michael W. Deem and Ramdas Pophale) SiO2 
 PCOD9462935
Probable space group: P N M A
;
_chemical_formula_sum "Si O2"
_cell_formula_units_Z 56
_cell_length_a 22.236639
_cell_length_b 18.692393
_cell_length_c 7.273615
_cell_angle_alpha 90.000000
_cell_angle_beta 90.000000
_cell_angle_gamma 90.000000
_cell_volume 3023.321681
_symmetry_space_group_name_H-M "P N M A"
_symmetry_group_IT_number 62
_symmetry_cell_setting 'orthorhombic'
loop_
_space_group_symop_operation_xyz
x,y,z
1/2-x,-y,1/2+z
1/2+x,1/2-y,1/2-z
-x,1/2+y,-z
-x,-y,-z
1/2+x,y,1/2-z
1/2-x,1/2+y,1/2+z
x,1/2-y,z
loop_
_atom_site_type_symbol
_atom_site_label
_atom_site_fract_x
_atom_site_fract_y
_atom_site_fract_z
Si Si1 0.319328 0.454401 0.997936
Si Si2 0.385403 0.972527 0.344832
Si Si3 0.091269 0.331781 0.261723
Si Si4 0.499723 0.552948 0.726714
Si Si5 0.444463 0.668922 0.194622
Si Si6 0.441280 0.411694 0.886429
Si Si7 0.802826 0.566131 0.824513
O O1 0.353681 0.495082 0.163890
O O2 0.261918 0.416826 0.088823
O O3 0.369701 0.404873 0.900089
O O4 0.298012 0.512653 0.848147
O O5 0.405709 0.892413 0.291906
O O6 0.340735 0.972566 0.514761
O O7 0.446089 0.017707 0.387098
O O8 0.088260 0.250000 0.202146
O O9 0.074858 0.334348 0.478902
O O10 0.156473 0.366542 0.232596
O O11 0.042368 0.382776 0.161673
O O12 0.457190 0.489127 0.800237
O O13 0.534060 0.583217 0.905908
O O14 0.435150 0.750000 0.257704
O O15 0.514797 0.645779 0.207136
#
# Coordination Sequence:
#
# PCOD9462935 Si02
#       7
#     8   8   8   8   8   8   8
#     4  11  20  36  52  80 108 142 189 236 264 320
#     4  10  20  33  57  84 107 139 187 236 274 327
#     4  10  19  33  54  82 115 144 176 223 284 338
#     4   8  14  30  52  78 107 134 172 224 279 321
#     4   9  17  33  57  82 112 146 175 223 293 341
#     4   8  14  29  53  76 106 138 176 224 267 323
#     4  12  22  34  56  81 109 147 191 228 274 319
#
# _framework density 18.522673999999999
#
# number of rings (size 3 to 8) (size 9 to 14) (size 15 to 20)
#    0.000    2.286    4.286    1.714    0.000    1.143 
#    0.000    0.714    0.000    0.857    0.000    1.000 
#    0.000    0.000    0.000    0.000    0.000    0.000 
#
# Total GULP energy -312366.229764 kJ/mol
# GULP energy per Si atom -5577.968389 kJ/mol
# Density = 1.848052 g / cm^3
# Si number density = 18.522674 Si / 1000 Ang^3
#
#
#
# Elastic Constant Matrix: (Units=GPa)
#
#
# Indices 1 2 3 4 5 6 
#
# 1 138.1954 41.8566 14.6573 0.0000 0.0000 0.0000
# 2 41.8566 95.4622 4.7131 0.0000 0.0000 0.0000
# 3 14.6573 4.7131 53.8237 0.0000 0.0000 0.0000
# 4 0.0000 0.0000 0.0000 7.8947 0.0000 0.0000
# 5 0.0000 0.0000 0.0000 0.0000 29.6142 0.0000
# 6 0.0000 0.0000 0.0000 0.0000 0.0000 18.2722
#
#
#
# Elastic Compliance Matrix: (Units=1/GPa)
#
#
# Indices 1 2 3 4 5 6 
#
# 1 0.008555 -0.003652 -0.002010 0.000000 0.000000 0.000000
# 2 -0.003652 0.012080 -0.000063 0.000000 0.000000 0.000000
# 3 -0.002010 -0.000063 0.019132 0.000000 0.000000 0.000000
# 4 0.000000 0.000000 0.000000 0.126667 0.000000 0.000000
# 5 0.000000 0.000000 0.000000 0.000000 0.033768 0.000000
# 6 0.000000 0.000000 0.000000 0.000000 0.000000 0.054728
#
#
# Mechanical properties :
#
#
# Convention : Reuss Voigt Hill
#
# Bulk Modulus (GPa) = 35.31487 45.54837 40.43162
# Shear Modulus (GPa) = 18.12781 26.23986 22.18384
#
# Velocity S-wave (km/s) = 3.13178 3.76790 3.46447
# Velocity P-wave (km/s) = 5.67314 6.60102 6.15459
#
# Compressibility (1/GPa) = 0.02831668
#
# Stress axis : x y z
#
# Youngs Moduli (GPa) = 116.88473 82.78331 52.26821
#
# Poissons Ratio (x) = 0.30232 0.10506
# Poissons Ratio (y) = 0.42686 0.00331
# Poissons Ratio (z) = 0.23494 0.00524
#
# Static dielectric constant tensor:
#      x y z
#    x 1.664180 0.000000 0.000000 
#    y 0.000000 1.618450 0.000000 
#    z 0.000000 0.000000 1.692470 
# 
# From -- ./inp_files/8837.got.cif
#   From: 2010.05.17/outbox.cif.g08.bks.cpg/sg62_5_cif.got.tgz:8837.got - 2010.06.03 15:25:27.
