data_PCOD9462595
_publ_section_title
;
Structure prediction by ZEFSAII (Michael W. Deem and Ramdas Pophale) SiO2 
 PCOD9462595
Probable space group: P N M A
;
_chemical_formula_sum "Si O2"
_cell_formula_units_Z 56
_cell_length_a 22.859333
_cell_length_b 8.902268
_cell_length_c 18.111051
_cell_angle_alpha 90.000000
_cell_angle_beta 90.000000
_cell_angle_gamma 90.000000
_cell_volume 3685.597224
_symmetry_space_group_name_H-M "P N M A"
_symmetry_group_IT_number 62
_symmetry_cell_setting 'orthorhombic'
loop_
_space_group_symop_operation_xyz
x,y,z
1/2-x,-y,1/2+z
1/2+x,1/2-y,1/2-z
-x,1/2+y,-z
-x,-y,-z
1/2+x,y,1/2-z
1/2-x,1/2+y,1/2+z
x,1/2-y,z
loop_
_atom_site_type_symbol
_atom_site_label
_atom_site_fract_x
_atom_site_fract_y
_atom_site_fract_z
Si Si1 0.343247 0.430190 0.381426
Si Si2 0.436240 0.429750 0.507930
Si Si3 0.780285 0.072078 0.572199
Si Si4 0.650846 0.431179 0.375427
Si Si5 0.682218 0.423082 0.216108
Si Si6 0.223825 0.071769 0.580835
Si Si7 0.816078 0.077021 0.276747
O O1 0.330993 0.250000 0.383410
O O2 0.397321 0.460358 0.434843
O O3 0.285739 0.514429 0.410835
O O4 0.352809 0.469766 0.295319
O O5 0.500000 0.500000 0.500000
O O6 0.439453 0.250000 0.517143
O O7 0.400975 0.503005 0.575673
O O8 0.780209 0.250000 0.563815
O O9 0.818354 0.022068 0.642900
O O10 0.798884 0.993333 0.496330
O O11 0.653837 0.250000 0.380847
O O12 0.645924 0.470007 0.288363
O O13 0.712068 0.499040 0.404913
O O14 0.668734 0.250000 0.197515
O O15 0.749302 0.425919 0.245897
O O16 0.230055 0.250000 0.576951
O O17 0.184364 0.023411 0.650557
O O18 0.829361 0.250000 0.296197
#
# Coordination Sequence:
#
# PCOD9462595 Si02
#       7
#     8   8   8   8   8   8   8
#     4   9  18  32  46  60  84 117 148 185 230 266
#     4  11  22  34  49  67  89 120 156 195 230 266
#     4  11  19  26  42  65  89 118 152 183 216 263
#     4  10  19  32  47  63  85 116 151 188 228 269
#     4   8  16  29  43  60  86 115 144 180 223 268
#     4  11  19  27  41  63  91 120 149 180 221 267
#     4   8  15  28  43  60  83 112 147 181 218 266
#
# _framework density 15.194281999999999
#
# number of rings (size 3 to 8) (size 9 to 14) (size 15 to 20)
#    0.000    2.286    1.429    5.143    0.000    6.286 
#    0.000    0.000    0.000    0.000    0.000    0.000 
#    0.000    1.143    0.000    3.429    0.000    4.571 
#
# Total GULP energy -312118.185736 kJ/mol
# GULP energy per Si atom -5573.539031 kJ/mol
# Density = 1.515970 g / cm^3
# Si number density = 15.194282 Si / 1000 Ang^3
#
#
#
# Elastic Constant Matrix: (Units=GPa)
#
#
# Indices 1 2 3 4 5 6 
#
# 1 45.3453 26.5102 42.2634 0.0000 0.0000 0.0000
# 2 26.5102 86.7378 72.2118 0.0000 0.0000 0.0000
# 3 42.2634 72.2118 148.0968 0.0000 0.0000 0.0000
# 4 0.0000 0.0000 0.0000 28.7665 0.0000 0.0000
# 5 0.0000 0.0000 0.0000 0.0000 12.2270 0.0000
# 6 0.0000 0.0000 0.0000 0.0000 0.0000 -3.9983
#
#
#
# Elastic Compliance Matrix: (Units=1/GPa)
#
#
# Indices 1 2 3 4 5 6 
#
# 1 0.030667 -0.003513 -0.007039 0.000000 0.000000 0.000000
# 2 -0.003513 0.019810 -0.008657 0.000000 0.000000 0.000000
# 3 -0.007039 -0.008657 0.012982 0.000000 0.000000 0.000000
# 4 0.000000 0.000000 0.000000 0.034763 0.000000 0.000000
# 5 0.000000 0.000000 0.000000 0.000000 0.081786 0.000000
# 6 0.000000 0.000000 0.000000 0.000000 0.000000 -0.250107
#
#
# Mechanical properties :
#
#
# Convention : Reuss Voigt Hill
#
# Bulk Modulus (GPa) = 39.93294 62.46123 51.19708
# Shear Modulus (GPa) = -214.26985 16.67867 -98.79559
#
# Velocity S-wave (km/s) = -11.88807 3.31674 -8.07234
# Velocity P-wave (km/s) = 12.73171 7.47431 7.28804
#
# Compressibility (1/GPa) = 0.02504198
#
# Stress axis : x y z
#
# Youngs Moduli (GPa) = 32.60815 50.48066 77.02985
#
# Poissons Ratio (x) = 0.17734 0.54219
# Poissons Ratio (y) = 0.11455 0.66682
# Poissons Ratio (z) = 0.22952 0.43699
#
# Static dielectric constant tensor:
#      x y z
#    x 1.467190 0.000000 0.000000 
#    y 0.000000 1.505810 0.000000 
#    z 0.000000 0.000000 1.549480 
# 
# From -- ./inp_files/24892.got.cif
#   From: 2010.05.17/outbox.cif.g08.bks.cpg/sg62_13_cif.got.tgz:24892.got - 2010.06.03 15:25:27.
