data_PCOD9462651
_publ_section_title
;
Structure prediction by ZEFSAII (Michael W. Deem and Ramdas Pophale) SiO2 
 PCOD9462651
Probable space group: P N M A
;
_chemical_formula_sum "Si O2"
_cell_formula_units_Z 56
_cell_length_a 19.697519
_cell_length_b 8.661910
_cell_length_c 19.864925
_cell_angle_alpha 90.000000
_cell_angle_beta 90.000000
_cell_angle_gamma 90.000000
_cell_volume 3389.316491
_symmetry_space_group_name_H-M "P N M A"
_symmetry_group_IT_number 62
_symmetry_cell_setting 'orthorhombic'
loop_
_space_group_symop_operation_xyz
x,y,z
1/2-x,-y,1/2+z
1/2+x,1/2-y,1/2-z
-x,1/2+y,-z
-x,-y,-z
1/2+x,y,1/2-z
1/2-x,1/2+y,1/2+z
x,1/2-y,z
loop_
_atom_site_type_symbol
_atom_site_label
_atom_site_fract_x
_atom_site_fract_y
_atom_site_fract_z
Si Si1 0.850086 0.565539 0.769672
Si Si2 0.765491 0.435764 0.162386
Si Si3 0.133635 0.436003 0.733629
Si Si4 0.248361 0.436351 0.626699
Si Si5 0.480892 0.436424 0.796675
Si Si6 0.556225 0.935467 0.050764
Si Si7 0.294438 0.937014 0.978297
O O1 0.852798 0.750000 0.770957
O O2 0.799000 0.518154 0.708805
O O3 0.814445 0.504147 0.837072
O O4 0.923590 0.498906 0.753190
O O5 0.769927 0.250000 0.164290
O O6 0.831416 0.504095 0.198430
O O7 0.750354 0.484199 0.086148
O O8 0.133413 0.250000 0.734677
O O9 0.183449 0.483733 0.672335
O O10 0.056825 0.488885 0.721717
O O11 0.252303 0.250000 0.628775
O O12 0.236550 0.484442 0.549900
O O13 0.479952 0.250000 0.794834
O O14 0.461849 0.483907 0.872841
O O15 0.555789 0.750000 0.048256
O O16 0.630172 0.997465 0.031079
O O17 0.500000 0.000000 0.000000
O O18 0.299146 0.750000 0.977920
#
# Coordination Sequence:
#
# PCOD9462651 Si02
#       7
#     8   8   8   8   8   8   8
#     4  10  19  32  51  75 102 131 168 214 256 301
#     4   9  18  32  50  73 100 130 166 208 255 303
#     4   9  18  32  50  72  98 130 170 209 245 297
#     4   9  18  33  53  73 100 136 169 205 249 305
#     4  10  20  34  51  73 101 136 174 209 252 307
#     4  11  22  33  49  74 107 141 173 208 252 310
#     4  10  19  34  53  74 103 136 170 208 256 309
#
# _framework density 16.522507000000001
#
# number of rings (size 3 to 8) (size 9 to 14) (size 15 to 20)
#    0.000    2.286    1.429    1.714    0.000    5.143 
#    0.000    2.857    0.000    0.857    0.000    0.000 
#    0.000    0.000    0.000    0.000    0.000    0.000 
#
# Total GULP energy -312441.250289 kJ/mol
# GULP energy per Si atom -5579.308041 kJ/mol
# Density = 1.648490 g / cm^3
# Si number density = 16.522507 Si / 1000 Ang^3
#
#
#
# Elastic Constant Matrix: (Units=GPa)
#
#
# Indices 1 2 3 4 5 6 
#
# 1 78.3665 15.1402 72.6997 0.0000 0.0000 0.0000
# 2 15.1402 8.1378 25.9498 0.0000 0.0000 0.0000
# 3 72.6997 25.9498 150.6095 0.0000 0.0000 0.0000
# 4 0.0000 0.0000 0.0000 23.3164 0.0000 0.0000
# 5 0.0000 0.0000 0.0000 0.0000 26.4098 0.0000
# 6 0.0000 0.0000 0.0000 0.0000 0.0000 27.3797
#
#
#
# Elastic Compliance Matrix: (Units=1/GPa)
#
#
# Indices 1 2 3 4 5 6 
#
# 1 0.024149 -0.017217 -0.008690 0.000000 0.000000 0.000000
# 2 -0.017217 0.285001 -0.040795 0.000000 0.000000 0.000000
# 3 -0.008690 -0.040795 0.017863 0.000000 0.000000 0.000000
# 4 0.000000 0.000000 0.000000 0.042888 0.000000 0.000000
# 5 0.000000 0.000000 0.000000 0.000000 0.037865 0.000000
# 6 0.000000 0.000000 0.000000 0.000000 0.000000 0.036523
#
#
# Mechanical properties :
#
#
# Convention : Reuss Voigt Hill
#
# Bulk Modulus (GPa) = 5.16504 51.63259 28.39881
# Shear Modulus (GPa) = 7.78539 23.64279 15.71409
#
# Velocity S-wave (km/s) = 2.17307 3.78689 3.08729
# Velocity P-wave (km/s) = 3.07069 7.10200 5.47118
#
# Compressibility (1/GPa) = 0.19360952
#
# Stress axis : x y z
#
# Youngs Moduli (GPa) = 41.41032 3.50876 55.98069
#
# Poissons Ratio (x) = 0.06041 0.48648
# Poissons Ratio (y) = 0.71295 2.28371
# Poissons Ratio (z) = 0.35986 0.14314
#
# Static dielectric constant tensor:
#      x y z
#    x 1.530960 0.000000 0.000000 
#    y 0.000000 1.560250 0.000000 
#    z 0.000000 0.000000 1.552040 
# 
# From -- ./inp_files/24567.got.cif
#   From: 2010.05.17/outbox.cif.g08.bks.cpg/sg62_13_cif.got.tgz:24567.got - 2010.06.03 15:25:27.
