data_PCOD9462342
_publ_section_title
;
Structure prediction by ZEFSAII (Michael W. Deem and Ramdas Pophale) SiO2 
 PCOD9462342
Probable space group: P N M A
;
_chemical_formula_sum "Si O2"
_cell_formula_units_Z 48
_cell_length_a 32.328709
_cell_length_b 9.795688
_cell_length_c 6.793365
_cell_angle_alpha 90.000000
_cell_angle_beta 90.000000
_cell_angle_gamma 90.000000
_cell_volume 2151.336054
_symmetry_space_group_name_H-M "P N M A"
_symmetry_group_IT_number 62
_symmetry_cell_setting 'orthorhombic'
loop_
_space_group_symop_operation_xyz
x,y,z
1/2-x,-y,1/2+z
1/2+x,1/2-y,1/2-z
-x,1/2+y,-z
-x,-y,-z
1/2+x,y,1/2-z
1/2-x,1/2+y,1/2+z
x,1/2-y,z
loop_
_atom_site_type_symbol
_atom_site_label
_atom_site_fract_x
_atom_site_fract_y
_atom_site_fract_z
Si Si1 0.301395 0.093725 0.609108
Si Si2 0.208792 0.092762 0.473575
Si Si3 0.140114 0.904679 0.602761
Si Si4 0.950581 0.088969 0.354498
Si Si5 0.609274 0.596801 0.361862
Si Si6 0.538672 0.088708 0.247461
O O1 0.300381 0.250000 0.693522
O O2 0.258122 0.081801 0.498280
O O3 0.347366 0.081708 0.521415
O O4 0.299435 0.972300 0.763463
O O5 0.197113 0.250000 0.488488
O O6 0.178867 0.006063 0.616157
O O7 0.153950 0.750000 0.640940
O O8 0.096584 0.931737 0.712513
O O9 0.124817 0.908347 0.369894
O O10 0.952789 0.250000 0.419340
O O11 0.989674 0.071218 0.210288
O O12 0.956706 0.983820 0.533992
O O13 0.592864 0.750000 0.395939
O O14 0.573203 0.486500 0.376637
O O15 0.547199 0.250000 0.238703
#
# Coordination Sequence:
#
# PCOD9462342 Si02
#       6
#     8   8   8   8   8   8
#     4   9  19  33  45  61  88 116 141 175 217 256
#     4  10  19  30  46  66  85 110 146 181 211 249
#     4   8  14  25  38  52  76 109 137 164 206 252
#     4   8  14  22  30  44  71 104 130 156 198 245
#     4   8  14  25  37  49  73 107 133 158 202 250
#     4   9  14  19  30  49  71  96 131 168 194 230
#
# _framework density 22.311716000000001
#
# number of rings (size 3 to 8) (size 9 to 14) (size 15 to 20)
#    0.000    3.333    0.000    3.000    0.000    8.000 
#    0.000    0.000    0.000    0.000    0.000    0.000 
#    0.000    1.333    0.000    3.000    0.000   13.667 
#
# Total GULP energy -267483.627207 kJ/mol
# GULP energy per Si atom -5572.575567 kJ/mol
# Density = 2.226093 g / cm^3
# Si number density = 22.311716 Si / 1000 Ang^3
#
#
#
# Elastic Constant Matrix: (Units=GPa)
#
#
# Indices 1 2 3 4 5 6 
#
# 1 201.6725 121.8239 27.1506 0.0000 0.0000 0.0000
# 2 121.8239 141.7725 38.6148 0.0000 0.0000 0.0000
# 3 27.1506 38.6148 37.1021 0.0000 0.0000 0.0000
# 4 0.0000 0.0000 0.0000 13.8855 0.0000 0.0000
# 5 0.0000 0.0000 0.0000 0.0000 41.0786 0.0000
# 6 0.0000 0.0000 0.0000 0.0000 0.0000 48.5896
#
#
#
# Elastic Compliance Matrix: (Units=1/GPa)
#
#
# Indices 1 2 3 4 5 6 
#
# 1 0.010458 -0.009633 0.002372 0.000000 0.000000 0.000000
# 2 -0.009633 0.018716 -0.012431 0.000000 0.000000 0.000000
# 3 0.002372 -0.012431 0.038154 0.000000 0.000000 0.000000
# 4 0.000000 0.000000 0.000000 0.072018 0.000000 0.000000
# 5 0.000000 0.000000 0.000000 0.000000 0.024344 0.000000
# 6 0.000000 0.000000 0.000000 0.000000 0.000000 0.020581
#
#
# Mechanical properties :
#
#
# Convention : Reuss Voigt Hill
#
# Bulk Modulus (GPa) = 35.78231 83.96954 59.87592
# Shear Modulus (GPa) = 21.46224 33.57458 27.51841
#
# Velocity S-wave (km/s) = 3.10486 3.88338 3.51573
# Velocity P-wave (km/s) = 5.37827 7.60420 6.58596
#
# Compressibility (1/GPa) = 0.02794677
#
# Stress axis : x y z
#
# Youngs Moduli (GPa) = 95.62207 53.42888 26.20955
#
# Poissons Ratio (x) = 0.51465 -0.06218
# Poissons Ratio (y) = 0.92108 0.32580
# Poissons Ratio (z) = -0.22686 0.66416
#
# Static dielectric constant tensor:
#      x y z
#    x 1.899180 0.000000 0.000000 
#    y 0.000000 1.741370 0.000000 
#    z 0.000000 0.000000 1.989510 
# 
# From -- ./inp_files/15621.got.cif
#   From: 2010.05.17/outbox.cif.g08.bks.cpg/sg62_8_cif.got.tgz:15621.got - 2010.06.03 15:25:27.
