data_PCOD9462249
_publ_section_title
;
Structure prediction by ZEFSAII (Michael W. Deem and Ramdas Pophale) SiO2 
 PCOD9462249
Probable space group: P N M A
;
_chemical_formula_sum "Si O2"
_cell_formula_units_Z 56
_cell_length_a 9.634976
_cell_length_b 19.339643
_cell_length_c 17.131352
_cell_angle_alpha 90.000000
_cell_angle_beta 90.000000
_cell_angle_gamma 90.000000
_cell_volume 3192.204672
_symmetry_space_group_name_H-M "P N M A"
_symmetry_group_IT_number 62
_symmetry_cell_setting 'orthorhombic'
loop_
_space_group_symop_operation_xyz
x,y,z
1/2-x,-y,1/2+z
1/2+x,1/2-y,1/2-z
-x,1/2+y,-z
-x,-y,-z
1/2+x,y,1/2-z
1/2-x,1/2+y,1/2+z
x,1/2-y,z
loop_
_atom_site_type_symbol
_atom_site_label
_atom_site_fract_x
_atom_site_fract_y
_atom_site_fract_z
Si Si1 0.831913 0.427207 0.463140
Si Si2 0.687602 0.924766 0.491654
Si Si3 0.288841 0.023023 0.341568
Si Si4 0.944050 0.612771 0.409083
Si Si5 0.464328 0.477031 0.188292
Si Si6 0.552862 0.750000 0.172052
Si Si7 0.612859 0.386614 0.569709
Si Si8 0.879268 0.750000 0.169696
O O1 0.751346 0.500278 0.469432
O O2 0.896537 0.426780 0.377146
O O3 0.716634 0.374761 0.496416
O O4 0.958153 0.421349 0.524444
O O5 0.690155 0.925567 0.585312
O O6 0.795609 0.873847 0.449410
O O7 0.533656 0.915190 0.460275
O O8 0.395141 0.035003 0.271524
O O9 0.130535 0.028774 0.312815
O O10 0.317110 0.945990 0.376233
O O11 0.931466 0.555355 0.341124
O O12 0.012525 0.681679 0.376275
O O13 0.715954 0.750000 0.188757
O O14 0.467897 0.750000 0.252037
O O15 0.591698 0.318017 0.619029
#
# Coordination Sequence:
#
# PCOD9462249 Si02
#       8
#     8   8   8   8   8   4   8   4
#     4  10  18  39  56  78 108 154 192 235 284 339
#     4  10  21  36  58  80 111 148 195 241 283 342
#     4  11  21  34  52  87 113 146 181 234 291 339
#     4  11  20  39  58  77 113 159 192 230 273 344
#     4  11  21  32  55  82 117 142 184 235 293 334
#     4  12  26  40  60  84 119 160 197 227 275 336
#     4  11  23  37  58  79 119 154 196 229 279 335
#     4  12  26  42  56  86 121 156 197 229 267 342
#
# _framework density 17.542735
#
# number of rings (size 3 to 8) (size 9 to 14) (size 15 to 20)
#    0.000    1.143    5.714    3.429    8.000    0.000 
#    0.000    0.000    0.000    0.000    0.000    6.000 
#    0.000    0.000    0.000    0.000    0.000    0.000 
#
# Total GULP energy -312513.454626 kJ/mol
# GULP energy per Si atom -5580.597404 kJ/mol
# Density = 1.750281 g / cm^3
# Si number density = 17.542735 Si / 1000 Ang^3
#
#
#
# Elastic Constant Matrix: (Units=GPa)
#
#
# Indices 1 2 3 4 5 6 
#
# 1 144.4956 16.7749 69.7888 0.0000 0.0000 0.0000
# 2 16.7749 43.8142 25.8368 0.0000 0.0000 0.0000
# 3 69.7888 25.8368 95.1602 0.0000 0.0000 0.0000
# 4 0.0000 0.0000 0.0000 15.5002 0.0000 0.0000
# 5 0.0000 0.0000 0.0000 0.0000 47.9299 0.0000
# 6 0.0000 0.0000 0.0000 0.0000 0.0000 18.9397
#
#
#
# Elastic Compliance Matrix: (Units=1/GPa)
#
#
# Indices 1 2 3 4 5 6 
#
# 1 0.010731 0.000634 -0.008042 0.000000 0.000000 0.000000
# 2 0.000634 0.027212 -0.007853 0.000000 0.000000 0.000000
# 3 -0.008042 -0.007853 0.018539 0.000000 0.000000 0.000000
# 4 0.000000 0.000000 0.000000 0.064515 0.000000 0.000000
# 5 0.000000 0.000000 0.000000 0.000000 0.020864 0.000000
# 6 0.000000 0.000000 0.000000 0.000000 0.000000 0.052799
#
#
# Mechanical properties :
#
#
# Convention : Reuss Voigt Hill
#
# Bulk Modulus (GPa) = 38.52234 56.47458 47.49846
# Shear Modulus (GPa) = 21.38246 27.87857 24.63052
#
# Velocity S-wave (km/s) = 3.49503 3.99078 3.75110
# Velocity P-wave (km/s) = 6.18820 7.31420 6.77463
#
# Compressibility (1/GPa) = 0.02595897
#
# Stress axis : x y z
#
# Youngs Moduli (GPa) = 93.18534 36.74861 53.94089
#
# Poissons Ratio (x) = -0.02329 0.43380
# Poissons Ratio (y) = -0.05906 0.42360
# Poissons Ratio (z) = 0.74942 0.28859
#
# Static dielectric constant tensor:
#      x y z
#    x 1.624110 0.000000 0.000000 
#    y 0.000000 1.595100 0.000000 
#    z 0.000000 0.000000 1.611220 
# 
# From -- ./inp_files/22528.got.cif
#   From: 2010.05.17/outbox.cif.g08.bks.cpg/sg62_12_cif.got.tgz:22528.got - 2010.06.03 15:25:27.
