data_PCOD9462105
_publ_section_title
;
Structure prediction by ZEFSAII (Michael W. Deem and Ramdas Pophale) SiO2 
 PCOD9462105
Probable space group: P N M A
;
_chemical_formula_sum "Si O2"
_cell_formula_units_Z 64
_cell_length_a 15.930107
_cell_length_b 7.612530
_cell_length_c 24.400573
_cell_angle_alpha 90.000000
_cell_angle_beta 90.000000
_cell_angle_gamma 90.000000
_cell_volume 2959.018872
_symmetry_space_group_name_H-M "P N M A"
_symmetry_group_IT_number 62
_symmetry_cell_setting 'orthorhombic'
loop_
_space_group_symop_operation_xyz
x,y,z
1/2-x,-y,1/2+z
1/2+x,1/2-y,1/2-z
-x,1/2+y,-z
-x,-y,-z
1/2+x,y,1/2-z
1/2-x,1/2+y,1/2+z
x,1/2-y,z
loop_
_atom_site_type_symbol
_atom_site_label
_atom_site_fract_x
_atom_site_fract_y
_atom_site_fract_z
Si Si1 0.731226 0.542180 0.933192
Si Si2 0.332226 0.036950 0.754116
Si Si3 0.638636 0.461360 0.748281
Si Si4 0.386575 0.954328 0.875748
Si Si5 0.105434 0.537759 0.137186
Si Si6 0.428944 0.040048 0.133281
Si Si7 0.770432 0.953684 0.052544
Si Si8 0.920068 0.534487 0.128238
O O1 0.714664 0.750000 0.939759
O O2 0.814544 0.522062 0.897043
O O3 0.650292 0.469235 0.901002
O O4 0.748579 0.466885 0.993525
O O5 0.333921 0.250000 0.757100
O O6 0.235436 0.980922 0.746668
O O7 0.383342 0.982469 0.700423
O O8 0.367209 0.968697 0.811213
O O9 0.639209 0.250000 0.746489
O O10 0.587778 0.511010 0.802341
O O11 0.602305 0.522156 0.690154
O O12 0.385563 0.750000 0.891581
O O13 0.479953 0.028963 0.884416
O O14 0.311393 0.041252 0.909122
O O15 0.106819 0.750000 0.136817
O O16 0.015002 0.480602 0.114994
O O17 0.432310 0.250000 0.125886
O O18 0.792732 0.750000 0.042453
O O19 0.849081 0.029115 0.086242
O O20 0.917548 0.750000 0.128580
#
# Coordination Sequence:
#
# PCOD9462105 Si02
#       8
#     8   8   8   8   8   8   8   8
#     4  10  22  39  58  78 108 149 189 231 279 330
#     4  10  19  34  58  85 112 144 182 222 273 336
#     4  10  18  33  59  85 108 142 184 223 268 329
#     4  11  23  37  56  83 114 146 181 229 283 329
#     4  10  20  35  57  84 112 142 179 226 275 327
#     4  10  22  38  54  80 116 147 179 226 282 334
#     4  10  21  40  60  78 106 149 193 231 277 330
#     4   9  18  34  56  81 110 141 178 227 275 325
#
# _framework density 21.628789999999999
#
# number of rings (size 3 to 8) (size 9 to 14) (size 15 to 20)
#    0.000    2.000    2.500    1.125    0.000    4.500 
#    0.000    1.250    0.000    0.000    0.000    0.000 
#    0.000    0.000    0.000    0.000    0.000    0.000 
#
# Total GULP energy -357572.768031 kJ/mol
# GULP energy per Si atom -5587.074500 kJ/mol
# Density = 2.157956 g / cm^3
# Si number density = 21.628790 Si / 1000 Ang^3
#
#
#
# Elastic Constant Matrix: (Units=GPa)
#
#
# Indices 1 2 3 4 5 6 
#
# 1 102.6280 -8.8550 17.0016 0.0000 0.0000 0.0000
# 2 -8.8550 40.0095 -11.9760 0.0000 0.0000 0.0000
# 3 17.0016 -11.9760 101.2592 0.0000 0.0000 0.0000
# 4 0.0000 0.0000 0.0000 15.0402 0.0000 0.0000
# 5 0.0000 0.0000 0.0000 0.0000 -4.6737 0.0000
# 6 0.0000 0.0000 0.0000 0.0000 0.0000 -9.5401
#
#
#
# Elastic Compliance Matrix: (Units=1/GPa)
#
#
# Indices 1 2 3 4 5 6 
#
# 1 0.010146 0.001799 -0.001491 0.000000 0.000000 0.000000
# 2 0.001799 0.026230 0.002800 0.000000 0.000000 0.000000
# 3 -0.001491 0.002800 0.010457 0.000000 0.000000 0.000000
# 4 0.000000 0.000000 0.000000 0.066488 0.000000 0.000000
# 5 0.000000 0.000000 0.000000 0.000000 -0.213964 0.000000
# 6 0.000000 0.000000 0.000000 0.000000 0.000000 -0.104821
#
#
# Mechanical properties :
#
#
# Convention : Reuss Voigt Hill
#
# Bulk Modulus (GPa) = 18.84967 26.24865 22.54916
# Shear Modulus (GPa) = -25.77361 16.68036 -4.54663
#
# Velocity S-wave (km/s) = -3.45575 2.78008 -1.45144
# Velocity P-wave (km/s) = 2.68122 4.73999 2.76392
#
# Compressibility (1/GPa) = 0.05305132
#
# Stress axis : x y z
#
# Youngs Moduli (GPa) = 98.55959 38.12360 95.62856
#
# Poissons Ratio (x) = -0.06860 0.14256
# Poissons Ratio (y) = -0.17734 -0.26778
# Poissons Ratio (z) = 0.14693 -0.10675
#
# Static dielectric constant tensor:
#      x y z
#    x 1.782390 0.000000 0.000000 
#    y 0.000000 1.834380 0.000000 
#    z 0.000000 0.000000 1.749100 
# 
# From -- ./inp_files/29876.got.cif
#   From: 2010.05.17/outbox.cif.g08.bks.cpg/sg62_15_cif.got.tgz:29876.got - 2010.06.03 15:25:27.
