data_PCOD9462446
_publ_section_title
;
Structure prediction by ZEFSAII (Michael W. Deem and Ramdas Pophale) SiO2 
 PCOD9462446
Probable space group: P N M A
;
_chemical_formula_sum "Si O2"
_cell_formula_units_Z 48
_cell_length_a 31.472157
_cell_length_b 9.483149
_cell_length_c 6.928317
_cell_angle_alpha 90.000000
_cell_angle_beta 90.000000
_cell_angle_gamma 90.000000
_cell_volume 2067.791918
_symmetry_space_group_name_H-M "P N M A"
_symmetry_group_IT_number 62
_symmetry_cell_setting 'orthorhombic'
loop_
_space_group_symop_operation_xyz
x,y,z
1/2-x,-y,1/2+z
1/2+x,1/2-y,1/2-z
-x,1/2+y,-z
-x,-y,-z
1/2+x,y,1/2-z
1/2-x,1/2+y,1/2+z
x,1/2-y,z
loop_
_atom_site_type_symbol
_atom_site_label
_atom_site_fract_x
_atom_site_fract_y
_atom_site_fract_z
Si Si1 0.552129 0.911534 0.316081
Si Si2 0.895113 0.592298 0.359723
Si Si3 0.472168 0.410348 0.226445
Si Si4 0.133185 0.087367 0.096537
Si Si5 0.209001 0.912294 0.975078
Si Si6 0.696343 0.412654 0.894170
O O1 0.558271 0.750000 0.255751
O O2 0.539849 0.907906 0.544780
O O3 0.512570 0.987544 0.214089
O O4 0.594790 0.003230 0.305297
O O5 0.912340 0.750000 0.395583
O O6 0.930960 0.475158 0.377330
O O7 0.880141 0.588720 0.133432
O O8 0.851102 0.574851 0.476770
O O9 0.481847 0.250000 0.170035
O O10 0.135867 0.250000 0.154344
O O11 0.178770 0.010024 0.105850
O O12 0.197642 0.750000 0.008854
O O13 0.198904 0.964468 0.761891
O O14 0.259670 0.927195 0.993730
O O15 0.697759 0.250000 0.813778
#
# Coordination Sequence:
#
# PCOD9462446 Si02
#       6
#     8   8   8   8   8   8
#     4   9  15  22  33  50  74 106 141 173 210 259
#     4   8  14  25  38  52  76 109 140 173 215 259
#     4   9  15  21  31  50  75 103 137 174 211 255
#     4   9  16  26  39  56  81 111 142 179 221 262
#     4  10  19  31  48  68  90 119 154 189 227 271
#     4   9  19  33  47  66  92 120 152 190 228 268
#
# _framework density 23.213166000000001
#
# number of rings (size 3 to 8) (size 9 to 14) (size 15 to 20)
#    0.000    3.000    0.000    3.000    0.000    9.333 
#    0.000    0.000    0.000    0.000    0.000    0.000 
#    0.000    1.333    0.000    4.000    0.000   11.167 
#
# Total GULP energy -268205.894273 kJ/mol
# GULP energy per Si atom -5587.622797 kJ/mol
# Density = 2.316033 g / cm^3
# Si number density = 23.213166 Si / 1000 Ang^3
#
#
#
# Elastic Constant Matrix: (Units=GPa)
#
#
# Indices 1 2 3 4 5 6 
#
# 1 169.2259 120.2279 23.3325 0.0000 0.0000 0.0000
# 2 120.2279 194.2810 18.8554 0.0000 0.0000 0.0000
# 3 23.3325 18.8554 55.6613 0.0000 0.0000 0.0000
# 4 0.0000 0.0000 0.0000 13.1678 0.0000 0.0000
# 5 0.0000 0.0000 0.0000 0.0000 41.4934 0.0000
# 6 0.0000 0.0000 0.0000 0.0000 0.0000 49.6978
#
#
#
# Elastic Compliance Matrix: (Units=1/GPa)
#
#
# Indices 1 2 3 4 5 6 
#
# 1 0.010835 -0.006477 -0.002348 0.000000 0.000000 0.000000
# 2 -0.006477 0.009194 -0.000399 0.000000 0.000000 0.000000
# 3 -0.002348 -0.000399 0.019085 0.000000 0.000000 0.000000
# 4 0.000000 0.000000 0.000000 0.075943 0.000000 0.000000
# 5 0.000000 0.000000 0.000000 0.000000 0.024100 0.000000
# 6 0.000000 0.000000 0.000000 0.000000 0.000000 0.020122
#
#
# Mechanical properties :
#
#
# Convention : Reuss Voigt Hill
#
# Bulk Modulus (GPa) = 48.38916 82.66663 65.52790
# Shear Modulus (GPa) = 27.08338 37.98862 32.53600
#
# Velocity S-wave (km/s) = 3.41944 4.04977 3.74788
# Velocity P-wave (km/s) = 6.03994 7.58662 6.85703
#
# Compressibility (1/GPa) = 0.02066578
#
# Stress axis : x y z
#
# Youngs Moduli (GPa) = 92.29728 108.76509 52.39661
#
# Poissons Ratio (x) = 0.70447 0.12301
# Poissons Ratio (y) = 0.59781 0.02093
# Poissons Ratio (z) = 0.21668 0.04345
#
# Static dielectric constant tensor:
#      x y z
#    x 1.848080 0.000000 0.000000 
#    y 0.000000 1.781500 0.000000 
#    z 0.000000 0.000000 2.000080 
# 
# From -- ./inp_files/15391.got.cif
#   From: 2010.05.17/outbox.cif.g08.bks.cpg/sg62_8_cif.got.tgz:15391.got - 2010.06.03 15:25:27.
