data_PCOD9462386
_publ_section_title
;
Structure prediction by ZEFSAII (Michael W. Deem and Ramdas Pophale) SiO2 
 PCOD9462386
Probable space group: P N M A
;
_chemical_formula_sum "Si O2"
_cell_formula_units_Z 64
_cell_length_a 16.613498
_cell_length_b 8.391134
_cell_length_c 23.508932
_cell_angle_alpha 90.000000
_cell_angle_beta 90.000000
_cell_angle_gamma 90.000000
_cell_volume 3277.288241
_symmetry_space_group_name_H-M "P N M A"
_symmetry_group_IT_number 62
_symmetry_cell_setting 'orthorhombic'
loop_
_space_group_symop_operation_xyz
x,y,z
1/2-x,-y,1/2+z
1/2+x,1/2-y,1/2-z
-x,1/2+y,-z
-x,-y,-z
1/2+x,y,1/2-z
1/2-x,1/2+y,1/2+z
x,1/2-y,z
loop_
_atom_site_type_symbol
_atom_site_label
_atom_site_fract_x
_atom_site_fract_y
_atom_site_fract_z
Si Si1 0.262861 0.060384 0.095681
Si Si2 0.557732 0.561430 0.049638
Si Si3 0.886898 0.431367 0.840747
Si Si4 0.735235 0.061541 0.031432
Si Si5 0.040744 0.557572 0.773109
Si Si6 0.346971 0.067380 0.369774
Si Si7 0.513720 0.433118 0.561648
Si Si8 0.937855 0.056742 0.358374
O O1 0.265209 0.250000 0.092676
O O2 0.352323 0.004834 0.114483
O O3 0.197270 0.013550 0.143512
O O4 0.242966 0.001126 0.031646
O O5 0.570409 0.750000 0.044300
O O6 0.642107 0.474039 0.042034
O O7 0.511485 0.518401 0.107288
O O8 0.500000 0.500000 0.000000
O O9 0.871319 0.250000 0.823121
O O10 0.954008 0.502735 0.797786
O O11 0.933632 0.431263 0.900967
O O12 0.751689 0.250000 0.030406
O O13 0.781361 0.993951 0.087325
O O14 0.041885 0.750000 0.777674
O O15 0.116004 0.495662 0.811643
O O16 0.054679 0.514133 0.707841
O O17 0.322581 0.250000 0.357590
O O18 0.426116 0.055010 0.408476
O O19 0.500000 0.500000 0.500000
O O20 0.544846 0.250000 0.561240
O O21 0.942128 0.250000 0.363218
#
# Coordination Sequence:
#
# PCOD9462386 Si02
#       8
#     8   8   8   8   8   8   8   8
#     4  11  22  36  58  88 119 155 199 245 299 359
#     4  12  24  40  63  88 118 153 194 242 299 358
#     4  10  21  36  54  81 118 154 193 242 294 348
#     4  11  22  37  59  90 125 155 191 243 302 358
#     4   9  19  40  64  84 113 155 203 247 291 352
#     4   9  19  35  56  82 113 150 189 234 286 342
#     4  10  19  30  48  75 109 150 190 232 281 338
#     4  10  22  41  64  87 114 152 200 250 300 353
#
# _framework density 19.528341000000001
#
# number of rings (size 3 to 8) (size 9 to 14) (size 15 to 20)
#    0.000    1.750    1.250    3.375    0.000    6.500 
#    2.250    0.000    0.000    0.000    0.000    0.000 
#    0.000    0.000    0.000    0.000    0.000    0.000 
#
# Total GULP energy -356825.830942 kJ/mol
# GULP energy per Si atom -5575.403608 kJ/mol
# Density = 1.948389 g / cm^3
# Si number density = 19.528341 Si / 1000 Ang^3
#
#
#
# Elastic Constant Matrix: (Units=GPa)
#
#
# Indices 1 2 3 4 5 6 
#
# 1 75.6325 0.3583 19.4011 0.0000 0.0000 0.0000
# 2 0.3583 36.2913 12.1364 0.0000 0.0000 0.0000
# 3 19.4011 12.1364 117.0604 0.0000 0.0000 0.0000
# 4 0.0000 0.0000 0.0000 21.2639 0.0000 0.0000
# 5 0.0000 0.0000 0.0000 0.0000 25.2198 0.0000
# 6 0.0000 0.0000 0.0000 0.0000 0.0000 23.3857
#
#
#
# Elastic Compliance Matrix: (Units=1/GPa)
#
#
# Indices 1 2 3 4 5 6 
#
# 1 0.013824 0.000652 -0.002359 0.000000 0.000000 0.000000
# 2 0.000652 0.028575 -0.003071 0.000000 0.000000 0.000000
# 3 -0.002359 -0.003071 0.009252 0.000000 0.000000 0.000000
# 4 0.000000 0.000000 0.000000 0.047028 0.000000 0.000000
# 5 0.000000 0.000000 0.000000 0.000000 0.039651 0.000000
# 6 0.000000 0.000000 0.000000 0.000000 0.000000 0.042761
#
#
# Mechanical properties :
#
#
# Convention : Reuss Voigt Hill
#
# Bulk Modulus (GPa) = 23.75482 32.53065 28.14274
# Shear Modulus (GPa) = 24.42863 27.11312 25.77087
#
# Velocity S-wave (km/s) = 3.54069 3.73016 3.63666
# Velocity P-wave (km/s) = 5.37643 5.93688 5.66359
#
# Compressibility (1/GPa) = 0.04209671
#
# Stress axis : x y z
#
# Youngs Moduli (GPa) = 72.33907 34.99531 108.08617
#
# Poissons Ratio (x) = -0.02283 0.25495
# Poissons Ratio (y) = -0.04719 0.33190
# Poissons Ratio (z) = 0.17063 0.10746
#
# Static dielectric constant tensor:
#      x y z
#    x 1.691050 0.000000 0.000000 
#    y 0.000000 1.714720 0.000000 
#    z 0.000000 0.000000 1.699110 
# 
# From -- ./inp_files/29839.got.cif
#   From: 2010.05.17/outbox.cif.g08.bks.cpg/sg62_15_cif.got.tgz:29839.got - 2010.06.03 15:25:27.
