data_PCOD9462925
_publ_section_title
;
Structure prediction by ZEFSAII (Michael W. Deem and Ramdas Pophale) SiO2 
 PCOD9462925
Probable space group: P N M A
;
_chemical_formula_sum "Si O2"
_cell_formula_units_Z 48
_cell_length_a 12.439617
_cell_length_b 7.646096
_cell_length_c 22.694989
_cell_angle_alpha 90.000000
_cell_angle_beta 90.000000
_cell_angle_gamma 90.000000
_cell_volume 2158.622663
_symmetry_space_group_name_H-M "P N M A"
_symmetry_group_IT_number 62
_symmetry_cell_setting 'orthorhombic'
loop_
_space_group_symop_operation_xyz
x,y,z
1/2-x,-y,1/2+z
1/2+x,1/2-y,1/2-z
-x,1/2+y,-z
-x,-y,-z
1/2+x,y,1/2-z
1/2-x,1/2+y,1/2+z
x,1/2-y,z
loop_
_atom_site_type_symbol
_atom_site_label
_atom_site_fract_x
_atom_site_fract_y
_atom_site_fract_z
Si Si1 0.641336 0.964451 0.323021
Si Si2 0.230852 0.542309 0.898788
Si Si3 0.125217 0.040642 0.506895
Si Si4 0.909441 0.038680 0.694053
Si Si5 0.368366 0.963333 0.137836
Si Si6 0.494692 0.447522 0.568607
O O1 0.635645 0.750000 0.323351
O O2 0.589634 0.021734 0.261587
O O3 0.766803 0.012595 0.323003
O O4 0.583556 0.031540 0.382408
O O5 0.214595 0.750000 0.905675
O O6 0.301315 0.511791 0.840562
O O7 0.113774 0.458896 0.903767
O O8 0.303440 0.473447 0.953198
O O9 0.137194 0.250000 0.506124
O O10 0.156364 0.977049 0.571526
O O11 0.000000 0.000000 0.500000
O O12 0.912874 0.250000 0.694034
O O13 0.015591 0.975026 0.659782
O O14 0.373047 0.750000 0.136807
O O15 0.500000 0.500000 0.500000
O O16 0.455558 0.250000 0.564879
#
# Coordination Sequence:
#
# PCOD9462925 Si02
#       6
#     8   8   8   8   8   8
#     4   9  20  36  59  88 117 152 197 247 297 356
#     4  11  23  38  58  86 125 163 196 244 303 361
#     4  10  19  33  54  80 112 148 186 236 291 342
#     4  10  20  35  60  89 115 151 201 246 293 354
#     4   9  17  32  55  83 114 143 184 241 290 343
#     4  11  23  41  65  91 121 159 205 256 310 371
#
# _framework density 22.2364
#
# number of rings (size 3 to 8) (size 9 to 14) (size 15 to 20)
#    0.000    2.000    1.667    2.000    2.333    3.333 
#    0.000    1.667    0.000    2.000    0.000    0.000 
#    0.000    0.000    0.000    0.000    0.000    0.000 
#
# Total GULP energy -268046.415385 kJ/mol
# GULP energy per Si atom -5584.300321 kJ/mol
# Density = 2.218579 g / cm^3
# Si number density = 22.236400 Si / 1000 Ang^3
#
#
#
# Elastic Constant Matrix: (Units=GPa)
#
#
# Indices 1 2 3 4 5 6 
#
# 1 86.4686 -18.5044 31.4222 0.0000 0.0000 0.0000
# 2 -18.5044 40.3896 4.7394 0.0000 0.0000 0.0000
# 3 31.4222 4.7394 136.8566 0.0000 0.0000 0.0000
# 4 0.0000 0.0000 0.0000 11.5013 0.0000 0.0000
# 5 0.0000 0.0000 0.0000 0.0000 27.1452 0.0000
# 6 0.0000 0.0000 0.0000 0.0000 0.0000 11.1143
#
#
#
# Elastic Compliance Matrix: (Units=1/GPa)
#
#
# Indices 1 2 3 4 5 6 
#
# 1 0.014345 0.006987 -0.003536 0.000000 0.000000 0.000000
# 2 0.006987 0.028263 -0.002583 0.000000 0.000000 0.000000
# 3 -0.003536 -0.002583 0.008208 0.000000 0.000000 0.000000
# 4 0.000000 0.000000 0.000000 0.086947 0.000000 0.000000
# 5 0.000000 0.000000 0.000000 0.000000 0.036839 0.000000
# 6 0.000000 0.000000 0.000000 0.000000 0.000000 0.089974
#
#
# Mechanical properties :
#
#
# Convention : Reuss Voigt Hill
#
# Bulk Modulus (GPa) = 19.02842 33.22546 26.12694
# Shear Modulus (GPa) = 17.83443 26.35600 22.09522
#
# Velocity S-wave (km/s) = 2.83510 3.44650 3.15564
# Velocity P-wave (km/s) = 4.39238 5.55087 5.00525
#
# Compressibility (1/GPa) = 0.05255297
#
# Stress axis : x y z
#
# Youngs Moduli (GPa) = 69.71115 35.38193 121.83051
#
# Poissons Ratio (x) = -0.24721 0.43074
# Poissons Ratio (y) = -0.48707 0.31468
# Poissons Ratio (z) = 0.24647 0.09139
#
# Static dielectric constant tensor:
#      x y z
#    x 1.775050 0.000000 0.000000 
#    y 0.000000 1.914660 0.000000 
#    z 0.000000 0.000000 1.823300 
# 
# From -- ./inp_files/29269.got.cif
#   From: 2010.05.17/outbox.cif.g08.bks.cpg/sg62_15_cif.got.tgz:29269.got - 2010.06.03 15:25:27.
