data_PCOD9462450
_publ_section_title
;
Structure prediction by ZEFSAII (Michael W. Deem and Ramdas Pophale) SiO2 
 PCOD9462450
Probable space group: P N M A
;
_chemical_formula_sum "Si O2"
_cell_formula_units_Z 64
_cell_length_a 19.710854
_cell_length_b 8.559073
_cell_length_c 24.108570
_cell_angle_alpha 90.000000
_cell_angle_beta 90.000000
_cell_angle_gamma 90.000000
_cell_volume 4067.275798
_symmetry_space_group_name_H-M "P N M A"
_symmetry_group_IT_number 62
_symmetry_cell_setting 'orthorhombic'
loop_
_space_group_symop_operation_xyz
x,y,z
1/2-x,-y,1/2+z
1/2+x,1/2-y,1/2-z
-x,1/2+y,-z
-x,-y,-z
1/2+x,y,1/2-z
1/2-x,1/2+y,1/2+z
x,1/2-y,z
loop_
_atom_site_type_symbol
_atom_site_label
_atom_site_fract_x
_atom_site_fract_y
_atom_site_fract_z
Si Si1 0.263901 0.061639 0.337149
Si Si2 0.503425 0.062365 0.618050
Si Si3 0.349614 0.062153 0.228128
Si Si4 0.361771 0.440503 0.562401
Si Si5 0.501427 0.562714 0.743544
Si Si6 0.226219 0.938228 0.165062
Si Si7 0.641519 0.939250 0.563936
Si Si8 0.640442 0.936659 0.226405
O O1 0.258548 0.250000 0.336728
O O2 0.315024 0.016603 0.286952
O O3 0.298175 0.011931 0.394661
O O4 0.191307 0.991021 0.321727
O O5 0.505159 0.250000 0.618698
O O6 0.435865 0.012553 0.584879
O O7 0.499333 0.002884 0.681029
O O8 0.570685 0.998424 0.588860
O O9 0.348161 0.250000 0.225455
O O10 0.427636 0.010717 0.228850
O O11 0.300780 0.997079 0.180573
O O12 0.360862 0.250000 0.562321
O O13 0.305787 0.492203 0.607143
O O14 0.350306 0.492338 0.499446
O O15 0.502131 0.750000 0.740434
O O16 0.434346 0.507009 0.774971
O O17 0.226930 0.750000 0.165144
O O18 0.176546 0.987692 0.215659
O O19 0.639679 0.750000 0.564536
O O20 0.635964 0.750000 0.227181
#
# Coordination Sequence:
#
# PCOD9462450 Si02
#       8
#     8   8   8   8   8   8   8   8
#     4   9  17  31  47  67  92 123 160 193 230 277
#     4  11  20  31  45  67 100 131 164 200 232 272
#     4   9  18  31  46  67  92 119 156 195 231 277
#     4   9  18  32  48  67  95 128 162 198 232 276
#     4  11  20  32  49  70  96 128 161 194 236 286
#     4   9  17  31  47  67  93 123 155 191 237 282
#     4  10  19  33  50  67  93 130 167 198 230 273
#     4  10  19  31  48  70  95 122 154 195 242 284
#
# _framework density 15.735348
#
# number of rings (size 3 to 8) (size 9 to 14) (size 15 to 20)
#    0.000    2.250    2.500    1.500    0.000    2.000 
#    0.000    1.250    0.000    0.000    0.000    0.875 
#    0.000    0.000    0.000    0.000    0.000    0.000 
#
# Total GULP energy -356950.101153 kJ/mol
# GULP energy per Si atom -5577.345331 kJ/mol
# Density = 1.569953 g / cm^3
# Si number density = 15.735348 Si / 1000 Ang^3
#
#
#
# Elastic Constant Matrix: (Units=GPa)
#
#
# Indices 1 2 3 4 5 6 
#
# 1 138.3767 20.8220 70.6279 0.0000 0.0000 0.0000
# 2 20.8220 12.4397 15.9829 0.0000 0.0000 0.0000
# 3 70.6279 15.9829 98.6858 0.0000 0.0000 0.0000
# 4 0.0000 0.0000 0.0000 15.1035 0.0000 0.0000
# 5 0.0000 0.0000 0.0000 0.0000 17.9942 0.0000
# 6 0.0000 0.0000 0.0000 0.0000 0.0000 22.9133
#
#
#
# Elastic Compliance Matrix: (Units=1/GPa)
#
#
# Indices 1 2 3 4 5 6 
#
# 1 0.012676 -0.012074 -0.007116 0.000000 0.000000 0.000000
# 2 -0.012074 0.113011 -0.009662 0.000000 0.000000 0.000000
# 3 -0.007116 -0.009662 0.016791 0.000000 0.000000 0.000000
# 4 0.000000 0.000000 0.000000 0.066210 0.000000 0.000000
# 5 0.000000 0.000000 0.000000 0.000000 0.055574 0.000000
# 6 0.000000 0.000000 0.000000 0.000000 0.000000 0.043643
#
#
# Mechanical properties :
#
#
# Convention : Reuss Voigt Hill
#
# Bulk Modulus (GPa) = 11.79614 51.59641 31.69628
# Shear Modulus (GPa) = 12.69470 20.67349 16.68409
#
# Velocity S-wave (km/s) = 2.84344 3.62860 3.25975
# Velocity P-wave (km/s) = 4.27704 7.10049 5.86132
#
# Compressibility (1/GPa) = 0.08477347
#
# Stress axis : x y z
#
# Youngs Moduli (GPa) = 78.89186 8.84872 59.55549
#
# Poissons Ratio (x) = 0.10684 0.42382
# Poissons Ratio (y) = 0.95250 0.57543
# Poissons Ratio (z) = 0.56142 0.08550
#
# Static dielectric constant tensor:
#      x y z
#    x 1.520360 0.000000 0.000000 
#    y 0.000000 1.534830 0.000000 
#    z 0.000000 0.000000 1.514220 
# 
# From -- ./inp_files/30058.got.cif
#   From: 2010.05.17/outbox.cif.g08.bks.cpg/sg62_16_cif.got.tgz:30058.got - 2010.06.03 15:25:27.
