data_PCOD9462511
_publ_section_title
;
Structure prediction by ZEFSAII (Michael W. Deem and Ramdas Pophale) SiO2 
 PCOD9462511
Probable space group: P N M A
;
_chemical_formula_sum "Si O2"
_cell_formula_units_Z 64
_cell_length_a 14.679665
_cell_length_b 8.898354
_cell_length_c 30.811192
_cell_angle_alpha 90.000000
_cell_angle_beta 90.000000
_cell_angle_gamma 90.000000
_cell_volume 4024.707511
_symmetry_space_group_name_H-M "P N M A"
_symmetry_group_IT_number 62
_symmetry_cell_setting 'orthorhombic'
loop_
_space_group_symop_operation_xyz
x,y,z
1/2-x,-y,1/2+z
1/2+x,1/2-y,1/2-z
-x,1/2+y,-z
-x,-y,-z
1/2+x,y,1/2-z
1/2-x,1/2+y,1/2+z
x,1/2-y,z
loop_
_atom_site_type_symbol
_atom_site_label
_atom_site_fract_x
_atom_site_fract_y
_atom_site_fract_z
Si Si1 0.310810 0.926104 0.368505
Si Si2 0.310595 0.928473 0.795417
Si Si3 0.322212 0.926496 0.636182
Si Si4 0.208003 0.430161 0.711796
Si Si5 0.892133 0.429702 0.047742
Si Si6 0.501020 0.924389 0.222340
Si Si7 0.009003 0.580661 0.173798
Si Si8 0.105131 0.431028 0.045142
O O1 0.288058 0.750000 0.372004
O O2 0.407469 0.938296 0.343596
O O3 0.238323 0.009897 0.338476
O O4 0.329703 0.996958 0.415459
O O5 0.302672 0.750000 0.792773
O O6 0.260729 0.999337 0.753023
O O7 0.415769 0.978888 0.795356
O O8 0.301169 0.750000 0.638706
O O9 0.331121 0.971685 0.585771
O O10 0.255422 0.017410 0.667454
O O11 0.422785 0.958555 0.655055
O O12 0.213053 0.250000 0.716467
O O13 0.101563 0.473906 0.711454
O O14 0.885385 0.250000 0.049524
O O15 0.999182 0.471082 0.055329
O O16 0.869900 0.490034 0.999797
O O17 0.512060 0.750000 0.208658
O O18 0.508399 0.927730 0.274475
O O19 0.040463 0.750000 0.161347
O O20 0.107721 0.250000 0.039889
#
# Coordination Sequence:
#
# PCOD9462511 Si02
#       8
#     8   8   8   8   8   8   8   8
#     4  11  21  35  53  74 103 141 178 212 258 310
#     4  12  24  35  52  77 104 135 174 218 260 304
#     4  11  21  33  50  76 106 137 174 215 258 303
#     4  11  22  37  54  74 102 138 178 214 256 309
#     4  10  19  32  50  75 104 135 174 216 257 306
#     4  10  21  38  54  71 100 138 178 217 253 300
#     4  10  19  31  50  72 100 139 178 211 249 302
#     4   9  19  33  48  72 106 140 171 209 259 310
#
# _framework density 15.901776999999999
#
# number of rings (size 3 to 8) (size 9 to 14) (size 15 to 20)
#    0.000    1.500    3.750    2.625    0.000    3.000 
#    0.000    0.000    0.000    0.000    0.000    0.875 
#    0.000    0.000    0.000    0.000    0.000    0.000 
#
# Total GULP energy -357277.334573 kJ/mol
# GULP energy per Si atom -5582.458353 kJ/mol
# Density = 1.586558 g / cm^3
# Si number density = 15.901777 Si / 1000 Ang^3
#
#
#
# Elastic Constant Matrix: (Units=GPa)
#
#
# Indices 1 2 3 4 5 6 
#
# 1 78.3462 42.7353 43.5705 0.0000 0.0000 0.0000
# 2 42.7353 66.5249 42.0558 0.0000 0.0000 0.0000
# 3 43.5705 42.0558 99.5283 0.0000 0.0000 0.0000
# 4 0.0000 0.0000 0.0000 26.8723 0.0000 0.0000
# 5 0.0000 0.0000 0.0000 0.0000 22.3886 0.0000
# 6 0.0000 0.0000 0.0000 0.0000 0.0000 -17.0653
#
#
#
# Elastic Compliance Matrix: (Units=1/GPa)
#
#
# Indices 1 2 3 4 5 6 
#
# 1 0.021215 -0.010585 -0.004815 0.000000 0.000000 0.000000
# 2 -0.010585 0.025792 -0.006265 0.000000 0.000000 0.000000
# 3 -0.004815 -0.006265 0.014802 0.000000 0.000000 0.000000
# 4 0.000000 0.000000 0.000000 0.037213 0.000000 0.000000
# 5 0.000000 0.000000 0.000000 0.000000 0.044666 0.000000
# 6 0.000000 0.000000 0.000000 0.000000 0.000000 -0.058598
#
#
# Mechanical properties :
#
#
# Convention : Reuss Voigt Hill
#
# Bulk Modulus (GPa) = 54.10970 55.68030 54.89500
# Shear Modulus (GPa) = 37.15305 14.17497 25.66401
#
# Velocity S-wave (km/s) = 4.83888 2.98888 4.02171
# Velocity P-wave (km/s) = 8.08215 6.85583 7.49411
#
# Compressibility (1/GPa) = 0.01848097
#
# Stress axis : x y z
#
# Youngs Moduli (GPa) = 47.13626 38.77169 67.55684
#
# Poissons Ratio (x) = 0.41039 0.32527
# Poissons Ratio (y) = 0.49892 0.42323
# Poissons Ratio (z) = 0.22695 0.24290
#
# Static dielectric constant tensor:
#      x y z
#    x 1.519770 0.000000 0.000000 
#    y 0.000000 1.547220 0.000000 
#    z 0.000000 0.000000 1.523190 
# 
# From -- ./inp_files/32706.got.cif
#   From: 2010.05.17/outbox.cif.g08.bks.cpg/sg62_17_cif.got.tgz:32706.got - 2010.06.03 15:25:27.
