data_PCOD9462233
_publ_section_title
;
Structure prediction by ZEFSAII (Michael W. Deem and Ramdas Pophale) SiO2 
 PCOD9462233
Probable space group: P N M A
;
_chemical_formula_sum "Si O2"
_cell_formula_units_Z 48
_cell_length_a 14.701939
_cell_length_b 14.430846
_cell_length_c 12.326222
_cell_angle_alpha 90.000000
_cell_angle_beta 90.000000
_cell_angle_gamma 90.000000
_cell_volume 2615.148733
_symmetry_space_group_name_H-M "P N M A"
_symmetry_group_IT_number 62
_symmetry_cell_setting 'orthorhombic'
loop_
_space_group_symop_operation_xyz
x,y,z
1/2-x,-y,1/2+z
1/2+x,1/2-y,1/2-z
-x,1/2+y,-z
-x,-y,-z
1/2+x,y,1/2-z
1/2-x,1/2+y,1/2+z
x,1/2-y,z
loop_
_atom_site_type_symbol
_atom_site_label
_atom_site_fract_x
_atom_site_fract_y
_atom_site_fract_z
Si Si1 0.341001 0.439115 0.260662
Si Si2 0.085177 0.049622 0.555637
Si Si3 0.959932 0.144293 0.706183
Si Si4 0.710679 0.950478 0.087675
Si Si5 0.515525 0.476564 0.374178
Si Si6 0.195530 0.355828 0.119016
O O1 0.379090 0.485117 0.151739
O O2 0.285335 0.515467 0.328087
O O3 0.430070 0.416290 0.330735
O O4 0.268650 0.365327 0.216508
O O5 0.041789 0.136678 0.617408
O O6 0.164273 0.042686 0.466248
O O7 0.000000 0.000000 0.500000
O O8 0.950424 0.250000 0.742920
O O9 0.868317 0.108250 0.646538
O O10 0.980054 0.070865 0.802313
O O11 0.756889 0.891728 0.991675
O O12 0.500000 0.500000 0.500000
O O13 0.609652 0.421938 0.359144
O O14 0.166838 0.250000 0.106592
#
# Coordination Sequence:
#
# PCOD9462233 Si02
#       6
#     8   8   8   8   8   8
#     4  10  20  37  63  85 119 161 200 244 305 355
#     4   8  18  34  57  82 113 155 193 246 296 352
#     4  10  20  37  61  89 117 158 207 246 291 357
#     4  10  18  37  63  84 118 157 199 248 308 356
#     4  11  22  39  62  88 123 165 194 252 309 352
#     4  11  23  39  62  91 121 161 206 247 304 369
#
# _framework density 18.354596999999998
#
# number of rings (size 3 to 8) (size 9 to 14) (size 15 to 20)
#    0.000    2.000    3.333    0.500    0.000    1.333 
#    0.000    1.667    0.000    0.000    0.000    0.000 
#    0.000    0.000    0.000    0.000    0.000    0.000 
#
# Total GULP energy -267295.105390 kJ/mol
# GULP energy per Si atom -5568.648029 kJ/mol
# Density = 1.831282 g / cm^3
# Si number density = 18.354597 Si / 1000 Ang^3
#
#
#
# Elastic Constant Matrix: (Units=GPa)
#
#
# Indices 1 2 3 4 5 6 
#
# 1 100.1695 31.6829 40.6986 0.0000 0.0000 0.0000
# 2 31.6829 92.9674 36.8055 0.0000 0.0000 0.0000
# 3 40.6986 36.8055 94.6927 0.0000 0.0000 0.0000
# 4 0.0000 0.0000 0.0000 16.4809 0.0000 0.0000
# 5 0.0000 0.0000 0.0000 0.0000 46.9014 0.0000
# 6 0.0000 0.0000 0.0000 0.0000 0.0000 8.6137
#
#
#
# Elastic Compliance Matrix: (Units=1/GPa)
#
#
# Indices 1 2 3 4 5 6 
#
# 1 0.012582 -0.002537 -0.004421 0.000000 0.000000 0.000000
# 2 -0.002537 0.013224 -0.004050 0.000000 0.000000 0.000000
# 3 -0.004421 -0.004050 0.014035 0.000000 0.000000 0.000000
# 4 0.000000 0.000000 0.000000 0.060676 0.000000 0.000000
# 5 0.000000 0.000000 0.000000 0.000000 0.021321 0.000000
# 6 0.000000 0.000000 0.000000 0.000000 0.000000 0.116095
#
#
# Mechanical properties :
#
#
# Convention : Reuss Voigt Hill
#
# Bulk Modulus (GPa) = 56.10295 56.24485 56.17390
# Shear Modulus (GPa) = 18.80462 26.30870 22.55666
#
# Velocity S-wave (km/s) = 3.20428 3.79008 3.50942
# Velocity P-wave (km/s) = 6.65751 7.06137 6.86241
#
# Compressibility (1/GPa) = 0.01782437
#
# Stress axis : x y z
#
# Youngs Moduli (GPa) = 79.47804 75.61772 71.25160
#
# Poissons Ratio (x) = 0.19188 0.31504
# Poissons Ratio (y) = 0.20167 0.28853
# Poissons Ratio (z) = 0.35141 0.30621
#
# Static dielectric constant tensor:
#      x y z
#    x 1.664480 0.000000 0.000000 
#    y 0.000000 1.583890 0.000000 
#    z 0.000000 0.000000 1.646590 
# 
# From -- ./inp_files/13273.got.cif
#   From: 2010.05.17/outbox.cif.g08.bks.cpg/sg62_7_cif.got.tgz:13273.got - 2010.06.03 15:25:27.
