data_PCOD9462142
_publ_section_title
;
Structure prediction by ZEFSAII (Michael W. Deem and Ramdas Pophale) SiO2 
 PCOD9462142
Probable space group: P N M A
;
_chemical_formula_sum "Si O2"
_cell_formula_units_Z 64
_cell_length_a 15.788617
_cell_length_b 7.530234
_cell_length_c 25.005976
_cell_angle_alpha 90.000000
_cell_angle_beta 90.000000
_cell_angle_gamma 90.000000
_cell_volume 2973.010012
_symmetry_space_group_name_H-M "P N M A"
_symmetry_group_IT_number 62
_symmetry_cell_setting 'orthorhombic'
loop_
_space_group_symop_operation_xyz
x,y,z
1/2-x,-y,1/2+z
1/2+x,1/2-y,1/2-z
-x,1/2+y,-z
-x,-y,-z
1/2+x,y,1/2-z
1/2-x,1/2+y,1/2+z
x,1/2-y,z
loop_
_atom_site_type_symbol
_atom_site_label
_atom_site_fract_x
_atom_site_fract_y
_atom_site_fract_z
Si Si1 0.595203 0.467580 0.251360
Si Si2 0.595934 0.538992 0.514760
Si Si3 0.651291 0.042224 0.135921
Si Si4 0.590606 0.539870 0.024704
Si Si5 0.739333 0.542050 0.947208
Si Si6 0.253415 0.467394 0.175293
Si Si7 0.100274 0.533382 0.757982
Si Si8 0.162680 0.533078 0.874269
O O1 0.594474 0.250000 0.252864
O O2 0.623527 0.531112 0.192673
O O3 0.665878 0.521872 0.294945
O O4 0.497588 0.523387 0.256626
O O5 0.500000 0.500000 0.500000
O O6 0.607973 0.750000 0.515000
O O7 0.668718 0.470701 0.474941
O O8 0.610390 0.470954 0.574938
O O9 0.664442 0.250000 0.146671
O O10 0.741521 0.971860 0.117162
O O11 0.590921 0.027087 0.085493
O O12 0.602590 0.750000 0.028272
O O13 0.500000 0.500000 0.000000
O O14 0.667431 0.467054 0.987549
O O15 0.718553 0.750000 0.941269
O O16 0.740936 0.471075 0.886336
O O17 0.252585 0.250000 0.175210
O O18 0.334889 0.522328 0.211048
O O19 0.100589 0.750000 0.756162
O O20 0.135232 0.477062 0.815566
O O21 0.158280 0.750000 0.874207
#
# Coordination Sequence:
#
# PCOD9462142 Si02
#       8
#     8   8   8   8   8   8   8   8
#     4   9  17  27  49  80 109 139 175 225 281 328
#     4  11  23  38  58  84 115 152 189 232 282 338
#     4  10  18  34  57  82 109 141 185 233 278 333
#     4  11  24  39  57  83 114 152 192 236 284 337
#     4  10  22  38  57  83 115 148 188 234 281 335
#     4   9  17  30  47  76 112 139 173 227 280 327
#     4   9  16  27  46  77 109 137 173 224 282 326
#     4   9  17  31  52  79 110 141 181 231 281 328
#
# _framework density 21.527006
#
# number of rings (size 3 to 8) (size 9 to 14) (size 15 to 20)
#    0.000    2.250    2.500    0.750    3.500    0.500 
#    0.000    0.000    0.000    0.750    0.000    0.000 
#    0.000    0.000    0.000    0.000    0.000    0.000 
#
# Total GULP energy -357174.593880 kJ/mol
# GULP energy per Si atom -5580.853029 kJ/mol
# Density = 2.147801 g / cm^3
# Si number density = 21.527006 Si / 1000 Ang^3
#
#
#
# Elastic Constant Matrix: (Units=GPa)
#
#
# Indices 1 2 3 4 5 6 
#
# 1 89.3603 -5.6012 22.3841 0.0000 0.0000 0.0000
# 2 -5.6012 46.7520 1.0416 0.0000 0.0000 0.0000
# 3 22.3841 1.0416 132.9796 0.0000 0.0000 0.0000
# 4 0.0000 0.0000 0.0000 5.2066 0.0000 0.0000
# 5 0.0000 0.0000 0.0000 0.0000 38.3264 0.0000
# 6 0.0000 0.0000 0.0000 0.0000 0.0000 7.1131
#
#
#
# Elastic Compliance Matrix: (Units=1/GPa)
#
#
# Indices 1 2 3 4 5 6 
#
# 1 0.011782 0.001456 -0.001995 0.000000 0.000000 0.000000
# 2 0.001456 0.021573 -0.000414 0.000000 0.000000 0.000000
# 3 -0.001995 -0.000414 0.007859 0.000000 0.000000 0.000000
# 4 0.000000 0.000000 0.000000 0.192064 0.000000 0.000000
# 5 0.000000 0.000000 0.000000 0.000000 0.026092 0.000000
# 6 0.000000 0.000000 0.000000 0.000000 0.000000 0.140586
#
#
# Mechanical properties :
#
#
# Convention : Reuss Voigt Hill
#
# Bulk Modulus (GPa) = 25.43994 33.86007 29.65001
# Shear Modulus (GPa) = 12.04927 26.88039 19.46483
#
# Velocity S-wave (km/s) = 2.36842 3.53750 3.01026
# Velocity P-wave (km/s) = 4.39575 5.69636 5.08778
#
# Compressibility (1/GPa) = 0.03930827
#
# Stress axis : x y z
#
# Youngs Moduli (GPa) = 84.87855 46.35401 127.24370
#
# Poissons Ratio (x) = -0.06749 0.25380
# Poissons Ratio (y) = -0.12358 0.05268
# Poissons Ratio (z) = 0.16930 0.01919
#
# Static dielectric constant tensor:
#      x y z
#    x 1.783840 0.000000 0.000000 
#    y 0.000000 1.855450 0.000000 
#    z 0.000000 0.000000 1.773470 
# 
# From -- ./inp_files/29779.got.cif
#   From: 2010.05.17/outbox.cif.g08.bks.cpg/sg62_15_cif.got.tgz:29779.got - 2010.06.03 15:25:27.
