data_PCOD9462075
_publ_section_title
;
Structure prediction by ZEFSAII (Michael W. Deem and Ramdas Pophale) SiO2 
 PCOD9462075
Probable space group: P N M A
;
_chemical_formula_sum "Si O2"
_cell_formula_units_Z 64
_cell_length_a 20.252700
_cell_length_b 7.750776
_cell_length_c 21.082972
_cell_angle_alpha 90.000000
_cell_angle_beta 90.000000
_cell_angle_gamma 90.000000
_cell_volume 3309.481421
_symmetry_space_group_name_H-M "P N M A"
_symmetry_group_IT_number 62
_symmetry_cell_setting 'orthorhombic'
loop_
_space_group_symop_operation_xyz
x,y,z
1/2-x,-y,1/2+z
1/2+x,1/2-y,1/2-z
-x,1/2+y,-z
-x,-y,-z
1/2+x,y,1/2-z
1/2-x,1/2+y,1/2+z
x,1/2-y,z
loop_
_atom_site_type_symbol
_atom_site_label
_atom_site_fract_x
_atom_site_fract_y
_atom_site_fract_z
Si Si1 0.670050 0.453870 0.666623
Si Si2 0.426623 0.041197 0.728478
Si Si3 0.072489 0.461659 0.724093
Si Si4 0.437136 0.955657 0.084060
Si Si5 0.320245 0.547111 0.833671
Si Si6 0.554685 0.955701 0.412499
Si Si7 0.911636 0.959565 0.554090
Si Si8 0.908562 0.541727 0.047321
O O1 0.655927 0.250000 0.665351
O O2 0.625461 0.522925 0.724258
O O3 0.747461 0.475365 0.676270
O O4 0.644741 0.520898 0.598446
O O5 0.425122 0.250000 0.729285
O O6 0.498578 0.988338 0.754751
O O7 0.421064 0.980101 0.655647
O O8 0.368796 0.980988 0.774523
O O9 0.073342 0.250000 0.723176
O O10 0.085570 0.522528 0.652357
O O11 0.426641 0.750000 0.084447
O O12 0.515630 0.987510 0.077770
O O13 0.405387 0.021962 0.018581
O O14 0.312059 0.750000 0.843288
O O15 0.357282 0.476516 0.896315
O O16 0.548330 0.750000 0.406002
O O17 0.480826 0.021121 0.428927
O O18 0.598849 0.989877 0.474188
O O19 0.910407 0.750000 0.553842
O O20 0.909669 0.750000 0.047380
#
# Coordination Sequence:
#
# PCOD9462075 Si02
#       8
#     8   8   8   8   8   8   8   8
#     4  10  20  36  55  75 103 142 183 220 260 313
#     4  10  18  33  56  80 103 134 177 221 262 315
#     4   9  16  30  55  81 101 127 174 225 259 299
#     4   9  16  29  53  78  98 125 165 212 256 300
#     4  11  23  36  49  73 111 146 175 216 269 321
#     4   9  17  30  52  80 106 129 165 217 265 309
#     4   9  18  31  47  73 105 132 161 204 257 309
#     4   9  17  31  51  76 105 135 169 213 262 314
#
# _framework density 19.338376
#
# number of rings (size 3 to 8) (size 9 to 14) (size 15 to 20)
#    0.000    2.500    2.500    0.375    0.000    1.500 
#    0.000    2.500    0.000    3.000    0.000    0.000 
#    0.000    0.000    0.000    0.000    0.000    0.000 
#
# Total GULP energy -356898.638225 kJ/mol
# GULP energy per Si atom -5576.541222 kJ/mol
# Density = 1.929436 g / cm^3
# Si number density = 19.338376 Si / 1000 Ang^3
#
#
#
# Elastic Constant Matrix: (Units=GPa)
#
#
# Indices 1 2 3 4 5 6 
#
# 1 77.0434 -15.9723 59.5121 0.0000 0.0000 0.0000
# 2 -15.9723 20.0996 -5.0768 0.0000 0.0000 0.0000
# 3 59.5121 -5.0768 180.5674 0.0000 0.0000 0.0000
# 4 0.0000 0.0000 0.0000 17.2401 0.0000 0.0000
# 5 0.0000 0.0000 0.0000 0.0000 25.5736 0.0000
# 6 0.0000 0.0000 0.0000 0.0000 0.0000 11.3808
#
#
#
# Elastic Compliance Matrix: (Units=1/GPa)
#
#
# Indices 1 2 3 4 5 6 
#
# 1 0.021194 0.015185 -0.006558 0.000000 0.000000 0.000000
# 2 0.015185 0.060988 -0.003290 0.000000 0.000000 0.000000
# 3 -0.006558 -0.003290 0.007607 0.000000 0.000000 0.000000
# 4 0.000000 0.000000 0.000000 0.058004 0.000000 0.000000
# 5 0.000000 0.000000 0.000000 0.000000 0.039103 0.000000
# 6 0.000000 0.000000 0.000000 0.000000 0.000000 0.087868
#
#
# Mechanical properties :
#
#
# Convention : Reuss Voigt Hill
#
# Bulk Modulus (GPa) = 9.95391 39.40405 24.67898
# Shear Modulus (GPa) = 16.80236 26.78871 21.79554
#
# Velocity S-wave (km/s) = 2.95084 3.72595 3.36082
# Velocity P-wave (km/s) = 4.09492 6.23944 5.27726
#
# Compressibility (1/GPa) = 0.10046302
#
# Stress axis : x y z
#
# Youngs Moduli (GPa) = 47.18391 16.39658 131.45688
#
# Poissons Ratio (x) = -0.24899 0.86211
# Poissons Ratio (y) = -0.71650 0.43250
# Poissons Ratio (z) = 0.30944 0.05395
#
# Static dielectric constant tensor:
#      x y z
#    x 1.633280 0.000000 0.000000 
#    y 0.000000 1.743260 0.000000 
#    z 0.000000 0.000000 1.715990 
# 
# From -- ./inp_files/27640.got.cif
#   From: 2010.05.17/outbox.cif.g08.bks.cpg/sg62_14_cif.got.tgz:27640.got - 2010.06.03 15:25:27.
