data_PCOD9462626
_publ_section_title
;
Structure prediction by ZEFSAII (Michael W. Deem and Ramdas Pophale) SiO2 
 PCOD9462626
Probable space group: P N M A
;
_chemical_formula_sum "Si O2"
_cell_formula_units_Z 48
_cell_length_a 14.697173
_cell_length_b 7.274017
_cell_length_c 18.291196
_cell_angle_alpha 90.000000
_cell_angle_beta 90.000000
_cell_angle_gamma 90.000000
_cell_volume 1955.465785
_symmetry_space_group_name_H-M "P N M A"
_symmetry_group_IT_number 62
_symmetry_cell_setting 'orthorhombic'
loop_
_space_group_symop_operation_xyz
x,y,z
1/2-x,-y,1/2+z
1/2+x,1/2-y,1/2-z
-x,1/2+y,-z
-x,-y,-z
1/2+x,y,1/2-z
1/2-x,1/2+y,1/2+z
x,1/2-y,z
loop_
_atom_site_type_symbol
_atom_site_label
_atom_site_fract_x
_atom_site_fract_y
_atom_site_fract_z
Si Si1 0.368604 0.958781 0.169487
Si Si2 0.536581 0.960906 0.380745
Si Si3 0.869745 0.972869 0.036237
Si Si4 0.564221 0.973668 0.132733
Si Si5 0.831047 0.472481 0.497384
Si Si6 0.815736 0.025344 0.765300
O O1 0.379952 0.750000 0.196718
O O2 0.469272 0.041384 0.165895
O O3 0.284665 0.040723 0.214030
O O4 0.337952 0.955972 0.084598
O O5 0.522425 0.750000 0.357631
O O6 0.436425 0.037848 0.398884
O O7 0.607517 0.039594 0.322805
O O8 0.586975 0.966204 0.459159
O O9 0.873217 0.750000 0.037270
O O10 0.764807 0.025985 0.034013
O O11 0.558463 0.750000 0.130799
O O12 0.588343 0.033309 0.051018
O O13 0.646951 0.021106 0.185952
O O14 0.832422 0.250000 0.492437
O O15 0.812347 0.250000 0.770939
#
# Coordination Sequence:
#
# PCOD9462626 Si02
#       6
#     8   8   8   8   8   8
#     4  10  19  33  54  74  95 129 167 203 245 291
#     4   9  16  28  46  69  96 124 159 198 237 283
#     4   9  17  27  44  70  96 125 157 194 241 286
#     4   9  19  32  48  74 102 127 163 206 246 290
#     4  10  19  32  50  73 101 131 164 203 245 293
#     4   9  17  30  49  73  98 125 161 206 248 286
#
# _framework density 24.546582000000001
#
# number of rings (size 3 to 8) (size 9 to 14) (size 15 to 20)
#    0.000    2.667    1.667    0.500    0.000    1.333 
#    0.000    6.667    0.000    4.000    0.000    2.333 
#    0.000    0.000    0.000    0.000    0.000    0.000 
#
# Total GULP energy -268181.526695 kJ/mol
# GULP energy per Si atom -5587.115139 kJ/mol
# Density = 2.449071 g / cm^3
# Si number density = 24.546582 Si / 1000 Ang^3
#
#
#
# Elastic Constant Matrix: (Units=GPa)
#
#
# Indices 1 2 3 4 5 6 
#
# 1 159.4150 1.3476 52.1456 0.0000 0.0000 0.0000
# 2 1.3476 111.3426 -8.0565 0.0000 0.0000 0.0000
# 3 52.1456 -8.0565 43.6358 0.0000 0.0000 0.0000
# 4 0.0000 0.0000 0.0000 4.5723 0.0000 0.0000
# 5 0.0000 0.0000 0.0000 0.0000 15.9036 0.0000
# 6 0.0000 0.0000 0.0000 0.0000 0.0000 -10.2376
#
#
#
# Elastic Compliance Matrix: (Units=1/GPa)
#
#
# Indices 1 2 3 4 5 6 
#
# 1 0.010416 -0.001041 -0.012640 0.000000 0.000000 0.000000
# 2 -0.001041 0.009207 0.002943 0.000000 0.000000 0.000000
# 3 -0.012640 0.002943 0.038565 0.000000 0.000000 0.000000
# 4 0.000000 0.000000 0.000000 0.218706 0.000000 0.000000
# 5 0.000000 0.000000 0.000000 0.000000 0.062879 0.000000
# 6 0.000000 0.000000 0.000000 0.000000 0.000000 -0.097680
#
#
# Mechanical properties :
#
#
# Convention : Reuss Voigt Hill
#
# Bulk Modulus (GPa) = 27.23726 45.02963 36.13344
# Shear Modulus (GPa) = 18.12870 19.97813 19.05341
#
# Velocity S-wave (km/s) = 2.72056 2.85596 2.78909
# Velocity P-wave (km/s) = 4.58136 5.40923 5.01242
#
# Compressibility (1/GPa) = 0.03671442
#
# Stress axis : x y z
#
# Youngs Moduli (GPa) = 96.00356 108.61460 25.93010
#
# Poissons Ratio (x) = 0.11303 0.32775
# Poissons Ratio (y) = 0.09991 -0.07632
# Poissons Ratio (z) = 1.21346 -0.31970
#
# Static dielectric constant tensor:
#      x y z
#    x 1.950310 0.000000 0.000000 
#    y 0.000000 1.866840 0.000000 
#    z 0.000000 0.000000 1.879380 
# 
# From -- ./inp_files/23704.got.cif
#   From: 2010.05.17/outbox.cif.g08.bks.cpg/sg62_12_cif.got.tgz:23704.got - 2010.06.03 15:25:27.
