data_PCOD9462497
_publ_section_title
;
Structure prediction by ZEFSAII (Michael W. Deem and Ramdas Pophale) SiO2 
 PCOD9462497
Probable space group: P N M A
;
_chemical_formula_sum "Si O2"
_cell_formula_units_Z 64
_cell_length_a 19.872829
_cell_length_b 12.871511
_cell_length_c 15.588582
_cell_angle_alpha 90.000000
_cell_angle_beta 90.000000
_cell_angle_gamma 90.000000
_cell_volume 3987.455410
_symmetry_space_group_name_H-M "P N M A"
_symmetry_group_IT_number 62
_symmetry_cell_setting 'orthorhombic'
loop_
_space_group_symop_operation_xyz
x,y,z
1/2-x,-y,1/2+z
1/2+x,1/2-y,1/2-z
-x,1/2+y,-z
-x,-y,-z
1/2+x,y,1/2-z
1/2-x,1/2+y,1/2+z
x,1/2-y,z
loop_
_atom_site_type_symbol
_atom_site_label
_atom_site_fract_x
_atom_site_fract_y
_atom_site_fract_z
Si Si1 0.977960 0.125873 0.255542
Si Si2 0.386133 0.497778 0.735860
Si Si3 0.773278 0.872429 0.855166
Si Si4 0.622535 0.623768 0.902942
Si Si5 0.197701 0.132920 0.944715
Si Si6 0.917359 0.484183 0.093665
Si Si7 0.049237 0.626076 0.081153
Si Si8 0.355888 0.371101 0.906028
O O1 0.982163 0.250000 0.253733
O O2 0.938601 0.093119 0.341801
O O3 0.934349 0.084990 0.175646
O O4 0.051554 0.076770 0.246466
O O5 0.319486 0.559492 0.706693
O O6 0.407299 0.418660 0.660034
O O7 0.376631 0.437459 0.824579
O O8 0.774518 0.750000 0.831205
O O9 0.695314 0.906990 0.863966
O O10 0.803224 0.879465 0.951883
O O11 0.625190 0.750000 0.905967
O O12 0.616535 0.590101 0.001857
O O13 0.173477 0.250000 0.925189
O O14 0.152105 0.045918 0.902316
O O15 0.275089 0.126135 0.916742
O O16 0.976286 0.570833 0.086403
O O17 0.920028 0.414139 0.008405
O O18 0.044326 0.750000 0.083441
O O19 0.375405 0.250000 0.894650
#
# Coordination Sequence:
#
# PCOD9462497 Si02
#       8
#     8   8   8   8   8   8   8   8
#     4  10  21  34  50  74 104 135 173 216 253 297
#     4  11  20  31  51  78 101 133 170 209 257 302
#     4   9  17  31  51  74 101 133 168 208 248 299
#     4   8  17  35  53  71  97 132 170 210 254 294
#     4   9  17  32  52  74 100 128 169 213 249 301
#     4  10  19  31  49  75  98 137 171 197 255 301
#     4  10  20  32  45  69 106 136 163 200 249 307
#     4   9  19  34  53  75  98 130 173 216 254 300
#
# _framework density 16.050336000000001
#
# number of rings (size 3 to 8) (size 9 to 14) (size 15 to 20)
#    0.000    2.500    1.250    3.000    1.750    0.500 
#    0.000    0.000    0.000    0.000    0.000    2.625 
#    0.000    0.000    0.000    0.000    0.000    0.000 
#
# Total GULP energy -356766.143144 kJ/mol
# GULP energy per Si atom -5574.470987 kJ/mol
# Density = 1.601380 g / cm^3
# Si number density = 16.050336 Si / 1000 Ang^3
#
#
#
# Elastic Constant Matrix: (Units=GPa)
#
#
# Indices 1 2 3 4 5 6 
#
# 1 15.7692 15.4009 25.7574 0.0000 0.0000 0.0000
# 2 15.4009 81.2007 44.7184 0.0000 0.0000 0.0000
# 3 25.7574 44.7184 114.1285 0.0000 0.0000 0.0000
# 4 0.0000 0.0000 0.0000 24.9227 0.0000 0.0000
# 5 0.0000 0.0000 0.0000 0.0000 25.0191 0.0000
# 6 0.0000 0.0000 0.0000 0.0000 0.0000 13.8689
#
#
#
# Elastic Compliance Matrix: (Units=1/GPa)
#
#
# Indices 1 2 3 4 5 6 
#
# 1 0.105113 -0.008763 -0.020289 0.000000 0.000000 0.000000
# 2 -0.008763 0.016434 -0.004462 0.000000 0.000000 0.000000
# 3 -0.020289 -0.004462 0.015089 0.000000 0.000000 0.000000
# 4 0.000000 0.000000 0.000000 0.040124 0.000000 0.000000
# 5 0.000000 0.000000 0.000000 0.000000 0.039969 0.000000
# 6 0.000000 0.000000 0.000000 0.000000 0.000000 0.072104
#
#
# Mechanical properties :
#
#
# Convention : Reuss Voigt Hill
#
# Bulk Modulus (GPa) = 14.36590 42.53910 28.45250
# Shear Modulus (GPa) = 13.19036 21.11023 17.15030
#
# Velocity S-wave (km/s) = 2.86984 3.63057 3.27239
# Velocity P-wave (km/s) = 4.46668 6.64348 5.66070
#
# Compressibility (1/GPa) = 0.06960929
#
# Stress axis : x y z
#
# Youngs Moduli (GPa) = 9.51357 60.84846 66.27190
#
# Poissons Ratio (x) = 0.53319 1.34462
# Poissons Ratio (y) = 0.08336 0.29569
# Poissons Ratio (z) = 0.19302 0.27149
#
# Static dielectric constant tensor:
#      x y z
#    x 1.528650 0.000000 0.000000 
#    y 0.000000 1.513100 0.000000 
#    z 0.000000 0.000000 1.532650 
# 
# From -- ./inp_files/19887.got.cif
#   From: 2010.05.17/outbox.cif.g08.bks.cpg/sg62_10_cif.got.tgz:19887.got - 2010.06.03 15:25:27.
