data_PCOD9462519
_publ_section_title
;
Structure prediction by ZEFSAII (Michael W. Deem and Ramdas Pophale) SiO2 
 PCOD9462519
Probable space group: P N M A
;
_chemical_formula_sum "Si O2"
_cell_formula_units_Z 64
_cell_length_a 11.990610
_cell_length_b 8.887795
_cell_length_c 25.221548
_cell_angle_alpha 90.000000
_cell_angle_beta 90.000000
_cell_angle_gamma 90.000000
_cell_volume 2687.862479
_symmetry_space_group_name_H-M "P N M A"
_symmetry_group_IT_number 62
_symmetry_cell_setting 'orthorhombic'
loop_
_space_group_symop_operation_xyz
x,y,z
1/2-x,-y,1/2+z
1/2+x,1/2-y,1/2-z
-x,1/2+y,-z
-x,-y,-z
1/2+x,y,1/2-z
1/2-x,1/2+y,1/2+z
x,1/2-y,z
loop_
_atom_site_type_symbol
_atom_site_label
_atom_site_fract_x
_atom_site_fract_y
_atom_site_fract_z
Si Si1 0.329456 0.576758 0.739676
Si Si2 0.503517 0.571626 0.585040
Si Si3 0.676203 0.574188 0.487140
Si Si4 0.494057 0.911657 0.207699
Si Si5 0.394673 0.420787 0.908767
Si Si6 0.299420 0.430963 0.346307
Si Si7 0.228047 0.422351 0.650479
Si Si8 0.887974 0.427820 0.449518
O O1 0.302190 0.750000 0.730890
O O2 0.453022 0.550285 0.762262
O O3 0.251450 0.521838 0.789352
O O4 0.326982 0.494701 0.683277
O O5 0.475209 0.750000 0.589795
O O6 0.593051 0.556315 0.536656
O O7 0.396129 0.481025 0.564025
O O8 0.576531 0.520691 0.635798
O O9 0.703586 0.750000 0.483259
O O10 0.792737 0.484053 0.490538
O O11 0.524471 0.750000 0.232918
O O12 0.544166 0.910054 0.148583
O O13 0.364423 0.920111 0.197246
O O14 0.368020 0.250000 0.924974
O O15 0.286526 0.514605 0.891796
O O16 0.491803 0.491210 0.945293
O O17 0.299397 0.250000 0.346800
O O18 0.243024 0.250000 0.633159
O O19 0.174724 0.523665 0.604954
O O20 0.904432 0.250000 0.451994
#
# Coordination Sequence:
#
# PCOD9462519 Si02
#       8
#     8   8   8   8   8   8   8   8
#     4  10  19  31  50  76 104 137 173 215 265 318
#     4   9  19  37  59  81 110 147 185 227 275 327
#     4  10  20  36  58  82 109 145 186 228 277 330
#     4   8  16  31  49  67  93 133 171 209 255 308
#     4   9  17  31  53  79 106 137 173 215 263 318
#     4   9  18  34  55  80 109 142 180 222 269 324
#     4  10  20  35  53  74 103 138 178 221 266 317
#     4  11  21  35  56  80 107 140 180 225 276 330
#
# _framework density 23.810741
#
# number of rings (size 3 to 8) (size 9 to 14) (size 15 to 20)
#    0.000    2.500    0.000    3.375    0.000    5.000 
#    2.250    0.625    0.000    0.000    0.000    0.000 
#    0.000    0.000    0.000    0.000    0.000    0.000 
#
# Total GULP energy -357359.679361 kJ/mol
# GULP energy per Si atom -5583.744990 kJ/mol
# Density = 2.375655 g / cm^3
# Si number density = 23.810741 Si / 1000 Ang^3
#
#
#
# Elastic Constant Matrix: (Units=GPa)
#
#
# Indices 1 2 3 4 5 6 
#
# 1 91.7886 9.1568 -4.4918 0.0000 0.0000 0.0000
# 2 9.1568 29.8397 -4.7866 0.0000 0.0000 0.0000
# 3 -4.4918 -4.7866 73.2364 0.0000 0.0000 0.0000
# 4 0.0000 0.0000 0.0000 16.0727 0.0000 0.0000
# 5 0.0000 0.0000 0.0000 0.0000 31.2923 0.0000
# 6 0.0000 0.0000 0.0000 0.0000 0.0000 31.3676
#
#
#
# Elastic Compliance Matrix: (Units=1/GPa)
#
#
# Indices 1 2 3 4 5 6 
#
# 1 0.011255 -0.003378 0.000469 0.000000 0.000000 0.000000
# 2 -0.003378 0.034882 0.002073 0.000000 0.000000 0.000000
# 3 0.000469 0.002073 0.013819 0.000000 0.000000 0.000000
# 4 0.000000 0.000000 0.000000 0.062217 0.000000 0.000000
# 5 0.000000 0.000000 0.000000 0.000000 0.031957 0.000000
# 6 0.000000 0.000000 0.000000 0.000000 0.000000 0.031880
#
#
# Mechanical properties :
#
#
# Convention : Reuss Voigt Hill
#
# Bulk Modulus (GPa) = 17.15788 21.62462 19.39125
# Shear Modulus (GPa) = 24.14191 28.74561 26.44376
#
# Velocity S-wave (km/s) = 3.18765 3.47833 3.33615
# Velocity P-wave (km/s) = 4.55738 5.02327 4.79599
#
# Compressibility (1/GPa) = 0.05828226
#
# Stress axis : x y z
#
# Youngs Moduli (GPa) = 88.85258 28.66841 72.36594
#
# Poissons Ratio (x) = 0.09685 -0.03397
# Poissons Ratio (y) = 0.30017 -0.14998
# Poissons Ratio (z) = -0.04171 -0.05942
#
# Static dielectric constant tensor:
#      x y z
#    x 1.935290 0.000000 0.000000 
#    y 0.000000 1.868620 0.000000 
#    z 0.000000 0.000000 2.035970 
# 
# From -- ./inp_files/32580.got.cif
#   From: 2010.05.17/outbox.cif.g08.bks.cpg/sg62_17_cif.got.tgz:32580.got - 2010.06.03 15:25:27.
