data_PCOD9462929
_publ_section_title
;
Structure prediction by ZEFSAII (Michael W. Deem and Ramdas Pophale) SiO2 
 PCOD9462929
Probable space group: P N M A
;
_chemical_formula_sum "Si O2"
_cell_formula_units_Z 48
_cell_length_a 10.181555
_cell_length_b 10.779093
_cell_length_c 25.532426
_cell_angle_alpha 90.000000
_cell_angle_beta 90.000000
_cell_angle_gamma 90.000000
_cell_volume 2802.130856
_symmetry_space_group_name_H-M "P N M A"
_symmetry_group_IT_number 62
_symmetry_cell_setting 'orthorhombic'
loop_
_space_group_symop_operation_xyz
x,y,z
1/2-x,-y,1/2+z
1/2+x,1/2-y,1/2-z
-x,1/2+y,-z
-x,-y,-z
1/2+x,y,1/2-z
1/2-x,1/2+y,1/2+z
x,1/2-y,z
loop_
_atom_site_type_symbol
_atom_site_label
_atom_site_fract_x
_atom_site_fract_y
_atom_site_fract_z
Si Si1 0.206876 0.117242 0.308604
Si Si2 0.156836 0.101721 0.642534
Si Si3 0.731027 0.394531 0.614289
Si Si4 0.451584 0.032672 0.245260
Si Si5 0.470632 0.104428 0.957209
Si Si6 0.548078 0.897575 0.349678
O O1 0.214113 0.250000 0.337209
O O2 0.330191 0.106630 0.269715
O O3 0.072766 0.110438 0.276456
O O4 0.214363 0.995894 0.345085
O O5 0.157593 0.250000 0.648490
O O6 0.307266 0.057431 0.634164
O O7 0.062947 0.076669 0.593189
O O8 0.102537 0.045163 0.696231
O O9 0.745822 0.250000 0.632692
O O10 0.820086 0.404380 0.562880
O O11 0.575186 0.421908 0.611733
O O12 0.507501 0.950683 0.293154
O O13 0.493829 0.250000 0.972590
O O14 0.500000 0.000000 0.000000
O O15 0.556920 0.750000 0.345044
#
# Coordination Sequence:
#
# PCOD9462929 Si02
#       6
#     8   8   8   8   8   8
#     4  11  22  33  49  75 112 149 179 212 261 317
#     4  10  19  33  54  81 109 140 183 226 266 316
#     4   9  19  36  57  78 105 138 180 224 263 313
#     4  11  19  33  49  76 113 148 181 213 261 312
#     4  10  21  38  59  82 105 134 178 232 283 329
#     4   9  18  31  53  82 110 143 178 217 259 310
#
# _framework density 17.129821
#
# number of rings (size 3 to 8) (size 9 to 14) (size 15 to 20)
#    0.000    2.000    3.333    1.000    0.000    2.000 
#    0.000    0.833    0.000    0.000    0.000    0.000 
#    0.000    0.000    0.000    0.000    0.000    0.000 
#
# Total GULP energy -267304.967552 kJ/mol
# GULP energy per Si atom -5568.853491 kJ/mol
# Density = 1.709083 g / cm^3
# Si number density = 17.129821 Si / 1000 Ang^3
#
#
#
# Elastic Constant Matrix: (Units=GPa)
#
#
# Indices 1 2 3 4 5 6 
#
# 1 111.8826 17.3192 18.7743 0.0000 0.0000 0.0000
# 2 17.3192 45.8385 23.3963 0.0000 0.0000 0.0000
# 3 18.7743 23.3963 43.1329 0.0000 0.0000 0.0000
# 4 0.0000 0.0000 0.0000 14.2530 0.0000 0.0000
# 5 0.0000 0.0000 0.0000 0.0000 13.5575 0.0000
# 6 0.0000 0.0000 0.0000 0.0000 0.0000 -10.4647
#
#
#
# Elastic Compliance Matrix: (Units=1/GPa)
#
#
# Indices 1 2 3 4 5 6 
#
# 1 0.009787 -0.002107 -0.003117 0.000000 0.000000 0.000000
# 2 -0.002107 0.030621 -0.015693 0.000000 0.000000 0.000000
# 3 -0.003117 -0.015693 0.033053 0.000000 0.000000 0.000000
# 4 0.000000 0.000000 0.000000 0.070161 0.000000 0.000000
# 5 0.000000 0.000000 0.000000 0.000000 0.073760 0.000000
# 6 0.000000 0.000000 0.000000 0.000000 0.000000 -0.095560
#
#
# Mechanical properties :
#
#
# Convention : Reuss Voigt Hill
#
# Bulk Modulus (GPa) = 31.61748 35.53706 33.57727
# Shear Modulus (GPa) = 28.70288 12.89346 20.79817
#
# Velocity S-wave (km/s) = 4.09786 2.74650 3.48825
# Velocity P-wave (km/s) = 6.39434 5.55414 5.98899
#
# Compressibility (1/GPa) = 0.03162807
#
# Stress axis : x y z
#
# Youngs Moduli (GPa) = 102.17472 32.65689 30.25437
#
# Poissons Ratio (x) = 0.06880 0.09431
# Poissons Ratio (y) = 0.21526 0.47477
# Poissons Ratio (z) = 0.31850 0.51248
#
# Static dielectric constant tensor:
#      x y z
#    x 1.624410 0.000000 0.000000 
#    y 0.000000 1.600610 0.000000 
#    z 0.000000 0.000000 1.540010 
# 
# From -- ./inp_files/28793.got.cif
#   From: 2010.05.17/outbox.cif.g08.bks.cpg/sg62_15_cif.got.tgz:28793.got - 2010.06.03 15:25:27.
