data_PCOD9462397
_publ_section_title
;
Structure prediction by ZEFSAII (Michael W. Deem and Ramdas Pophale) SiO2 
 PCOD9462397
Probable space group: P N M A
;
_chemical_formula_sum "Si O2"
_cell_formula_units_Z 48
_cell_length_a 21.914596
_cell_length_b 24.014183
_cell_length_c 5.022530
_cell_angle_alpha 90.000000
_cell_angle_beta 90.000000
_cell_angle_gamma 90.000000
_cell_volume 2643.162257
_symmetry_space_group_name_H-M "P N M A"
_symmetry_group_IT_number 62
_symmetry_cell_setting 'orthorhombic'
loop_
_space_group_symop_operation_xyz
x,y,z
1/2-x,-y,1/2+z
1/2+x,1/2-y,1/2-z
-x,1/2+y,-z
-x,-y,-z
1/2+x,y,1/2-z
1/2-x,1/2+y,1/2+z
x,1/2-y,z
loop_
_atom_site_type_symbol
_atom_site_label
_atom_site_fract_x
_atom_site_fract_y
_atom_site_fract_z
Si Si1 0.297615 0.060887 0.218357
Si Si2 0.967310 0.685989 0.821132
Si Si3 0.012042 0.950278 0.292016
Si Si4 0.714170 0.068228 0.785444
Si Si5 0.093308 0.365276 0.697763
Si Si6 0.570332 0.597072 0.705486
O O1 0.243873 0.071589 0.425688
O O2 0.356949 0.095601 0.300623
O O3 0.312743 0.994687 0.238498
O O4 0.268405 0.072520 0.930390
O O5 0.978797 0.750000 0.753630
O O6 0.927423 0.655896 0.591935
O O7 0.030386 0.651662 0.862694
O O8 0.928386 0.679924 0.089563
O O9 0.054553 0.913155 0.484819
O O10 0.948354 0.919461 0.245694
O O11 0.045274 0.950236 0.004207
O O12 0.000000 0.000000 0.500000
O O13 0.662069 0.114467 0.764772
#
# Coordination Sequence:
#
# PCOD9462397 Si02
#       6
#     8   8   8   8   8   8
#     4  10  20  33  51  76 112 148 173 202 247 314
#     4  10  21  37  57  77  99 132 175 230 280 309
#     4  10  19  30  49  77 108 135 165 214 265 316
#     4  10  20  33  51  77 109 145 174 202 248 314
#     4  10  20  34  54  79 104 135 175 217 265 319
#     4  10  20  33  51  76 103 137 177 213 260 316
#
# _framework density 18.160064999999999
#
# number of rings (size 3 to 8) (size 9 to 14) (size 15 to 20)
#    0.000    2.000    0.000    4.000    0.000    5.333 
#    0.000    0.000    0.000    6.000    0.000    0.000 
#    0.000    0.000    0.000    0.000    0.000    0.000 
#
# Total GULP energy -267414.492635 kJ/mol
# GULP energy per Si atom -5571.135263 kJ/mol
# Density = 1.811873 g / cm^3
# Si number density = 18.160065 Si / 1000 Ang^3
#
#
#
# Elastic Constant Matrix: (Units=GPa)
#
#
# Indices 1 2 3 4 5 6 
#
# 1 73.8992 32.9002 -8.1006 0.0000 0.0000 0.0000
# 2 32.9002 65.9748 -6.8705 0.0000 0.0000 0.0000
# 3 -8.1006 -6.8705 67.4961 0.0000 0.0000 0.0000
# 4 0.0000 0.0000 0.0000 18.3204 0.0000 0.0000
# 5 0.0000 0.0000 0.0000 0.0000 12.4701 0.0000
# 6 0.0000 0.0000 0.0000 0.0000 0.0000 12.8098
#
#
#
# Elastic Compliance Matrix: (Units=1/GPa)
#
#
# Indices 1 2 3 4 5 6 
#
# 1 0.017493 -0.008596 0.001224 0.000000 0.000000 0.000000
# 2 -0.008596 0.019544 0.000958 0.000000 0.000000 0.000000
# 3 0.001224 0.000958 0.015060 0.000000 0.000000 0.000000
# 4 0.000000 0.000000 0.000000 0.054584 0.000000 0.000000
# 5 0.000000 0.000000 0.000000 0.000000 0.080192 0.000000
# 6 0.000000 0.000000 0.000000 0.000000 0.000000 0.078065
#
#
# Mechanical properties :
#
#
# Convention : Reuss Voigt Hill
#
# Bulk Modulus (GPa) = 25.46514 27.02537 26.24525
# Shear Modulus (GPa) = 17.19066 21.34944 19.27005
#
# Velocity S-wave (km/s) = 3.08006 3.43246 3.26102
# Velocity P-wave (km/s) = 5.16740 5.53381 5.35374
#
# Compressibility (1/GPa) = 0.03926937
#
# Stress axis : x y z
#
# Youngs Moduli (GPa) = 57.16534 51.16751 66.40056
#
# Poissons Ratio (x) = 0.43983 -0.08131
# Poissons Ratio (y) = 0.49139 -0.06359
# Poissons Ratio (z) = -0.07000 -0.04900
#
# Static dielectric constant tensor:
#      x y z
#    x 1.615700 0.000000 0.000000 
#    y 0.000000 1.661180 0.000000 
#    z 0.000000 0.000000 1.641510 
# 
# From -- ./inp_files/1692.got.cif
#   From: 2010.05.17/outbox.cif.g08.bks.cpg/sg62_1_cif.got.tgz:1692.got - 2010.06.03 15:25:27.
