data_PCOD9462836
_publ_section_title
;
Structure prediction by ZEFSAII (Michael W. Deem and Ramdas Pophale) SiO2 
 PCOD9462836
Probable space group: P N M A
;
_chemical_formula_sum "Si O2"
_cell_formula_units_Z 48
_cell_length_a 13.766816
_cell_length_b 17.948771
_cell_length_c 9.298109
_cell_angle_alpha 90.000000
_cell_angle_beta 90.000000
_cell_angle_gamma 90.000000
_cell_volume 2297.538817
_symmetry_space_group_name_H-M "P N M A"
_symmetry_group_IT_number 62
_symmetry_cell_setting 'orthorhombic'
loop_
_space_group_symop_operation_xyz
x,y,z
1/2-x,-y,1/2+z
1/2+x,1/2-y,1/2-z
-x,1/2+y,-z
-x,-y,-z
1/2+x,y,1/2-z
1/2-x,1/2+y,1/2+z
x,1/2-y,z
loop_
_atom_site_type_symbol
_atom_site_label
_atom_site_fract_x
_atom_site_fract_y
_atom_site_fract_z
Si Si1 0.646050 0.366820 0.355735
Si Si2 0.144069 0.978992 0.985174
Si Si3 0.445904 0.004672 0.179529
Si Si4 0.361453 0.939628 0.922582
Si Si5 0.634079 0.669320 0.842017
Si Si6 0.439390 0.170895 0.482986
O O1 0.652435 0.452075 0.409040
O O2 0.627644 0.369146 0.183482
O O3 0.751888 0.333241 0.379728
O O4 0.552628 0.335268 0.437908
O O5 0.250222 0.963793 0.918927
O O6 0.101351 0.903650 0.054581
O O7 0.076280 0.997687 0.848093
O O8 0.558997 0.003616 0.141944
O O9 0.410081 0.087417 0.124436
O O10 0.390579 0.940896 0.090393
O O11 0.594661 0.750000 0.896152
O O12 0.617508 0.671773 0.669653
O O13 0.422728 0.250000 0.557592
#
# Coordination Sequence:
#
# PCOD9462836 Si02
#       6
#     8   8   8   8   8   8
#     4  12  20  34  57  84 105 141 185 226 268 317
#     4  11  20  35  55  84 107 140 184 224 272 320
#     4  10  21  34  51  81 109 139 175 223 274 320
#     4  11  19  34  53  79 110 135 178 223 271 317
#     4  10  19  33  51  78 112 141 176 220 271 318
#     4  10  21  34  51  82 115 139 177 229 274 317
#
# _framework density 20.891921
#
# number of rings (size 3 to 8) (size 9 to 14) (size 15 to 20)
#    0.000    1.333    8.333    1.000    0.000    0.000 
#    0.000    0.833    0.000    1.000    0.000    4.667 
#    0.000    0.000    0.000    0.000    0.000    0.000 
#
# Total GULP energy -267371.536916 kJ/mol
# GULP energy per Si atom -5570.240352 kJ/mol
# Density = 2.084437 g / cm^3
# Si number density = 20.891921 Si / 1000 Ang^3
#
#
#
# Elastic Constant Matrix: (Units=GPa)
#
#
# Indices 1 2 3 4 5 6 
#
# 1 118.5643 23.8140 -6.0490 0.0000 0.0000 0.0000
# 2 23.8140 114.8234 19.8870 0.0000 0.0000 0.0000
# 3 -6.0490 19.8870 25.8387 0.0000 0.0000 0.0000
# 4 0.0000 0.0000 0.0000 2.0538 0.0000 0.0000
# 5 0.0000 0.0000 0.0000 0.0000 23.3714 0.0000
# 6 0.0000 0.0000 0.0000 0.0000 0.0000 14.7084
#
#
#
# Elastic Compliance Matrix: (Units=1/GPa)
#
#
# Indices 1 2 3 4 5 6 
#
# 1 0.009174 -0.002624 0.004168 0.000000 0.000000 0.000000
# 2 -0.002624 0.010799 -0.008926 0.000000 0.000000 0.000000
# 3 0.004168 -0.008926 0.046547 0.000000 0.000000 0.000000
# 4 0.000000 0.000000 0.000000 0.486899 0.000000 0.000000
# 5 0.000000 0.000000 0.000000 0.000000 0.042787 0.000000
# 6 0.000000 0.000000 0.000000 0.000000 0.000000 0.067988
#
#
# Mechanical properties :
#
#
# Convention : Reuss Voigt Hill
#
# Bulk Modulus (GPa) = 19.32195 37.17005 28.24600
# Shear Modulus (GPa) = 7.18171 22.79835 14.99003
#
# Velocity S-wave (km/s) = 1.85608 3.30699 2.68153
# Velocity P-wave (km/s) = 3.72316 5.69314 4.81008
#
# Compressibility (1/GPa) = 0.05175462
#
# Stress axis : x y z
#
# Youngs Moduli (GPa) = 109.00364 92.59837 21.48348
#
# Poissons Ratio (x) = 0.24302 -0.08954
# Poissons Ratio (y) = 0.28608 0.19177
# Poissons Ratio (z) = -0.45429 0.82655
#
# Static dielectric constant tensor:
#      x y z
#    x 1.790930 0.000000 0.000000 
#    y 0.000000 1.813160 0.000000 
#    z 0.000000 0.000000 1.786990 
# 
# From -- ./inp_files/13459.got.cif
#   From: 2010.05.17/outbox.cif.g08.bks.cpg/sg62_7_cif.got.tgz:13459.got - 2010.06.03 15:25:27.
