data_PCOD9462454
_publ_section_title
;
Structure prediction by ZEFSAII (Michael W. Deem and Ramdas Pophale) SiO2 
 PCOD9462454
Probable space group: P N M A
;
_chemical_formula_sum "Si O2"
_cell_formula_units_Z 64
_cell_length_a 19.685037
_cell_length_b 8.834875
_cell_length_c 23.766651
_cell_angle_alpha 90.000000
_cell_angle_beta 90.000000
_cell_angle_gamma 90.000000
_cell_volume 4133.373336
_symmetry_space_group_name_H-M "P N M A"
_symmetry_group_IT_number 62
_symmetry_cell_setting 'orthorhombic'
loop_
_space_group_symop_operation_xyz
x,y,z
1/2-x,-y,1/2+z
1/2+x,1/2-y,1/2-z
-x,1/2+y,-z
-x,-y,-z
1/2+x,y,1/2-z
1/2-x,1/2+y,1/2+z
x,1/2-y,z
loop_
_atom_site_type_symbol
_atom_site_label
_atom_site_fract_x
_atom_site_fract_y
_atom_site_fract_z
Si Si1 0.778444 0.568504 0.162990
Si Si2 0.502637 0.431101 0.750730
Si Si3 0.356354 0.431281 0.230311
Si Si4 0.647519 0.931908 0.229701
Si Si5 0.275198 0.932002 0.664377
Si Si6 0.638689 0.432127 0.440237
Si Si7 0.499826 0.568360 0.626118
Si Si8 0.859373 0.069263 0.063663
O O1 0.784724 0.750000 0.163369
O O2 0.826710 0.500179 0.211729
O O3 0.701721 0.526819 0.181506
O O4 0.802781 0.503495 0.103880
O O5 0.508895 0.250000 0.752486
O O6 0.568664 0.505250 0.778389
O O7 0.430604 0.476900 0.778042
O O8 0.500219 0.485204 0.685836
O O9 0.358377 0.250000 0.235782
O O10 0.301431 0.472479 0.182308
O O11 0.649138 0.750000 0.235144
O O12 0.676083 0.000949 0.287555
O O13 0.280831 0.750000 0.667231
O O14 0.302121 0.978534 0.603365
O O15 0.640929 0.250000 0.447326
O O16 0.567254 0.468918 0.409715
O O17 0.643965 0.509011 0.500467
O O18 0.499658 0.750000 0.636359
O O19 0.567393 0.530100 0.591082
O O20 0.853092 0.250000 0.064580
#
# Coordination Sequence:
#
# PCOD9462454 Si02
#       8
#     8   8   8   8   8   8   8   8
#     4  10  19  33  50  69  94 126 161 200 242 283
#     4  11  20  30  48  73  99 131 162 193 239 289
#     4  10  19  31  48  71  98 125 158 199 241 286
#     4   9  19  32  48  71  97 123 158 200 241 286
#     4   9  18  32  50  70  93 125 162 200 240 283
#     4  10  20  34  50  68  93 131 170 200 237 281
#     4  10  20  33  47  66  97 132 167 200 230 273
#     4  11  22  33  47  70  98 130 167 202 236 280
#
# _framework density 15.48372
#
# number of rings (size 3 to 8) (size 9 to 14) (size 15 to 20)
#    0.000    2.000    2.500    1.875    0.000    3.000 
#    0.000    0.000    0.000    0.000    0.000    0.875 
#    0.000    0.000    0.000    0.000    0.000    0.000 
#
# Total GULP energy -357075.210062 kJ/mol
# GULP energy per Si atom -5579.300157 kJ/mol
# Density = 1.544848 g / cm^3
# Si number density = 15.483720 Si / 1000 Ang^3
#
#
#
# Elastic Constant Matrix: (Units=GPa)
#
#
# Indices 1 2 3 4 5 6 
#
# 1 146.3259 42.5284 59.9677 0.0000 0.0000 0.0000
# 2 42.5284 31.3582 30.8218 0.0000 0.0000 0.0000
# 3 59.9677 30.8218 77.8304 0.0000 0.0000 0.0000
# 4 0.0000 0.0000 0.0000 20.4990 0.0000 0.0000
# 5 0.0000 0.0000 0.0000 0.0000 19.9903 0.0000
# 6 0.0000 0.0000 0.0000 0.0000 0.0000 19.3710
#
#
#
# Elastic Compliance Matrix: (Units=1/GPa)
#
#
# Indices 1 2 3 4 5 6 
#
# 1 0.012239 -0.012001 -0.004677 0.000000 0.000000 0.000000
# 2 -0.012001 0.063981 -0.016090 0.000000 0.000000 0.000000
# 3 -0.004677 -0.016090 0.022824 0.000000 0.000000 0.000000
# 4 0.000000 0.000000 0.000000 0.048783 0.000000 0.000000
# 5 0.000000 0.000000 0.000000 0.000000 0.050024 0.000000
# 6 0.000000 0.000000 0.000000 0.000000 0.000000 0.051624
#
#
# Mechanical properties :
#
#
# Convention : Reuss Voigt Hill
#
# Bulk Modulus (GPa) = 29.84519 58.01668 43.93094
# Shear Modulus (GPa) = 15.32885 20.11848 17.72366
#
# Velocity S-wave (km/s) = 3.14984 3.60853 3.38696
# Velocity P-wave (km/s) = 5.70488 7.41032 6.61281
#
# Compressibility (1/GPa) = 0.03350624
#
# Stress axis : x y z
#
# Youngs Moduli (GPa) = 81.70554 15.62964 43.81288
#
# Poissons Ratio (x) = 0.18758 0.20493
# Poissons Ratio (y) = 0.98058 0.70496
# Poissons Ratio (z) = 0.38217 0.25149
#
# Static dielectric constant tensor:
#      x y z
#    x 1.538210 0.000000 0.000000 
#    y 0.000000 1.517370 0.000000 
#    z 0.000000 0.000000 1.481390 
# 
# From -- ./inp_files/27895.got.cif
#   From: 2010.05.17/outbox.cif.g08.bks.cpg/sg62_14_cif.got.tgz:27895.got - 2010.06.03 15:25:27.
