data_PCOD9462540
_publ_section_title
;
Structure prediction by ZEFSAII (Michael W. Deem and Ramdas Pophale) SiO2 
 PCOD9462540
Probable space group: P N M A
;
_chemical_formula_sum "Si O2"
_cell_formula_units_Z 56
_cell_length_a 14.134559
_cell_length_b 7.342268
_cell_length_c 19.937890
_cell_angle_alpha 90.000000
_cell_angle_beta 90.000000
_cell_angle_gamma 90.000000
_cell_volume 2069.148646
_symmetry_space_group_name_H-M "P N M A"
_symmetry_group_IT_number 62
_symmetry_cell_setting 'orthorhombic'
loop_
_space_group_symop_operation_xyz
x,y,z
1/2-x,-y,1/2+z
1/2+x,1/2-y,1/2-z
-x,1/2+y,-z
-x,-y,-z
1/2+x,y,1/2-z
1/2-x,1/2+y,1/2+z
x,1/2-y,z
loop_
_atom_site_type_symbol
_atom_site_label
_atom_site_fract_x
_atom_site_fract_y
_atom_site_fract_z
Si Si1 0.947844 0.033391 0.930687
Si Si2 0.897468 0.961137 0.431004
Si Si3 0.725566 0.974191 0.508408
Si Si4 0.276087 0.469865 0.202162
Si Si5 0.551924 0.959441 0.290337
Si Si6 0.428736 0.027414 0.854980
Si Si7 0.206549 0.541377 0.848907
O O1 0.943179 0.250000 0.921808
O O2 0.985396 0.959426 0.860104
O O3 0.842362 0.968219 0.948028
O O4 0.000000 0.000000 0.000000
O O5 0.911497 0.750000 0.447243
O O6 0.830195 0.038530 0.488913
O O7 0.999842 0.037214 0.412325
O O8 0.836640 0.968582 0.361568
O O9 0.725856 0.750000 0.510584
O O10 0.682075 0.040866 0.578691
O O11 0.274869 0.250000 0.202922
O O12 0.166609 0.533437 0.201191
O O13 0.315072 0.534551 0.275220
O O14 0.522038 0.750000 0.286761
O O15 0.531396 0.037397 0.217367
O O16 0.426286 0.250000 0.854823
O O17 0.321425 0.962013 0.856409
O O18 0.176178 0.750000 0.848228
#
# Coordination Sequence:
#
# PCOD9462540 Si02
#       7
#     8   8   8   8   8   8   8
#     4  10  20  34  53  75 102 137 173 211 259 313
#     4  10  19  34  55  77 103 141 180 212 256 316
#     4   9  18  35  55  73 100 144 181 204 254 325
#     4  10  19  31  51  77 101 131 173 221 263 303
#     4   9  17  34  54  72  99 136 172 209 259 314
#     4   9  19  33  53  80 105 133 176 221 259 304
#     4   9  19  35  53  74 105 140 174 214 262 314
#
# _framework density 27.064271999999999
#
# number of rings (size 3 to 8) (size 9 to 14) (size 15 to 20)
#    0.000    2.571    1.429    0.429    0.000    3.429 
#    0.000    1.429    0.000    0.000    0.000    0.000 
#    0.000    0.000    0.000    0.000    0.000    0.000 
#
# Total GULP energy -313164.305143 kJ/mol
# GULP energy per Si atom -5592.219735 kJ/mol
# Density = 2.700267 g / cm^3
# Si number density = 27.064272 Si / 1000 Ang^3
#
#
#
# Elastic Constant Matrix: (Units=GPa)
#
#
# Indices 1 2 3 4 5 6 
#
# 1 87.0060 8.1013 6.6768 0.0000 0.0000 0.0000
# 2 8.1013 132.5234 8.5508 0.0000 0.0000 0.0000
# 3 6.6768 8.5508 138.3138 0.0000 0.0000 0.0000
# 4 0.0000 0.0000 0.0000 7.6606 0.0000 0.0000
# 5 0.0000 0.0000 0.0000 0.0000 56.2048 0.0000
# 6 0.0000 0.0000 0.0000 0.0000 0.0000 15.9921
#
#
#
# Elastic Compliance Matrix: (Units=1/GPa)
#
#
# Indices 1 2 3 4 5 6 
#
# 1 0.011596 -0.000675 -0.000518 0.000000 0.000000 0.000000
# 2 -0.000675 0.007615 -0.000438 0.000000 0.000000 0.000000
# 3 -0.000518 -0.000438 0.007282 0.000000 0.000000 0.000000
# 4 0.000000 0.000000 0.000000 0.130538 0.000000 0.000000
# 5 0.000000 0.000000 0.000000 0.000000 0.017792 0.000000
# 6 0.000000 0.000000 0.000000 0.000000 0.000000 0.062531
#
#
# Mechanical properties :
#
#
# Convention : Reuss Voigt Hill
#
# Bulk Modulus (GPa) = 43.04743 44.94457 43.99600
# Shear Modulus (GPa) = 20.13195 38.27245 29.20220
#
# Velocity S-wave (km/s) = 2.73033 3.76457 3.28837
# Velocity P-wave (km/s) = 5.08722 5.96143 5.54159
#
# Compressibility (1/GPa) = 0.02323019
#
# Stress axis : x y z
#
# Youngs Moduli (GPa) = 86.23589 131.31285 137.32432
#
# Poissons Ratio (x) = 0.08870 0.07114
# Poissons Ratio (y) = 0.05825 0.06017
# Poissons Ratio (z) = 0.04467 0.05754
#
# Static dielectric constant tensor:
#      x y z
#    x 2.166090 0.000000 0.000000 
#    y 0.000000 1.975330 0.000000 
#    z 0.000000 0.000000 2.192050 
# 
# From -- ./inp_files/27272.got.cif
#   From: 2010.05.17/outbox.cif.g08.bks.cpg/sg62_14_cif.got.tgz:27272.got - 2010.06.03 15:25:27.
