data_PCOD9462262
_publ_section_title
;
Structure prediction by ZEFSAII (Michael W. Deem and Ramdas Pophale) SiO2 
 PCOD9462262
Probable space group: P N M A
;
_chemical_formula_sum "Si O2"
_cell_formula_units_Z 36
_cell_length_a 12.117440
_cell_length_b 13.463871
_cell_length_c 11.922754
_cell_angle_alpha 90.000000
_cell_angle_beta 90.000000
_cell_angle_gamma 90.000000
_cell_volume 1945.169285
_symmetry_space_group_name_H-M "P N M A"
_symmetry_group_IT_number 62
_symmetry_cell_setting 'orthorhombic'
loop_
_space_group_symop_operation_xyz
x,y,z
1/2-x,-y,1/2+z
1/2+x,1/2-y,1/2-z
-x,1/2+y,-z
-x,-y,-z
1/2+x,y,1/2-z
1/2-x,1/2+y,1/2+z
x,1/2-y,z
loop_
_atom_site_type_symbol
_atom_site_label
_atom_site_fract_x
_atom_site_fract_y
_atom_site_fract_z
Si Si1 0.412934 0.963788 0.910325
Si Si2 0.905388 0.250000 0.184503
Si Si3 0.681047 0.054065 0.518996
Si Si4 0.159166 0.250000 0.360008
Si Si5 0.744862 0.250000 0.384839
Si Si6 0.497115 0.525387 0.664305
O O1 0.401004 0.845981 0.903786
O O2 0.454572 0.996519 0.788182
O O3 0.500000 0.000000 0.000000
O O4 0.291716 0.000641 0.942788
O O5 0.790126 0.250000 0.114428
O O6 0.162653 0.250000 0.223284
O O7 0.902923 0.545127 0.123923
O O8 0.721464 0.156505 0.463335
O O9 0.604966 0.008854 0.420138
O O10 0.538296 0.857787 0.660177
O O11 0.360552 0.250000 0.185078
#
# Coordination Sequence:
#
# PCOD9462262 Si02
#       6
#     8   4   8   4   4   8
#     4  12  25  40  70 100 138 173 224 279 337 396
#     4  10  18  40  73  93 126 164 233 284 308 393
#     4  11  23  40  64  99 132 174 222 282 330 396
#     4  10  21  44  67  97 131 164 239 274 312 402
#     4  10  19  40  68  90 133 168 232 268 320 389
#     4  11  22  40  68  97 134 171 224 277 342 389
#
# _framework density 18.507386
#
# number of rings (size 3 to 8) (size 9 to 14) (size 15 to 20)
#    0.667    0.444    4.444    2.667    3.111    0.889 
#    0.000    2.222    0.000    0.000    0.000    0.000 
#    0.000    0.000    0.000    0.000    0.000    0.000 
#
# Total GULP energy -200585.113271 kJ/mol
# GULP energy per Si atom -5571.808702 kJ/mol
# Density = 1.846526 g / cm^3
# Si number density = 18.507386 Si / 1000 Ang^3
#
#
#
# Elastic Constant Matrix: (Units=GPa)
#
#
# Indices 1 2 3 4 5 6 
#
# 1 132.2966 30.3683 80.0037 0.0000 0.0000 0.0000
# 2 30.3683 85.1126 57.4526 0.0000 0.0000 0.0000
# 3 80.0037 57.4526 125.2295 0.0000 0.0000 0.0000
# 4 0.0000 0.0000 0.0000 27.9642 0.0000 0.0000
# 5 0.0000 0.0000 0.0000 0.0000 49.3828 0.0000
# 6 0.0000 0.0000 0.0000 0.0000 0.0000 16.9640
#
#
#
# Elastic Compliance Matrix: (Units=1/GPa)
#
#
# Indices 1 2 3 4 5 6 
#
# 1 0.012422 0.001339 -0.008550 0.000000 0.000000 0.000000
# 2 0.001339 0.017164 -0.008730 0.000000 0.000000 0.000000
# 3 -0.008550 -0.008730 0.017453 0.000000 0.000000 0.000000
# 4 0.000000 0.000000 0.000000 0.035760 0.000000 0.000000
# 5 0.000000 0.000000 0.000000 0.000000 0.020250 0.000000
# 6 0.000000 0.000000 0.000000 0.000000 0.000000 0.058948
#
#
# Mechanical properties :
#
#
# Convention : Reuss Voigt Hill
#
# Bulk Modulus (GPa) = 65.97653 75.36534 70.67093
# Shear Modulus (GPa) = 25.13413 30.51649 27.82531
#
# Velocity S-wave (km/s) = 3.68918 4.06505 3.88167
# Velocity P-wave (km/s) = 7.33982 7.92736 7.63924
#
# Compressibility (1/GPa) = 0.01515691
#
# Stress axis : x y z
#
# Youngs Moduli (GPa) = 80.50247 58.26015 57.29631
#
# Poissons Ratio (x) = -0.07804 0.48991
# Poissons Ratio (y) = -0.10783 0.50022
# Poissons Ratio (z) = 0.68833 0.50863
#
# Static dielectric constant tensor:
#      x y z
#    x 1.699920 0.000000 0.000000 
#    y 0.000000 1.091750 0.000000 
#    z 0.000000 0.000000 1.632900 
# 
# From -- ./inp_files/11905.got.cif
#   From: 2010.05.17/outbox.cif.g08.bks.cpg/sg62_6_cif.got.tgz:11905.got - 2010.06.03 15:25:27.
