data_PCOD9462212
_publ_section_title
;
Structure prediction by ZEFSAII (Michael W. Deem and Ramdas Pophale) SiO2 
 PCOD9462212
Probable space group: P N M A
;
_chemical_formula_sum "Si O2"
_cell_formula_units_Z 56
_cell_length_a 13.214746
_cell_length_b 22.202576
_cell_length_c 9.607419
_cell_angle_alpha 90.000000
_cell_angle_beta 90.000000
_cell_angle_gamma 90.000000
_cell_volume 2818.830208
_symmetry_space_group_name_H-M "P N M A"
_symmetry_group_IT_number 62
_symmetry_cell_setting 'orthorhombic'
loop_
_space_group_symop_operation_xyz
x,y,z
1/2-x,-y,1/2+z
1/2+x,1/2-y,1/2-z
-x,1/2+y,-z
-x,-y,-z
1/2+x,y,1/2-z
1/2-x,1/2+y,1/2+z
x,1/2-y,z
loop_
_atom_site_type_symbol
_atom_site_label
_atom_site_fract_x
_atom_site_fract_y
_atom_site_fract_z
Si Si1 0.678886 0.678668 0.741640
Si Si2 0.539599 0.560828 0.313592
Si Si3 0.378139 0.624637 0.635700
Si Si4 0.448817 0.318985 0.534535
Si Si5 0.031590 0.585408 0.638779
Si Si6 0.150997 0.484857 0.951274
Si Si7 0.371201 0.993548 0.953166
O O1 0.676155 0.750000 0.766076
O O2 0.792019 0.654327 0.769555
O O3 0.636243 0.668528 0.584797
O O4 0.600194 0.644573 0.845264
O O5 0.552161 0.631758 0.342788
O O6 0.424268 0.538904 0.333280
O O7 0.594741 0.530075 0.445286
O O8 0.586321 0.534747 0.173382
O O9 0.443650 0.671385 0.545060
O O10 0.465992 0.588139 0.718944
O O11 0.325904 0.575918 0.536991
O O12 0.438306 0.250000 0.580043
O O13 0.108845 0.533264 0.590531
O O14 0.936847 0.567670 0.538363
O O15 0.255559 0.516082 0.913867
#
# Coordination Sequence:
#
# PCOD9462212 Si02
#       7
#     8   8   8   8   8   8   8
#     4  10  20  36  59  84 115 154 195 238 290 344
#     4  10  22  37  58  84 114 153 193 238 287 356
#     4  10  18  36  59  85 110 149 193 238 289 341
#     4   9  20  36  56  81 111 150 196 237 279 345
#     4  10  22  35  56  88 120 144 190 242 288 349
#     4  10  21  37  58  84 114 151 193 232 289 355
#     4  11  22  37  58  89 120 154 186 240 308 345
#
# _framework density 19.866396000000002
#
# number of rings (size 3 to 8) (size 9 to 14) (size 15 to 20)
#    0.000    2.000    2.857    0.429    4.000    2.857 
#    0.000    0.714    0.000    0.000    0.000    0.000 
#    0.000    0.000    0.000    0.000    0.000    0.000 
#
# Total GULP energy -311769.684942 kJ/mol
# GULP energy per Si atom -5567.315803 kJ/mol
# Density = 1.982118 g / cm^3
# Si number density = 19.866396 Si / 1000 Ang^3
#
#
#
# Elastic Constant Matrix: (Units=GPa)
#
#
# Indices 1 2 3 4 5 6 
#
# 1 105.0150 13.2993 21.2443 0.0000 0.0000 0.0000
# 2 13.2993 98.2114 37.4009 0.0000 0.0000 0.0000
# 3 21.2443 37.4009 48.6773 0.0000 0.0000 0.0000
# 4 0.0000 0.0000 0.0000 29.7146 0.0000 0.0000
# 5 0.0000 0.0000 0.0000 0.0000 14.6535 0.0000
# 6 0.0000 0.0000 0.0000 0.0000 0.0000 27.6154
#
#
#
# Elastic Compliance Matrix: (Units=1/GPa)
#
#
# Indices 1 2 3 4 5 6 
#
# 1 0.010459 0.000455 -0.004914 0.000000 0.000000 0.000000
# 2 0.000455 0.014414 -0.011273 0.000000 0.000000 0.000000
# 3 -0.004914 -0.011273 0.031350 0.000000 0.000000 0.000000
# 4 0.000000 0.000000 0.000000 0.033653 0.000000 0.000000
# 5 0.000000 0.000000 0.000000 0.000000 0.068243 0.000000
# 6 0.000000 0.000000 0.000000 0.000000 0.000000 0.036212
#
#
# Mechanical properties :
#
#
# Convention : Reuss Voigt Hill
#
# Bulk Modulus (GPa) = 40.39149 43.97696 42.18423
# Shear Modulus (GPa) = 21.36312 26.39398 23.87855
#
# Velocity S-wave (km/s) = 3.28279 3.64892 3.47069
# Velocity P-wave (km/s) = 5.89446 6.31959 6.11072
#
# Compressibility (1/GPa) = 0.02475769
#
# Stress axis : x y z
#
# Youngs Moduli (GPa) = 95.61173 69.37915 31.89796
#
# Poissons Ratio (x) = -0.03158 0.15676
# Poissons Ratio (y) = -0.04352 0.35959
# Poissons Ratio (z) = 0.46987 0.78213
#
# Static dielectric constant tensor:
#      x y z
#    x 1.742910 0.000000 0.000000 
#    y 0.000000 1.714130 0.000000 
#    z 0.000000 0.000000 1.761320 
# 
# From -- ./inp_files/12520.got.cif
#   From: 2010.05.17/outbox.cif.g08.bks.cpg/sg62_7_cif.got.tgz:12520.got - 2010.06.03 15:25:27.
