data_PCOD9462025
_publ_section_title
;
Structure prediction by ZEFSAII (Michael W. Deem and Ramdas Pophale) SiO2 
 PCOD9462025
Probable space group: P N M A
;
_chemical_formula_sum "Si O2"
_cell_formula_units_Z 64
_cell_length_a 24.440781
_cell_length_b 7.875321
_cell_length_c 15.905443
_cell_angle_alpha 90.000000
_cell_angle_beta 90.000000
_cell_angle_gamma 90.000000
_cell_volume 3061.463697
_symmetry_space_group_name_H-M "P N M A"
_symmetry_group_IT_number 62
_symmetry_cell_setting 'orthorhombic'
loop_
_space_group_symop_operation_xyz
x,y,z
1/2-x,-y,1/2+z
1/2+x,1/2-y,1/2-z
-x,1/2+y,-z
-x,-y,-z
1/2+x,y,1/2-z
1/2-x,1/2+y,1/2+z
x,1/2-y,z
loop_
_atom_site_type_symbol
_atom_site_label
_atom_site_fract_x
_atom_site_fract_y
_atom_site_fract_z
Si Si1 0.686880 0.949818 0.008640
Si Si2 0.503703 0.545681 0.402253
Si Si3 0.990083 0.448542 0.403149
Si Si4 0.373244 0.553650 0.157051
Si Si5 0.886131 0.541470 0.157448
Si Si6 0.878224 0.454883 0.841585
Si Si7 0.690116 0.454035 0.503700
Si Si8 0.108600 0.956106 0.344042
O O1 0.691619 0.750000 0.027761
O O2 0.748149 0.021514 0.010873
O O3 0.660258 0.966986 0.917140
O O4 0.645243 0.020439 0.078499
O O5 0.500000 0.500000 0.500000
O O6 0.504232 0.750000 0.394755
O O7 0.448632 0.484738 0.356995
O O8 0.561033 0.481771 0.365991
O O9 0.977174 0.250000 0.400784
O O10 0.937623 0.542306 0.365281
O O11 0.000000 0.500000 0.500000
O O12 0.046206 0.484968 0.354454
O O13 0.356536 0.750000 0.156632
O O14 0.365528 0.485309 0.251239
O O15 0.886386 0.750000 0.158051
O O16 0.849020 0.484848 0.079245
O O17 0.879469 0.250000 0.842147
O O18 0.836306 0.507830 0.913522
O O19 0.867126 0.508358 0.745971
O O20 0.691905 0.250000 0.511296
O O21 0.106779 0.750000 0.346966
#
# Coordination Sequence:
#
# PCOD9462025 Si02
#       8
#     8   8   8   8   8   8   8   8
#     4  10  22  39  59  83 113 152 198 246 295 342
#     4  10  18  32  55  83 114 144 182 229 283 342
#     4  12  23  37  60  90 122 153 190 234 290 350
#     4  11  22  38  62  88 117 153 194 239 289 349
#     4   9  19  36  59  85 114 150 192 236 286 348
#     4  10  21  36  58  88 117 150 193 242 292 346
#     4  10  21  39  60  82 113 154 198 244 293 347
#     4  10  21  39  61  84 117 155 194 240 291 349
#
# _framework density 20.905033
#
# number of rings (size 3 to 8) (size 9 to 14) (size 15 to 20)
#    0.000    1.750    2.500    2.250    0.000    4.000 
#    0.000    6.250    0.000    0.000    0.000    0.000 
#    0.000    0.000    0.000    0.000    0.000    0.000 
#
# Total GULP energy -357610.171726 kJ/mol
# GULP energy per Si atom -5587.658933 kJ/mol
# Density = 2.085745 g / cm^3
# Si number density = 20.905033 Si / 1000 Ang^3
#
#
#
# Elastic Constant Matrix: (Units=GPa)
#
#
# Indices 1 2 3 4 5 6 
#
# 1 91.1783 -6.7195 5.6562 0.0000 0.0000 0.0000
# 2 -6.7195 26.6868 -8.0250 0.0000 0.0000 0.0000
# 3 5.6562 -8.0250 94.9035 0.0000 0.0000 0.0000
# 4 0.0000 0.0000 0.0000 18.4870 0.0000 0.0000
# 5 0.0000 0.0000 0.0000 0.0000 2.6389 0.0000
# 6 0.0000 0.0000 0.0000 0.0000 0.0000 18.2421
#
#
#
# Elastic Compliance Matrix: (Units=1/GPa)
#
#
# Indices 1 2 3 4 5 6 
#
# 1 0.011193 0.002686 -0.000440 0.000000 0.000000 0.000000
# 2 0.002686 0.039094 0.003146 0.000000 0.000000 0.000000
# 3 -0.000440 0.003146 0.010829 0.000000 0.000000 0.000000
# 4 0.000000 0.000000 0.000000 0.054092 0.000000 0.000000
# 5 0.000000 0.000000 0.000000 0.000000 0.378952 0.000000
# 6 0.000000 0.000000 0.000000 0.000000 0.000000 0.054818
#
#
# Mechanical properties :
#
#
# Convention : Reuss Voigt Hill
#
# Bulk Modulus (GPa) = 13.90834 21.62135 17.76485
# Shear Modulus (GPa) = 8.89424 22.66406 15.77915
#
# Velocity S-wave (km/s) = 2.06490 3.29621 2.75035
# Velocity P-wave (km/s) = 3.51463 4.98515 4.31303
#
# Compressibility (1/GPa) = 0.07189928
#
# Stress axis : x y z
#
# Youngs Moduli (GPa) = 89.34351 25.57939 92.34264
#
# Poissons Ratio (x) = -0.06870 0.04063
# Poissons Ratio (y) = -0.23997 -0.29048
# Poissons Ratio (z) = 0.03931 -0.08046
#
# Static dielectric constant tensor:
#      x y z
#    x 1.748300 0.000000 0.000000 
#    y 0.000000 1.771930 0.000000 
#    z 0.000000 0.000000 1.745330 
# 
# From -- ./inp_files/20752.got.cif
#   From: 2010.05.17/outbox.cif.g08.bks.cpg/sg62_11_cif.got.tgz:20752.got - 2010.06.03 15:25:27.
