data_PCOD9462370
_publ_section_title
;
Structure prediction by ZEFSAII (Michael W. Deem and Ramdas Pophale) SiO2 
 PCOD9462370
Probable space group: P N M A
;
_chemical_formula_sum "Si O2"
_cell_formula_units_Z 64
_cell_length_a 21.417027
_cell_length_b 8.766102
_cell_length_c 15.291028
_cell_angle_alpha 90.000000
_cell_angle_beta 90.000000
_cell_angle_gamma 90.000000
_cell_volume 2870.796363
_symmetry_space_group_name_H-M "P N M A"
_symmetry_group_IT_number 62
_symmetry_cell_setting 'orthorhombic'
loop_
_space_group_symop_operation_xyz
x,y,z
1/2-x,-y,1/2+z
1/2+x,1/2-y,1/2-z
-x,1/2+y,-z
-x,-y,-z
1/2+x,y,1/2-z
1/2-x,1/2+y,1/2+z
x,1/2-y,z
loop_
_atom_site_type_symbol
_atom_site_label
_atom_site_fract_x
_atom_site_fract_y
_atom_site_fract_z
Si Si1 0.633236 0.579524 0.136459
Si Si2 0.489894 0.920800 0.090386
Si Si3 0.199332 0.066009 0.531461
Si Si4 0.688586 0.932528 0.589916
Si Si5 0.431142 0.068669 0.511623
Si Si6 0.816912 0.572292 0.266530
Si Si7 0.945062 0.075939 0.251178
Si Si8 0.411134 0.930413 0.693578
O O1 0.660822 0.750000 0.143897
O O2 0.558737 0.597103 0.128274
O O3 0.633740 0.486450 0.227761
O O4 0.655171 0.501429 0.045678
O O5 0.460641 0.750000 0.088684
O O6 0.455278 0.048029 0.146391
O O7 0.500000 0.000000 0.000000
O O8 0.191446 0.250000 0.531640
O O9 0.266944 0.027447 0.491377
O O10 0.192373 0.014495 0.633125
O O11 0.689135 0.750000 0.597657
O O12 0.618477 0.979065 0.562292
O O13 0.715166 0.996798 0.681469
O O14 0.437363 0.250000 0.507839
O O15 0.500000 0.000000 0.500000
O O16 0.401772 0.020043 0.604020
O O17 0.802325 0.750000 0.267954
O O18 0.888863 0.541170 0.239000
O O19 0.926612 0.250000 0.230577
O O20 0.013677 0.047414 0.211444
O O21 0.402719 0.750000 0.682319
#
# Coordination Sequence:
#
# PCOD9462370 Si02
#       8
#     8   8   8   8   8   8   8   8
#     4  10  21  36  56  85 119 157 202 248 296 354
#     4  10  19  30  47  75 112 152 195 244 295 348
#     4  10  23  43  63  86 120 161 203 250 304 360
#     4  10  24  45  65  88 121 159 199 246 303 364
#     4  11  23  40  64  93 125 161 203 255 314 375
#     4  11  23  39  63  92 121 156 202 256 308 362
#     4  10  20  34  54  82 118 159 200 243 298 360
#     4  10  21  37  59  89 126 167 208 254 309 367
#
# _framework density 22.293465000000001
#
# number of rings (size 3 to 8) (size 9 to 14) (size 15 to 20)
#    0.000    1.750    0.000    3.750    0.000   11.500 
#    0.000    1.250    0.000    0.000    0.000    0.000 
#    0.000    0.000    0.000    0.000    0.000    0.000 
#
# Total GULP energy -356790.089077 kJ/mol
# GULP energy per Si atom -5574.845142 kJ/mol
# Density = 2.224272 g / cm^3
# Si number density = 22.293465 Si / 1000 Ang^3
#
#
#
# Elastic Constant Matrix: (Units=GPa)
#
#
# Indices 1 2 3 4 5 6 
#
# 1 75.7686 23.5590 37.1216 0.0000 0.0000 0.0000
# 2 23.5590 49.8152 43.6222 0.0000 0.0000 0.0000
# 3 37.1216 43.6222 182.0479 0.0000 0.0000 0.0000
# 4 0.0000 0.0000 0.0000 21.3028 0.0000 0.0000
# 5 0.0000 0.0000 0.0000 0.0000 28.7707 0.0000
# 6 0.0000 0.0000 0.0000 0.0000 0.0000 17.1341
#
#
#
# Elastic Compliance Matrix: (Units=1/GPa)
#
#
# Indices 1 2 3 4 5 6 
#
# 1 0.015940 -0.005938 -0.001827 0.000000 0.000000 0.000000
# 2 -0.005938 0.027617 -0.005407 0.000000 0.000000 0.000000
# 3 -0.001827 -0.005407 0.007161 0.000000 0.000000 0.000000
# 4 0.000000 0.000000 0.000000 0.046942 0.000000 0.000000
# 5 0.000000 0.000000 0.000000 0.000000 0.034758 0.000000
# 6 0.000000 0.000000 0.000000 0.000000 0.000000 0.058363
#
#
# Mechanical properties :
#
#
# Convention : Reuss Voigt Hill
#
# Bulk Modulus (GPa) = 41.02813 57.35969 49.19391
# Shear Modulus (GPa) = 22.19755 26.99678 24.59717
#
# Velocity S-wave (km/s) = 3.15889 3.48368 3.32525
# Velocity P-wave (km/s) = 5.63457 6.47816 6.07104
#
# Compressibility (1/GPa) = 0.02437352
#
# Stress axis : x y z
#
# Youngs Moduli (GPa) = 62.73628 36.20954 139.64061
#
# Poissons Ratio (x) = 0.21502 0.25518
# Poissons Ratio (y) = 0.37254 0.75500
# Poissons Ratio (z) = 0.11464 0.19577
#
# Static dielectric constant tensor:
#      x y z
#    x 1.914100 0.000000 0.000000 
#    y 0.000000 1.791200 0.000000 
#    z 0.000000 0.000000 1.789990 
# 
# From -- ./inp_files/20917.got.cif
#   From: 2010.05.17/outbox.cif.g08.bks.cpg/sg62_11_cif.got.tgz:20917.got - 2010.06.03 15:25:27.
