data_PCOD9462666
_publ_section_title
;
Structure prediction by ZEFSAII (Michael W. Deem and Ramdas Pophale) SiO2 
 PCOD9462666
Probable space group: P N M A
;
_chemical_formula_sum "Si O2"
_cell_formula_units_Z 64
_cell_length_a 15.651021
_cell_length_b 9.212729
_cell_length_c 22.299250
_cell_angle_alpha 90.000000
_cell_angle_beta 90.000000
_cell_angle_gamma 90.000000
_cell_volume 3215.297974
_symmetry_space_group_name_H-M "P N M A"
_symmetry_group_IT_number 62
_symmetry_cell_setting 'orthorhombic'
loop_
_space_group_symop_operation_xyz
x,y,z
1/2-x,-y,1/2+z
1/2+x,1/2-y,1/2-z
-x,1/2+y,-z
-x,-y,-z
1/2+x,y,1/2-z
1/2-x,1/2+y,1/2+z
x,1/2-y,z
loop_
_atom_site_type_symbol
_atom_site_label
_atom_site_fract_x
_atom_site_fract_y
_atom_site_fract_z
Si Si1 0.782245 0.425041 0.551632
Si Si2 0.065644 0.918914 0.080494
Si Si3 0.368423 0.923180 0.688458
Si Si4 0.818328 0.077481 0.290669
Si Si5 0.633847 0.922486 0.928545
Si Si6 0.607355 0.919485 0.560988
Si Si7 0.483544 0.581149 0.240433
Si Si8 0.033718 0.581332 0.399557
O O1 0.769203 0.250000 0.555026
O O2 0.803834 0.466074 0.482529
O O3 0.698293 0.507326 0.573837
O O4 0.869415 0.463805 0.586624
O O5 0.063035 0.750000 0.097347
O O6 0.129617 0.006840 0.122645
O O7 0.092578 0.927817 0.011042
O O8 0.972493 0.992244 0.087601
O O9 0.373856 0.750000 0.683692
O O10 0.279937 0.958801 0.722010
O O11 0.448963 0.990340 0.721885
O O12 0.832043 0.250000 0.281598
O O13 0.831629 0.047290 0.361834
O O14 0.889242 0.986780 0.255952
O O15 0.623487 0.750000 0.933543
O O16 0.540813 0.994421 0.932867
O O17 0.604601 0.750000 0.578549
O O18 0.483688 0.750000 0.257419
O O19 0.512942 0.570111 0.170958
O O20 0.027237 0.750000 0.417331
#
# Coordination Sequence:
#
# PCOD9462666 Si02
#       8
#     8   8   8   8   8   8   8   8
#     4  10  19  32  51  78 112 150 186 223 275 334
#     4  10  21  38  59  82 111 145 181 226 279 330
#     4  11  22  38  62  87 111 144 189 236 284 339
#     4   9  19  36  57  82 110 143 184 233 287 337
#     4   9  17  30  52  79 107 141 183 229 277 331
#     4  10  21  36  55  82 114 147 183 224 271 329
#     4  10  21  38  57  80 112 149 189 236 285 333
#     4   9  19  34  51  74 108 147 185 228 277 328
#
# _framework density 19.904843
#
# number of rings (size 3 to 8) (size 9 to 14) (size 15 to 20)
#    0.000    2.250    0.000    2.625    0.000    5.000 
#    2.250    2.500    0.000    0.000    0.000    0.000 
#    0.000    0.000    0.000    0.000    0.000    0.000 
#
# Total GULP energy -357439.605144 kJ/mol
# GULP energy per Si atom -5584.993830 kJ/mol
# Density = 1.985954 g / cm^3
# Si number density = 19.904843 Si / 1000 Ang^3
#
#
#
# Elastic Constant Matrix: (Units=GPa)
#
#
# Indices 1 2 3 4 5 6 
#
# 1 143.3084 66.0552 7.6434 0.0000 0.0000 0.0000
# 2 66.0552 76.8205 14.4580 0.0000 0.0000 0.0000
# 3 7.6434 14.4580 13.5462 0.0000 0.0000 0.0000
# 4 0.0000 0.0000 0.0000 22.2430 0.0000 0.0000
# 5 0.0000 0.0000 0.0000 0.0000 24.5468 0.0000
# 6 0.0000 0.0000 0.0000 0.0000 0.0000 33.1005
#
#
#
# Elastic Compliance Matrix: (Units=1/GPa)
#
#
# Indices 1 2 3 4 5 6 
#
# 1 0.011849 -0.011175 0.005242 0.000000 0.000000 0.000000
# 2 -0.011175 0.026829 -0.022329 0.000000 0.000000 0.000000
# 3 0.005242 -0.022329 0.094696 0.000000 0.000000 0.000000
# 4 0.000000 0.000000 0.000000 0.044958 0.000000 0.000000
# 5 0.000000 0.000000 0.000000 0.000000 0.040739 0.000000
# 6 0.000000 0.000000 0.000000 0.000000 0.000000 0.030211
#
#
# Mechanical properties :
#
#
# Convention : Reuss Voigt Hill
#
# Bulk Modulus (GPa) = 13.01261 45.55426 29.28343
# Shear Modulus (GPa) = 15.08636 25.67928 20.38282
#
# Velocity S-wave (km/s) = 2.75603 3.59570 3.20349
# Velocity P-wave (km/s) = 4.08402 6.33833 5.33168
#
# Compressibility (1/GPa) = 0.07684855
#
# Stress axis : x y z
#
# Youngs Moduli (GPa) = 84.39176 37.27276 10.56007
#
# Poissons Ratio (x) = 0.41654 -0.05535
# Poissons Ratio (y) = 0.94312 0.23580
# Poissons Ratio (z) = -0.44235 0.83228
#
# Static dielectric constant tensor:
#      x y z
#    x 1.684960 0.000000 0.000000 
#    y 0.000000 1.658720 0.000000 
#    z 0.000000 0.000000 1.745350 
# 
# From -- ./inp_files/29785.got.cif
#   From: 2010.05.17/outbox.cif.g08.bks.cpg/sg62_15_cif.got.tgz:29785.got - 2010.06.03 15:25:27.
