data_PCOD9462546
_publ_section_title
;
Structure prediction by ZEFSAII (Michael W. Deem and Ramdas Pophale) SiO2 
 PCOD9462546
Probable space group: P N M A
;
_chemical_formula_sum "Si O2"
_cell_formula_units_Z 64
_cell_length_a 14.955828
_cell_length_b 7.584815
_cell_length_c 25.162221
_cell_angle_alpha 90.000000
_cell_angle_beta 90.000000
_cell_angle_gamma 90.000000
_cell_volume 2854.331608
_symmetry_space_group_name_H-M "P N M A"
_symmetry_group_IT_number 62
_symmetry_cell_setting 'orthorhombic'
loop_
_space_group_symop_operation_xyz
x,y,z
1/2-x,-y,1/2+z
1/2+x,1/2-y,1/2-z
-x,1/2+y,-z
-x,-y,-z
1/2+x,y,1/2-z
1/2-x,1/2+y,1/2+z
x,1/2-y,z
loop_
_atom_site_type_symbol
_atom_site_label
_atom_site_fract_x
_atom_site_fract_y
_atom_site_fract_z
Si Si1 0.313838 0.957823 0.704300
Si Si2 0.038439 0.539724 0.942784
Si Si3 0.850322 0.048894 0.612137
Si Si4 0.475352 0.537397 0.061691
Si Si5 0.226099 0.535884 0.977781
Si Si6 0.497533 0.033418 0.329127
Si Si7 0.724926 0.037131 0.907877
Si Si8 0.297642 0.042753 0.301825
O O1 0.322364 0.750000 0.716253
O O2 0.415437 0.028222 0.702795
O O3 0.250113 0.034650 0.749759
O O4 0.268124 0.973924 0.646655
O O5 0.042648 0.750000 0.937993
O O6 0.989203 0.475444 0.890479
O O7 0.139974 0.475298 0.945308
O O8 0.000000 0.500000 0.000000
O O9 0.859893 0.250000 0.629862
O O10 0.948580 0.969545 0.602616
O O11 0.810219 0.040225 0.552692
O O12 0.775189 0.968967 0.650677
O O13 0.475675 0.750000 0.065632
O O14 0.376733 0.478101 0.079638
O O15 0.500000 0.500000 0.000000
O O16 0.232471 0.750000 0.975699
O O17 0.220529 0.484274 0.039233
O O18 0.498434 0.250000 0.327611
O O19 0.397692 0.973174 0.313241
O O20 0.724644 0.250000 0.905718
O O21 0.313153 0.250000 0.292840
#
# Coordination Sequence:
#
# PCOD9462546 Si02
#       8
#     8   8   8   8   8   8   8   8
#     4  10  22  38  60  87 112 147 197 244 283 333
#     4  10  19  31  51  78 111 147 183 227 278 334
#     4  11  22  35  56  87 115 143 190 245 284 327
#     4  10  21  36  56  84 118 156 192 233 287 347
#     4  10  19  34  56  80 110 154 191 222 279 349
#     4   9  18  36  58  81 112 146 185 233 281 331
#     4  10  21  37  57  82 118 155 188 231 290 351
#     4  10  21  40  62  81 112 156 195 234 286 347
#
# _framework density 22.422060999999999
#
# number of rings (size 3 to 8) (size 9 to 14) (size 15 to 20)
#    0.000    2.000    2.500    1.125    0.000    3.500 
#    0.000    1.875    0.000    0.000    0.000    0.000 
#    0.000    0.000    0.000    0.000    0.000    0.000 
#
# Total GULP energy -357161.736184 kJ/mol
# GULP energy per Si atom -5580.652128 kJ/mol
# Density = 2.237103 g / cm^3
# Si number density = 22.422061 Si / 1000 Ang^3
#
#
#
# Elastic Constant Matrix: (Units=GPa)
#
#
# Indices 1 2 3 4 5 6 
#
# 1 132.1796 3.3515 49.7893 0.0000 0.0000 0.0000
# 2 3.3515 43.7861 -5.0274 0.0000 0.0000 0.0000
# 3 49.7893 -5.0274 112.8356 0.0000 0.0000 0.0000
# 4 0.0000 0.0000 0.0000 18.5155 0.0000 0.0000
# 5 0.0000 0.0000 0.0000 0.0000 32.6495 0.0000
# 6 0.0000 0.0000 0.0000 0.0000 0.0000 0.6483
#
#
#
# Elastic Compliance Matrix: (Units=1/GPa)
#
#
# Indices 1 2 3 4 5 6 
#
# 1 0.009133 -0.001168 -0.004082 0.000000 0.000000 0.000000
# 2 -0.001168 0.023105 0.001545 0.000000 0.000000 0.000000
# 3 -0.004082 0.001545 0.010732 0.000000 0.000000 0.000000
# 4 0.000000 0.000000 0.000000 0.054009 0.000000 0.000000
# 5 0.000000 0.000000 0.000000 0.000000 0.030628 0.000000
# 6 0.000000 0.000000 0.000000 0.000000 0.000000 1.542404
#
#
# Mechanical properties :
#
#
# Convention : Reuss Voigt Hill
#
# Bulk Modulus (GPa) = 28.12122 42.78092 35.45107
# Shear Modulus (GPa) = 2.95985 26.40852 14.68419
#
# Velocity S-wave (km/s) = 1.15019 3.43562 2.56188
# Velocity P-wave (km/s) = 3.78588 5.90417 4.95944
#
# Compressibility (1/GPa) = 0.03556034
#
# Stress axis : x y z
#
# Youngs Moduli (GPa) = 109.49758 43.28066 93.17573
#
# Poissons Ratio (x) = 0.05054 0.38033
# Poissons Ratio (y) = 0.12786 -0.14393
# Poissons Ratio (z) = 0.44695 -0.06686
#
# Static dielectric constant tensor:
#      x y z
#    x 1.874230 0.000000 0.000000 
#    y 0.000000 1.861120 0.000000 
#    z 0.000000 0.000000 1.810560 
# 
# From -- ./inp_files/29771.got.cif
#   From: 2010.05.17/outbox.cif.g08.bks.cpg/sg62_15_cif.got.tgz:29771.got - 2010.06.03 15:25:27.
