data_PCOD9462238
_publ_section_title
;
Structure prediction by ZEFSAII (Michael W. Deem and Ramdas Pophale) SiO2 
 PCOD9462238
Probable space group: P N M A
;
_chemical_formula_sum "Si O2"
_cell_formula_units_Z 56
_cell_length_a 10.266115
_cell_length_b 11.552703
_cell_length_c 20.707014
_cell_angle_alpha 90.000000
_cell_angle_beta 90.000000
_cell_angle_gamma 90.000000
_cell_volume 2455.880386
_symmetry_space_group_name_H-M "P N M A"
_symmetry_group_IT_number 62
_symmetry_cell_setting 'orthorhombic'
loop_
_space_group_symop_operation_xyz
x,y,z
1/2-x,-y,1/2+z
1/2+x,1/2-y,1/2-z
-x,1/2+y,-z
-x,-y,-z
1/2+x,y,1/2-z
1/2-x,1/2+y,1/2+z
x,1/2-y,z
loop_
_atom_site_type_symbol
_atom_site_label
_atom_site_fract_x
_atom_site_fract_y
_atom_site_fract_z
Si Si1 0.173558 0.750000 0.171620
Si Si2 0.210499 0.056634 0.824665
Si Si3 0.046489 0.519412 0.119524
Si Si4 0.714932 0.122461 0.460756
Si Si5 0.929731 0.750000 0.257240
Si Si6 0.454428 0.381273 0.121345
Si Si7 0.917186 0.380893 0.576877
Si Si8 0.611312 0.383925 0.249605
O O1 0.122359 0.637924 0.134325
O O2 0.330702 0.750000 0.181027
O O3 0.084386 0.750000 0.238516
O O4 0.126007 0.137676 0.778798
O O5 0.331010 0.119959 0.858217
O O6 0.109234 0.028335 0.881514
O O7 0.269998 0.951733 0.784261
O O8 0.103912 0.466793 0.054803
O O9 0.071296 0.441059 0.183304
O O10 0.658777 0.250000 0.471068
O O11 0.819240 0.103502 0.517009
O O12 0.803066 0.121599 0.395506
O O13 0.503523 0.250000 0.101179
O O14 0.504531 0.498491 0.085710
O O15 0.496393 0.393036 0.195692
O O16 0.975504 0.250000 0.569291
O O17 0.642485 0.250000 0.258441
#
# Coordination Sequence:
#
# PCOD9462238 Si02
#       8
#     4   8   8   8   4   8   8   8
#     4  10  22  36  58  82 122 150 198 245 299 360
#     4  10  21  37  60  81 116 149 197 241 296 353
#     4  11  23  38  55  85 116 156 194 241 300 357
#     4  10  22  39  60  85 121 156 197 244 293 354
#     4  10  18  38  58  84 114 156 186 249 293 362
#     4   9  20  39  61  89 122 155 194 246 298 353
#     4  10  20  39  64  89 115 157 202 247 299 350
#     4  10  21  35  58  86 114 153 192 237 292 353
#
# _framework density 22.802413000000001
#
# number of rings (size 3 to 8) (size 9 to 14) (size 15 to 20)
#    0.000    2.000    2.143    0.857    2.000    1.714 
#    2.571    0.000    0.000    0.000    0.000    0.000 
#    0.000    0.000    0.000    0.000    0.000    0.000 
#
# Total GULP energy -312375.274507 kJ/mol
# GULP energy per Si atom -5578.129902 kJ/mol
# Density = 2.275051 g / cm^3
# Si number density = 22.802413 Si / 1000 Ang^3
#
#
#
# Elastic Constant Matrix: (Units=GPa)
#
#
# Indices 1 2 3 4 5 6 
#
# 1 28.2084 14.4617 11.9966 0.0000 0.0000 0.0000
# 2 14.4617 148.2648 34.4046 0.0000 0.0000 0.0000
# 3 11.9966 34.4046 55.9782 0.0000 0.0000 0.0000
# 4 0.0000 0.0000 0.0000 102.5770 0.0000 0.0000
# 5 0.0000 0.0000 0.0000 0.0000 27.9278 0.0000
# 6 0.0000 0.0000 0.0000 0.0000 0.0000 66.1590
#
#
#
# Elastic Compliance Matrix: (Units=1/GPa)
#
#
# Indices 1 2 3 4 5 6 
#
# 1 0.039616 -0.002209 -0.007132 0.000000 0.000000 0.000000
# 2 -0.002209 0.007990 -0.004437 0.000000 0.000000 0.000000
# 3 -0.007132 -0.004437 0.022120 0.000000 0.000000 0.000000
# 4 0.000000 0.000000 0.000000 0.009749 0.000000 0.000000
# 5 0.000000 0.000000 0.000000 0.000000 0.035807 0.000000
# 6 0.000000 0.000000 0.000000 0.000000 0.000000 0.015115
#
#
# Mechanical properties :
#
#
# Convention : Reuss Voigt Hill
#
# Bulk Modulus (GPa) = 23.71438 39.35301 31.53369
# Shear Modulus (GPa) = 29.06813 50.77200 39.92006
#
# Velocity S-wave (km/s) = 3.57428 4.72381 4.18867
# Velocity P-wave (km/s) = 5.23990 6.85917 6.10347
#
# Compressibility (1/GPa) = 0.04216852
#
# Stress axis : x y z
#
# Youngs Moduli (GPa) = 25.24217 125.15964 45.20849
#
# Poissons Ratio (x) = 0.27649 0.32244
# Poissons Ratio (y) = 0.05576 0.20060
# Poissons Ratio (z) = 0.18004 0.55535
#
# Static dielectric constant tensor:
#      x y z
#    x 1.887460 0.000000 0.000000 
#    y 0.000000 1.878450 0.000000 
#    z 0.000000 0.000000 1.912690 
# 
# From -- ./inp_files/26665.got.cif
#   From: 2010.05.17/outbox.cif.g08.bks.cpg/sg62_14_cif.got.tgz:26665.got - 2010.06.03 15:25:27.
