data_PCOD9462428
_publ_section_title
;
Structure prediction by ZEFSAII (Michael W. Deem and Ramdas Pophale) SiO2 
 PCOD9462428
Probable space group: P N M A
;
_chemical_formula_sum "Si O2"
_cell_formula_units_Z 56
_cell_length_a 21.535791
_cell_length_b 8.288094
_cell_length_c 19.163973
_cell_angle_alpha 90.000000
_cell_angle_beta 90.000000
_cell_angle_gamma 90.000000
_cell_volume 3420.590192
_symmetry_space_group_name_H-M "P N M A"
_symmetry_group_IT_number 62
_symmetry_cell_setting 'orthorhombic'
loop_
_space_group_symop_operation_xyz
x,y,z
1/2-x,-y,1/2+z
1/2+x,1/2-y,1/2-z
-x,1/2+y,-z
-x,-y,-z
1/2+x,y,1/2-z
1/2-x,1/2+y,1/2+z
x,1/2-y,z
loop_
_atom_site_type_symbol
_atom_site_label
_atom_site_fract_x
_atom_site_fract_y
_atom_site_fract_z
Si Si1 0.254535 0.052815 0.581618
Si Si2 0.622643 0.059096 0.149178
Si Si3 0.497260 0.558686 0.079299
Si Si4 0.306930 0.442849 0.284035
Si Si5 0.748974 0.553957 0.576125
Si Si6 0.819490 0.439255 0.784650
Si Si7 0.626043 0.445325 0.842975
O O1 0.255480 0.250000 0.582128
O O2 0.261845 0.996233 0.502338
O O3 0.307650 0.000592 0.636480
O O4 0.186864 0.005632 0.611944
O O5 0.619335 0.250000 0.138860
O O6 0.684064 0.000811 0.106927
O O7 0.560276 0.984419 0.119219
O O8 0.634165 0.023432 0.230845
O O9 0.490769 0.750000 0.077147
O O10 0.436434 0.495680 0.119897
O O11 0.500000 0.500000 0.000000
O O12 0.296472 0.250000 0.278529
O O13 0.302874 0.486179 0.365749
O O14 0.248298 0.533531 0.249767
O O15 0.364305 0.490380 0.235507
O O16 0.751466 0.750000 0.572966
O O17 0.834170 0.250000 0.786153
O O18 0.625822 0.250000 0.840387
#
# Coordination Sequence:
#
# PCOD9462428 Si02
#       7
#     8   8   8   8   8   8   8
#     4   8  13  24  43  64  86 113 144 177 216 264
#     4  10  19  31  46  64  91 124 154 186 223 266
#     4  11  22  34  48  67  91 121 156 189 223 265
#     4   9  16  26  43  65  88 115 148 187 227 267
#     4   8  14  25  42  65  90 115 143 178 224 270
#     4   9  16  27  44  64  87 117 151 185 223 269
#     4   9  18  31  45  61  87 123 154 180 216 267
#
# _framework density 16.371444
#
# number of rings (size 3 to 8) (size 9 to 14) (size 15 to 20)
#    0.000    2.857    0.000    4.286    0.000    3.429 
#    0.000    0.000    0.000   16.286    0.000    1.000 
#    0.000    0.000    0.000    0.000    0.000    0.000 
#
# Total GULP energy -311770.190781 kJ/mol
# GULP energy per Si atom -5567.324835 kJ/mol
# Density = 1.633418 g / cm^3
# Si number density = 16.371444 Si / 1000 Ang^3
#
#
#
# Elastic Constant Matrix: (Units=GPa)
#
#
# Indices 1 2 3 4 5 6 
#
# 1 69.5092 4.8293 59.7199 0.0000 0.0000 0.0000
# 2 4.8293 11.3911 5.6712 0.0000 0.0000 0.0000
# 3 59.7199 5.6712 161.6199 0.0000 0.0000 0.0000
# 4 0.0000 0.0000 0.0000 22.1307 0.0000 0.0000
# 5 0.0000 0.0000 0.0000 0.0000 23.0440 0.0000
# 6 0.0000 0.0000 0.0000 0.0000 0.0000 17.8433
#
#
#
# Elastic Compliance Matrix: (Units=1/GPa)
#
#
# Indices 1 2 3 4 5 6 
#
# 1 0.021379 -0.005222 -0.007717 0.000000 0.000000 0.000000
# 2 -0.005222 0.090624 -0.001250 0.000000 0.000000 0.000000
# 3 -0.007717 -0.001250 0.009083 0.000000 0.000000 0.000000
# 4 0.000000 0.000000 0.000000 0.045186 0.000000 0.000000
# 5 0.000000 0.000000 0.000000 0.000000 0.043395 0.000000
# 6 0.000000 0.000000 0.000000 0.000000 0.000000 0.056044
#
#
# Mechanical properties :
#
#
# Convention : Reuss Voigt Hill
#
# Bulk Modulus (GPa) = 10.78655 42.55123 26.66889
# Shear Modulus (GPa) = 15.38501 24.09024 19.73763
#
# Velocity S-wave (km/s) = 3.06885 3.84015 3.47596
# Velocity P-wave (km/s) = 4.37723 6.76091 5.69517
#
# Compressibility (1/GPa) = 0.09270802
#
# Stress axis : x y z
#
# Youngs Moduli (GPa) = 46.77440 11.03458 110.10099
#
# Poissons Ratio (x) = 0.05762 0.84960
# Poissons Ratio (y) = 0.24426 0.13767
# Poissons Ratio (z) = 0.36094 0.01380
#
# Static dielectric constant tensor:
#      x y z
#    x 1.538480 0.000000 0.000000 
#    y 0.000000 1.575640 0.000000 
#    z 0.000000 0.000000 1.591300 
# 
# From -- ./inp_files/24589.got.cif
#   From: 2010.05.17/outbox.cif.g08.bks.cpg/sg62_13_cif.got.tgz:24589.got - 2010.06.03 15:25:27.
