data_PCOD9462272
_publ_section_title
;
Structure prediction by ZEFSAII (Michael W. Deem and Ramdas Pophale) SiO2 
 PCOD9462272
Probable space group: P N M A
;
_chemical_formula_sum "Si O2"
_cell_formula_units_Z 64
_cell_length_a 18.744282
_cell_length_b 9.024240
_cell_length_c 27.144886
_cell_angle_alpha 90.000000
_cell_angle_beta 90.000000
_cell_angle_gamma 90.000000
_cell_volume 4591.636171
_symmetry_space_group_name_H-M "P N M A"
_symmetry_group_IT_number 62
_symmetry_cell_setting 'orthorhombic'
loop_
_space_group_symop_operation_xyz
x,y,z
1/2-x,-y,1/2+z
1/2+x,1/2-y,1/2-z
-x,1/2+y,-z
-x,-y,-z
1/2+x,y,1/2-z
1/2-x,1/2+y,1/2+z
x,1/2-y,z
loop_
_atom_site_type_symbol
_atom_site_label
_atom_site_fract_x
_atom_site_fract_y
_atom_site_fract_z
Si Si1 0.914857 0.073526 0.740173
Si Si2 0.802771 0.079175 0.201461
Si Si3 0.426569 0.573019 0.943889
Si Si4 0.797869 0.920424 0.799030
Si Si5 0.079160 0.426476 0.558193
Si Si6 0.919013 0.573186 0.261447
Si Si7 0.661049 0.571490 0.853989
Si Si8 0.833453 0.928672 0.648733
O O1 0.908305 0.250000 0.736130
O O2 0.998015 0.035360 0.745292
O O3 0.866296 0.016237 0.785235
O O4 0.882876 0.000163 0.690764
O O5 0.824093 0.250000 0.192937
O O6 0.752022 0.077857 0.250034
O O7 0.748642 0.026958 0.158880
O O8 0.870414 0.982043 0.216099
O O9 0.440951 0.750000 0.940281
O O10 0.499226 0.486205 0.932059
O O11 0.365862 0.535549 0.904387
O O12 0.406267 0.542080 0.000501
O O13 0.818967 0.750000 0.807619
O O14 0.743052 0.970135 0.841369
O O15 0.081826 0.250000 0.565983
O O16 0.132617 0.507972 0.594926
O O17 0.912282 0.750000 0.267137
O O18 0.888113 0.494843 0.310390
O O19 0.656623 0.750000 0.852405
O O20 0.835538 0.750000 0.655166
#
# Coordination Sequence:
#
# PCOD9462272 Si02
#       8
#     8   8   8   8   8   8   8   8
#     4  10  19  27  38  59  83 105 131 163 197 233
#     4   8  15  27  41  57  76 101 133 164 194 231
#     4   9  18  31  44  58  80 109 137 168 202 233
#     4   8  16  29  42  56  75 102 135 165 194 233
#     4  10  19  29  42  61  82 105 136 170 202 235
#     4  10  19  28  39  59  84 107 133 164 197 236
#     4  10  19  30  43  58  78 107 139 167 198 235
#     4   9  17  29  43  57  76 105 138 166 194 231
#
# _framework density 13.938385999999999
#
# number of rings (size 3 to 8) (size 9 to 14) (size 15 to 20)
#    0.000    2.750    0.000    3.750    0.000   10.000 
#    0.000    0.000    0.000    0.000    0.000    0.000 
#    0.000    1.000    0.000    2.250    0.000    3.500 
#
# Total GULP energy -356475.950495 kJ/mol
# GULP energy per Si atom -5569.936726 kJ/mol
# Density = 1.390666 g / cm^3
# Si number density = 13.938386 Si / 1000 Ang^3
#
#
#
# Elastic Constant Matrix: (Units=GPa)
#
#
# Indices 1 2 3 4 5 6 
#
# 1 93.7966 42.7669 46.5797 0.0000 0.0000 0.0000
# 2 42.7669 39.4589 27.3246 0.0000 0.0000 0.0000
# 3 46.5797 27.3246 68.4247 0.0000 0.0000 0.0000
# 4 0.0000 0.0000 0.0000 18.8801 0.0000 0.0000
# 5 0.0000 0.0000 0.0000 0.0000 27.6182 0.0000
# 6 0.0000 0.0000 0.0000 0.0000 0.0000 235.0938
#
#
#
# Elastic Compliance Matrix: (Units=1/GPa)
#
#
# Indices 1 2 3 4 5 6 
#
# 1 0.024021 -0.020334 -0.008232 0.000000 0.000000 0.000000
# 2 -0.020334 0.052243 -0.007020 0.000000 0.000000 0.000000
# 3 -0.008232 -0.007020 0.023022 0.000000 0.000000 0.000000
# 4 0.000000 0.000000 0.000000 0.052966 0.000000 0.000000
# 5 0.000000 0.000000 0.000000 0.000000 0.036208 0.000000
# 6 0.000000 0.000000 0.000000 0.000000 0.000000 0.004254
#
#
# Mechanical properties :
#
#
# Convention : Reuss Voigt Hill
#
# Bulk Modulus (GPa) = 35.57042 48.33584 41.95313
# Shear Modulus (GPa) = 18.29780 61.98568 40.14174
#
# Velocity S-wave (km/s) = 3.62714 6.67591 5.37233
# Velocity P-wave (km/s) = 6.56633 9.70449 8.28534
#
# Compressibility (1/GPa) = 0.02811324
#
# Stress axis : x y z
#
# Youngs Moduli (GPa) = 41.63069 19.14124 43.43707
#
# Poissons Ratio (x) = 0.38922 0.35756
# Poissons Ratio (y) = 0.84653 0.30494
# Poissons Ratio (z) = 0.34269 0.13438
#
# Static dielectric constant tensor:
#      x y z
#    x 1.458480 0.000000 0.000000 
#    y 0.000000 1.466880 0.000000 
#    z 0.000000 0.000000 1.458010 
# 
# From -- ./inp_files/31340.got.cif
#   From: 2010.05.17/outbox.cif.g08.bks.cpg/sg62_16_cif.got.tgz:31340.got - 2010.06.03 15:25:27.
