data_PCOD9462750
_publ_section_title
;
Structure prediction by ZEFSAII (Michael W. Deem and Ramdas Pophale) SiO2 
 PCOD9462750
Probable space group: P N M A
;
_chemical_formula_sum "Si O2"
_cell_formula_units_Z 40
_cell_length_a 5.616783
_cell_length_b 28.886597
_cell_length_c 10.845037
_cell_angle_alpha 90.000000
_cell_angle_beta 90.000000
_cell_angle_gamma 90.000000
_cell_volume 1759.604509
_symmetry_space_group_name_H-M "P N M A"
_symmetry_group_IT_number 62
_symmetry_cell_setting 'orthorhombic'
loop_
_space_group_symop_operation_xyz
x,y,z
1/2-x,-y,1/2+z
1/2+x,1/2-y,1/2-z
-x,1/2+y,-z
-x,-y,-z
1/2+x,y,1/2-z
1/2-x,1/2+y,1/2+z
x,1/2-y,z
loop_
_atom_site_type_symbol
_atom_site_label
_atom_site_fract_x
_atom_site_fract_y
_atom_site_fract_z
Si Si1 0.428017 0.644205 0.705191
Si Si2 0.779777 0.800593 0.323850
Si Si3 0.188396 0.468909 0.926238
Si Si4 0.068834 0.614909 0.042029
Si Si5 0.082575 0.444267 0.372202
O O1 0.687506 0.665469 0.737396
O O2 0.400366 0.640176 0.558280
O O3 0.460896 0.592370 0.764232
O O4 0.543653 0.801965 0.235542
O O5 0.763088 0.750000 0.387332
O O6 0.734846 0.846454 0.400777
O O7 0.316516 0.505230 0.834777
O O8 0.077767 0.421314 0.874207
O O9 0.365718 0.453886 0.035854
O O10 0.000000 0.500000 0.000000
O O11 0.233388 0.582230 0.959827
#
# Coordination Sequence:
#
# PCOD9462750 Si02
#       5
#     8   8   8   8   8
#     4  10  19  32  53  85 115 157 194 233 291 350
#     4  10  24  45  68  92 118 152 202 263 326 378
#     4   9  17  32  52  79 121 162 209 240 279 342
#     4  10  20  35  62  85 117 158 206 250 309 367
#     4   9  18  32  53  83 124 163 203 245 285 355
#
# _framework density 22.732382000000001
#
# number of rings (size 3 to 8) (size 9 to 14) (size 15 to 20)
#    0.000    2.400    2.000    0.000    2.800    0.000 
#    0.000    8.000    0.000    4.800    0.000    0.000 
#    0.000    0.000    0.000    0.000    0.000    0.000 
#
# Total GULP energy -222889.149864 kJ/mol
# GULP energy per Si atom -5572.228747 kJ/mol
# Density = 2.268064 g / cm^3
# Si number density = 22.732382 Si / 1000 Ang^3
#
#
#
# Elastic Constant Matrix: (Units=GPa)
#
#
# Indices 1 2 3 4 5 6 
#
# 1 89.9764 -0.2726 1.2370 0.0000 0.0000 0.0000
# 2 -0.2726 47.5523 9.5398 0.0000 0.0000 0.0000
# 3 1.2370 9.5398 11.5322 0.0000 0.0000 0.0000
# 4 0.0000 0.0000 0.0000 19.4812 0.0000 0.0000
# 5 0.0000 0.0000 0.0000 0.0000 25.4339 0.0000
# 6 0.0000 0.0000 0.0000 0.0000 0.0000 43.7662
#
#
#
# Elastic Compliance Matrix: (Units=1/GPa)
#
#
# Indices 1 2 3 4 5 6 
#
# 1 0.011136 0.000364 -0.001495 0.000000 0.000000 0.000000
# 2 0.000364 0.025226 -0.020907 0.000000 0.000000 0.000000
# 3 -0.001495 -0.020907 0.104169 0.000000 0.000000 0.000000
# 4 0.000000 0.000000 0.000000 0.051331 0.000000 0.000000
# 5 0.000000 0.000000 0.000000 0.000000 0.039318 0.000000
# 6 0.000000 0.000000 0.000000 0.000000 0.000000 0.022849
#
#
# Mechanical properties :
#
#
# Convention : Reuss Voigt Hill
#
# Bulk Modulus (GPa) = 10.36765 18.89657 14.63211
# Shear Modulus (GPa) = 15.13980 26.97338 21.05659
#
# Velocity S-wave (km/s) = 2.58350 3.44839 3.04679
# Velocity P-wave (km/s) = 3.67014 4.91791 4.33911
#
# Compressibility (1/GPa) = 0.09645388
#
# Stress axis : x y z
#
# Youngs Moduli (GPa) = 89.80139 39.64200 9.59982
#
# Poissons Ratio (x) = -0.01442 0.01436
# Poissons Ratio (y) = -0.03267 0.20070
# Poissons Ratio (z) = 0.13429 0.82878
#
# Static dielectric constant tensor:
#      x y z
#    x 2.013250 0.000000 0.000000 
#    y 0.000000 1.853050 0.000000 
#    z 0.000000 0.000000 1.893280 
# 
# From -- ./inp_files/10703.got.cif
#   From: 2010.05.17/outbox.cif.g08.bks.cpg/sg62_6_cif.got.tgz:10703.got - 2010.06.03 15:25:27.
