data_PCOD9462841
_publ_section_title
;
Structure prediction by ZEFSAII (Michael W. Deem and Ramdas Pophale) SiO2 
 PCOD9462841
Probable space group: P N M A
;
_chemical_formula_sum "Si O2"
_cell_formula_units_Z 56
_cell_length_a 18.482296
_cell_length_b 8.631009
_cell_length_c 19.629381
_cell_angle_alpha 90.000000
_cell_angle_beta 90.000000
_cell_angle_gamma 90.000000
_cell_volume 3131.295800
_symmetry_space_group_name_H-M "P N M A"
_symmetry_group_IT_number 62
_symmetry_cell_setting 'orthorhombic'
loop_
_space_group_symop_operation_xyz
x,y,z
1/2-x,-y,1/2+z
1/2+x,1/2-y,1/2-z
-x,1/2+y,-z
-x,-y,-z
1/2+x,y,1/2-z
1/2-x,1/2+y,1/2+z
x,1/2-y,z
loop_
_atom_site_type_symbol
_atom_site_label
_atom_site_fract_x
_atom_site_fract_y
_atom_site_fract_z
Si Si1 0.689571 0.564862 0.894193
Si Si2 0.969087 0.936410 0.429723
Si Si3 0.450257 0.564856 0.646132
Si Si4 0.487296 0.066306 0.784933
Si Si5 0.613420 0.562328 0.604895
Si Si6 0.667026 0.564357 0.458219
Si Si7 0.145113 0.563281 0.749700
O O1 0.690397 0.750000 0.901187
O O2 0.611323 0.502385 0.917010
O O3 0.754014 0.493011 0.937136
O O4 0.697717 0.527544 0.813130
O O5 0.965460 0.750000 0.430982
O O6 0.018787 0.980995 0.364179
O O7 0.000000 0.000000 0.500000
O O8 0.447338 0.750000 0.642422
O O9 0.442592 0.514718 0.724969
O O10 0.530347 0.514474 0.619795
O O11 0.390023 0.493924 0.597615
O O12 0.477007 0.250000 0.779803
O O13 0.570185 0.021362 0.767828
O O14 0.612448 0.750000 0.601463
O O15 0.643098 0.505357 0.532994
O O16 0.660561 0.521368 0.671935
O O17 0.666280 0.750000 0.459251
O O18 0.132289 0.750000 0.747868
#
# Coordination Sequence:
#
# PCOD9462841 Si02
#       7
#     8   8   8   8   8   8   8
#     4  10  20  35  54  75 102 137 175 215 262 317
#     4  10  20  35  57  82 106 134 171 217 265 313
#     4  10  19  33  52  74 102 137 177 214 254 310
#     4   9  17  30  50  77 103 126 160 206 253 299
#     4   8  16  31  52  76  99 129 171 216 258 303
#     4  11  21  33  50  74 107 140 171 215 267 315
#     4   8  15  31  53  72  92 123 165 207 248 301
#
# _framework density 17.883970000000001
#
# number of rings (size 3 to 8) (size 9 to 14) (size 15 to 20)
#    0.000    2.571    0.000    3.429    0.000    2.286 
#    0.000    7.857    0.000    5.143    0.000    0.000 
#    0.000    0.000    0.000    0.000    0.000    0.000 
#
# Total GULP energy -311989.737137 kJ/mol
# GULP energy per Si atom -5571.245306 kJ/mol
# Density = 1.784326 g / cm^3
# Si number density = 17.883970 Si / 1000 Ang^3
#
#
#
# Elastic Constant Matrix: (Units=GPa)
#
#
# Indices 1 2 3 4 5 6 
#
# 1 56.6881 19.5123 62.9172 0.0000 0.0000 0.0000
# 2 19.5123 44.3448 42.5821 0.0000 0.0000 0.0000
# 3 62.9172 42.5821 185.0639 0.0000 0.0000 0.0000
# 4 0.0000 0.0000 0.0000 22.3712 0.0000 0.0000
# 5 0.0000 0.0000 0.0000 0.0000 13.4329 0.0000
# 6 0.0000 0.0000 0.0000 0.0000 0.0000 26.4125
#
#
#
# Elastic Compliance Matrix: (Units=1/GPa)
#
#
# Indices 1 2 3 4 5 6 
#
# 1 0.028932 -0.004217 -0.008866 0.000000 0.000000 0.000000
# 2 -0.004217 0.029561 -0.005368 0.000000 0.000000 0.000000
# 3 -0.008866 -0.005368 0.009653 0.000000 0.000000 0.000000
# 4 0.000000 0.000000 0.000000 0.044700 0.000000 0.000000
# 5 0.000000 0.000000 0.000000 0.000000 0.074444 0.000000
# 6 0.000000 0.000000 0.000000 0.000000 0.000000 0.037861
#
#
# Mechanical properties :
#
#
# Convention : Reuss Voigt Hill
#
# Bulk Modulus (GPa) = 32.00640 59.56889 45.78764
# Shear Modulus (GPa) = 18.35082 23.18233 20.76657
#
# Velocity S-wave (km/s) = 3.20676 3.60427 3.41131
# Velocity P-wave (km/s) = 5.62553 7.12052 6.41672
#
# Compressibility (1/GPa) = 0.03124375
#
# Stress axis : x y z
#
# Youngs Moduli (GPa) = 34.56384 33.82861 103.59605
#
# Poissons Ratio (x) = 0.14266 0.91847
# Poissons Ratio (y) = 0.14576 0.55611
# Poissons Ratio (z) = 0.30644 0.18159
#
# Static dielectric constant tensor:
#      x y z
#    x 1.578530 0.000000 0.000000 
#    y 0.000000 1.601440 0.000000 
#    z 0.000000 0.000000 1.664290 
# 
# From -- ./inp_files/27528.got.cif
#   From: 2010.05.17/outbox.cif.g08.bks.cpg/sg62_14_cif.got.tgz:27528.got - 2010.06.03 15:25:27.
