data_PCOD9462317
_publ_section_title
;
Structure prediction by ZEFSAII (Michael W. Deem and Ramdas Pophale) SiO2 
 PCOD9462317
Probable space group: P N M A
;
_chemical_formula_sum "Si O2"
_cell_formula_units_Z 64
_cell_length_a 19.676763
_cell_length_b 7.624218
_cell_length_c 20.129533
_cell_angle_alpha 90.000000
_cell_angle_beta 90.000000
_cell_angle_gamma 90.000000
_cell_volume 3019.831145
_symmetry_space_group_name_H-M "P N M A"
_symmetry_group_IT_number 62
_symmetry_cell_setting 'orthorhombic'
loop_
_space_group_symop_operation_xyz
x,y,z
1/2-x,-y,1/2+z
1/2+x,1/2-y,1/2-z
-x,1/2+y,-z
-x,-y,-z
1/2+x,y,1/2-z
1/2-x,1/2+y,1/2+z
x,1/2-y,z
loop_
_atom_site_type_symbol
_atom_site_label
_atom_site_fract_x
_atom_site_fract_y
_atom_site_fract_z
Si Si1 0.483370 0.037435 0.741234
Si Si2 0.958344 0.037546 0.903569
Si Si3 0.139420 0.458581 0.749577
Si Si4 0.030066 0.454889 0.389181
Si Si5 0.125407 0.537766 0.602210
Si Si6 0.662489 0.952752 0.037812
Si Si7 0.274915 0.549660 0.368709
Si Si8 0.105826 0.956510 0.963621
O O1 0.483499 0.250000 0.742972
O O2 0.562270 0.975106 0.739521
O O3 0.448324 0.981610 0.672510
O O4 0.453221 0.975985 0.811052
O O5 0.041871 0.750000 0.095036
O O6 0.033414 0.980562 0.927078
O O7 0.906442 0.979107 0.960938
O O8 0.135521 0.250000 0.761977
O O9 0.156670 0.487464 0.672789
O O10 0.192973 0.532071 0.802337
O O11 0.030228 0.250000 0.406121
O O12 0.086045 0.543516 0.434785
O O13 0.953289 0.523997 0.398030
O O14 0.123200 0.750000 0.599729
O O15 0.162398 0.471319 0.536238
O O16 0.684491 0.750000 0.031059
O O17 0.711619 0.034596 0.093017
O O18 0.254862 0.750000 0.351166
O O19 0.336272 0.549997 0.421763
O O20 0.122177 0.750000 0.964927
#
# Coordination Sequence:
#
# PCOD9462317 Si02
#       8
#     8   8   8   8   8   8   8   8
#     4   9  16  30  52  74 102 136 172 209 251 307
#     4   9  17  31  49  73 105 139 176 216 256 305
#     4   9  17  31  53  77  98 131 171 209 251 299
#     4  10  20  33  52  79 108 130 165 223 273 311
#     4   9  19  35  55  80 105 131 168 216 265 310
#     4  10  21  37  56  75 101 141 178 209 259 321
#     4  10  20  36  54  73 103 141 181 213 250 316
#     4  10  19  29  48  76 104 136 173 217 264 303
#
# _framework density 21.193238000000001
#
# number of rings (size 3 to 8) (size 9 to 14) (size 15 to 20)
#    0.000    2.500    1.250    1.125    0.000    3.000 
#    0.000    1.250    0.000    4.500    0.000    0.000 
#    0.000    0.000    0.000    0.000    0.000    0.000 
#
# Total GULP energy -357074.247534 kJ/mol
# GULP energy per Si atom -5579.285118 kJ/mol
# Density = 2.114500 g / cm^3
# Si number density = 21.193238 Si / 1000 Ang^3
#
#
#
# Elastic Constant Matrix: (Units=GPa)
#
#
# Indices 1 2 3 4 5 6 
#
# 1 39.4668 -1.1377 34.3436 0.0000 0.0000 0.0000
# 2 -1.1377 44.3665 -3.7637 0.0000 0.0000 0.0000
# 3 34.3436 -3.7637 152.5317 0.0000 0.0000 0.0000
# 4 0.0000 0.0000 0.0000 16.7258 0.0000 0.0000
# 5 0.0000 0.0000 0.0000 0.0000 27.3715 0.0000
# 6 0.0000 0.0000 0.0000 0.0000 0.0000 4.0323
#
#
#
# Elastic Compliance Matrix: (Units=1/GPa)
#
#
# Indices 1 2 3 4 5 6 
#
# 1 0.031514 0.000207 -0.007090 0.000000 0.000000 0.000000
# 2 0.000207 0.022588 0.000511 0.000000 0.000000 0.000000
# 3 -0.007090 0.000511 0.008165 0.000000 0.000000 0.000000
# 4 0.000000 0.000000 0.000000 0.059788 0.000000 0.000000
# 5 0.000000 0.000000 0.000000 0.000000 0.036534 0.000000
# 6 0.000000 0.000000 0.000000 0.000000 0.000000 0.247998
#
#
# Mechanical properties :
#
#
# Convention : Reuss Voigt Hill
#
# Bulk Modulus (GPa) = 20.19346 32.80549 26.49947
# Shear Modulus (GPa) = 11.47210 23.42077 17.44643
#
# Velocity S-wave (km/s) = 2.32913 3.32792 2.87227
# Velocity P-wave (km/s) = 4.09659 5.50269 4.85086
#
# Compressibility (1/GPa) = 0.04952098
#
# Stress axis : x y z
#
# Youngs Moduli (GPa) = 31.73214 44.27098 122.47260
#
# Poissons Ratio (x) = -0.00915 0.86839
# Poissons Ratio (y) = -0.00656 -0.06257
# Poissons Ratio (z) = 0.22500 -0.02262
#
# Static dielectric constant tensor:
#      x y z
#    x 1.739400 0.000000 0.000000 
#    y 0.000000 1.799420 0.000000 
#    z 0.000000 0.000000 1.798470 
# 
# From -- ./inp_files/24842.got.cif
#   From: 2010.05.17/outbox.cif.g08.bks.cpg/sg62_13_cif.got.tgz:24842.got - 2010.06.03 15:25:27.
