data_PCOD9462817
_publ_section_title
;
Structure prediction by ZEFSAII (Michael W. Deem and Ramdas Pophale) SiO2 
 PCOD9462817
Probable space group: P N M A
;
_chemical_formula_sum "Si O2"
_cell_formula_units_Z 28
_cell_length_a 5.300048
_cell_length_b 32.240681
_cell_length_c 6.828076
_cell_angle_alpha 90.000000
_cell_angle_beta 90.000000
_cell_angle_gamma 90.000000
_cell_volume 1166.762214
_symmetry_space_group_name_H-M "P N M A"
_symmetry_group_IT_number 62
_symmetry_cell_setting 'orthorhombic'
loop_
_space_group_symop_operation_xyz
x,y,z
1/2-x,-y,1/2+z
1/2+x,1/2-y,1/2-z
-x,1/2+y,-z
-x,-y,-z
1/2+x,y,1/2-z
1/2-x,1/2+y,1/2+z
x,1/2-y,z
loop_
_atom_site_type_symbol
_atom_site_label
_atom_site_fract_x
_atom_site_fract_y
_atom_site_fract_z
Si Si1 0.475196 0.542457 0.380584
Si Si2 0.620070 0.839104 0.984671
Si Si3 0.528228 0.250000 0.120532
Si Si4 0.119092 0.628100 0.960700
O O1 0.500000 0.500000 0.500000
O O2 0.203329 0.544244 0.276418
O O3 0.515531 0.581707 0.524036
O O4 0.519451 0.792496 0.993914
O O5 0.656722 0.853678 0.757130
O O6 0.396666 0.869209 0.053609
O O7 0.904472 0.843415 0.058930
O O8 0.806916 0.250000 0.213780
#
# Coordination Sequence:
#
# PCOD9462817 Si02
#       4
#     8   8   4   8
#     4  12  28  46  68  96 127 171 217 273 324 394
#     4  10  19  32  60  92 123 170 198 279 292 385
#     4  12  16  30  48  98 132 154 216 256 330 338
#     4  10  20  35  57  84 124 159 207 246 329 357
#
# _framework density 23.998035999999999
#
# number of rings (size 3 to 8) (size 9 to 14) (size 15 to 20)
#    0.000    1.143    5.714    2.571    8.000    0.000 
#    0.000    0.000    0.000    0.000    0.000   34.000 
#    0.000    0.000    0.000    0.000    0.000    0.000 
#
# Total GULP energy -156490.339077 kJ/mol
# GULP energy per Si atom -5588.940681 kJ/mol
# Density = 2.394341 g / cm^3
# Si number density = 23.998036 Si / 1000 Ang^3
#
#
#
# Elastic Constant Matrix: (Units=GPa)
#
#
# Indices 1 2 3 4 5 6 
#
# 1 158.5834 -17.6965 -17.7687 0.0000 0.0000 0.0000
# 2 -17.6965 144.7732 -5.6442 0.0000 0.0000 0.0000
# 3 -17.7687 -5.6442 74.1401 0.0000 0.0000 0.0000
# 4 0.0000 0.0000 0.0000 26.1344 0.0000 0.0000
# 5 0.0000 0.0000 0.0000 0.0000 -13.6260 0.0000
# 6 0.0000 0.0000 0.0000 0.0000 0.0000 42.4699
#
#
#
# Elastic Compliance Matrix: (Units=1/GPa)
#
#
# Indices 1 2 3 4 5 6 
#
# 1 0.006587 0.000869 0.001645 0.000000 0.000000 0.000000
# 2 0.000869 0.007043 0.000744 0.000000 0.000000 0.000000
# 3 0.001645 0.000744 0.013939 0.000000 0.000000 0.000000
# 4 0.000000 0.000000 0.000000 0.038264 0.000000 0.000000
# 5 0.000000 0.000000 0.000000 0.000000 -0.073389 0.000000
# 6 0.000000 0.000000 0.000000 0.000000 0.000000 0.023546
#
#
# Mechanical properties :
#
#
# Convention : Reuss Voigt Hill
#
# Bulk Modulus (GPa) = 29.33754 32.80866 31.07310
# Shear Modulus (GPa) = 239.99064 38.90272 139.44668
#
# Velocity S-wave (km/s) = 10.01106 4.03063 7.63110
# Velocity P-wave (km/s) = 12.07808 5.94663 9.51952
#
# Compressibility (1/GPa) = 0.03408602
#
# Stress axis : x y z
#
# Youngs Moduli (GPa) = 151.81096 141.99217 71.74179
#
# Poissons Ratio (x) = -0.12344 -0.11801
# Poissons Ratio (y) = -0.13197 -0.05341
# Poissons Ratio (z) = -0.24971 -0.10571
#
# Static dielectric constant tensor:
#      x y z
#    x 1.998850 0.000000 0.000000 
#    y 0.000000 1.872430 0.000000 
#    z 0.000000 0.000000 2.798380 
# 
# From -- ./inp_files/3799.got.cif
#   From: 2010.05.17/outbox.cif.g08.bks.cpg/sg62_2_cif.got.tgz:3799.got - 2010.06.03 15:25:27.
