data_PCOD9462395
_publ_section_title
;
Structure prediction by ZEFSAII (Michael W. Deem and Ramdas Pophale) SiO2 
 PCOD9462395
Probable space group: P N M A
;
_chemical_formula_sum "Si O2"
_cell_formula_units_Z 56
_cell_length_a 17.093728
_cell_length_b 13.225043
_cell_length_c 11.902811
_cell_angle_alpha 90.000000
_cell_angle_beta 90.000000
_cell_angle_gamma 90.000000
_cell_volume 2690.812395
_symmetry_space_group_name_H-M "P N M A"
_symmetry_group_IT_number 62
_symmetry_cell_setting 'orthorhombic'
loop_
_space_group_symop_operation_xyz
x,y,z
1/2-x,-y,1/2+z
1/2+x,1/2-y,1/2-z
-x,1/2+y,-z
-x,-y,-z
1/2+x,y,1/2-z
1/2-x,1/2+y,1/2+z
x,1/2-y,z
loop_
_atom_site_type_symbol
_atom_site_label
_atom_site_fract_x
_atom_site_fract_y
_atom_site_fract_z
Si Si1 0.986839 0.361013 0.447468
Si Si2 0.624840 0.366000 0.631495
Si Si3 0.653649 0.084034 0.159087
Si Si4 0.195142 0.636746 0.281636
Si Si5 0.698250 0.364678 0.408809
Si Si6 0.066454 0.062946 0.653320
Si Si7 0.767717 0.920761 0.438183
O O1 0.955944 0.250000 0.426603
O O2 0.072462 0.375375 0.390361
O O3 0.001723 0.379735 0.579846
O O4 0.936680 0.449599 0.393436
O O5 0.601846 0.250000 0.650947
O O6 0.716333 0.375528 0.668718
O O7 0.628734 0.385323 0.498637
O O8 0.569712 0.430973 0.712690
O O9 0.671223 0.128925 0.280523
O O10 0.650439 0.962182 0.174810
O O11 0.722665 0.105816 0.068799
O O12 0.167879 0.750000 0.310043
O O13 0.204242 0.626265 0.145903
O O14 0.726606 0.250000 0.432611
O O15 0.756712 0.458123 0.427099
O O16 0.148999 0.109334 0.614519
#
# Coordination Sequence:
#
# PCOD9462395 Si02
#       7
#     8   8   8   8   8   8   8
#     4  10  20  35  53  75 102 136 174 215 260 298
#     4   9  16  30  52  74  99 131 167 205 251 309
#     4  10  19  32  49  74 105 135 170 214 258 307
#     4   9  17  30  49  72 100 134 167 204 257 308
#     4  10  19  30  49  77 104 133 168 206 258 318
#     4   9  19  34  53  74 100 134 177 216 250 300
#     4   9  18  31  50  73 102 131 167 211 261 302
#
# _framework density 20.811558000000002
#
# number of rings (size 3 to 8) (size 9 to 14) (size 15 to 20)
#    0.000    2.571    1.429    0.857    0.000    4.571 
#    0.000    7.143    0.000    0.857    0.000    0.000 
#    0.000    0.000    0.000    0.000    0.000    0.000 
#
# Total GULP energy -312069.784983 kJ/mol
# GULP energy per Si atom -5572.674732 kJ/mol
# Density = 2.076419 g / cm^3
# Si number density = 20.811558 Si / 1000 Ang^3
#
#
#
# Elastic Constant Matrix: (Units=GPa)
#
#
# Indices 1 2 3 4 5 6 
#
# 1 19.8355 -4.5948 11.9052 0.0000 0.0000 0.0000
# 2 -4.5948 74.8902 -3.3865 0.0000 0.0000 0.0000
# 3 11.9052 -3.3865 137.6051 0.0000 0.0000 0.0000
# 4 0.0000 0.0000 0.0000 14.8525 0.0000 0.0000
# 5 0.0000 0.0000 0.0000 0.0000 24.1759 0.0000
# 6 0.0000 0.0000 0.0000 0.0000 0.0000 2.1150
#
#
#
# Elastic Compliance Matrix: (Units=1/GPa)
#
#
# Indices 1 2 3 4 5 6 
#
# 1 0.053885 0.003099 -0.004586 0.000000 0.000000 0.000000
# 2 0.003099 0.013546 0.000065 0.000000 0.000000 0.000000
# 3 -0.004586 0.000065 0.007666 0.000000 0.000000 0.000000
# 4 0.000000 0.000000 0.000000 0.067329 0.000000 0.000000
# 5 0.000000 0.000000 0.000000 0.000000 0.041364 0.000000
# 6 0.000000 0.000000 0.000000 0.000000 0.000000 0.472820
#
#
# Mechanical properties :
#
#
# Convention : Reuss Voigt Hill
#
# Bulk Modulus (GPa) = 13.84030 26.68650 20.26340
# Shear Modulus (GPa) = 7.31491 23.45580 15.38535
#
# Velocity S-wave (km/s) = 1.87682 3.36081 2.72190
# Velocity P-wave (km/s) = 3.37066 5.28307 4.43126
#
# Compressibility (1/GPa) = 0.07225277
#
# Stress axis : x y z
#
# Youngs Moduli (GPa) = 18.55813 73.82278 130.45432
#
# Poissons Ratio (x) = -0.22875 0.59822
# Poissons Ratio (y) = -0.05751 -0.00852
# Poissons Ratio (z) = 0.08510 -0.00482
#
# Static dielectric constant tensor:
#      x y z
#    x 1.746170 0.000000 0.000000 
#    y 0.000000 1.769230 0.000000 
#    z 0.000000 0.000000 1.816510 
# 
# From -- ./inp_files/15266.got.cif
#   From: 2010.05.17/outbox.cif.g08.bks.cpg/sg62_8_cif.got.tgz:15266.got - 2010.06.03 15:25:27.
