data_PCOD9462153
_publ_section_title
;
Structure prediction by ZEFSAII (Michael W. Deem and Ramdas Pophale) SiO2 
 PCOD9462153
Probable space group: P N M A
;
_chemical_formula_sum "Si O2"
_cell_formula_units_Z 40
_cell_length_a 15.572763
_cell_length_b 18.143786
_cell_length_c 7.190514
_cell_angle_alpha 90.000000
_cell_angle_beta 90.000000
_cell_angle_gamma 90.000000
_cell_volume 2031.671672
_symmetry_space_group_name_H-M "P N M A"
_symmetry_group_IT_number 62
_symmetry_cell_setting 'orthorhombic'
loop_
_space_group_symop_operation_xyz
x,y,z
1/2-x,-y,1/2+z
1/2+x,1/2-y,1/2-z
-x,1/2+y,-z
-x,-y,-z
1/2+x,y,1/2-z
1/2-x,1/2+y,1/2+z
x,1/2-y,z
loop_
_atom_site_type_symbol
_atom_site_label
_atom_site_fract_x
_atom_site_fract_y
_atom_site_fract_z
Si Si1 0.784285 0.331938 0.570319
Si Si2 0.866895 0.476495 0.950015
Si Si3 0.606200 0.398410 0.716635
Si Si4 0.827625 0.009514 0.518420
Si Si5 0.434505 0.170682 0.624130
O O1 0.776702 0.250000 0.482915
O O2 0.693750 0.354447 0.667663
O O3 0.813189 0.404942 0.455451
O O4 0.856837 0.326279 0.728599
O O5 0.864297 0.486391 0.726913
O O6 0.910498 0.399466 0.999204
O O7 0.909112 0.546605 0.044330
O O8 0.768743 0.477242 0.020625
O O9 0.523666 0.346813 0.728943
O O10 0.619819 0.454419 0.888009
O O11 0.441072 0.250000 0.528863
#
# Coordination Sequence:
#
# PCOD9462153 Si02
#       5
#     8   8   8   8   8
#     4   9  19  34  53  81 114 141 183 234 277 330
#     4  10  19  35  56  86 110 140 191 232 269 335
#     4  11  20  35  61  79 110 149 189 227 281 330
#     4  10  18  34  59  81 109 143 190 223 276 334
#     4  10  20  35  56  82 111 150 186 225 285 333
#
# _framework density 19.688222
#
# number of rings (size 3 to 8) (size 9 to 14) (size 15 to 20)
#    0.000    2.000    6.000    1.200    0.000    3.200 
#    0.000    1.000    0.000   16.800    0.000    0.000 
#    0.000    0.000    0.000    0.000    0.000    0.000 
#
# Total GULP energy -222761.223059 kJ/mol
# GULP energy per Si atom -5569.030576 kJ/mol
# Density = 1.964341 g / cm^3
# Si number density = 19.688222 Si / 1000 Ang^3
#
#
#
# Elastic Constant Matrix: (Units=GPa)
#
#
# Indices 1 2 3 4 5 6 
#
# 1 84.6715 49.5217 1.8708 0.0000 0.0000 0.0000
# 2 49.5217 137.6320 29.3327 0.0000 0.0000 0.0000
# 3 1.8708 29.3327 46.8839 0.0000 0.0000 0.0000
# 4 0.0000 0.0000 0.0000 15.3297 0.0000 0.0000
# 5 0.0000 0.0000 0.0000 0.0000 9.4488 0.0000
# 6 0.0000 0.0000 0.0000 0.0000 0.0000 32.8048
#
#
#
# Elastic Compliance Matrix: (Units=1/GPa)
#
#
# Indices 1 2 3 4 5 6 
#
# 1 0.015385 -0.006237 0.003288 0.000000 0.000000 0.000000
# 2 -0.006237 0.010912 -0.006578 0.000000 0.000000 0.000000
# 3 0.003288 -0.006578 0.025314 0.000000 0.000000 0.000000
# 4 0.000000 0.000000 0.000000 0.065233 0.000000 0.000000
# 5 0.000000 0.000000 0.000000 0.000000 0.105834 0.000000
# 6 0.000000 0.000000 0.000000 0.000000 0.000000 0.030483
#
#
# Mechanical properties :
#
#
# Convention : Reuss Voigt Hill
#
# Bulk Modulus (GPa) = 30.71500 47.84863 39.28182
# Shear Modulus (GPa) = 17.66371 24.08081 20.87226
#
# Velocity S-wave (km/s) = 2.99853 3.50109 3.25951
# Velocity P-wave (km/s) = 5.25574 6.37961 5.84475
#
# Compressibility (1/GPa) = 0.03255738
#
# Stress axis : x y z
#
# Youngs Moduli (GPa) = 64.99722 91.64500 39.50448
#
# Poissons Ratio (x) = 0.57155 -0.12989
# Poissons Ratio (y) = 0.40536 0.25986
# Poissons Ratio (z) = -0.21371 0.60284
#
# Static dielectric constant tensor:
#      x y z
#    x 1.720980 0.000000 0.000000 
#    y 0.000000 1.714360 0.000000 
#    z 0.000000 0.000000 1.699150 
# 
# From -- ./inp_files/6286.got.cif
#   From: 2010.05.17/outbox.cif.g08.bks.cpg/sg62_4_cif.got.tgz:6286.got - 2010.06.03 15:25:27.
