data_PCOD9462031
_publ_section_title
;
Structure prediction by ZEFSAII (Michael W. Deem and Ramdas Pophale) SiO2 
 PCOD9462031
Probable space group: P N M A
;
_chemical_formula_sum "Si O2"
_cell_formula_units_Z 64
_cell_length_a 25.577352
_cell_length_b 7.583121
_cell_length_c 15.142290
_cell_angle_alpha 90.000000
_cell_angle_beta 90.000000
_cell_angle_gamma 90.000000
_cell_volume 2936.940347
_symmetry_space_group_name_H-M "P N M A"
_symmetry_group_IT_number 62
_symmetry_cell_setting 'orthorhombic'
loop_
_space_group_symop_operation_xyz
x,y,z
1/2-x,-y,1/2+z
1/2+x,1/2-y,1/2-z
-x,1/2+y,-z
-x,-y,-z
1/2+x,y,1/2-z
1/2-x,1/2+y,1/2+z
x,1/2-y,z
loop_
_atom_site_type_symbol
_atom_site_label
_atom_site_fract_x
_atom_site_fract_y
_atom_site_fract_z
Si Si1 0.153218 0.046974 0.846340
Si Si2 0.633113 0.964285 0.461618
Si Si3 0.944812 0.959343 0.242406
Si Si4 0.737844 0.537949 0.367322
Si Si5 0.166022 0.960945 0.505361
Si Si6 0.230813 0.534080 0.336226
Si Si7 0.523727 0.538635 0.403819
Si Si8 0.550939 0.959178 0.942584
O O1 0.162807 0.250000 0.820252
O O2 0.113180 0.966196 0.776615
O O3 0.210629 0.971558 0.860102
O O4 0.124888 0.035782 0.940183
O O5 0.633522 0.750000 0.466028
O O6 0.688997 0.025115 0.425816
O O7 0.583863 0.021479 0.403131
O O8 0.940829 0.750000 0.223935
O O9 0.987054 0.032734 0.173742
O O10 0.959294 0.980723 0.343095
O O11 0.736446 0.750000 0.365455
O O12 0.792557 0.491868 0.414802
O O13 0.726913 0.480114 0.266498
O O14 0.162041 0.750000 0.496437
O O15 0.191276 0.027385 0.412813
O O16 0.107546 0.030480 0.524762
O O17 0.227769 0.750000 0.338254
O O18 0.500000 0.500000 0.500000
O O19 0.525562 0.750000 0.394260
O O20 0.556488 0.750000 0.940841
O O21 0.500000 0.000000 0.000000
#
# Coordination Sequence:
#
# PCOD9462031 Si02
#       8
#     8   8   8   8   8   8   8   8
#     4  10  18  32  56  82 111 151 194 233 282 344
#     4  10  20  32  51  82 116 148 185 237 290 337
#     4  10  21  37  60  88 115 154 201 243 288 348
#     4  10  20  35  56  84 116 151 188 231 286 343
#     4  10  21  39  62  86 113 149 192 238 286 341
#     4   9  18  33  56  82 111 149 189 228 279 344
#     4  10  20  34  54  82 116 154 194 237 287 343
#     4  11  25  43  64  88 114 151 195 248 299 345
#
# _framework density 21.791384999999998
#
# number of rings (size 3 to 8) (size 9 to 14) (size 15 to 20)
#    0.000    2.000    2.500    1.125    0.000    4.000 
#    0.000    5.000    0.000    1.500    0.000    0.000 
#    0.000    0.000    0.000    0.000    0.000    0.000 
#
# Total GULP energy -357199.338698 kJ/mol
# GULP energy per Si atom -5581.239667 kJ/mol
# Density = 2.174179 g / cm^3
# Si number density = 21.791385 Si / 1000 Ang^3
#
#
#
# Elastic Constant Matrix: (Units=GPa)
#
#
# Indices 1 2 3 4 5 6 
#
# 1 149.7719 -8.4644 61.8662 0.0000 0.0000 0.0000
# 2 -8.4644 42.2808 -20.1515 0.0000 0.0000 0.0000
# 3 61.8662 -20.1515 138.4215 0.0000 0.0000 0.0000
# 4 0.0000 0.0000 0.0000 20.6123 0.0000 0.0000
# 5 0.0000 0.0000 0.0000 0.0000 36.9391 0.0000
# 6 0.0000 0.0000 0.0000 0.0000 0.0000 9.9818
#
#
#
# Elastic Compliance Matrix: (Units=1/GPa)
#
#
# Indices 1 2 3 4 5 6 
#
# 1 0.008189 -0.000113 -0.003676 0.000000 0.000000 0.000000
# 2 -0.000113 0.025416 0.003751 0.000000 0.000000 0.000000
# 3 -0.003676 0.003751 0.009413 0.000000 0.000000 0.000000
# 4 0.000000 0.000000 0.000000 0.048515 0.000000 0.000000
# 5 0.000000 0.000000 0.000000 0.000000 0.027072 0.000000
# 6 0.000000 0.000000 0.000000 0.000000 0.000000 0.100182
#
#
# Mechanical properties :
#
#
# Convention : Reuss Voigt Hill
#
# Bulk Modulus (GPa) = 23.28752 44.10830 33.69791
# Shear Modulus (GPa) = 21.44277 33.32157 27.38217
#
# Velocity S-wave (km/s) = 3.14028 3.91463 3.54864
# Velocity P-wave (km/s) = 4.88449 6.38103 5.68225
#
# Compressibility (1/GPa) = 0.04294145
#
# Stress axis : x y z
#
# Youngs Moduli (GPa) = 122.11388 39.34476 106.23062
#
# Poissons Ratio (x) = 0.00444 0.39055
# Poissons Ratio (y) = 0.01378 -0.39842
# Poissons Ratio (z) = 0.44895 -0.14756
#
# Static dielectric constant tensor:
#      x y z
#    x 1.819710 0.000000 0.000000 
#    y 0.000000 2.844400 0.000000 
#    z 0.000000 0.000000 1.803870 
# 
# From -- ./inp_files/20857.got.cif
#   From: 2010.05.17/outbox.cif.g08.bks.cpg/sg62_11_cif.got.tgz:20857.got - 2010.06.03 15:25:27.
