data_PCOD9462442
_publ_section_title
;
Structure prediction by ZEFSAII (Michael W. Deem and Ramdas Pophale) SiO2 
 PCOD9462442
Probable space group: P N M A
;
_chemical_formula_sum "Si O2"
_cell_formula_units_Z 56
_cell_length_a 19.956069
_cell_length_b 8.008441
_cell_length_c 19.907648
_cell_angle_alpha 90.000000
_cell_angle_beta 90.000000
_cell_angle_gamma 90.000000
_cell_volume 3181.580604
_symmetry_space_group_name_H-M "P N M A"
_symmetry_group_IT_number 62
_symmetry_cell_setting 'orthorhombic'
loop_
_space_group_symop_operation_xyz
x,y,z
1/2-x,-y,1/2+z
1/2+x,1/2-y,1/2-z
-x,1/2+y,-z
-x,-y,-z
1/2+x,y,1/2-z
1/2-x,1/2+y,1/2+z
x,1/2-y,z
loop_
_atom_site_type_symbol
_atom_site_label
_atom_site_fract_x
_atom_site_fract_y
_atom_site_fract_z
Si Si1 0.338116 0.951632 0.264362
Si Si2 0.231127 0.549071 0.152184
Si Si3 0.296921 0.545357 0.017338
Si Si4 0.977109 0.549121 0.292866
Si Si5 0.769262 0.549365 0.632943
Si Si6 0.446971 0.548722 0.056557
Si Si7 0.125265 0.448605 0.255932
O O1 0.338084 0.750000 0.263775
O O2 0.290587 0.007989 0.202479
O O3 0.413534 0.010338 0.250683
O O4 0.300966 0.007544 0.331772
O O5 0.233462 0.750000 0.151513
O O6 0.247496 0.490962 0.077104
O O7 0.162060 0.497906 0.187064
O O8 0.296531 0.750000 0.016600
O O9 0.372306 0.492782 0.036660
O O10 0.277789 0.487363 0.942878
O O11 0.972709 0.750000 0.295321
O O12 0.968299 0.487251 0.369583
O O13 0.049377 0.505416 0.264078
O O14 0.775338 0.750000 0.630910
O O15 0.827792 0.484695 0.682977
O O16 0.444708 0.750000 0.059616
O O17 0.500000 0.500000 0.000000
O O18 0.126214 0.250000 0.260548
#
# Coordination Sequence:
#
# PCOD9462442 Si02
#       7
#     8   8   8   8   8   8   8
#     4   9  17  31  50  71  93 123 166 207 238 276
#     4   9  16  31  53  71  90 126 169 204 237 284
#     4   9  16  30  51  71  95 129 165 197 237 291
#     4  10  19  32  50  71  96 130 169 202 235 286
#     4   9  18  31  48  71  99 129 159 195 243 295
#     4  10  19  31  47  71 103 135 164 194 237 293
#     4  10  20  32  47  72 103 130 158 200 248 292
#
# _framework density 17.601313999999999
#
# number of rings (size 3 to 8) (size 9 to 14) (size 15 to 20)
#    0.000    2.571    1.429    1.286    0.000    2.857 
#    0.000    2.143    0.000    0.857    0.000    0.000 
#    0.000    0.000    0.000    0.000    0.000    0.000 
#
# Total GULP energy -312296.503043 kJ/mol
# GULP energy per Si atom -5576.723269 kJ/mol
# Density = 1.756125 g / cm^3
# Si number density = 17.601314 Si / 1000 Ang^3
#
#
#
# Elastic Constant Matrix: (Units=GPa)
#
#
# Indices 1 2 3 4 5 6 
#
# 1 159.4107 6.2868 87.2436 0.0000 0.0000 0.0000
# 2 6.2868 9.5388 7.0831 0.0000 0.0000 0.0000
# 3 87.2436 7.0831 98.3230 0.0000 0.0000 0.0000
# 4 0.0000 0.0000 0.0000 17.9681 0.0000 0.0000
# 5 0.0000 0.0000 0.0000 0.0000 24.6291 0.0000
# 6 0.0000 0.0000 0.0000 0.0000 0.0000 18.7822
#
#
#
# Elastic Compliance Matrix: (Units=1/GPa)
#
#
# Indices 1 2 3 4 5 6 
#
# 1 0.012195 -0.000003 -0.010821 0.000000 0.000000 0.000000
# 2 -0.000003 0.110760 -0.007977 0.000000 0.000000 0.000000
# 3 -0.010821 -0.007977 0.020347 0.000000 0.000000 0.000000
# 4 0.000000 0.000000 0.000000 0.055654 0.000000 0.000000
# 5 0.000000 0.000000 0.000000 0.000000 0.040602 0.000000
# 6 0.000000 0.000000 0.000000 0.000000 0.000000 0.053242
#
#
# Mechanical properties :
#
#
# Convention : Reuss Voigt Hill
#
# Bulk Modulus (GPa) = 9.46060 52.05549 30.75804
# Shear Modulus (GPa) = 13.67484 23.38649 18.53067
#
# Velocity S-wave (km/s) = 2.79036 3.64906 3.24821
# Velocity P-wave (km/s) = 3.97090 6.88427 5.61966
#
# Compressibility (1/GPa) = 0.10570152
#
# Stress axis : x y z
#
# Youngs Moduli (GPa) = 81.99811 9.02854 49.14770
#
# Poissons Ratio (x) = 0.00002 0.53183
# Poissons Ratio (y) = 0.00021 0.39204
# Poissons Ratio (z) = 0.88730 0.07202
#
# Static dielectric constant tensor:
#      x y z
#    x 1.589740 0.000000 0.000000 
#    y 0.000000 1.637640 0.000000 
#    z 0.000000 0.000000 1.600090 
# 
# From -- ./inp_files/24610.got.cif
#   From: 2010.05.17/outbox.cif.g08.bks.cpg/sg62_13_cif.got.tgz:24610.got - 2010.06.03 15:25:27.
