data_PCOD9462253
_publ_section_title
;
Structure prediction by ZEFSAII (Michael W. Deem and Ramdas Pophale) SiO2 
 PCOD9462253
Probable space group: P N M A
;
_chemical_formula_sum "Si O2"
_cell_formula_units_Z 40
_cell_length_a 23.070158
_cell_length_b 8.389725
_cell_length_c 9.594040
_cell_angle_alpha 90.000000
_cell_angle_beta 90.000000
_cell_angle_gamma 90.000000
_cell_volume 1856.948329
_symmetry_space_group_name_H-M "P N M A"
_symmetry_group_IT_number 62
_symmetry_cell_setting 'orthorhombic'
loop_
_space_group_symop_operation_xyz
x,y,z
1/2-x,-y,1/2+z
1/2+x,1/2-y,1/2-z
-x,1/2+y,-z
-x,-y,-z
1/2+x,y,1/2-z
1/2-x,1/2+y,1/2+z
x,1/2-y,z
loop_
_atom_site_type_symbol
_atom_site_label
_atom_site_fract_x
_atom_site_fract_y
_atom_site_fract_z
Si Si1 0.177730 0.563556 0.470583
Si Si2 0.273601 0.558215 0.247266
Si Si3 0.529418 0.750000 0.478095
Si Si4 0.045159 0.250000 0.729900
Si Si5 0.096335 0.250000 0.125300
Si Si6 0.116890 0.491446 0.912650
Si Si7 0.401964 0.750000 0.951624
O O1 0.157772 0.750000 0.483445
O O2 0.212964 0.547983 0.326614
O O3 0.221429 0.522703 0.597366
O O4 0.132348 0.416815 0.477710
O O5 0.287866 0.750000 0.239932
O O6 0.322531 0.469651 0.340977
O O7 0.515286 0.750000 0.313440
O O8 0.466951 0.750000 0.551662
O O9 0.568323 0.892048 0.531335
O O10 0.046006 0.250000 0.563955
O O11 0.082664 0.395821 0.791541
O O12 0.129984 0.394699 0.053670
O O13 0.086237 0.250000 0.287609
#
# Coordination Sequence:
#
# PCOD9462253 Si02
#       7
#     8   8   4   4   4   8   4
#     4  11  26  40  65  99 130 173 223 260 310 398
#     4  11  22  42  64  91 131 175 209 265 324 375
#     4  10  22  39  66 101 120 158 231 272 308 405
#     4  10  18  40  64  81 126 169 204 260 333 376
#     4  10  22  40  64  87 122 175 203 263 332 377
#     4  10  19  39  65  88 121 165 214 257 321 387
#     4  12  24  45  66  89 140 176 208 269 343 368
#
# _framework density 21.540717000000001
#
# number of rings (size 3 to 8) (size 9 to 14) (size 15 to 20)
#    0.000    1.600    5.000    2.400    5.600    0.000 
#    1.800    4.000    0.000    0.000    0.000    0.000 
#    0.000    0.000    0.000    0.000    0.000    0.000 
#
# Total GULP energy -222859.898399 kJ/mol
# GULP energy per Si atom -5571.497460 kJ/mol
# Density = 2.149169 g / cm^3
# Si number density = 21.540717 Si / 1000 Ang^3
#
#
#
# Elastic Constant Matrix: (Units=GPa)
#
#
# Indices 1 2 3 4 5 6 
#
# 1 19.6841 13.8174 -12.0577 0.0000 0.0000 0.0000
# 2 13.8174 78.4134 20.3661 0.0000 0.0000 0.0000
# 3 -12.0577 20.3661 140.7384 0.0000 0.0000 0.0000
# 4 0.0000 0.0000 0.0000 14.2359 0.0000 0.0000
# 5 0.0000 0.0000 0.0000 0.0000 19.3493 0.0000
# 6 0.0000 0.0000 0.0000 0.0000 0.0000 16.8483
#
#
#
# Elastic Compliance Matrix: (Units=1/GPa)
#
#
# Indices 1 2 3 4 5 6 
#
# 1 0.064759 -0.013354 0.007481 0.000000 0.000000 0.000000
# 2 -0.013354 0.016005 -0.003460 0.000000 0.000000 0.000000
# 3 0.007481 -0.003460 0.008247 0.000000 0.000000 0.000000
# 4 0.000000 0.000000 0.000000 0.070245 0.000000 0.000000
# 5 0.000000 0.000000 0.000000 0.000000 0.051682 0.000000
# 6 0.000000 0.000000 0.000000 0.000000 0.000000 0.059353
#
#
# Mechanical properties :
#
#
# Convention : Reuss Voigt Hill
#
# Bulk Modulus (GPa) = 14.21600 31.45416 22.83508
# Shear Modulus (GPa) = 16.00484 24.53403 20.26943
#
# Velocity S-wave (km/s) = 2.72877 3.37851 3.07087
# Velocity P-wave (km/s) = 4.06720 5.46379 4.81639
#
# Compressibility (1/GPa) = 0.07034329
#
# Stress axis : x y z
#
# Youngs Moduli (GPa) = 15.44189 62.48134 121.25625
#
# Poissons Ratio (x) = 0.83439 -0.90708
# Poissons Ratio (y) = 0.20621 0.41956
# Poissons Ratio (z) = -0.11552 0.21619
#
# Static dielectric constant tensor:
#      x y z
#    x 1.756720 0.000000 0.000000 
#    y 0.000000 1.749940 0.000000 
#    z 0.000000 0.000000 1.763040 
# 
# From -- ./inp_files/9159.got.cif
#   From: 2010.05.17/outbox.cif.g08.bks.cpg/sg62_5_cif.got.tgz:9159.got - 2010.06.03 15:25:27.
