data_PCOD9462206
_publ_section_title
;
Structure prediction by ZEFSAII (Michael W. Deem and Ramdas Pophale) SiO2 
 PCOD9462206
Probable space group: P N M A
;
_chemical_formula_sum "Si O2"
_cell_formula_units_Z 44
_cell_length_a 10.256844
_cell_length_b 16.624770
_cell_length_c 9.946527
_cell_angle_alpha 90.000000
_cell_angle_beta 90.000000
_cell_angle_gamma 90.000000
_cell_volume 1696.058633
_symmetry_space_group_name_H-M "P N M A"
_symmetry_group_IT_number 62
_symmetry_cell_setting 'orthorhombic'
loop_
_space_group_symop_operation_xyz
x,y,z
1/2-x,-y,1/2+z
1/2+x,1/2-y,1/2-z
-x,1/2+y,-z
-x,-y,-z
1/2+x,y,1/2-z
1/2-x,1/2+y,1/2+z
x,1/2-y,z
loop_
_atom_site_type_symbol
_atom_site_label
_atom_site_fract_x
_atom_site_fract_y
_atom_site_fract_z
Si Si1 0.827623 0.339435 0.683924
Si Si2 0.471409 0.594845 0.979511
Si Si3 0.094780 0.600920 0.799249
Si Si4 0.249143 0.034429 0.640653
Si Si5 0.123539 0.114693 0.007434
Si Si6 0.759003 0.750000 0.791856
O O1 0.843384 0.250000 0.738294
O O2 0.855932 0.414511 0.779537
O O3 0.677747 0.353747 0.634840
O O4 0.921918 0.351181 0.555724
O O5 0.335140 0.599163 0.056529
O O6 0.500000 0.500000 0.000000
O O7 0.487501 0.612989 0.822336
O O8 0.168599 0.520365 0.748774
O O9 0.185126 0.678472 0.793016
O O10 0.021907 0.598279 0.941248
O O11 0.301067 0.967599 0.539892
O O12 0.176781 0.181250 0.109814
#
# Coordination Sequence:
#
# PCOD9462206 Si02
#       6
#     8   8   8   8   8   4
#     4  12  23  40  62  89 126 162 202 259 318 372
#     4  10  18  39  62  84 115 158 209 252 300 372
#     4  10  20  35  62  89 116 155 205 257 304 364
#     4  10  22  36  60  88 118 160 203 244 308 374
#     4  11  20  36  64  90 120 158 207 254 309 366
#     4  10  18  36  56  94 116 154 194 260 312 352
#
# _framework density 25.942499000000002
#
# number of rings (size 3 to 8) (size 9 to 14) (size 15 to 20)
#    0.000    1.455    6.364    2.727    0.000    1.455 
#    0.000    0.000    0.000    0.000    0.000    0.000 
#    0.000    0.000    0.000    0.000    0.000    0.000 
#
# Total GULP energy -245119.118678 kJ/mol
# GULP energy per Si atom -5570.889061 kJ/mol
# Density = 2.588345 g / cm^3
# Si number density = 25.942499 Si / 1000 Ang^3
#
#
#
# Elastic Constant Matrix: (Units=GPa)
#
#
# Indices 1 2 3 4 5 6 
#
# 1 47.0715 40.2292 11.8759 0.0000 0.0000 0.0000
# 2 40.2292 138.3309 27.7390 0.0000 0.0000 0.0000
# 3 11.8759 27.7390 85.5486 0.0000 0.0000 0.0000
# 4 0.0000 0.0000 0.0000 20.7708 0.0000 0.0000
# 5 0.0000 0.0000 0.0000 0.0000 39.0736 0.0000
# 6 0.0000 0.0000 0.0000 0.0000 0.0000 7.3562
#
#
#
# Elastic Compliance Matrix: (Units=1/GPa)
#
#
# Indices 1 2 3 4 5 6 
#
# 1 0.028417 -0.007993 -0.001353 0.000000 0.000000 0.000000
# 2 -0.007993 0.009980 -0.002126 0.000000 0.000000 0.000000
# 3 -0.001353 -0.002126 0.012567 0.000000 0.000000 0.000000
# 4 0.000000 0.000000 0.000000 0.048144 0.000000 0.000000
# 5 0.000000 0.000000 0.000000 0.000000 0.025593 0.000000
# 6 0.000000 0.000000 0.000000 0.000000 0.000000 0.135939
#
#
# Mechanical properties :
#
#
# Convention : Reuss Voigt Hill
#
# Bulk Modulus (GPa) = 35.69081 47.84882 41.76981
# Shear Modulus (GPa) = 17.06932 26.18060 21.62496
#
# Velocity S-wave (km/s) = 2.56787 3.18020 2.89030
# Velocity P-wave (km/s) = 4.75179 5.65413 5.22248
#
# Compressibility (1/GPa) = 0.02801842
#
# Stress axis : x y z
#
# Youngs Moduli (GPa) = 35.19076 100.20173 79.57605
#
# Poissons Ratio (x) = 0.80088 0.10768
# Poissons Ratio (y) = 0.28127 0.16921
# Poissons Ratio (z) = 0.04762 0.21307
#
# Static dielectric constant tensor:
#      x y z
#    x 2.202180 0.000000 0.000000 
#    y 0.000000 1.909200 0.000000 
#    z 0.000000 0.000000 2.091810 
# 
# From -- ./inp_files/12168.got.cif
#   From: 2010.05.17/outbox.cif.g08.bks.cpg/sg62_7_cif.got.tgz:12168.got - 2010.06.03 15:25:27.
