data_PCOD9462729
_publ_section_title
;
Structure prediction by ZEFSAII (Michael W. Deem and Ramdas Pophale) SiO2 
 PCOD9462729
Probable space group: P N M A
;
_chemical_formula_sum "Si O2"
_cell_formula_units_Z 64
_cell_length_a 11.750590
_cell_length_b 7.366095
_cell_length_c 29.490940
_cell_angle_alpha 90.000000
_cell_angle_beta 90.000000
_cell_angle_gamma 90.000000
_cell_volume 2552.616689
_symmetry_space_group_name_H-M "P N M A"
_symmetry_group_IT_number 62
_symmetry_cell_setting 'orthorhombic'
loop_
_space_group_symop_operation_xyz
x,y,z
1/2-x,-y,1/2+z
1/2+x,1/2-y,1/2-z
-x,1/2+y,-z
-x,-y,-z
1/2+x,y,1/2-z
1/2-x,1/2+y,1/2+z
x,1/2-y,z
loop_
_atom_site_type_symbol
_atom_site_label
_atom_site_fract_x
_atom_site_fract_y
_atom_site_fract_z
Si Si1 0.891414 0.972638 0.228023
Si Si2 0.141535 0.033265 0.872311
Si Si3 0.532624 0.960489 0.439374
Si Si4 0.683028 0.030678 0.350399
Si Si5 0.110211 0.533701 0.596460
Si Si6 0.239680 0.532867 0.007188
Si Si7 0.639498 0.465634 0.082678
Si Si8 0.633997 0.953369 0.249797
O O1 0.891728 0.750000 0.230236
O O2 0.004545 0.031265 0.256504
O O3 0.905876 0.031881 0.175476
O O4 0.760761 0.031845 0.239066
O O5 0.125617 0.250000 0.873193
O O6 0.082101 0.957461 0.918104
O O7 0.274449 0.994448 0.876257
O O8 0.514468 0.750000 0.449734
O O9 0.614042 0.037786 0.478702
O O10 0.610289 0.972656 0.393922
O O11 0.678198 0.250000 0.347079
O O12 0.811097 0.969895 0.362448
O O13 0.640875 0.946585 0.304292
O O14 0.102215 0.750000 0.602312
O O15 0.177733 0.501696 0.549732
O O16 0.984344 0.458474 0.592309
O O17 0.228284 0.750000 0.003111
O O18 0.300318 0.459127 0.962496
O O19 0.627055 0.250000 0.075188
O O20 0.633525 0.750000 0.229894
#
# Coordination Sequence:
#
# PCOD9462729 Si02
#       8
#     8   8   8   8   8   8   8   8
#     4   9  19  35  57  81 106 136 175 220 268 319
#     4  10  20  35  53  75 103 137 177 220 264 317
#     4   9  17  33  55  76 102 136 174 221 265 304
#     4  10  19  32  53  80 104 135 176 212 256 319
#     4   9  19  34  51  73 107 143 175 216 266 316
#     4   9  18  32  53  78 102 135 182 224 264 315
#     4  10  21  35  49  73 109 144 175 218 272 319
#     4  10  19  36  59  82 107 139 175 221 271 319
#
# _framework density 25.072312
#
# number of rings (size 3 to 8) (size 9 to 14) (size 15 to 20)
#    0.000    2.500    1.250    0.750    0.000    3.500 
#    0.000    2.500    0.000    0.000    0.000    0.000 
#    0.000    0.000    0.000    0.000    0.000    0.000 
#
# Total GULP energy -357285.273151 kJ/mol
# GULP energy per Si atom -5582.582393 kJ/mol
# Density = 2.501525 g / cm^3
# Si number density = 25.072312 Si / 1000 Ang^3
#
#
#
# Elastic Constant Matrix: (Units=GPa)
#
#
# Indices 1 2 3 4 5 6 
#
# 1 212.9441 6.8307 18.1464 0.0000 0.0000 0.0000
# 2 6.8307 57.9784 -30.9304 0.0000 0.0000 0.0000
# 3 18.1464 -30.9304 15.9236 0.0000 0.0000 0.0000
# 4 0.0000 0.0000 0.0000 306.3468 0.0000 0.0000
# 5 0.0000 0.0000 0.0000 0.0000 18.7022 0.0000
# 6 0.0000 0.0000 0.0000 0.0000 0.0000 -8.7192
#
#
#
# Elastic Compliance Matrix: (Units=1/GPa)
#
#
# Indices 1 2 3 4 5 6 
#
# 1 0.000966 0.019350 0.036485 0.000000 0.000000 0.000000
# 2 0.019350 -0.088414 -0.193789 0.000000 0.000000 0.000000
# 3 0.036485 -0.193789 -0.355197 0.000000 0.000000 0.000000
# 4 0.000000 0.000000 0.000000 0.003264 0.000000 0.000000
# 5 0.000000 0.000000 0.000000 0.000000 0.053470 0.000000
# 6 0.000000 0.000000 0.000000 0.000000 0.000000 -0.114690
#
#
# Mechanical properties :
#
#
# Convention : Reuss Voigt Hill
#
# Bulk Modulus (GPa) = -1.39169 30.54885 14.57858
# Shear Modulus (GPa) = -10.77098 82.78592 36.00747
#
# Velocity S-wave (km/s) = -2.07492 5.75244 3.79376
# Velocity P-wave (km/s) = 2.50932 7.50543 5.00174
#
# Compressibility (1/GPa) = -0.71855251
#
# Stress axis : x y z
#
# Youngs Moduli (GPa) = 1034.92634 -11.31037 -2.81534
#
# Poissons Ratio (x) = 0.21886 0.10272
# Poissons Ratio (y) = -20.02595 -0.54558
# Poissons Ratio (z) = -37.75914 -2.19182
#
# Static dielectric constant tensor:
#      x y z
#    x 2.078070 0.000000 0.000000 
#    y 0.000000 1.912440 0.000000 
#    z 0.000000 0.000000 1.949090 
# 
# From -- ./inp_files/32497.got.cif
#   From: 2010.05.17/outbox.cif.g08.bks.cpg/sg62_17_cif.got.tgz:32497.got - 2010.06.03 15:25:27.
