data_PCOD9462561
_publ_section_title
;
Structure prediction by ZEFSAII (Michael W. Deem and Ramdas Pophale) SiO2 
 PCOD9462561
Probable space group: P N M A
;
_chemical_formula_sum "Si O2"
_cell_formula_units_Z 64
_cell_length_a 8.821461
_cell_length_b 21.438313
_cell_length_c 15.429927
_cell_angle_alpha 90.000000
_cell_angle_beta 90.000000
_cell_angle_gamma 90.000000
_cell_volume 2918.065239
_symmetry_space_group_name_H-M "P N M A"
_symmetry_group_IT_number 62
_symmetry_cell_setting 'orthorhombic'
loop_
_space_group_symop_operation_xyz
x,y,z
1/2-x,-y,1/2+z
1/2+x,1/2-y,1/2-z
-x,1/2+y,-z
-x,-y,-z
1/2+x,y,1/2-z
1/2-x,1/2+y,1/2+z
x,1/2-y,z
loop_
_atom_site_type_symbol
_atom_site_label
_atom_site_fract_x
_atom_site_fract_y
_atom_site_fract_z
Si Si1 0.669169 0.142132 0.020599
Si Si2 0.485024 0.178429 0.188892
Si Si3 0.874775 0.342369 0.874039
Si Si4 0.279384 0.524332 0.870246
Si Si5 0.814230 0.899720 0.806082
Si Si6 0.831709 0.646079 0.221420
Si Si7 0.455650 0.486324 0.598139
Si Si8 0.963603 0.407194 0.632404
O O1 0.598393 0.173825 0.106035
O O2 0.728465 0.075511 0.054821
O O3 0.804542 0.175027 0.967098
O O4 0.540837 0.127083 0.948551
O O5 0.439751 0.250000 0.200750
O O6 0.562038 0.151844 0.276890
O O7 0.340547 0.134841 0.170251
O O8 0.760456 0.320199 0.798860
O O9 0.881868 0.419334 0.879946
O O10 0.041738 0.324205 0.841254
O O11 0.300027 0.561514 0.782223
O O12 0.419316 0.478303 0.886533
O O13 0.121642 0.488743 0.859145
O O14 0.862482 0.952896 0.872905
O O15 0.695536 0.622828 0.161091
O O16 0.928834 0.599573 0.283774
O O17 0.500000 0.500000 0.500000
#
# Coordination Sequence:
#
# PCOD9462561 Si02
#       8
#     8   8   8   8   8   8   8   8
#     4  10  23  36  54  83 116 155 206 265 318 362
#     4  11  25  46  67  86 112 162 230 284 315 344
#     4  10  19  33  50  82 122 165 196 239 300 392
#     4  11  21  35  51  82 122 164 201 237 305 382
#     4  11  24  42  64  88 123 167 214 260 310 376
#     4   9  18  30  49  75 114 158 198 220 280 368
#     4  12  23  34  55  90 130 165 199 248 307 390
#     4  10  19  31  51  82 120 164 191 237 295 391
#
# _framework density 21.932341000000001
#
# number of rings (size 3 to 8) (size 9 to 14) (size 15 to 20)
#    0.000    1.500    3.750    2.250    1.750    4.000 
#    0.000    0.000    0.000    0.000    0.000   14.000 
#    0.000    0.000    0.000    0.000    0.000    0.000 
#
# Total GULP energy -356991.522317 kJ/mol
# GULP energy per Si atom -5577.992536 kJ/mol
# Density = 2.188242 g / cm^3
# Si number density = 21.932341 Si / 1000 Ang^3
#
#
#
# Elastic Constant Matrix: (Units=GPa)
#
#
# Indices 1 2 3 4 5 6 
#
# 1 102.2716 20.9772 9.6599 0.0000 0.0000 0.0000
# 2 20.9772 89.4906 15.2159 0.0000 0.0000 0.0000
# 3 9.6599 15.2159 55.2654 0.0000 0.0000 0.0000
# 4 0.0000 0.0000 0.0000 0.6794 0.0000 0.0000
# 5 0.0000 0.0000 0.0000 0.0000 32.3681 0.0000
# 6 0.0000 0.0000 0.0000 0.0000 0.0000 -17.7057
#
#
#
# Elastic Compliance Matrix: (Units=1/GPa)
#
#
# Indices 1 2 3 4 5 6 
#
# 1 0.010347 -0.002222 -0.001197 0.000000 0.000000 0.000000
# 2 -0.002222 0.012200 -0.002971 0.000000 0.000000 0.000000
# 3 -0.001197 -0.002971 0.019122 0.000000 0.000000 0.000000
# 4 0.000000 0.000000 0.000000 1.471909 0.000000 0.000000
# 5 0.000000 0.000000 0.000000 0.000000 0.030895 0.000000
# 6 0.000000 0.000000 0.000000 0.000000 0.000000 -0.056479
#
#
# Mechanical properties :
#
#
# Convention : Reuss Voigt Hill
#
# Bulk Modulus (GPa) = 34.61415 37.63708 36.12561
# Shear Modulus (GPa) = 3.31038 16.47999 9.89518
#
# Velocity S-wave (km/s) = 1.22989 2.74414 2.12638
# Velocity P-wave (km/s) = 4.22296 5.21903 4.74719
#
# Compressibility (1/GPa) = 0.02888992
#
# Stress axis : x y z
#
# Youngs Moduli (GPa) = 96.64956 81.96540 52.29692
#
# Poissons Ratio (x) = 0.18211 0.06259
# Poissons Ratio (y) = 0.21474 0.15536
# Poissons Ratio (z) = 0.11567 0.24349
#
# Static dielectric constant tensor:
#      x y z
#    x 1.809060 0.000000 0.000000 
#    y 0.000000 1.829820 0.000000 
#    z 0.000000 0.000000 1.827040 
# 
# From -- ./inp_files/17349.got.cif
#   From: 2010.05.17/outbox.cif.g08.bks.cpg/sg62_9_cif.got.tgz:17349.got - 2010.06.03 15:25:27.
