data_PCOD9462273
_publ_section_title
;
Structure prediction by ZEFSAII (Michael W. Deem and Ramdas Pophale) SiO2 
 PCOD9462273
Probable space group: P N M A
;
_chemical_formula_sum "Si O2"
_cell_formula_units_Z 64
_cell_length_a 18.566981
_cell_length_b 9.339563
_cell_length_c 26.133006
_cell_angle_alpha 90.000000
_cell_angle_beta 90.000000
_cell_angle_gamma 90.000000
_cell_volume 4531.658944
_symmetry_space_group_name_H-M "P N M A"
_symmetry_group_IT_number 62
_symmetry_cell_setting 'orthorhombic'
loop_
_space_group_symop_operation_xyz
x,y,z
1/2-x,-y,1/2+z
1/2+x,1/2-y,1/2-z
-x,1/2+y,-z
-x,-y,-z
1/2+x,y,1/2-z
1/2-x,1/2+y,1/2+z
x,1/2-y,z
loop_
_atom_site_type_symbol
_atom_site_label
_atom_site_fract_x
_atom_site_fract_y
_atom_site_fract_z
Si Si1 0.712748 0.085304 0.302817
Si Si2 0.691160 0.914363 0.699010
Si Si3 0.328027 0.921828 0.863099
Si Si4 0.078113 0.421630 0.261803
Si Si5 0.422396 0.081971 0.941301
Si Si6 0.427281 0.917957 0.245090
Si Si7 0.570935 0.918153 0.936702
Si Si8 0.168152 0.418245 0.642051
O O1 0.711092 0.250000 0.321297
O O2 0.759764 0.086182 0.250430
O O3 0.633410 0.041244 0.284100
O O4 0.755086 0.983461 0.341363
O O5 0.668122 0.750000 0.690391
O O6 0.746903 0.958163 0.654679
O O7 0.623904 0.013884 0.711510
O O8 0.330906 0.750000 0.871379
O O9 0.380936 0.954182 0.815119
O O10 0.357463 0.008279 0.911123
O O11 0.067629 0.250000 0.260444
O O12 0.002940 0.501621 0.258138
O O13 0.428706 0.250000 0.928511
O O14 0.495599 0.998844 0.926503
O O15 0.414570 0.069566 0.002584
O O16 0.437719 0.750000 0.253702
O O17 0.384526 0.935208 0.191322
O O18 0.564594 0.750000 0.923769
O O19 0.632422 0.993454 0.903696
O O20 0.172985 0.250000 0.630352
#
# Coordination Sequence:
#
# PCOD9462273 Si02
#       8
#     8   8   8   8   8   8   8   8
#     4   8  15  28  43  58  78 106 138 169 201 240
#     4   8  15  28  43  58  78 106 139 169 198 240
#     4   9  17  29  45  62  80 108 142 171 204 245
#     4   9  17  28  42  60  82 110 142 170 199 242
#     4  10  20  31  43  61  83 107 138 176 212 241
#     4  10  19  27  38  60  86 110 137 170 208 243
#     4  10  20  32  44  58  80 111 143 173 205 242
#     4  10  19  29  42  61  83 108 139 173 209 244
#
# _framework density 14.122864
#
# number of rings (size 3 to 8) (size 9 to 14) (size 15 to 20)
#    0.000    2.750    0.000    3.750    0.000    6.500 
#    0.000    2.500    0.000    0.000    0.000    0.000 
#    0.000    1.000    0.000    3.250    0.000    4.000 
#
# Total GULP energy -356633.492899 kJ/mol
# GULP energy per Si atom -5572.398327 kJ/mol
# Density = 1.409072 g / cm^3
# Si number density = 14.122864 Si / 1000 Ang^3
#
#
#
# Elastic Constant Matrix: (Units=GPa)
#
#
# Indices 1 2 3 4 5 6 
#
# 1 65.8888 44.3841 14.1539 0.0000 0.0000 0.0000
# 2 44.3841 72.7216 32.3795 0.0000 0.0000 0.0000
# 3 14.1539 32.3795 29.7548 0.0000 0.0000 0.0000
# 4 0.0000 0.0000 0.0000 21.4001 0.0000 0.0000
# 5 0.0000 0.0000 0.0000 0.0000 26.6708 0.0000
# 6 0.0000 0.0000 0.0000 0.0000 0.0000 21.0729
#
#
#
# Elastic Compliance Matrix: (Units=1/GPa)
#
#
# Indices 1 2 3 4 5 6 
#
# 1 0.027211 -0.021038 0.009950 0.000000 0.000000 0.000000
# 2 -0.021038 0.042942 -0.036723 0.000000 0.000000 0.000000
# 3 0.009950 -0.036723 0.068837 0.000000 0.000000 0.000000
# 4 0.000000 0.000000 0.000000 0.046729 0.000000 0.000000
# 5 0.000000 0.000000 0.000000 0.000000 0.037494 0.000000
# 6 0.000000 0.000000 0.000000 0.000000 0.000000 0.047454
#
#
# Mechanical properties :
#
#
# Convention : Reuss Voigt Hill
#
# Bulk Modulus (GPa) = 23.05805 38.91113 30.98459
# Shear Modulus (GPa) = 13.13213 18.99194 16.06203
#
# Velocity S-wave (km/s) = 3.05265 3.67108 3.37606
# Velocity P-wave (km/s) = 5.36536 6.75136 6.09787
#
# Compressibility (1/GPa) = 0.04336880
#
# Stress axis : x y z
#
# Youngs Moduli (GPa) = 36.74927 23.28720 14.52709
#
# Poissons Ratio (x) = 0.48992 -0.14454
# Poissons Ratio (y) = 0.77313 0.53347
# Poissons Ratio (z) = -0.36565 0.85516
#
# Static dielectric constant tensor:
#      x y z
#    x 1.455480 0.000000 0.000000 
#    y 0.000000 1.467160 0.000000 
#    z 0.000000 0.000000 1.455790 
# 
# From -- ./inp_files/30037.got.cif
#   From: 2010.05.17/outbox.cif.g08.bks.cpg/sg62_16_cif.got.tgz:30037.got - 2010.06.03 15:25:27.
