data_PCOD9462835
_publ_section_title
;
Structure prediction by ZEFSAII (Michael W. Deem and Ramdas Pophale) SiO2 
 PCOD9462835
Probable space group: P N M A
;
_chemical_formula_sum "Si O2"
_cell_formula_units_Z 64
_cell_length_a 9.646965
_cell_length_b 14.557551
_cell_length_c 25.192399
_cell_angle_alpha 90.000000
_cell_angle_beta 90.000000
_cell_angle_gamma 90.000000
_cell_volume 3537.924406
_symmetry_space_group_name_H-M "P N M A"
_symmetry_group_IT_number 62
_symmetry_cell_setting 'orthorhombic'
loop_
_space_group_symop_operation_xyz
x,y,z
1/2-x,-y,1/2+z
1/2+x,1/2-y,1/2-z
-x,1/2+y,-z
-x,-y,-z
1/2+x,y,1/2-z
1/2-x,1/2+y,1/2+z
x,1/2-y,z
loop_
_atom_site_type_symbol
_atom_site_label
_atom_site_fract_x
_atom_site_fract_y
_atom_site_fract_z
Si Si1 0.172610 0.642235 0.005950
Si Si2 0.486246 0.141693 0.315393
Si Si3 0.807014 0.464991 0.103588
Si Si4 0.806554 0.358121 0.289939
Si Si5 0.602428 0.644172 0.973835
Si Si6 0.497921 0.035258 0.127662
Si Si7 0.417667 0.644187 0.079978
Si Si8 0.358075 0.643059 0.457934
O O1 0.201021 0.750000 0.994484
O O2 0.203535 0.585084 0.953442
O O3 0.269176 0.617467 0.055594
O O4 0.014473 0.631588 0.022902
O O5 0.484973 0.250000 0.330854
O O6 0.432708 0.079157 0.363571
O O7 0.375178 0.130144 0.267891
O O8 0.642801 0.119777 0.295763
O O9 0.661894 0.449551 0.133861
O O10 0.826273 0.571784 0.088794
O O11 0.820299 0.250000 0.303328
O O12 0.900975 0.416187 0.329772
O O13 0.593177 0.750000 0.955122
O O14 0.544095 0.577713 0.929475
O O15 0.517489 0.637396 0.028605
O O16 0.758384 0.623387 0.991974
O O17 0.467045 0.927300 0.123449
O O18 0.415888 0.750000 0.097453
O O19 0.333862 0.750000 0.443209
#
# Coordination Sequence:
#
# PCOD9462835 Si02
#       8
#     8   8   8   8   8   8   8   8
#     4  10  21  34  50  77 114 151 189 230 273 321
#     4  10  23  42  62  84 111 139 174 224 280 332
#     4  12  22  34  56  82 111 149 188 229 273 324
#     4  10  23  42  62  85 111 139 174 224 279 332
#     4  10  19  33  51  76 113 151 189 224 262 321
#     4  12  22  33  56  84 110 147 191 227 270 325
#     4  10  20  35  52  77 115 155 189 224 264 316
#     4  10  22  36  51  77 115 155 190 227 270 317
#
# _framework density 18.089703
#
# number of rings (size 3 to 8) (size 9 to 14) (size 15 to 20)
#    0.000    1.500    2.500    3.000    3.500    2.500 
#    0.000    0.000    0.000    0.750    0.000    0.000 
#    0.000    0.000    0.000    0.000    0.000    0.000 
#
# Total GULP energy -357460.473402 kJ/mol
# GULP energy per Si atom -5585.319897 kJ/mol
# Density = 1.804853 g / cm^3
# Si number density = 18.089703 Si / 1000 Ang^3
#
#
#
# Elastic Constant Matrix: (Units=GPa)
#
#
# Indices 1 2 3 4 5 6 
#
# 1 96.3715 26.0153 9.8623 0.0000 0.0000 0.0000
# 2 26.0153 73.0182 32.9270 0.0000 0.0000 0.0000
# 3 9.8623 32.9270 34.8039 0.0000 0.0000 0.0000
# 4 0.0000 0.0000 0.0000 23.8613 0.0000 0.0000
# 5 0.0000 0.0000 0.0000 0.0000 25.7962 0.0000
# 6 0.0000 0.0000 0.0000 0.0000 0.0000 24.1958
#
#
#
# Elastic Compliance Matrix: (Units=1/GPa)
#
#
# Indices 1 2 3 4 5 6 
#
# 1 0.011504 -0.004585 0.001077 0.000000 0.000000 0.000000
# 2 -0.004585 0.025712 -0.023027 0.000000 0.000000 0.000000
# 3 0.001077 -0.023027 0.050212 0.000000 0.000000 0.000000
# 4 0.000000 0.000000 0.000000 0.041909 0.000000 0.000000
# 5 0.000000 0.000000 0.000000 0.000000 0.038765 0.000000
# 6 0.000000 0.000000 0.000000 0.000000 0.000000 0.041330
#
#
# Mechanical properties :
#
#
# Convention : Reuss Voigt Hill
#
# Bulk Modulus (GPa) = 29.10295 37.97807 33.54051
# Shear Modulus (GPa) = 18.25134 23.79658 21.02396
#
# Velocity S-wave (km/s) = 3.17982 3.63088 3.41281
# Velocity P-wave (km/s) = 5.44102 6.21431 5.84048
#
# Compressibility (1/GPa) = 0.03436078
#
# Stress axis : x y z
#
# Youngs Moduli (GPa) = 86.92761 38.89199 19.91562
#
# Poissons Ratio (x) = 0.17830 -0.02146
# Poissons Ratio (y) = 0.39852 0.45859
# Poissons Ratio (z) = -0.09366 0.89555
#
# Static dielectric constant tensor:
#      x y z
#    x 1.669360 0.000000 0.000000 
#    y 0.000000 1.643100 0.000000 
#    z 0.000000 0.000000 1.581640 
# 
# From -- ./inp_files/28978.got.cif
#   From: 2010.05.17/outbox.cif.g08.bks.cpg/sg62_15_cif.got.tgz:28978.got - 2010.06.03 15:25:27.
