data_PCOD9462173
_publ_section_title
;
Structure prediction by ZEFSAII (Michael W. Deem and Ramdas Pophale) SiO2 
 PCOD9462173
Probable space group: P N M A
;
_chemical_formula_sum "Si O2"
_cell_formula_units_Z 48
_cell_length_a 17.396059
_cell_length_b 16.525864
_cell_length_c 9.171785
_cell_angle_alpha 90.000000
_cell_angle_beta 90.000000
_cell_angle_gamma 90.000000
_cell_volume 2636.749741
_symmetry_space_group_name_H-M "P N M A"
_symmetry_group_IT_number 62
_symmetry_cell_setting 'orthorhombic'
loop_
_space_group_symop_operation_xyz
x,y,z
1/2-x,-y,1/2+z
1/2+x,1/2-y,1/2-z
-x,1/2+y,-z
-x,-y,-z
1/2+x,y,1/2-z
1/2-x,1/2+y,1/2+z
x,1/2-y,z
loop_
_atom_site_type_symbol
_atom_site_label
_atom_site_fract_x
_atom_site_fract_y
_atom_site_fract_z
Si Si1 0.908307 0.428601 0.217852
Si Si2 0.859838 0.001366 0.498288
Si Si3 0.690327 0.436716 0.562716
Si Si4 0.371582 0.160807 0.547226
Si Si5 0.577613 0.007798 0.323793
Si Si6 0.305681 0.658255 0.152415
O O1 0.905165 0.437555 0.391496
O O2 0.843100 0.490621 0.161592
O O3 0.887007 0.349244 0.126081
O O4 0.991142 0.460819 0.168501
O O5 0.894743 0.993026 0.657756
O O6 0.853845 0.911900 0.427449
O O7 0.774477 0.038051 0.511405
O O8 0.633161 0.436997 0.424831
O O9 0.693736 0.362131 0.674634
O O10 0.396701 0.250000 0.595533
O O11 0.281778 0.151949 0.591000
O O12 0.413842 0.084476 0.619741
O O13 0.332182 0.750000 0.126675
#
# Coordination Sequence:
#
# PCOD9462173 Si02
#       6
#     8   8   8   8   8   8
#     4  10  21  35  55  84 112 148 188 227 282 344
#     4  11  19  36  59  83 112 146 190 230 279 339
#     4  10  18  35  57  79 106 145 192 224 270 336
#     4  10  19  35  56  81 111 145 189 235 282 328
#     4  11  20  36  59  84 111 150 191 230 280 345
#     4  10  20  35  56  85 111 142 188 244 285 319
#
# _framework density 18.204231
#
# number of rings (size 3 to 8) (size 9 to 14) (size 15 to 20)
#    0.000    1.667    5.000    3.500    0.000    0.000 
#    0.000   10.833    0.000    0.000    0.000    0.000 
#    0.000    0.000    0.000    0.000    0.000    0.000 
#
# Total GULP energy -267446.802198 kJ/mol
# GULP energy per Si atom -5571.808379 kJ/mol
# Density = 1.816280 g / cm^3
# Si number density = 18.204231 Si / 1000 Ang^3
#
#
#
# Elastic Constant Matrix: (Units=GPa)
#
#
# Indices 1 2 3 4 5 6 
#
# 1 55.2720 27.9720 19.7571 0.0000 0.0000 0.0000
# 2 27.9720 83.5669 45.1046 0.0000 0.0000 0.0000
# 3 19.7571 45.1046 133.9897 0.0000 0.0000 0.0000
# 4 0.0000 0.0000 0.0000 37.4873 0.0000 0.0000
# 5 0.0000 0.0000 0.0000 0.0000 -7.4448 0.0000
# 6 0.0000 0.0000 0.0000 0.0000 0.0000 9.1080
#
#
#
# Elastic Compliance Matrix: (Units=1/GPa)
#
#
# Indices 1 2 3 4 5 6 
#
# 1 0.021877 -0.006821 -0.000930 0.000000 0.000000 0.000000
# 2 -0.006821 0.016750 -0.004633 0.000000 0.000000 0.000000
# 3 -0.000930 -0.004633 0.009160 0.000000 0.000000 0.000000
# 4 0.000000 0.000000 0.000000 0.026676 0.000000 0.000000
# 5 0.000000 0.000000 0.000000 0.000000 -0.134321 0.000000
# 6 0.000000 0.000000 0.000000 0.000000 0.000000 0.109793
#
#
# Mechanical properties :
#
#
# Convention : Reuss Voigt Hill
#
# Bulk Modulus (GPa) = 43.44074 50.94401 47.19238
# Shear Modulus (GPa) = 60.69838 19.82975 40.26407
#
# Velocity S-wave (km/s) = 5.78061 3.30403 4.70808
# Velocity P-wave (km/s) = 8.27458 6.52694 7.45217
#
# Compressibility (1/GPa) = 0.02301987
#
# Stress axis : x y z
#
# Youngs Moduli (GPa) = 45.71107 59.70112 109.17195
#
# Poissons Ratio (x) = 0.40721 0.10149
# Poissons Ratio (y) = 0.31179 0.50577
# Poissons Ratio (z) = 0.04250 0.27658
#
# Static dielectric constant tensor:
#      x y z
#    x 1.611830 0.000000 0.000000 
#    y 0.000000 1.624470 0.000000 
#    z 0.000000 0.000000 1.700660 
# 
# From -- ./inp_files/7625.got.cif
#   From: 2010.05.17/outbox.cif.g08.bks.cpg/sg62_4_cif.got.tgz:7625.got - 2010.06.03 15:25:27.
