data_PCOD9462081
_publ_section_title
;
Structure prediction by ZEFSAII (Michael W. Deem and Ramdas Pophale) SiO2 
 PCOD9462081
Probable space group: P N M A
;
_chemical_formula_sum "Si O2"
_cell_formula_units_Z 56
_cell_length_a 10.217839
_cell_length_b 21.250485
_cell_length_c 14.484840
_cell_angle_alpha 90.000000
_cell_angle_beta 90.000000
_cell_angle_gamma 90.000000
_cell_volume 3145.151747
_symmetry_space_group_name_H-M "P N M A"
_symmetry_group_IT_number 62
_symmetry_cell_setting 'orthorhombic'
loop_
_space_group_symop_operation_xyz
x,y,z
1/2-x,-y,1/2+z
1/2+x,1/2-y,1/2-z
-x,1/2+y,-z
-x,-y,-z
1/2+x,y,1/2-z
1/2-x,1/2+y,1/2+z
x,1/2-y,z
loop_
_atom_site_type_symbol
_atom_site_label
_atom_site_fract_x
_atom_site_fract_y
_atom_site_fract_z
Si Si1 0.122603 0.584182 0.150108
Si Si2 0.772855 0.250000 0.337600
Si Si3 0.040137 0.630700 0.969238
Si Si4 0.128180 0.504875 0.640847
Si Si5 0.273969 0.127998 0.035793
Si Si6 0.616954 0.510773 0.645895
Si Si7 0.372490 0.076232 0.862509
Si Si8 0.962283 0.250000 0.161551
O O1 0.257561 0.546971 0.138146
O O2 0.003446 0.532238 0.384467
O O3 0.007458 0.533932 0.131497
O O4 0.099966 0.636212 0.071808
O O5 0.797478 0.311986 0.399530
O O6 0.617411 0.250000 0.312216
O O7 0.867410 0.250000 0.249455
O O8 0.104084 0.569685 0.921209
O O9 0.882954 0.622150 0.975267
O O10 0.062558 0.689453 0.902485
O O11 0.169129 0.564331 0.580574
O O12 0.113987 0.529376 0.746221
O O13 0.387286 0.398372 0.758004
O O14 0.343843 0.130316 0.936483
O O15 0.747202 0.470006 0.632916
#
# Coordination Sequence:
#
# PCOD9462081 Si02
#       8
#     8   4   8   8   8   8   8   4
#     4  10  19  34  55  82 112 145 177 229 277 337
#     4  10  24  44  63  80 112 148 189 234 271 324
#     4  11  20  36  61  78 107 153 193 221 272 337
#     4  10  20  32  53  87 118 139 181 229 287 328
#     4  11  20  37  58  81 109 150 190 226 274 334
#     4  10  18  33  56  82 114 147 178 226 279 335
#     4  10  21  33  54  87 118 140 179 234 283 328
#     4  10  24  44  61  84 108 146 193 234 269 328
#
# _framework density 17.805181999999999
#
# number of rings (size 3 to 8) (size 9 to 14) (size 15 to 20)
#    0.000    1.714    2.857    2.571    0.000    0.000 
#    5.143    0.714    0.000    0.000    0.000    0.000 
#    0.000    0.000    0.000    0.000    0.000    0.000 
#
# Total GULP energy -312522.536147 kJ/mol
# GULP energy per Si atom -5580.759574 kJ/mol
# Density = 1.776466 g / cm^3
# Si number density = 17.805182 Si / 1000 Ang^3
#
#
#
# Elastic Constant Matrix: (Units=GPa)
#
#
# Indices 1 2 3 4 5 6 
#
# 1 90.0037 28.0529 41.9240 0.0000 0.0000 0.0000
# 2 28.0529 46.8083 65.1870 0.0000 0.0000 0.0000
# 3 41.9240 65.1870 143.3705 0.0000 0.0000 0.0000
# 4 0.0000 0.0000 0.0000 25.2526 0.0000 0.0000
# 5 0.0000 0.0000 0.0000 0.0000 29.9627 0.0000
# 6 0.0000 0.0000 0.0000 0.0000 0.0000 17.3483
#
#
#
# Elastic Compliance Matrix: (Units=1/GPa)
#
#
# Indices 1 2 3 4 5 6 
#
# 1 0.013692 -0.007170 -0.000744 0.000000 0.000000 0.000000
# 2 -0.007170 0.061998 -0.026092 0.000000 0.000000 0.000000
# 3 -0.000744 -0.026092 0.019056 0.000000 0.000000 0.000000
# 4 0.000000 0.000000 0.000000 0.039600 0.000000 0.000000
# 5 0.000000 0.000000 0.000000 0.000000 0.033375 0.000000
# 6 0.000000 0.000000 0.000000 0.000000 0.000000 0.057643
#
#
# Mechanical properties :
#
#
# Convention : Reuss Voigt Hill
#
# Bulk Modulus (GPa) = 37.40595 61.16783 49.28689
# Shear Modulus (GPa) = 16.54059 24.18061 20.36060
#
# Velocity S-wave (km/s) = 3.05122 3.68919 3.38527
# Velocity P-wave (km/s) = 5.78509 7.25089 6.55907
#
# Compressibility (1/GPa) = 0.02673371
#
# Stress axis : x y z
#
# Youngs Moduli (GPa) = 73.03599 16.12954 52.47705
#
# Poissons Ratio (x) = 0.11565 0.03903
# Poissons Ratio (y) = 0.52367 1.36925
# Poissons Ratio (z) = 0.05432 0.42086
#
# Static dielectric constant tensor:
#      x y z
#    x 1.596440 0.000000 0.000000 
#    y 0.000000 1.571640 0.000000 
#    z 0.000000 0.000000 1.669810 
# 
# From -- ./inp_files/12532.got.cif
#   From: 2010.05.17/outbox.cif.g08.bks.cpg/sg62_7_cif.got.tgz:12532.got - 2010.06.03 15:25:27.
