data_PCOD9462067
_publ_section_title
;
Structure prediction by ZEFSAII (Michael W. Deem and Ramdas Pophale) SiO2 
 PCOD9462067
Probable space group: P N M A
;
_chemical_formula_sum "Si O2"
_cell_formula_units_Z 64
_cell_length_a 18.951909
_cell_length_b 19.174073
_cell_length_c 9.532425
_cell_angle_alpha 90.000000
_cell_angle_beta 90.000000
_cell_angle_gamma 90.000000
_cell_volume 3463.942991
_symmetry_space_group_name_H-M "P N M A"
_symmetry_group_IT_number 62
_symmetry_cell_setting 'orthorhombic'
loop_
_space_group_symop_operation_xyz
x,y,z
1/2-x,-y,1/2+z
1/2+x,1/2-y,1/2-z
-x,1/2+y,-z
-x,-y,-z
1/2+x,y,1/2-z
1/2-x,1/2+y,1/2+z
x,1/2-y,z
loop_
_atom_site_type_symbol
_atom_site_label
_atom_site_fract_x
_atom_site_fract_y
_atom_site_fract_z
Si Si1 0.906794 0.172970 0.691851
Si Si2 0.245860 0.670946 0.464864
Si Si3 0.067143 0.966950 0.692626
Si Si4 0.188919 0.672663 0.060644
Si Si5 0.922166 0.023943 0.626707
Si Si6 0.657749 0.668981 0.767021
Si Si7 0.671471 0.038242 0.622940
Si Si8 0.787803 0.028272 0.828837
O O1 0.936293 0.250000 0.662477
O O2 0.829804 0.168828 0.615700
O O3 0.886172 0.168426 0.856587
O O4 0.947815 0.104948 0.640809
O O5 0.272098 0.750000 0.458915
O O6 0.221625 0.654209 0.624299
O O7 0.301101 0.617004 0.399574
O O8 0.092265 0.990299 0.536625
O O9 0.097473 0.889075 0.712835
O O10 0.095811 0.017651 0.815392
O O11 0.982872 0.973647 0.683105
O O12 0.217543 0.750000 0.093375
O O13 0.229763 0.607315 0.122989
O O14 0.180675 0.665974 0.894847
O O15 0.852395 0.022753 0.720150
O O16 0.635948 0.750000 0.796151
O O17 0.721285 0.002627 0.741169
O O18 0.687743 0.006561 0.471688
#
# Coordination Sequence:
#
# PCOD9462067 Si02
#       8
#     8   8   8   8   8   8   8   8
#     4   9  16  32  55  78 103 140 187 230 263 317
#     4  10  19  33  55  77 106 142 186 228 267 326
#     4  11  22  36  55  83 115 146 182 239 283 333
#     4   9  17  30  50  79 106 132 176 229 267 306
#     4  10  21  38  54  80 114 148 189 229 281 332
#     4  10  18  33  54  81 107 140 188 231 269 319
#     4  12  22  34  54  83 114 142 182 226 287 329
#     4  11  21  34  55  81 111 145 180 225 274 338
#
# _framework density 18.476054999999999
#
# number of rings (size 3 to 8) (size 9 to 14) (size 15 to 20)
#    0.000    1.750    5.000    1.500    0.000    0.500 
#    0.000    0.625    0.000    1.500    0.000    0.000 
#    0.000    0.000    0.000    0.000    0.000    0.000 
#
# Total GULP energy -356439.636451 kJ/mol
# GULP energy per Si atom -5569.369320 kJ/mol
# Density = 1.843400 g / cm^3
# Si number density = 18.476055 Si / 1000 Ang^3
#
#
#
# Elastic Constant Matrix: (Units=GPa)
#
#
# Indices 1 2 3 4 5 6 
#
# 1 16.1860 -1.9712 -0.1759 0.0000 0.0000 0.0000
# 2 -1.9712 70.1804 -6.7530 0.0000 0.0000 0.0000
# 3 -0.1759 -6.7530 93.5719 0.0000 0.0000 0.0000
# 4 0.0000 0.0000 0.0000 28.8128 0.0000 0.0000
# 5 0.0000 0.0000 0.0000 0.0000 20.2620 0.0000
# 6 0.0000 0.0000 0.0000 0.0000 0.0000 21.8552
#
#
#
# Elastic Compliance Matrix: (Units=1/GPa)
#
#
# Indices 1 2 3 4 5 6 
#
# 1 0.061999 0.001765 0.000244 0.000000 0.000000 0.000000
# 2 0.001765 0.014399 0.001042 0.000000 0.000000 0.000000
# 3 0.000244 0.001042 0.010763 0.000000 0.000000 0.000000
# 4 0.000000 0.000000 0.000000 0.034707 0.000000 0.000000
# 5 0.000000 0.000000 0.000000 0.000000 0.049354 0.000000
# 6 0.000000 0.000000 0.000000 0.000000 0.000000 0.045756
#
#
# Mechanical properties :
#
#
# Convention : Reuss Voigt Hill
#
# Bulk Modulus (GPa) = 10.72233 18.01534 14.36883
# Shear Modulus (GPa) = 20.66441 26.77523 23.71982
#
# Velocity S-wave (km/s) = 3.34794 3.81095 3.58692
# Velocity P-wave (km/s) = 4.55641 5.39780 4.99485
#
# Compressibility (1/GPa) = 0.09326334
#
# Stress axis : x y z
#
# Youngs Moduli (GPa) = 16.12924 69.44991 92.91377
#
# Poissons Ratio (x) = -0.12257 -0.02266
# Poissons Ratio (y) = -0.02847 -0.09686
# Poissons Ratio (z) = -0.00393 -0.07240
#
# Static dielectric constant tensor:
#      x y z
#    x 1.595450 0.000000 0.000000 
#    y 0.000000 1.712230 0.000000 
#    z 0.000000 0.000000 1.685030 
# 
# From -- ./inp_files/8107.got.cif
#   From: 2010.05.17/outbox.cif.g08.bks.cpg/sg62_5_cif.got.tgz:8107.got - 2010.06.03 15:25:27.
