data_PCOD9462408
_publ_section_title
;
Structure prediction by ZEFSAII (Michael W. Deem and Ramdas Pophale) SiO2 
 PCOD9462408
Probable space group: P N M A
;
_chemical_formula_sum "Si O2"
_cell_formula_units_Z 64
_cell_length_a 12.049074
_cell_length_b 9.052813
_cell_length_c 34.562043
_cell_angle_alpha 90.000000
_cell_angle_beta 90.000000
_cell_angle_gamma 90.000000
_cell_volume 3769.959001
_symmetry_space_group_name_H-M "P N M A"
_symmetry_group_IT_number 62
_symmetry_cell_setting 'orthorhombic'
loop_
_space_group_symop_operation_xyz
x,y,z
1/2-x,-y,1/2+z
1/2+x,1/2-y,1/2-z
-x,1/2+y,-z
-x,-y,-z
1/2+x,y,1/2-z
1/2-x,1/2+y,1/2+z
x,1/2-y,z
loop_
_atom_site_type_symbol
_atom_site_label
_atom_site_fract_x
_atom_site_fract_y
_atom_site_fract_z
Si Si1 0.274340 0.573728 0.887061
Si Si2 0.866026 0.426572 0.812693
Si Si3 0.855327 0.574138 0.531225
Si Si4 0.819282 0.573154 0.372586
Si Si5 0.101869 0.924955 0.822299
Si Si6 0.952052 0.073572 0.668533
Si Si7 0.386554 0.074319 0.047856
Si Si8 0.689846 0.426476 0.232983
O O1 0.299411 0.750000 0.883039
O O2 0.276993 0.538574 0.932409
O O3 0.161484 0.547026 0.863552
O O4 0.369918 0.483581 0.865130
O O5 0.862692 0.250000 0.808338
O O6 0.792826 0.466856 0.850144
O O7 0.813378 0.501384 0.774878
O O8 0.991307 0.482935 0.816712
O O9 0.850785 0.750000 0.523993
O O10 0.834253 0.489500 0.491494
O O11 0.981489 0.538862 0.544871
O O12 0.821369 0.750000 0.378528
O O13 0.836914 0.495587 0.413538
O O14 0.923602 0.536907 0.344757
O O15 0.076861 0.750000 0.819528
O O16 0.196372 0.958752 0.790299
O O17 0.942473 0.250000 0.673071
O O18 0.909724 0.993490 0.707166
O O19 0.375860 0.250000 0.049040
O O20 0.678011 0.250000 0.235197
#
# Coordination Sequence:
#
# PCOD9462408 Si02
#       8
#     8   8   8   8   8   8   8   8
#     4   9  17  33  55  79 107 141 177 215 265 319
#     4  11  24  39  56  78 107 143 182 223 271 322
#     4   9  17  30  50  78 112 145 173 212 268 321
#     4  10  22  37  52  76 110 146 178 218 270 320
#     4   9  20  38  57  79 106 138 179 224 266 316
#     4  10  19  32  53  80 107 137 175 218 267 318
#     4  10  19  30  50  79 111 144 179 218 262 320
#     4  10  22  39  58  80 106 137 177 224 271 320
#
# _framework density 16.976312
#
# number of rings (size 3 to 8) (size 9 to 14) (size 15 to 20)
#    0.000    2.250    1.250    2.250    1.750    5.000 
#    0.000    0.000    0.000    0.750    0.000    0.000 
#    0.000    0.000    0.000    0.000    0.000    0.000 
#
# Total GULP energy -357124.555704 kJ/mol
# GULP energy per Si atom -5580.071183 kJ/mol
# Density = 1.693767 g / cm^3
# Si number density = 16.976312 Si / 1000 Ang^3
#
#
#
# Elastic Constant Matrix: (Units=GPa)
#
#
# Indices 1 2 3 4 5 6 
#
# 1 75.8051 45.7475 55.9284 0.0000 0.0000 0.0000
# 2 45.7475 50.2616 58.6447 0.0000 0.0000 0.0000
# 3 55.9284 58.6447 147.5287 0.0000 0.0000 0.0000
# 4 0.0000 0.0000 0.0000 32.8720 0.0000 0.0000
# 5 0.0000 0.0000 0.0000 0.0000 17.3688 0.0000
# 6 0.0000 0.0000 0.0000 0.0000 0.0000 23.0049
#
#
#
# Elastic Compliance Matrix: (Units=1/GPa)
#
#
# Indices 1 2 3 4 5 6 
#
# 1 0.029339 -0.025600 -0.000946 0.000000 0.000000 0.000000
# 2 -0.025600 0.059444 -0.013925 0.000000 0.000000 0.000000
# 3 -0.000946 -0.013925 0.012672 0.000000 0.000000 0.000000
# 4 0.000000 0.000000 0.000000 0.030421 0.000000 0.000000
# 5 0.000000 0.000000 0.000000 0.000000 0.057574 0.000000
# 6 0.000000 0.000000 0.000000 0.000000 0.000000 0.043469
#
#
# Mechanical properties :
#
#
# Convention : Reuss Voigt Hill
#
# Bulk Modulus (GPa) = 48.74852 66.02627 57.38739
# Shear Modulus (GPa) = 15.59085 22.20080 18.89582
#
# Velocity S-wave (km/s) = 3.03378 3.62021 3.33989
# Velocity P-wave (km/s) = 6.40700 7.51346 6.98219
#
# Compressibility (1/GPa) = 0.02051344
#
# Stress axis : x y z
#
# Youngs Moduli (GPa) = 34.08398 16.82242 78.91223
#
# Poissons Ratio (x) = 0.43066 0.07466
# Poissons Ratio (y) = 0.87257 1.09884
# Poissons Ratio (z) = 0.03225 0.23425
#
# Static dielectric constant tensor:
#      x y z
#    x 1.555600 0.000000 0.000000 
#    y 0.000000 1.564880 0.000000 
#    z 0.000000 0.000000 1.570240 
# 
# From -- ./inp_files/32588.got.cif
#   From: 2010.05.17/outbox.cif.g08.bks.cpg/sg62_17_cif.got.tgz:32588.got - 2010.06.03 15:25:27.
