data_PCOD9462052
_publ_section_title
;
Structure prediction by ZEFSAII (Michael W. Deem and Ramdas Pophale) SiO2 
 PCOD9462052
Probable space group: P N M A
;
_chemical_formula_sum "Si O2"
_cell_formula_units_Z 64
_cell_length_a 16.017391
_cell_length_b 15.001437
_cell_length_c 12.193483
_cell_angle_alpha 90.000000
_cell_angle_beta 90.000000
_cell_angle_gamma 90.000000
_cell_volume 2929.897430
_symmetry_space_group_name_H-M "P N M A"
_symmetry_group_IT_number 62
_symmetry_cell_setting 'orthorhombic'
loop_
_space_group_symop_operation_xyz
x,y,z
1/2-x,-y,1/2+z
1/2+x,1/2-y,1/2-z
-x,1/2+y,-z
-x,-y,-z
1/2+x,y,1/2-z
1/2-x,1/2+y,1/2+z
x,1/2-y,z
loop_
_atom_site_type_symbol
_atom_site_label
_atom_site_fract_x
_atom_site_fract_y
_atom_site_fract_z
Si Si1 0.271901 0.855564 0.871224
Si Si2 0.090741 0.649485 0.802464
Si Si3 0.626702 0.038779 0.946442
Si Si4 0.209967 0.491388 0.192355
Si Si5 0.031064 0.501687 0.122078
Si Si6 0.749339 0.149261 0.647885
Si Si7 0.565157 0.146028 0.742703
Si Si8 0.375204 0.348526 0.042954
O O1 0.281982 0.750000 0.876481
O O2 0.171808 0.874714 0.876733
O O3 0.294029 0.898201 0.755158
O O4 0.331838 0.903519 0.957743
O O5 0.063787 0.750000 0.831881
O O6 0.018083 0.577563 0.815278
O O7 0.120950 0.653156 0.675557
O O8 0.706316 0.006188 0.874746
O O9 0.577763 0.100124 0.860849
O O10 0.584748 0.945385 0.984104
O O11 0.207944 0.570741 0.282719
O O12 0.129361 0.494268 0.119203
O O13 0.006141 0.592980 0.180833
O O14 0.000000 0.500000 0.000000
O O15 0.767149 0.250000 0.690125
O O16 0.650607 0.135492 0.670025
O O17 0.787377 0.147214 0.524965
O O18 0.548965 0.250000 0.754618
O O19 0.410798 0.250000 0.010256
#
# Coordination Sequence:
#
# PCOD9462052 Si02
#       8
#     8   8   8   8   8   8   8   8
#     4  11  22  38  63  92 119 156 206 259 305 347
#     4  10  21  40  60  84 120 159 199 243 298 360
#     4  11  20  38  66  90 119 152 205 253 301 349
#     4  11  23  36  60  89 124 155 195 252 293 360
#     4  12  26  40  58  87 123 161 196 236 304 370
#     4   9  19  37  63  91 114 150 205 252 293 342
#     4  10  22  41  61  85 121 162 201 243 294 361
#     4  10  18  32  63  93 115 147 193 250 300 344
#
# _framework density 21.843767
#
# number of rings (size 3 to 8) (size 9 to 14) (size 15 to 20)
#    0.000    1.500    3.750    1.875    1.750    2.000 
#    0.000    2.500    0.000    3.000    0.000    0.000 
#    0.000    0.000    0.000    0.000    0.000    0.000 
#
# Total GULP energy -357169.438371 kJ/mol
# GULP energy per Si atom -5580.772475 kJ/mol
# Density = 2.179405 g / cm^3
# Si number density = 21.843767 Si / 1000 Ang^3
#
#
#
# Elastic Constant Matrix: (Units=GPa)
#
#
# Indices 1 2 3 4 5 6 
#
# 1 21.6441 23.3387 10.2605 0.0000 0.0000 0.0000
# 2 23.3387 138.4637 4.7731 0.0000 0.0000 0.0000
# 3 10.2605 4.7731 51.1211 0.0000 0.0000 0.0000
# 4 0.0000 0.0000 0.0000 23.7907 0.0000 0.0000
# 5 0.0000 0.0000 0.0000 0.0000 18.1051 0.0000
# 6 0.0000 0.0000 0.0000 0.0000 0.0000 9.5674
#
#
#
# Elastic Compliance Matrix: (Units=1/GPa)
#
#
# Indices 1 2 3 4 5 6 
#
# 1 0.062674 -0.010163 -0.011630 0.000000 0.000000 0.000000
# 2 -0.010163 0.008893 0.001209 0.000000 0.000000 0.000000
# 3 -0.011630 0.001209 0.021783 0.000000 0.000000 0.000000
# 4 0.000000 0.000000 0.000000 0.042033 0.000000 0.000000
# 5 0.000000 0.000000 0.000000 0.000000 0.055233 0.000000
# 6 0.000000 0.000000 0.000000 0.000000 0.000000 0.104521
#
#
# Mechanical properties :
#
#
# Convention : Reuss Voigt Hill
#
# Bulk Modulus (GPa) = 19.16357 31.99704 25.58031
# Shear Modulus (GPa) = 14.13627 21.81641 17.97634
#
# Velocity S-wave (km/s) = 2.54668 3.16373 2.87182
# Velocity P-wave (km/s) = 4.17606 5.29391 4.76786
#
# Compressibility (1/GPa) = 0.05218234
#
# Stress axis : x y z
#
# Youngs Moduli (GPa) = 15.95556 112.44233 45.90774
#
# Poissons Ratio (x) = 1.14276 0.53393
# Poissons Ratio (y) = 0.16216 -0.05552
# Poissons Ratio (z) = 0.18557 -0.13599
#
# Static dielectric constant tensor:
#      x y z
#    x 1.524990 0.000000 0.000000 
#    y 0.000000 1.840430 0.000000 
#    z 0.000000 0.000000 1.809060 
# 
# From -- ./inp_files/14341.got.cif
#   From: 2010.05.17/outbox.cif.g08.bks.cpg/sg62_8_cif.got.tgz:14341.got - 2010.06.03 15:25:27.
