data_PCOD9462315
_publ_section_title
;
Structure prediction by ZEFSAII (Michael W. Deem and Ramdas Pophale) SiO2 
 PCOD9462315
Probable space group: P N M A
;
_chemical_formula_sum "Si O2"
_cell_formula_units_Z 64
_cell_length_a 21.206404
_cell_length_b 7.589928
_cell_length_c 20.114910
_cell_angle_alpha 90.000000
_cell_angle_beta 90.000000
_cell_angle_gamma 90.000000
_cell_volume 3237.596938
_symmetry_space_group_name_H-M "P N M A"
_symmetry_group_IT_number 62
_symmetry_cell_setting 'orthorhombic'
loop_
_space_group_symop_operation_xyz
x,y,z
1/2-x,-y,1/2+z
1/2+x,1/2-y,1/2-z
-x,1/2+y,-z
-x,-y,-z
1/2+x,y,1/2-z
1/2-x,1/2+y,1/2+z
x,1/2-y,z
loop_
_atom_site_type_symbol
_atom_site_label
_atom_site_fract_x
_atom_site_fract_y
_atom_site_fract_z
Si Si1 0.147088 0.453536 0.321600
Si Si2 0.184058 0.467124 0.465269
Si Si3 0.494123 0.037449 0.325111
Si Si4 0.638499 0.461834 0.324207
Si Si5 0.938862 0.539154 0.455680
Si Si6 0.936750 0.038448 0.041014
Si Si7 0.498695 0.458297 0.823946
Si Si8 0.187285 0.960977 0.033899
O O1 0.167523 0.250000 0.319273
O O2 0.176384 0.528710 0.389028
O O3 0.159932 0.530501 0.248216
O O4 0.070935 0.458418 0.329018
O O5 0.182780 0.250000 0.464026
O O6 0.123715 0.527208 0.508024
O O7 0.248571 0.524398 0.500017
O O8 0.495246 0.250000 0.328102
O O9 0.566446 0.975341 0.336460
O O10 0.449386 0.973300 0.384145
O O11 0.476456 0.987187 0.250360
O O12 0.634946 0.250000 0.318660
O O13 0.680464 0.503235 0.387803
O O14 0.931536 0.750000 0.451582
O O15 0.000000 0.500000 0.500000
O O16 0.955394 0.474420 0.381706
O O17 0.930321 0.250000 0.044192
O O18 0.875107 0.968913 0.003475
O O19 0.000000 0.000000 0.000000
O O20 0.489152 0.250000 0.833938
O O21 0.187273 0.750000 0.026535
#
# Coordination Sequence:
#
# PCOD9462315 Si02
#       8
#     8   8   8   8   8   8   8   8
#     4   9  17  32  53  71  96 135 169 200 248 306
#     4   9  18  34  53  73 100 136 170 202 247 303
#     4   9  18  32  49  71 101 135 166 202 253 309
#     4   9  17  30  49  73 100 129 163 203 253 301
#     4  10  19  32  52  75 101 130 165 208 252 298
#     4  10  19  32  51  75 100 128 168 211 251 296
#     4  10  19  29  47  78 104 124 163 215 254 292
#     4  10  20  33  52  76 100 132 172 208 245 296
#
# _framework density 19.767748000000001
#
# number of rings (size 3 to 8) (size 9 to 14) (size 15 to 20)
#    0.000    2.500    2.500    1.125    0.000    3.000 
#    0.000    2.500    0.000    1.500    0.000    0.000 
#    0.000    0.000    0.000    0.000    0.000    0.000 
#
# Total GULP energy -356987.715470 kJ/mol
# GULP energy per Si atom -5577.933054 kJ/mol
# Density = 1.972276 g / cm^3
# Si number density = 19.767748 Si / 1000 Ang^3
#
#
#
# Elastic Constant Matrix: (Units=GPa)
#
#
# Indices 1 2 3 4 5 6 
#
# 1 126.4253 -0.6550 101.5395 0.0000 0.0000 0.0000
# 2 -0.6550 40.9958 0.4106 0.0000 0.0000 0.0000
# 3 101.5395 0.4106 218.7772 0.0000 0.0000 0.0000
# 4 0.0000 0.0000 0.0000 16.1365 0.0000 0.0000
# 5 0.0000 0.0000 0.0000 0.0000 31.1648 0.0000
# 6 0.0000 0.0000 0.0000 0.0000 0.0000 10.1239
#
#
#
# Elastic Compliance Matrix: (Units=1/GPa)
#
#
# Indices 1 2 3 4 5 6 
#
# 1 0.012613 0.000260 -0.005855 0.000000 0.000000 0.000000
# 2 0.000260 0.024399 -0.000167 0.000000 0.000000 0.000000
# 3 -0.005855 -0.000167 0.007288 0.000000 0.000000 0.000000
# 4 0.000000 0.000000 0.000000 0.061971 0.000000 0.000000
# 5 0.000000 0.000000 0.000000 0.000000 0.032087 0.000000
# 6 0.000000 0.000000 0.000000 0.000000 0.000000 0.098776
#
#
# Mechanical properties :
#
#
# Convention : Reuss Voigt Hill
#
# Bulk Modulus (GPa) = 30.50793 65.42095 47.96444
# Shear Modulus (GPa) = 19.26164 30.47859 24.87011
#
# Velocity S-wave (km/s) = 3.12492 3.93088 3.55084
# Velocity P-wave (km/s) = 5.33731 7.33274 6.41311
#
# Compressibility (1/GPa) = 0.03277836
#
# Stress axis : x y z
#
# Youngs Moduli (GPa) = 79.28112 40.98598 137.20360
#
# Poissons Ratio (x) = -0.01066 0.80328
# Poissons Ratio (y) = -0.02063 0.02285
# Poissons Ratio (z) = 0.46416 0.00683
#
# Static dielectric constant tensor:
#      x y z
#    x 1.655410 0.000000 0.000000 
#    y 0.000000 1.758610 0.000000 
#    z 0.000000 0.000000 1.724550 
# 
# From -- ./inp_files/27936.got.cif
#   From: 2010.05.17/outbox.cif.g08.bks.cpg/sg62_14_cif.got.tgz:27936.got - 2010.06.03 15:25:27.
