data_PCOD9462365
_publ_section_title
;
Structure prediction by ZEFSAII (Michael W. Deem and Ramdas Pophale) SiO2 
 PCOD9462365
Probable space group: P N M A
;
_chemical_formula_sum "Si O2"
_cell_formula_units_Z 64
_cell_length_a 19.168579
_cell_length_b 8.897056
_cell_length_c 22.035957
_cell_angle_alpha 90.000000
_cell_angle_beta 90.000000
_cell_angle_gamma 90.000000
_cell_volume 3758.098505
_symmetry_space_group_name_H-M "P N M A"
_symmetry_group_IT_number 62
_symmetry_cell_setting 'orthorhombic'
loop_
_space_group_symop_operation_xyz
x,y,z
1/2-x,-y,1/2+z
1/2+x,1/2-y,1/2-z
-x,1/2+y,-z
-x,-y,-z
1/2+x,y,1/2-z
1/2-x,1/2+y,1/2+z
x,1/2-y,z
loop_
_atom_site_type_symbol
_atom_site_label
_atom_site_fract_x
_atom_site_fract_y
_atom_site_fract_z
Si Si1 0.523266 0.567605 0.063704
Si Si2 0.327367 0.930266 0.412306
Si Si3 0.465318 0.922875 0.190206
Si Si4 0.424770 0.573591 0.641405
Si Si5 0.376010 0.423183 0.758144
Si Si6 0.582377 0.927384 0.691013
Si Si7 0.827078 0.067267 0.615031
Si Si8 0.075148 0.571539 0.014146
O O1 0.522229 0.750000 0.061372
O O2 0.473632 0.523671 0.120725
O O3 0.602456 0.519511 0.080756
O O4 0.500000 0.500000 0.000000
O O5 0.332187 0.750000 0.416949
O O6 0.246255 0.976097 0.413659
O O7 0.362450 0.982811 0.349339
O O8 0.370282 0.005857 0.466300
O O9 0.440599 0.750000 0.190577
O O10 0.545149 0.921098 0.214899
O O11 0.422943 0.018132 0.239386
O O12 0.417292 0.750000 0.628506
O O13 0.378579 0.523284 0.698535
O O14 0.505676 0.546741 0.660839
O O15 0.407328 0.477443 0.582434
O O16 0.357897 0.250000 0.743458
O O17 0.330561 0.480566 0.814473
O O18 0.596232 0.750000 0.688037
O O19 0.829705 0.250000 0.616826
O O20 0.070912 0.750000 0.008197
O O21 0.000000 0.500000 0.000000
#
# Coordination Sequence:
#
# PCOD9462365 Si02
#       8
#     8   8   8   8   8   8   8   8
#     4   9  17  32  55  82 108 135 173 220 267 317
#     4  11  21  34  54  75 102 142 180 217 267 321
#     4   8  15  28  48  73 100 128 162 204 252 304
#     4  10  19  31  49  75 105 133 167 214 263 306
#     4   8  14  29  52  74  96 125 165 208 249 301
#     4  10  19  30  47  73 104 132 167 214 260 305
#     4   8  17  34  55  78 104 137 175 215 264 322
#     4  12  23  35  51  75 106 142 183 224 264 312
#
# _framework density 17.029888
#
# number of rings (size 3 to 8) (size 9 to 14) (size 15 to 20)
#    0.000    2.500    1.250    3.750    0.000    1.500 
#    0.000    4.375    2.750    0.000    0.000    0.000 
#    0.000    0.000    0.000    0.000    0.000    0.000 
#
# Total GULP energy -356761.907079 kJ/mol
# GULP energy per Si atom -5574.404798 kJ/mol
# Density = 1.699113 g / cm^3
# Si number density = 17.029888 Si / 1000 Ang^3
#
#
#
# Elastic Constant Matrix: (Units=GPa)
#
#
# Indices 1 2 3 4 5 6 
#
# 1 69.7582 30.5428 49.2307 0.0000 0.0000 0.0000
# 2 30.5428 61.9406 43.9480 0.0000 0.0000 0.0000
# 3 49.2307 43.9480 137.0553 0.0000 0.0000 0.0000
# 4 0.0000 0.0000 0.0000 34.0040 0.0000 0.0000
# 5 0.0000 0.0000 0.0000 0.0000 22.8208 0.0000
# 6 0.0000 0.0000 0.0000 0.0000 0.0000 13.9790
#
#
#
# Elastic Compliance Matrix: (Units=1/GPa)
#
#
# Indices 1 2 3 4 5 6 
#
# 1 0.021042 -0.006489 -0.005478 0.000000 0.000000 0.000000
# 2 -0.006489 0.022901 -0.005012 0.000000 0.000000 0.000000
# 3 -0.005478 -0.005012 0.010871 0.000000 0.000000 0.000000
# 4 0.000000 0.000000 0.000000 0.029408 0.000000 0.000000
# 5 0.000000 0.000000 0.000000 0.000000 0.043820 0.000000
# 6 0.000000 0.000000 0.000000 0.000000 0.000000 0.071536
#
#
# Mechanical properties :
#
#
# Convention : Reuss Voigt Hill
#
# Bulk Modulus (GPa) = 47.94897 57.35525 52.65211
# Shear Modulus (GPa) = 20.79103 23.82960 22.31031
#
# Velocity S-wave (km/s) = 3.49786 3.74475 3.62341
# Velocity P-wave (km/s) = 6.67310 7.24223 6.96348
#
# Compressibility (1/GPa) = 0.02085551
#
# Stress axis : x y z
#
# Youngs Moduli (GPa) = 47.52337 43.66665 91.98686
#
# Poissons Ratio (x) = 0.28337 0.50386
# Poissons Ratio (y) = 0.30840 0.46107
# Poissons Ratio (z) = 0.26031 0.21887
#
# Static dielectric constant tensor:
#      x y z
#    x 1.570710 0.000000 0.000000 
#    y 0.000000 1.571310 0.000000 
#    z 0.000000 0.000000 1.591060 
# 
# From -- ./inp_files/27681.got.cif
#   From: 2010.05.17/outbox.cif.g08.bks.cpg/sg62_14_cif.got.tgz:27681.got - 2010.06.03 15:25:27.
