data_PCOD9462871
_publ_section_title
;
Structure prediction by ZEFSAII (Michael W. Deem and Ramdas Pophale) SiO2 
 PCOD9462871
Probable space group: P N M A
;
_chemical_formula_sum "Si O2"
_cell_formula_units_Z 64
_cell_length_a 26.774069
_cell_length_b 7.624024
_cell_length_c 15.290819
_cell_angle_alpha 90.000000
_cell_angle_beta 90.000000
_cell_angle_gamma 90.000000
_cell_volume 3121.255931
_symmetry_space_group_name_H-M "P N M A"
_symmetry_group_IT_number 62
_symmetry_cell_setting 'orthorhombic'
loop_
_space_group_symop_operation_xyz
x,y,z
1/2-x,-y,1/2+z
1/2+x,1/2-y,1/2-z
-x,1/2+y,-z
-x,-y,-z
1/2+x,y,1/2-z
1/2-x,1/2+y,1/2+z
x,1/2-y,z
loop_
_atom_site_type_symbol
_atom_site_label
_atom_site_fract_x
_atom_site_fract_y
_atom_site_fract_z
Si Si1 0.213523 0.461216 0.002879
Si Si2 0.499139 0.960652 0.103165
Si Si3 0.867184 0.040016 0.857424
Si Si4 0.107384 0.965207 0.335373
Si Si5 0.827084 0.038305 0.499706
Si Si6 0.362118 0.954290 0.356164
Si Si7 0.607246 0.460023 0.830408
Si Si8 0.441933 0.040871 0.493612
O O1 0.214759 0.250000 0.995820
O O2 0.184134 0.501430 0.092229
O O3 0.270119 0.526201 0.001408
O O4 0.179623 0.529709 0.922144
O O5 0.498725 0.750000 0.111891
O O6 0.550539 0.022956 0.146806
O O7 0.448020 0.028990 0.146024
O O8 0.500000 0.000000 0.000000
O O9 0.872042 0.250000 0.852849
O O10 0.872902 0.974856 0.758845
O O11 0.911288 0.975349 0.921608
O O12 0.107515 0.750000 0.336092
O O13 0.142214 0.022864 0.415514
O O14 0.825561 0.250000 0.503875
O O15 0.856781 0.990814 0.412262
O O16 0.348704 0.750000 0.344570
O O17 0.370142 0.031508 0.260082
O O18 0.414146 0.964821 0.408999
O O19 0.602094 0.250000 0.819120
O O20 0.435818 0.250000 0.489104
O O21 0.500000 0.000000 0.500000
#
# Coordination Sequence:
#
# PCOD9462871 Si02
#       8
#     8   8   8   8   8   8   8   8
#     4   9  19  36  55  76 104 136 172 217 266 310
#     4  10  19  33  53  76 106 139 172 213 262 310
#     4   9  19  35  56  78 102 136 176 217 259 308
#     4   9  18  33  54  78 104 137 175 211 253 312
#     4  10  20  35  55  76 103 140 176 213 261 315
#     4   9  19  36  55  75 104 138 175 221 266 313
#     4  10  21  34  54  82 107 137 177 220 263 309
#     4  10  20  33  52  78 107 140 177 216 263 314
#
# _framework density 20.504566000000001
#
# number of rings (size 3 to 8) (size 9 to 14) (size 15 to 20)
#    0.000    2.500    1.250    0.375    1.750    2.500 
#    0.000    3.750    0.000    0.000    0.000    0.000 
#    0.000    0.000    0.000    0.000    0.000    0.000 
#
# Total GULP energy -357249.054761 kJ/mol
# GULP energy per Si atom -5582.016481 kJ/mol
# Density = 2.045790 g / cm^3
# Si number density = 20.504566 Si / 1000 Ang^3
#
#
#
# Elastic Constant Matrix: (Units=GPa)
#
#
# Indices 1 2 3 4 5 6 
#
# 1 188.4067 -2.6748 104.1959 0.0000 0.0000 0.0000
# 2 -2.6748 39.1698 3.0552 0.0000 0.0000 0.0000
# 3 104.1959 3.0552 207.6828 0.0000 0.0000 0.0000
# 4 0.0000 0.0000 0.0000 10.6880 0.0000 0.0000
# 5 0.0000 0.0000 0.0000 0.0000 3.2137 0.0000
# 6 0.0000 0.0000 0.0000 0.0000 0.0000 15.1301
#
#
#
# Elastic Compliance Matrix: (Units=1/GPa)
#
#
# Indices 1 2 3 4 5 6 
#
# 1 0.007370 0.000793 -0.003709 0.000000 0.000000 0.000000
# 2 0.000793 0.025644 -0.000775 0.000000 0.000000 0.000000
# 3 -0.003709 -0.000775 0.006687 0.000000 0.000000 0.000000
# 4 0.000000 0.000000 0.000000 0.093563 0.000000 0.000000
# 5 0.000000 0.000000 0.000000 0.000000 0.311166 0.000000
# 6 0.000000 0.000000 0.000000 0.000000 0.000000 0.066093
#
#
# Mechanical properties :
#
#
# Convention : Reuss Voigt Hill
#
# Bulk Modulus (GPa) = 30.94170 71.60134 51.27152
# Shear Modulus (GPa) = 9.45750 27.85190 18.65470
#
# Velocity S-wave (km/s) = 2.14998 3.68955 3.01953
# Velocity P-wave (km/s) = 4.61369 7.29012 6.10049
#
# Compressibility (1/GPa) = 0.03231884
#
# Stress axis : x y z
#
# Youngs Moduli (GPa) = 135.67840 38.99483 149.53318
#
# Poissons Ratio (x) = -0.03091 0.55468
# Poissons Ratio (y) = -0.10754 0.11588
# Poissons Ratio (z) = 0.50329 0.03022
#
# Static dielectric constant tensor:
#      x y z
#    x 1.708790 0.000000 0.000000 
#    y 0.000000 1.779990 0.000000 
#    z 0.000000 0.000000 1.708310 
# 
# From -- ./inp_files/20936.got.cif
#   From: 2010.05.17/outbox.cif.g08.bks.cpg/sg62_11_cif.got.tgz:20936.got - 2010.06.03 15:25:27.
