data_PCOD9462536
_publ_section_title
;
Structure prediction by ZEFSAII (Michael W. Deem and Ramdas Pophale) SiO2 
 PCOD9462536
Probable space group: P N M A
;
_chemical_formula_sum "Si O2"
_cell_formula_units_Z 64
_cell_length_a 9.340239
_cell_length_b 18.613830
_cell_length_c 21.611849
_cell_angle_alpha 90.000000
_cell_angle_beta 90.000000
_cell_angle_gamma 90.000000
_cell_volume 3757.384651
_symmetry_space_group_name_H-M "P N M A"
_symmetry_group_IT_number 62
_symmetry_cell_setting 'orthorhombic'
loop_
_space_group_symop_operation_xyz
x,y,z
1/2-x,-y,1/2+z
1/2+x,1/2-y,1/2-z
-x,1/2+y,-z
-x,-y,-z
1/2+x,y,1/2-z
1/2-x,1/2+y,1/2+z
x,1/2-y,z
loop_
_atom_site_type_symbol
_atom_site_label
_atom_site_fract_x
_atom_site_fract_y
_atom_site_fract_z
Si Si1 0.869591 0.330353 0.572907
Si Si2 0.522422 0.956862 0.935078
Si Si3 0.305515 0.567438 0.511378
Si Si4 0.040470 0.667301 0.161821
Si Si5 0.131156 0.328231 0.475212
Si Si6 0.781078 0.612267 0.243086
Si Si7 0.966532 0.430316 0.670687
Si Si8 0.897639 0.401481 0.969645
O O1 0.805922 0.250000 0.573387
O O2 0.765952 0.394108 0.548961
O O3 0.934126 0.353365 0.638460
O O4 0.002556 0.329334 0.525356
O O5 0.681491 0.923207 0.937801
O O6 0.500633 0.013676 0.882122
O O7 0.407992 0.893595 0.930789
O O8 0.500000 0.000000 0.000000
O O9 0.460313 0.603953 0.511633
O O10 0.337048 0.481886 0.516151
O O11 0.047576 0.750000 0.141048
O O12 0.166976 0.654456 0.212951
O O13 0.064632 0.614975 0.102423
O O14 0.885697 0.653771 0.194685
O O15 0.135477 0.250000 0.446062
O O16 0.276471 0.346247 0.510329
O O17 0.679285 0.556315 0.207541
O O18 0.896431 0.575110 0.286690
#
# Coordination Sequence:
#
# PCOD9462536 Si02
#       8
#     8   8   8   8   8   8   8   8
#     4  10  19  32  52  72 101 143 185 222 260 321
#     4  11  18  35  59  77 101 142 178 222 260 322
#     4  10  20  32  48  77 101 134 179 218 275 324
#     4  11  22  35  49  68 100 144 189 228 264 306
#     4  10  19  31  50  81 107 134 172 212 272 328
#     4  10  24  35  49  71 101 142 185 232 256 311
#     4  11  20  37  53  75 105 139 184 217 268 310
#     4  11  20  31  49  72 106 138 172 224 274 326
#
# _framework density 17.033125999999999
#
# number of rings (size 3 to 8) (size 9 to 14) (size 15 to 20)
#    0.000    1.500    3.750    3.000    0.000    6.000 
#    0.000    0.000    0.000    0.000    0.000    0.875 
#    0.000    4.000    0.000    0.250    0.000    0.500 
#
# Total GULP energy -356411.846754 kJ/mol
# GULP energy per Si atom -5568.935106 kJ/mol
# Density = 1.699436 g / cm^3
# Si number density = 17.033126 Si / 1000 Ang^3
#
#
#
# Elastic Constant Matrix: (Units=GPa)
#
#
# Indices 1 2 3 4 5 6 
#
# 1 114.8732 25.4514 30.2308 0.0000 0.0000 0.0000
# 2 25.4514 77.4072 39.4868 0.0000 0.0000 0.0000
# 3 30.2308 39.4868 64.2463 0.0000 0.0000 0.0000
# 4 0.0000 0.0000 0.0000 15.1634 0.0000 0.0000
# 5 0.0000 0.0000 0.0000 0.0000 23.9513 0.0000
# 6 0.0000 0.0000 0.0000 0.0000 0.0000 14.0158
#
#
#
# Elastic Compliance Matrix: (Units=1/GPa)
#
#
# Indices 1 2 3 4 5 6 
#
# 1 0.010024 -0.001296 -0.003920 0.000000 0.000000 0.000000
# 2 -0.001296 0.018987 -0.011059 0.000000 0.000000 0.000000
# 3 -0.003920 -0.011059 0.024207 0.000000 0.000000 0.000000
# 4 0.000000 0.000000 0.000000 0.065948 0.000000 0.000000
# 5 0.000000 0.000000 0.000000 0.000000 0.041751 0.000000
# 6 0.000000 0.000000 0.000000 0.000000 0.000000 0.071348
#
#
# Mechanical properties :
#
#
# Convention : Reuss Voigt Hill
#
# Bulk Modulus (GPa) = 48.38861 49.65163 49.02012
# Shear Modulus (GPa) = 18.40226 21.38328 19.89277
#
# Velocity S-wave (km/s) = 3.29048 3.54700 3.42114
# Velocity P-wave (km/s) = 6.55031 6.78146 6.66689
#
# Compressibility (1/GPa) = 0.02066602
#
# Stress axis : x y z
#
# Youngs Moduli (GPa) = 99.75977 52.66898 41.31031
#
# Poissons Ratio (x) = 0.06827 0.16194
# Poissons Ratio (y) = 0.12931 0.45687
# Poissons Ratio (z) = 0.39107 0.58249
#
# Static dielectric constant tensor:
#      x y z
#    x 1.631260 0.000000 0.000000 
#    y 0.000000 1.590800 0.000000 
#    z 0.000000 0.000000 1.593820 
# 
# From -- ./inp_files/29072.got.cif
#   From: 2010.05.17/outbox.cif.g08.bks.cpg/sg62_15_cif.got.tgz:29072.got - 2010.06.03 15:25:27.
