data_PCOD9462984
_publ_section_title
;
Structure prediction by ZEFSAII (Michael W. Deem and Ramdas Pophale) SiO2 
 PCOD9462984
Probable space group: P N M A
;
_chemical_formula_sum "Si O2"
_cell_formula_units_Z 48
_cell_length_a 19.566100
_cell_length_b 13.733620
_cell_length_c 8.319865
_cell_angle_alpha 90.000000
_cell_angle_beta 90.000000
_cell_angle_gamma 90.000000
_cell_volume 2235.659064
_symmetry_space_group_name_H-M "P N M A"
_symmetry_group_IT_number 62
_symmetry_cell_setting 'orthorhombic'
loop_
_space_group_symop_operation_xyz
x,y,z
1/2-x,-y,1/2+z
1/2+x,1/2-y,1/2-z
-x,1/2+y,-z
-x,-y,-z
1/2+x,y,1/2-z
1/2-x,1/2+y,1/2+z
x,1/2-y,z
loop_
_atom_site_type_symbol
_atom_site_label
_atom_site_fract_x
_atom_site_fract_y
_atom_site_fract_z
Si Si1 0.932666 0.865376 0.203557
Si Si2 0.298688 0.634103 0.467163
Si Si3 0.410667 0.365167 0.744460
Si Si4 0.231522 0.631454 0.131657
Si Si5 0.813872 0.867487 0.683475
Si Si6 0.919515 0.517915 0.514628
O O1 0.928952 0.750000 0.250435
O O2 0.880476 0.877531 0.057965
O O3 0.903067 0.932144 0.345993
O O4 0.012847 0.889946 0.183727
O O5 0.284587 0.750000 0.470729
O O6 0.261759 0.599616 0.304469
O O7 0.283237 0.597720 0.646395
O O8 0.409370 0.250000 0.765760
O O9 0.348871 0.392198 0.627408
O O10 0.394464 0.415118 0.916003
O O11 0.237814 0.750000 0.130781
O O12 0.270234 0.599380 0.971157
O O13 0.816262 0.750000 0.685744
O O14 0.889663 0.908688 0.648537
O O15 0.000000 0.500000 0.500000
#
# Coordination Sequence:
#
# PCOD9462984 Si02
#       6
#     8   8   8   8   8   8
#     4   9  16  32  59  87 118 155 189 234 292 344
#     4   9  17  31  57  87 111 144 192 237 280 339
#     4   9  19  34  55  80 116 160 193 233 294 347
#     4   9  17  34  58  79 110 153 189 235 287 332
#     4  10  19  34  60  87 111 144 194 240 283 343
#     4  10  19  33  55  84 113 146 193 235 285 345
#
# _framework density 21.470179999999999
#
# number of rings (size 3 to 8) (size 9 to 14) (size 15 to 20)
#    0.000    2.667    1.667    0.500    0.000    0.667 
#    3.000    3.333    7.333    0.000    0.000    0.000 
#    0.000    0.000    0.000    0.000    0.000    0.000 
#
# Total GULP energy -267400.818781 kJ/mol
# GULP energy per Si atom -5570.850391 kJ/mol
# Density = 2.142131 g / cm^3
# Si number density = 21.470180 Si / 1000 Ang^3
#
#
#
# Elastic Constant Matrix: (Units=GPa)
#
#
# Indices 1 2 3 4 5 6 
#
# 1 91.2567 17.2449 51.5079 0.0000 0.0000 0.0000
# 2 17.2449 53.7707 20.7244 0.0000 0.0000 0.0000
# 3 51.5079 20.7244 138.7375 0.0000 0.0000 0.0000
# 4 0.0000 0.0000 0.0000 26.5014 0.0000 0.0000
# 5 0.0000 0.0000 0.0000 0.0000 21.5285 0.0000
# 6 0.0000 0.0000 0.0000 0.0000 0.0000 22.4735
#
#
#
# Elastic Compliance Matrix: (Units=1/GPa)
#
#
# Indices 1 2 3 4 5 6 
#
# 1 0.014218 -0.002680 -0.004878 0.000000 0.000000 0.000000
# 2 -0.002680 0.020239 -0.002028 0.000000 0.000000 0.000000
# 3 -0.004878 -0.002028 0.009322 0.000000 0.000000 0.000000
# 4 0.000000 0.000000 0.000000 0.037734 0.000000 0.000000
# 5 0.000000 0.000000 0.000000 0.000000 0.046450 0.000000
# 6 0.000000 0.000000 0.000000 0.000000 0.000000 0.044497
#
#
# Mechanical properties :
#
#
# Convention : Reuss Voigt Hill
#
# Bulk Modulus (GPa) = 40.64059 51.41325 46.02692
# Shear Modulus (GPa) = 25.02080 27.05321 26.03701
#
# Velocity S-wave (km/s) = 3.41746 3.55355 3.48617
# Velocity P-wave (km/s) = 5.87724 6.39025 6.13911
#
# Compressibility (1/GPa) = 0.02460594
#
# Stress axis : x y z
#
# Youngs Moduli (GPa) = 70.33376 49.41042 107.27348
#
# Poissons Ratio (x) = 0.13240 0.52331
# Poissons Ratio (y) = 0.18847 0.21759
# Poissons Ratio (z) = 0.34311 0.10022
#
# Static dielectric constant tensor:
#      x y z
#    x 1.810400 0.000000 0.000000 
#    y 0.000000 1.811410 0.000000 
#    z 0.000000 0.000000 1.787100 
# 
# From -- ./inp_files/8572.got.cif
#   From: 2010.05.17/outbox.cif.g08.bks.cpg/sg62_5_cif.got.tgz:8572.got - 2010.06.03 15:25:27.
