data_PCOD9462671
_publ_section_title
;
Structure prediction by ZEFSAII (Michael W. Deem and Ramdas Pophale) SiO2 
 PCOD9462671
Probable space group: P N M A
;
_chemical_formula_sum "Si O2"
_cell_formula_units_Z 64
_cell_length_a 30.077416
_cell_length_b 9.148157
_cell_length_c 10.887782
_cell_angle_alpha 90.000000
_cell_angle_beta 90.000000
_cell_angle_gamma 90.000000
_cell_volume 2995.805050
_symmetry_space_group_name_H-M "P N M A"
_symmetry_group_IT_number 62
_symmetry_cell_setting 'orthorhombic'
loop_
_space_group_symop_operation_xyz
x,y,z
1/2-x,-y,1/2+z
1/2+x,1/2-y,1/2-z
-x,1/2+y,-z
-x,-y,-z
1/2+x,y,1/2-z
1/2-x,1/2+y,1/2+z
x,1/2-y,z
loop_
_atom_site_type_symbol
_atom_site_label
_atom_site_fract_x
_atom_site_fract_y
_atom_site_fract_z
Si Si1 0.963181 0.578570 0.414663
Si Si2 0.127208 0.076855 0.296123
Si Si3 0.361379 0.927836 0.064031
Si Si4 0.270355 0.923215 0.417861
Si Si5 0.368174 0.576025 0.513912
Si Si6 0.457454 0.408350 0.773366
Si Si7 0.221494 0.924932 0.672310
Si Si8 0.045657 0.588441 0.988723
O O1 0.961036 0.750000 0.447608
O O2 0.912614 0.527303 0.410804
O O3 0.000000 0.500000 0.500000
O O4 0.990035 0.564835 0.286511
O O5 0.131963 0.250000 0.295769
O O6 0.149908 0.025791 0.422575
O O7 0.139567 0.028793 0.157840
O O8 0.075467 0.033431 0.318484
O O9 0.358354 0.750000 0.074235
O O10 0.326892 0.003949 0.153746
O O11 0.263021 0.750000 0.397896
O O12 0.322794 0.947456 0.441597
O O13 0.247329 0.963775 0.546637
O O14 0.256984 0.011133 0.296264
O O15 0.377698 0.750000 0.518366
O O16 0.410217 0.498327 0.450101
O O17 0.448189 0.250000 0.835058
O O18 0.445136 0.392807 0.633216
O O19 0.219651 0.750000 0.681021
O O20 0.040301 0.750000 0.931991
O O21 0.000000 0.500000 0.000000
#
# Coordination Sequence:
#
# PCOD9462671 Si02
#       8
#     8   8   8   8   8   8   8   8
#     4  10  19  32  51  79 115 161 208 254 309 369
#     4   9  17  31  55  86 116 155 205 249 301 369
#     4  10  21  36  58  88 127 170 211 260 323 386
#     4  10  24  47  71  97 129 167 211 264 330 395
#     4   9  19  37  62  87 117 159 206 258 315 376
#     4   9  18  31  48  73 111 152 196 250 303 355
#     4  11  26  45  69 101 132 166 213 265 322 391
#     4  10  20  34  52  81 118 159 205 253 306 366
#
# _framework density 21.363208
#
# number of rings (size 3 to 8) (size 9 to 14) (size 15 to 20)
#    0.000    2.250    1.250    0.750    1.750    4.000 
#    0.000    2.500    0.000    0.000    0.000    0.000 
#    0.000    0.000    0.000    0.000    0.000    0.000 
#
# Total GULP energy -356486.639583 kJ/mol
# GULP energy per Si atom -5570.103743 kJ/mol
# Density = 2.131458 g / cm^3
# Si number density = 21.363208 Si / 1000 Ang^3
#
#
#
# Elastic Constant Matrix: (Units=GPa)
#
#
# Indices 1 2 3 4 5 6 
#
# 1 75.0208 24.9448 24.9518 0.0000 0.0000 0.0000
# 2 24.9448 27.0760 29.8532 0.0000 0.0000 0.0000
# 3 24.9518 29.8532 92.4589 0.0000 0.0000 0.0000
# 4 0.0000 0.0000 0.0000 25.2032 0.0000 0.0000
# 5 0.0000 0.0000 0.0000 0.0000 29.1633 0.0000
# 6 0.0000 0.0000 0.0000 0.0000 0.0000 18.8504
#
#
#
# Elastic Compliance Matrix: (Units=1/GPa)
#
#
# Indices 1 2 3 4 5 6 
#
# 1 0.019257 -0.018651 0.000825 0.000000 0.000000 0.000000
# 2 -0.018651 0.075413 -0.019316 0.000000 0.000000 0.000000
# 3 0.000825 -0.019316 0.016830 0.000000 0.000000 0.000000
# 4 0.000000 0.000000 0.000000 0.039677 0.000000 0.000000
# 5 0.000000 0.000000 0.000000 0.000000 0.034290 0.000000
# 6 0.000000 0.000000 0.000000 0.000000 0.000000 0.053049
#
#
# Mechanical properties :
#
#
# Convention : Reuss Voigt Hill
#
# Bulk Modulus (GPa) = 26.87011 39.33946 33.10478
# Shear Modulus (GPa) = 15.37492 22.29711 18.83602
#
# Velocity S-wave (km/s) = 2.68562 3.23416 2.97257
# Velocity P-wave (km/s) = 4.71400 5.69219 5.22603
#
# Compressibility (1/GPa) = 0.03721608
#
# Stress axis : x y z
#
# Youngs Moduli (GPa) = 51.93017 13.26028 59.41850
#
# Poissons Ratio (x) = 0.24731 -0.04903
# Poissons Ratio (y) = 0.96853 1.14774
# Poissons Ratio (z) = -0.04285 0.25614
#
# Static dielectric constant tensor:
#      x y z
#    x 1.793460 0.000000 0.000000 
#    y 0.000000 1.823230 0.000000 
#    z 0.000000 0.000000 1.895290 
# 
# From -- ./inp_files/15756.got.cif
#   From: 2010.05.17/outbox.cif.g08.bks.cpg/sg62_8_cif.got.tgz:15756.got - 2010.06.03 15:25:27.
