data_PCOD9462377
_publ_section_title
;
Structure prediction by ZEFSAII (Michael W. Deem and Ramdas Pophale) SiO2 
 PCOD9462377
Probable space group: P N M A
;
_chemical_formula_sum "Si O2"
_cell_formula_units_Z 56
_cell_length_a 21.130909
_cell_length_b 8.900879
_cell_length_c 17.432350
_cell_angle_alpha 90.000000
_cell_angle_beta 90.000000
_cell_angle_gamma 90.000000
_cell_volume 3278.740263
_symmetry_space_group_name_H-M "P N M A"
_symmetry_group_IT_number 62
_symmetry_cell_setting 'orthorhombic'
loop_
_space_group_symop_operation_xyz
x,y,z
1/2-x,-y,1/2+z
1/2+x,1/2-y,1/2-z
-x,1/2+y,-z
-x,-y,-z
1/2+x,y,1/2-z
1/2-x,1/2+y,1/2+z
x,1/2-y,z
loop_
_atom_site_type_symbol
_atom_site_label
_atom_site_fract_x
_atom_site_fract_y
_atom_site_fract_z
Si Si1 0.153091 0.067977 0.972910
Si Si2 0.403875 0.921868 0.037065
Si Si3 0.599661 0.429816 0.360562
Si Si4 0.875295 0.428643 0.706144
Si Si5 0.012946 0.421436 0.380243
Si Si6 0.021493 0.430993 0.918526
Si Si7 0.295174 0.068497 0.943408
O O1 0.154850 0.250000 0.973366
O O2 0.133077 0.023068 0.059436
O O3 0.095737 0.027243 0.915383
O O4 0.222936 0.016022 0.950975
O O5 0.393207 0.750000 0.060396
O O6 0.444660 0.010578 0.099973
O O7 0.448008 0.919564 0.960598
O O8 0.339661 0.000427 0.009531
O O9 0.595205 0.250000 0.360146
O O10 0.635867 0.489099 0.286259
O O11 0.529044 0.500024 0.360376
O O12 0.873260 0.250000 0.716249
O O13 0.944237 0.478730 0.675352
O O14 0.826263 0.471351 0.638643
O O15 0.008955 0.250000 0.352604
O O16 0.016172 0.250000 0.919359
O O17 0.000000 0.500000 0.000000
O O18 0.297446 0.250000 0.949305
#
# Coordination Sequence:
#
# PCOD9462377 Si02
#       7
#     8   8   8   8   8   8   8
#     4   8  16  31  52  74  95 127 166 205 246 293
#     4   9  16  26  42  67  95 121 157 200 239 279
#     4  10  19  32  51  73  99 128 164 207 253 302
#     4  10  19  30  48  73  99 127 163 207 252 302
#     4   9  16  27  44  65  91 124 159 198 240 283
#     4   9  16  29  50  75  98 122 157 200 247 290
#     4   9  17  31  50  71  96 131 171 202 242 298
#
# _framework density 17.079730000000001
#
# number of rings (size 3 to 8) (size 9 to 14) (size 15 to 20)
#    0.000    2.857    0.000    3.000    0.000    4.000 
#    0.000    4.286    3.143    0.000    0.000    0.000 
#    0.000    0.000    0.000    0.000    0.000    0.000 
#
# Total GULP energy -311827.673887 kJ/mol
# GULP energy per Si atom -5568.351319 kJ/mol
# Density = 1.704086 g / cm^3
# Si number density = 17.079730 Si / 1000 Ang^3
#
#
#
# Elastic Constant Matrix: (Units=GPa)
#
#
# Indices 1 2 3 4 5 6 
#
# 1 138.6069 34.7981 38.1330 0.0000 0.0000 0.0000
# 2 34.7981 54.7901 20.2459 0.0000 0.0000 0.0000
# 3 38.1330 20.2459 52.9452 0.0000 0.0000 0.0000
# 4 0.0000 0.0000 0.0000 24.2855 0.0000 0.0000
# 5 0.0000 0.0000 0.0000 0.0000 14.2196 0.0000
# 6 0.0000 0.0000 0.0000 0.0000 0.0000 20.0882
#
#
#
# Elastic Compliance Matrix: (Units=1/GPa)
#
#
# Indices 1 2 3 4 5 6 
#
# 1 0.009760 -0.004194 -0.005426 0.000000 0.000000 0.000000
# 2 -0.004194 0.023057 -0.005796 0.000000 0.000000 0.000000
# 3 -0.005426 -0.005796 0.025012 0.000000 0.000000 0.000000
# 4 0.000000 0.000000 0.000000 0.041177 0.000000 0.000000
# 5 0.000000 0.000000 0.000000 0.000000 0.070325 0.000000
# 6 0.000000 0.000000 0.000000 0.000000 0.000000 0.049780
#
#
# Mechanical properties :
#
#
# Convention : Reuss Voigt Hill
#
# Bulk Modulus (GPa) = 37.04135 48.07735 42.55935
# Shear Modulus (GPa) = 19.30925 21.92967 20.61946
#
# Velocity S-wave (km/s) = 3.36599 3.58712 3.47832
# Velocity P-wave (km/s) = 6.06967 6.73547 6.41122
#
# Compressibility (1/GPa) = 0.02699685
#
# Stress axis : x y z
#
# Youngs Moduli (GPa) = 102.45539 43.37086 39.98097
#
# Poissons Ratio (x) = 0.18190 0.21694
# Poissons Ratio (y) = 0.42969 0.23174
# Poissons Ratio (z) = 0.55592 0.25139
#
# Static dielectric constant tensor:
#      x y z
#    x 1.594440 0.000000 0.000000 
#    y 0.000000 1.575380 0.000000 
#    z 0.000000 0.000000 1.600910 
# 
# From -- ./inp_files/24655.got.cif
#   From: 2010.05.17/outbox.cif.g08.bks.cpg/sg62_13_cif.got.tgz:24655.got - 2010.06.03 15:25:27.
