data_PCOD9462078
_publ_section_title
;
Structure prediction by ZEFSAII (Michael W. Deem and Ramdas Pophale) SiO2 
 PCOD9462078
Probable space group: P N M A
;
_chemical_formula_sum "Si O2"
_cell_formula_units_Z 56
_cell_length_a 16.585620
_cell_length_b 8.216320
_cell_length_c 20.387158
_cell_angle_alpha 90.000000
_cell_angle_beta 90.000000
_cell_angle_gamma 90.000000
_cell_volume 2778.214316
_symmetry_space_group_name_H-M "P N M A"
_symmetry_group_IT_number 62
_symmetry_cell_setting 'orthorhombic'
loop_
_space_group_symop_operation_xyz
x,y,z
1/2-x,-y,1/2+z
1/2+x,1/2-y,1/2-z
-x,1/2+y,-z
-x,-y,-z
1/2+x,y,1/2-z
1/2-x,1/2+y,1/2+z
x,1/2-y,z
loop_
_atom_site_type_symbol
_atom_site_label
_atom_site_fract_x
_atom_site_fract_y
_atom_site_fract_z
Si Si1 0.380558 0.440797 0.023693
Si Si2 0.318486 0.938257 0.373051
Si Si3 0.406977 0.947941 0.504755
Si Si4 0.481455 0.944868 0.143417
Si Si5 0.146861 0.432924 0.384479
Si Si6 0.719465 0.058470 0.388770
Si Si7 0.327702 0.553760 0.227193
O O1 0.389235 0.250000 0.006246
O O2 0.449781 0.494897 0.073188
O O3 0.295765 0.460836 0.062109
O O4 0.378935 0.550713 0.959953
O O5 0.344565 0.750000 0.370262
O O6 0.360777 0.006323 0.438473
O O7 0.331861 0.012405 0.301093
O O8 0.222468 0.948725 0.379806
O O9 0.402739 0.750000 0.505995
O O10 0.357909 0.005266 0.570005
O O11 0.500000 0.000000 0.500000
O O12 0.486236 0.750000 0.143591
O O13 0.410112 0.998307 0.191691
O O14 0.569177 0.016388 0.157148
O O15 0.172289 0.250000 0.368943
O O16 0.706692 0.250000 0.378375
O O17 0.751617 0.990713 0.319195
O O18 0.327291 0.750000 0.230254
#
# Coordination Sequence:
#
# PCOD9462078 Si02
#       7
#     8   8   8   8   8   8   8
#     4  10  18  33  56  81 112 149 184 227 280 335
#     4  10  21  42  63  82 114 154 196 243 297 346
#     4  10  21  39  62  88 117 153 197 246 297 350
#     4  10  20  35  54  82 116 149 188 232 282 345
#     4  12  23  34  53  84 115 148 189 232 285 344
#     4   9  18  35  59  84 115 151 186 232 294 348
#     4   9  20  38  62  86 111 149 196 242 289 348
#
# _framework density 20.156832000000001
#
# number of rings (size 3 to 8) (size 9 to 14) (size 15 to 20)
#    0.000    2.000    1.429    2.571    0.000    2.857 
#    2.571    0.000    0.000    0.000    0.000    0.000 
#    0.000    0.000    0.000    0.000    0.000    0.000 
#
# Total GULP energy -312300.026612 kJ/mol
# GULP energy per Si atom -5576.786189 kJ/mol
# Density = 2.011095 g / cm^3
# Si number density = 20.156832 Si / 1000 Ang^3
#
#
#
# Elastic Constant Matrix: (Units=GPa)
#
#
# Indices 1 2 3 4 5 6 
#
# 1 87.3026 -8.1539 32.4724 0.0000 0.0000 0.0000
# 2 -8.1539 25.9464 0.6946 0.0000 0.0000 0.0000
# 3 32.4724 0.6946 91.7294 0.0000 0.0000 0.0000
# 4 0.0000 0.0000 0.0000 16.8045 0.0000 0.0000
# 5 0.0000 0.0000 0.0000 0.0000 2.7601 0.0000
# 6 0.0000 0.0000 0.0000 0.0000 0.0000 21.0771
#
#
#
# Elastic Compliance Matrix: (Units=1/GPa)
#
#
# Indices 1 2 3 4 5 6 
#
# 1 0.013682 0.004430 -0.004877 0.000000 0.000000 0.000000
# 2 0.004430 0.039983 -0.001871 0.000000 0.000000 0.000000
# 3 -0.004877 -0.001871 0.012642 0.000000 0.000000 0.000000
# 4 0.000000 0.000000 0.000000 0.059508 0.000000 0.000000
# 5 0.000000 0.000000 0.000000 0.000000 0.362303 0.000000
# 6 0.000000 0.000000 0.000000 0.000000 0.000000 0.047445
#
#
# Mechanical properties :
#
#
# Convention : Reuss Voigt Hill
#
# Bulk Modulus (GPa) = 16.21476 28.33386 22.27431
# Shear Modulus (GPa) = 8.91652 20.12603 14.52127
#
# Velocity S-wave (km/s) = 2.10551 3.16329 2.68697
# Velocity P-wave (km/s) = 3.73800 5.23728 4.54982
#
# Compressibility (1/GPa) = 0.06167221
#
# Stress axis : x y z
#
# Youngs Moduli (GPa) = 73.08747 25.01036 79.09953
#
# Poissons Ratio (x) = -0.11080 0.38578
# Poissons Ratio (y) = -0.32380 0.14801
# Poissons Ratio (z) = 0.35645 0.04680
#
# Static dielectric constant tensor:
#      x y z
#    x 1.731440 0.000000 0.000000 
#    y 0.000000 1.719950 0.000000 
#    z 0.000000 0.000000 1.768410 
# 
# From -- ./inp_files/27194.got.cif
#   From: 2010.05.17/outbox.cif.g08.bks.cpg/sg62_14_cif.got.tgz:27194.got - 2010.06.03 15:25:27.
