data_PCOD9462265
_publ_section_title
;
Structure prediction by ZEFSAII (Michael W. Deem and Ramdas Pophale) SiO2 
 PCOD9462265
Probable space group: P N M A
;
_chemical_formula_sum "Si O2"
_cell_formula_units_Z 44
_cell_length_a 13.533247
_cell_length_b 14.407363
_cell_length_c 12.076825
_cell_angle_alpha 90.000000
_cell_angle_beta 90.000000
_cell_angle_gamma 90.000000
_cell_volume 2354.720041
_symmetry_space_group_name_H-M "P N M A"
_symmetry_group_IT_number 62
_symmetry_cell_setting 'orthorhombic'
loop_
_space_group_symop_operation_xyz
x,y,z
1/2-x,-y,1/2+z
1/2+x,1/2-y,1/2-z
-x,1/2+y,-z
-x,-y,-z
1/2+x,y,1/2-z
1/2-x,1/2+y,1/2+z
x,1/2-y,z
loop_
_atom_site_type_symbol
_atom_site_label
_atom_site_fract_x
_atom_site_fract_y
_atom_site_fract_z
Si Si1 0.783357 0.061627 0.078152
Si Si2 0.943158 0.917078 0.559324
Si Si3 0.419756 0.581659 0.513813
Si Si4 0.406114 0.750000 0.110367
Si Si5 0.973569 0.750000 0.142426
Si Si6 0.806670 0.250000 0.937815
Si Si7 0.546166 0.641663 0.715937
O O1 0.861151 0.076797 0.179048
O O2 0.817938 0.973548 0.004752
O O3 0.667048 0.056080 0.101996
O O4 0.800259 0.156913 0.010436
O O5 0.929232 0.837725 0.466947
O O6 0.006633 0.881732 0.662947
O O7 0.000000 0.000000 0.500000
O O8 0.500000 0.500000 0.500000
O O9 0.430677 0.659565 0.419668
O O10 0.455007 0.626148 0.629620
O O11 0.458298 0.750000 0.227363
O O12 0.289592 0.750000 0.137545
O O13 0.089933 0.750000 0.121528
O O14 0.575338 0.750000 0.709210
#
# Coordination Sequence:
#
# PCOD9462265 Si02
#       7
#     8   8   8   4   4   4   8
#     4  10  21  41  64  93 124 166 211 257 320 375
#     4  11  26  44  62  93 133 171 205 254 323 388
#     4  10  20  36  64  98 117 158 216 268 307 368
#     4  10  26  42  60  92 130 171 200 251 329 376
#     4  12  20  41  64  91 129 157 214 269 308 374
#     4  10  18  41  68  83 119 168 208 250 317 376
#     4  11  20  40  70  96 121 165 221 271 313 369
#
# _framework density 18.685873999999998
#
# number of rings (size 3 to 8) (size 9 to 14) (size 15 to 20)
#    0.000    1.455    6.364    0.000    5.091    1.455 
#    6.545    0.000    0.000    0.000    0.000    0.000 
#    0.000    0.000    0.000    0.000    0.000    0.000 
#
# Total GULP energy -245370.318561 kJ/mol
# GULP energy per Si atom -5576.598149 kJ/mol
# Density = 1.864334 g / cm^3
# Si number density = 18.685874 Si / 1000 Ang^3
#
#
#
# Elastic Constant Matrix: (Units=GPa)
#
#
# Indices 1 2 3 4 5 6 
#
# 1 103.3259 37.3851 28.5462 0.0000 0.0000 0.0000
# 2 37.3851 99.1582 27.6789 0.0000 0.0000 0.0000
# 3 28.5462 27.6789 94.4664 0.0000 0.0000 0.0000
# 4 0.0000 0.0000 0.0000 27.3697 0.0000 0.0000
# 5 0.0000 0.0000 0.0000 0.0000 25.0333 0.0000
# 6 0.0000 0.0000 0.0000 0.0000 0.0000 14.9077
#
#
#
# Elastic Compliance Matrix: (Units=1/GPa)
#
#
# Indices 1 2 3 4 5 6 
#
# 1 0.011703 -0.003730 -0.002443 0.000000 0.000000 0.000000
# 2 -0.003730 0.012172 -0.002439 0.000000 0.000000 0.000000
# 3 -0.002443 -0.002439 0.012039 0.000000 0.000000 0.000000
# 4 0.000000 0.000000 0.000000 0.036537 0.000000 0.000000
# 5 0.000000 0.000000 0.000000 0.000000 0.039947 0.000000
# 6 0.000000 0.000000 0.000000 0.000000 0.000000 0.067080
#
#
# Mechanical properties :
#
#
# Convention : Reuss Voigt Hill
#
# Bulk Modulus (GPa) = 53.51020 53.79676 53.65348
# Shear Modulus (GPa) = 24.63879 27.01817 25.82848
#
# Velocity S-wave (km/s) = 3.63516 3.80664 3.72189
# Velocity P-wave (km/s) = 6.80574 6.94070 6.87355
#
# Compressibility (1/GPa) = 0.01868802
#
# Stress axis : x y z
#
# Youngs Moduli (GPa) = 85.44949 82.15469 83.06440
#
# Poissons Ratio (x) = 0.30645 0.20296
# Poissons Ratio (y) = 0.31874 0.20262
# Poissons Ratio (z) = 0.20879 0.20040
#
# Static dielectric constant tensor:
#      x y z
#    x 1.668650 0.000000 0.000000 
#    y 0.000000 1.637930 0.000000 
#    z 0.000000 0.000000 1.640930 
# 
# From -- ./inp_files/13213.got.cif
#   From: 2010.05.17/outbox.cif.g08.bks.cpg/sg62_7_cif.got.tgz:13213.got - 2010.06.03 15:25:27.
