data_PCOD9462295
_publ_section_title
;
Structure prediction by ZEFSAII (Michael W. Deem and Ramdas Pophale) SiO2 
 PCOD9462295
Probable space group: P N M A
;
_chemical_formula_sum "Si O2"
_cell_formula_units_Z 64
_cell_length_a 18.300728
_cell_length_b 13.747442
_cell_length_c 10.217170
_cell_angle_alpha 90.000000
_cell_angle_beta 90.000000
_cell_angle_gamma 90.000000
_cell_volume 2570.519376
_symmetry_space_group_name_H-M "P N M A"
_symmetry_group_IT_number 62
_symmetry_cell_setting 'orthorhombic'
loop_
_space_group_symop_operation_xyz
x,y,z
1/2-x,-y,1/2+z
1/2+x,1/2-y,1/2-z
-x,1/2+y,-z
-x,-y,-z
1/2+x,y,1/2-z
1/2-x,1/2+y,1/2+z
x,1/2-y,z
loop_
_atom_site_type_symbol
_atom_site_label
_atom_site_fract_x
_atom_site_fract_y
_atom_site_fract_z
Si Si1 0.656640 0.637653 0.930546
Si Si2 0.634547 0.861852 0.223997
Si Si3 0.813639 0.862041 0.903856
Si Si4 0.778352 0.959297 0.644065
Si Si5 0.026382 0.135626 0.740601
Si Si6 0.469113 0.633203 0.663571
Si Si7 0.114155 0.533162 0.833844
Si Si8 0.584440 0.133913 0.044309
O O1 0.660819 0.750000 0.885371
O O2 0.738812 0.602946 0.970002
O O3 0.625415 0.576931 0.812409
O O4 0.616454 0.640758 0.068298
O O5 0.655203 0.750000 0.260426
O O6 0.556256 0.889741 0.284048
O O7 0.696347 0.945038 0.229024
O O8 0.820709 0.750000 0.943664
O O9 0.790111 0.873155 0.752012
O O10 0.895127 0.903609 0.906013
O O11 0.693788 0.956004 0.603782
O O12 0.841567 0.929701 0.542539
O O13 0.034457 0.250000 0.760726
O O14 0.039795 0.114484 0.587025
O O15 0.088259 0.076691 0.815176
O O16 0.471654 0.750000 0.652804
O O17 0.544246 0.589909 0.611848
O O18 0.457313 0.611346 0.819280
O O19 0.600199 0.250000 0.046543
#
# Coordination Sequence:
#
# PCOD9462295 Si02
#       8
#     8   8   8   8   8   8   8   8
#     4   9  17  29  46  69  92 114 146 188 231 273
#     4  10  20  33  49  68  90 119 155 191 226 267
#     4   8  15  28  45  66  91 117 146 183 228 273
#     4  10  19  29  43  64  93 126 153 179 220 271
#     4  10  20  32  47  68  92 120 154 190 227 266
#     4   9  16  26  43  67  92 118 148 184 230 280
#     4  11  20  28  43  67  97 126 150 180 222 272
#     4   9  17  30  48  70  95 120 148 187 234 276
#
# _framework density 24.897690999999998
#
# number of rings (size 3 to 8) (size 9 to 14) (size 15 to 20)
#    0.000    2.500    0.000    4.500    0.000    5.500 
#    0.000    0.000    0.000    0.750    0.000    0.000 
#    0.000    6.000    0.000    0.000    0.000    0.000 
#
# Total GULP energy -357525.245551 kJ/mol
# GULP energy per Si atom -5586.331962 kJ/mol
# Density = 2.484102 g / cm^3
# Si number density = 24.897691 Si / 1000 Ang^3
#
#
#
# Elastic Constant Matrix: (Units=GPa)
#
#
# Indices 1 2 3 4 5 6 
#
# 1 223.0182 49.8846 15.4472 0.0000 0.0000 0.0000
# 2 49.8846 89.8244 4.6615 0.0000 0.0000 0.0000
# 3 15.4472 4.6615 54.1667 0.0000 0.0000 0.0000
# 4 0.0000 0.0000 0.0000 10.8397 0.0000 0.0000
# 5 0.0000 0.0000 0.0000 0.0000 0.0129 0.0000
# 6 0.0000 0.0000 0.0000 0.0000 0.0000 43.2228
#
#
#
# Elastic Compliance Matrix: (Units=1/GPa)
#
#
# Indices 1 2 3 4 5 6 
#
# 1 0.005202 -0.002824 -0.001240 0.000000 0.000000 0.000000
# 2 -0.002824 0.012716 -0.000289 0.000000 0.000000 0.000000
# 3 -0.001240 -0.000289 0.018840 0.000000 0.000000 0.000000
# 4 0.000000 0.000000 0.000000 0.092253 0.000000 0.000000
# 5 0.000000 0.000000 0.000000 0.000000 77.743510 0.000000
# 6 0.000000 0.000000 0.000000 0.000000 0.000000 0.023136
#
#
# Mechanical properties :
#
#
# Convention : Reuss Voigt Hill
#
# Bulk Modulus (GPa) = 35.64952 56.33290 45.99121
# Shear Modulus (GPa) = 0.06417 30.61614 15.34015
#
# Velocity S-wave (km/s) = 0.16072 3.51048 2.48488
# Velocity P-wave (km/s) = 3.79262 6.25349 5.17156
#
# Compressibility (1/GPa) = 0.02805087
#
# Stress axis : x y z
#
# Youngs Moduli (GPa) = 192.24834 78.63887 53.07822
#
# Poissons Ratio (x) = 0.22211 0.06583
# Poissons Ratio (y) = 0.54298 0.01533
# Poissons Ratio (z) = 0.23845 0.02272
#
# Static dielectric constant tensor:
#      x y z
#    x 2.000290 0.000000 0.000000 
#    y 0.000000 2.011870 0.000000 
#    z 0.000000 0.000000 1.984910 
# 
# From -- ./inp_files/19966.got.cif
#   From: 2010.05.17/outbox.cif.g08.bks.cpg/sg62_10_cif.got.tgz:19966.got - 2010.06.03 15:25:27.
