data_PCOD9462092
_publ_section_title
;
Structure prediction by ZEFSAII (Michael W. Deem and Ramdas Pophale) SiO2 
 PCOD9462092
Probable space group: P N M A
;
_chemical_formula_sum "Si O2"
_cell_formula_units_Z 56
_cell_length_a 14.398282
_cell_length_b 13.494638
_cell_length_c 14.590836
_cell_angle_alpha 90.000000
_cell_angle_beta 90.000000
_cell_angle_gamma 90.000000
_cell_volume 2834.993648
_symmetry_space_group_name_H-M "P N M A"
_symmetry_group_IT_number 62
_symmetry_cell_setting 'orthorhombic'
loop_
_space_group_symop_operation_xyz
x,y,z
1/2-x,-y,1/2+z
1/2+x,1/2-y,1/2-z
-x,1/2+y,-z
-x,-y,-z
1/2+x,y,1/2-z
1/2-x,1/2+y,1/2+z
x,1/2-y,z
loop_
_atom_site_type_symbol
_atom_site_label
_atom_site_fract_x
_atom_site_fract_y
_atom_site_fract_z
Si Si1 0.597177 0.444289 0.403640
Si Si2 0.556104 0.640008 0.921011
Si Si3 0.012129 0.509728 0.278923
Si Si4 0.676851 0.002030 0.672788
Si Si5 0.914168 0.132094 0.014805
Si Si6 0.654734 0.632941 0.114646
Si Si7 0.255301 0.143623 0.186361
O O1 0.555376 0.442928 0.301661
O O2 0.523421 0.391010 0.469237
O O3 0.611305 0.559048 0.431102
O O4 0.691779 0.385193 0.398828
O O5 0.512071 0.750000 0.930097
O O6 0.496818 0.555923 0.871244
O O7 0.640491 0.649550 0.849376
O O8 0.602791 0.612812 0.017727
O O9 0.911649 0.539871 0.233791
O O10 0.082802 0.596299 0.306816
O O11 0.744830 0.080537 0.625027
O O12 0.637006 0.921476 0.600439
O O13 0.744403 0.942346 0.740225
O O14 0.897261 0.250000 0.007612
O O15 0.668111 0.750000 0.120410
O O16 0.226319 0.250000 0.224147
#
# Coordination Sequence:
#
# PCOD9462092 Si02
#       7
#     8   8   8   8   8   8   8
#     4  10  20  35  56  87 116 155 199 241 300 360
#     4   9  20  36  59  86 115 153 197 247 299 354
#     4  10  21  38  60  85 119 154 196 250 292 362
#     4  10  21  38  59  89 119 157 206 251 299 361
#     4  10  21  37  57  84 121 156 197 253 304 354
#     4  11  22  39  60  84 120 162 200 248 309 364
#     4  10  18  33  57  84 115 154 198 246 297 348
#
# _framework density 19.753131
#
# number of rings (size 3 to 8) (size 9 to 14) (size 15 to 20)
#    0.000    2.000    1.429    2.143    0.000    5.143 
#    0.000    7.143    0.000    4.286    0.000    0.000 
#    0.000    0.000    0.000    0.000    0.000    0.000 
#
# Total GULP energy -311904.793684 kJ/mol
# GULP energy per Si atom -5569.728459 kJ/mol
# Density = 1.970817 g / cm^3
# Si number density = 19.753131 Si / 1000 Ang^3
#
#
#
# Elastic Constant Matrix: (Units=GPa)
#
#
# Indices 1 2 3 4 5 6 
#
# 1 45.8206 26.1464 0.3207 0.0000 0.0000 0.0000
# 2 26.1464 93.1618 12.9935 0.0000 0.0000 0.0000
# 3 0.3207 12.9935 40.4670 0.0000 0.0000 0.0000
# 4 0.0000 0.0000 0.0000 18.5966 0.0000 0.0000
# 5 0.0000 0.0000 0.0000 0.0000 16.9452 0.0000
# 6 0.0000 0.0000 0.0000 0.0000 0.0000 19.9229
#
#
#
# Elastic Compliance Matrix: (Units=1/GPa)
#
#
# Indices 1 2 3 4 5 6 
#
# 1 0.026181 -0.007662 0.002253 0.000000 0.000000 0.000000
# 2 -0.007662 0.013480 -0.004267 0.000000 0.000000 0.000000
# 3 0.002253 -0.004267 0.026064 0.000000 0.000000 0.000000
# 4 0.000000 0.000000 0.000000 0.053773 0.000000 0.000000
# 5 0.000000 0.000000 0.000000 0.000000 0.059014 0.000000
# 6 0.000000 0.000000 0.000000 0.000000 0.000000 0.050193
#
#
# Mechanical properties :
#
#
# Convention : Reuss Voigt Hill
#
# Bulk Modulus (GPa) = 21.56535 28.70785 25.13660
# Shear Modulus (GPa) = 18.97426 20.42552 19.69989
#
# Velocity S-wave (km/s) = 3.10267 3.21914 3.16144
# Velocity P-wave (km/s) = 4.87612 5.32748 5.10679
#
# Compressibility (1/GPa) = 0.04637068
#
# Stress axis : x y z
#
# Youngs Moduli (GPa) = 38.19625 74.18637 38.36730
#
# Poissons Ratio (x) = 0.56841 -0.08643
# Poissons Ratio (y) = 0.29266 0.16373
# Poissons Ratio (z) = -0.08604 0.31658
#
# Static dielectric constant tensor:
#      x y z
#    x 1.733330 0.000000 0.000000 
#    y 0.000000 1.727410 0.000000 
#    z 0.000000 0.000000 1.734310 
# 
# From -- ./inp_files/18972.got.cif
#   From: 2010.05.17/outbox.cif.g08.bks.cpg/sg62_10_cif.got.tgz:18972.got - 2010.06.03 15:25:27.
