data_PCOD9462311
_publ_section_title
;
Structure prediction by ZEFSAII (Michael W. Deem and Ramdas Pophale) SiO2 
 PCOD9462311
Probable space group: P N M A
;
_chemical_formula_sum "Si O2"
_cell_formula_units_Z 64
_cell_length_a 21.920577
_cell_length_b 17.679328
_cell_length_c 6.982293
_cell_angle_alpha 90.000000
_cell_angle_beta 90.000000
_cell_angle_gamma 90.000000
_cell_volume 2705.925305
_symmetry_space_group_name_H-M "P N M A"
_symmetry_group_IT_number 62
_symmetry_cell_setting 'orthorhombic'
loop_
_space_group_symop_operation_xyz
x,y,z
1/2-x,-y,1/2+z
1/2+x,1/2-y,1/2-z
-x,1/2+y,-z
-x,-y,-z
1/2+x,y,1/2-z
1/2-x,1/2+y,1/2+z
x,1/2-y,z
loop_
_atom_site_type_symbol
_atom_site_label
_atom_site_fract_x
_atom_site_fract_y
_atom_site_fract_z
Si Si1 0.640431 0.337469 0.419311
Si Si2 0.522733 0.086723 0.295156
Si Si3 0.732406 0.164560 0.922389
Si Si4 0.110740 0.404769 0.684231
Si Si5 0.981308 0.413003 0.751792
Si Si6 0.861607 0.340568 0.847089
Si Si7 0.727170 0.836482 0.863389
Si Si8 0.889069 0.415759 0.256146
O O1 0.648758 0.250000 0.368417
O O2 0.586930 0.370138 0.286637
O O3 0.617986 0.349941 0.633772
O O4 0.708476 0.371875 0.427501
O O5 0.504680 0.089635 0.524509
O O6 0.458237 0.110356 0.201874
O O7 0.535128 0.001002 0.229209
O O8 0.714877 0.250000 0.864784
O O9 0.672336 0.113649 0.929436
O O10 0.791059 0.140189 0.794916
O O11 0.759689 0.168607 0.135078
O O12 0.111984 0.493332 0.740718
O O13 0.040464 0.392332 0.624581
O O14 0.920855 0.363773 0.725695
O O15 0.862506 0.250000 0.877334
O O16 0.874934 0.385837 0.043189
O O17 0.718590 0.750000 0.934024
O O18 0.665221 0.882875 0.884507
#
# Coordination Sequence:
#
# PCOD9462311 Si02
#       8
#     8   8   8   8   8   8   8   8
#     4  10  19  30  47  72  96 117 146 188 235 271
#     4   8  15  27  43  65  92 118 145 185 225 262
#     4   9  18  32  47  64  89 121 154 184 217 266
#     4  10  19  29  47  72  94 117 147 189 232 267
#     4   8  15  27  42  66  95 116 145 186 225 262
#     4   9  16  27  45  66  89 120 155 186 217 262
#     4   9  19  33  47  65  91 122 154 186 220 267
#     4   9  17  29  46  67  92 119 154 188 221 264
#
# _framework density 23.651799
#
# number of rings (size 3 to 8) (size 9 to 14) (size 15 to 20)
#    0.000    3.000    0.000    3.750    0.000    8.500 
#    0.000    0.000    0.000    4.500    0.000    3.500 
#    0.000    0.000    0.000    0.000    0.000    0.000 
#
# Total GULP energy -356994.769760 kJ/mol
# GULP energy per Si atom -5578.043278 kJ/mol
# Density = 2.359797 g / cm^3
# Si number density = 23.651799 Si / 1000 Ang^3
#
#
#
# Elastic Constant Matrix: (Units=GPa)
#
#
# Indices 1 2 3 4 5 6 
#
# 1 240.9168 79.2107 30.9300 0.0000 0.0000 0.0000
# 2 79.2107 50.2636 9.6373 0.0000 0.0000 0.0000
# 3 30.9300 9.6373 43.9322 0.0000 0.0000 0.0000
# 4 0.0000 0.0000 0.0000 9.4086 0.0000 0.0000
# 5 0.0000 0.0000 0.0000 0.0000 45.0096 0.0000
# 6 0.0000 0.0000 0.0000 0.0000 0.0000 37.1162
#
#
#
# Elastic Compliance Matrix: (Units=1/GPa)
#
#
# Indices 1 2 3 4 5 6 
#
# 1 0.009074 -0.013650 -0.003395 0.000000 0.000000 0.000000
# 2 -0.013650 0.041300 0.000550 0.000000 0.000000 0.000000
# 3 -0.003395 0.000550 0.025032 0.000000 0.000000 0.000000
# 4 0.000000 0.000000 0.000000 0.106286 0.000000 0.000000
# 5 0.000000 0.000000 0.000000 0.000000 0.022217 0.000000
# 6 0.000000 0.000000 0.000000 0.000000 0.000000 0.026942
#
#
# Mechanical properties :
#
#
# Convention : Reuss Voigt Hill
#
# Bulk Modulus (GPa) = 23.57493 63.85208 43.71350
# Shear Modulus (GPa) = 17.98693 32.66253 25.32473
#
# Velocity S-wave (km/s) = 2.76069 3.72018 3.27575
# Velocity P-wave (km/s) = 4.48899 6.74598 5.72972
#
# Compressibility (1/GPa) = 0.04241795
#
# Stress axis : x y z
#
# Youngs Moduli (GPa) = 110.19918 24.21291 39.94961
#
# Poissons Ratio (x) = 0.33050 0.13561
# Poissons Ratio (y) = 1.50418 -0.02197
# Poissons Ratio (z) = 0.37407 -0.01332
#
# Static dielectric constant tensor:
#      x y z
#    x 1.995750 0.000000 0.000000 
#    y 0.000000 1.806300 0.000000 
#    z 0.000000 0.000000 2.083320 
# 
# From -- ./inp_files/14967.got.cif
#   From: 2010.05.17/outbox.cif.g08.bks.cpg/sg62_8_cif.got.tgz:14967.got - 2010.06.03 15:25:27.
