data_PCOD9462613
_publ_section_title
;
Structure prediction by ZEFSAII (Michael W. Deem and Ramdas Pophale) SiO2 
 PCOD9462613
Probable space group: P N M A
;
_chemical_formula_sum "Si O2"
_cell_formula_units_Z 48
_cell_length_a 7.577602
_cell_length_b 8.938476
_cell_length_c 31.578133
_cell_angle_alpha 90.000000
_cell_angle_beta 90.000000
_cell_angle_gamma 90.000000
_cell_volume 2138.856850
_symmetry_space_group_name_H-M "P N M A"
_symmetry_group_IT_number 62
_symmetry_cell_setting 'orthorhombic'
loop_
_space_group_symop_operation_xyz
x,y,z
1/2-x,-y,1/2+z
1/2+x,1/2-y,1/2-z
-x,1/2+y,-z
-x,-y,-z
1/2+x,y,1/2-z
1/2-x,1/2+y,1/2+z
x,1/2-y,z
loop_
_atom_site_type_symbol
_atom_site_label
_atom_site_fract_x
_atom_site_fract_y
_atom_site_fract_z
Si Si1 0.146290 0.930573 0.388478
Si Si2 0.239025 0.920988 0.477091
Si Si3 0.644943 0.580529 0.441417
Si Si4 0.859567 0.426930 0.222958
Si Si5 0.996607 0.424689 0.697275
Si Si6 0.017104 0.425987 0.138720
O O1 0.181491 0.750000 0.387537
O O2 0.120155 0.972270 0.437452
O O3 0.999740 0.958527 0.352801
O O4 0.320416 0.019432 0.374058
O O5 0.195107 0.750000 0.486974
O O6 0.440553 0.923331 0.458353
O O7 0.244853 0.011965 0.520139
O O8 0.699786 0.750000 0.434948
O O9 0.641033 0.502141 0.395925
O O10 0.811794 0.250000 0.218515
O O11 0.705863 0.540555 0.209821
O O12 0.904769 0.465648 0.270956
O O13 0.018799 0.456161 0.189288
O O14 0.040550 0.250000 0.704162
O O15 0.032858 0.250000 0.132943
#
# Coordination Sequence:
#
# PCOD9462613 Si02
#       6
#     8   8   8   8   8   8
#     4   8  15  26  39  56  79 108 142 179 218 261
#     4   8  13  21  32  48  73 104 136 170 210 257
#     4   9  15  21  31  49  74 104 138 174 211 255
#     4  10  20  33  48  68  94 123 155 192 234 277
#     4  10  19  32  50  70  92 121 157 194 232 274
#     4   9  16  25  38  55  78 110 144 177 217 264
#
# _framework density 22.441894000000001
#
# number of rings (size 3 to 8) (size 9 to 14) (size 15 to 20)
#    0.000    3.000    0.000    3.000    0.000    6.667 
#    0.000    0.000    0.000    0.000    0.000    0.000 
#    0.000    1.333    0.000    4.000    0.000   14.333 
#
# Total GULP energy -267641.635802 kJ/mol
# GULP energy per Si atom -5575.867413 kJ/mol
# Density = 2.239082 g / cm^3
# Si number density = 22.441894 Si / 1000 Ang^3
#
#
#
# Elastic Constant Matrix: (Units=GPa)
#
#
# Indices 1 2 3 4 5 6 
#
# 1 7.9108 20.8763 104.0742 0.0000 0.0000 0.0000
# 2 20.8763 58.9047 28.8275 0.0000 0.0000 0.0000
# 3 104.0742 28.8275 -1.1988 0.0000 0.0000 0.0000
# 4 0.0000 0.0000 0.0000 37.6940 0.0000 0.0000
# 5 0.0000 0.0000 0.0000 0.0000 18.6017 0.0000
# 6 0.0000 0.0000 0.0000 0.0000 0.0000 -0.6329
#
#
#
# Elastic Compliance Matrix: (Units=1/GPa)
#
#
# Indices 1 2 3 4 5 6 
#
# 1 0.001736 -0.005825 0.010645 0.000000 0.000000 0.000000
# 2 -0.005825 0.020873 -0.003744 0.000000 0.000000 0.000000
# 3 0.010645 -0.003744 -0.000058 0.000000 0.000000 0.000000
# 4 0.000000 0.000000 0.000000 0.026529 0.000000 0.000000
# 5 0.000000 0.000000 0.000000 0.000000 0.053759 0.000000
# 6 0.000000 0.000000 0.000000 0.000000 0.000000 -1.580058
#
#
# Mechanical properties :
#
#
# Convention : Reuss Voigt Hill
#
# Bulk Modulus (GPa) = 40.48075 41.46365 40.97220
# Shear Modulus (GPa) = -3.39873 5.25513 0.92820
#
# Velocity S-wave (km/s) = -1.23197 1.53191 0.64382
# Velocity P-wave (km/s) = 4.00668 4.65243 4.34158
#
# Compressibility (1/GPa) = 0.02470310
#
# Stress axis : x y z
#
# Youngs Moduli (GPa) = 576.02513 47.90802 -17216.60366
#
# Poissons Ratio (x) = 0.27906 183.27025
# Poissons Ratio (y) = 3.35525 -64.46295
# Poissons Ratio (z) = -6.13177 0.17938
#
# Static dielectric constant tensor:
#      x y z
#    x 1.923520 0.000000 0.000000 
#    y 0.000000 1.739940 0.000000 
#    z 0.000000 0.000000 1.871340 
# 
# From -- ./inp_files/32341.got.cif
#   From: 2010.05.17/outbox.cif.g08.bks.cpg/sg62_17_cif.got.tgz:32341.got - 2010.06.03 15:25:27.
