data_PCOD9462059
_publ_section_title
;
Structure prediction by ZEFSAII (Michael W. Deem and Ramdas Pophale) SiO2 
 PCOD9462059
Probable space group: P N M A
;
_chemical_formula_sum "Si O2"
_cell_formula_units_Z 64
_cell_length_a 12.485556
_cell_length_b 13.138092
_cell_length_c 24.072242
_cell_angle_alpha 90.000000
_cell_angle_beta 90.000000
_cell_angle_gamma 90.000000
_cell_volume 3948.723518
_symmetry_space_group_name_H-M "P N M A"
_symmetry_group_IT_number 62
_symmetry_cell_setting 'orthorhombic'
loop_
_space_group_symop_operation_xyz
x,y,z
1/2-x,-y,1/2+z
1/2+x,1/2-y,1/2-z
-x,1/2+y,-z
-x,-y,-z
1/2+x,y,1/2-z
1/2-x,1/2+y,1/2+z
x,1/2-y,z
loop_
_atom_site_type_symbol
_atom_site_label
_atom_site_fract_x
_atom_site_fract_y
_atom_site_fract_z
Si Si1 0.061084 0.459881 0.054087
Si Si2 0.228477 0.003737 0.505170
Si Si3 0.377627 0.130815 0.914777
Si Si4 0.623822 0.129484 0.895330
Si Si5 0.257850 0.369618 0.715598
Si Si6 0.849744 0.367736 0.090341
Si Si7 0.037710 0.866972 0.144113
Si Si8 0.197150 0.050569 0.831709
O O1 0.179207 0.433176 0.032933
O O2 0.977848 0.380512 0.080427
O O3 0.070836 0.554253 0.096399
O O4 0.000000 0.500000 0.000000
O O5 0.148274 0.936852 0.468569
O O6 0.171939 0.066025 0.553851
O O7 0.288428 0.080465 0.462081
O O8 0.370163 0.250000 0.928242
O O9 0.496810 0.110838 0.892250
O O10 0.288209 0.103044 0.869262
O O11 0.640874 0.250000 0.905710
O O12 0.683933 0.106386 0.837663
O O13 0.240344 0.250000 0.730338
O O14 0.380176 0.379926 0.695008
O O15 0.230503 0.438542 0.768030
O O16 0.821615 0.250000 0.095859
O O17 0.819335 0.437781 0.143101
O O18 0.047455 0.750000 0.125025
O O19 0.915919 0.892078 0.159749
#
# Coordination Sequence:
#
# PCOD9462059 Si02
#       8
#     8   8   8   8   8   8   8   8
#     4   9  18  29  47  77 106 132 167 210 258 307
#     4  10  18  33  52  77 106 137 173 215 262 310
#     4  10  21  34  50  75 107 140 173 212 260 309
#     4  10  20  33  51  77 106 138 175 211 254 314
#     4  10  20  32  52  78 102 134 169 211 263 312
#     4   9  19  34  54  76 101 140 182 218 257 306
#     4  10  19  32  51  76 106 135 167 210 260 316
#     4  10  21  35  52  77 106 136 174 217 261 311
#
# _framework density 16.207768999999999
#
# number of rings (size 3 to 8) (size 9 to 14) (size 15 to 20)
#    0.000    2.250    1.250    2.625    1.750    2.500 
#    0.000    0.000    0.000    3.750    0.000    0.000 
#    0.000    0.000    0.000    0.000    0.000    0.000 
#
# Total GULP energy -356767.363965 kJ/mol
# GULP energy per Si atom -5574.490062 kJ/mol
# Density = 1.617088 g / cm^3
# Si number density = 16.207769 Si / 1000 Ang^3
#
#
#
# Elastic Constant Matrix: (Units=GPa)
#
#
# Indices 1 2 3 4 5 6 
#
# 1 95.9757 23.2367 39.2216 0.0000 0.0000 0.0000
# 2 23.2367 69.6503 39.7094 0.0000 0.0000 0.0000
# 3 39.2216 39.7094 104.3177 0.0000 0.0000 0.0000
# 4 0.0000 0.0000 0.0000 12.9128 0.0000 0.0000
# 5 0.0000 0.0000 0.0000 0.0000 16.6385 0.0000
# 6 0.0000 0.0000 0.0000 0.0000 0.0000 17.1100
#
#
#
# Elastic Compliance Matrix: (Units=1/GPa)
#
#
# Indices 1 2 3 4 5 6 
#
# 1 0.012506 -0.001905 -0.003977 0.000000 0.000000 0.000000
# 2 -0.001905 0.018627 -0.006374 0.000000 0.000000 0.000000
# 3 -0.003977 -0.006374 0.013508 0.000000 0.000000 0.000000
# 4 0.000000 0.000000 0.000000 0.077443 0.000000 0.000000
# 5 0.000000 0.000000 0.000000 0.000000 0.060101 0.000000
# 6 0.000000 0.000000 0.000000 0.000000 0.000000 0.058445
#
#
# Mechanical properties :
#
#
# Convention : Reuss Voigt Hill
#
# Bulk Modulus (GPa) = 49.68087 52.69770 51.18928
# Shear Modulus (GPa) = 18.39239 20.51734 19.45486
#
# Velocity S-wave (km/s) = 3.37232 3.56180 3.46835
# Velocity P-wave (km/s) = 6.77366 7.03560 6.90587
#
# Compressibility (1/GPa) = 0.02012847
#
# Stress axis : x y z
#
# Youngs Moduli (GPa) = 79.96381 53.68509 74.03147
#
# Poissons Ratio (x) = 0.10226 0.29441
# Poissons Ratio (y) = 0.15232 0.47190
# Poissons Ratio (z) = 0.31800 0.34221
#
# Static dielectric constant tensor:
#      x y z
#    x 1.556690 0.000000 0.000000 
#    y 0.000000 1.521560 0.000000 
#    z 0.000000 0.000000 1.518780 
# 
# From -- ./inp_files/29493.got.cif
#   From: 2010.05.17/outbox.cif.g08.bks.cpg/sg62_15_cif.got.tgz:29493.got - 2010.06.03 15:25:27.
