data_PCOD9462649
_publ_section_title
;
Structure prediction by ZEFSAII (Michael W. Deem and Ramdas Pophale) SiO2 
 PCOD9462649
Probable space group: P N M A
;
_chemical_formula_sum "Si O2"
_cell_formula_units_Z 56
_cell_length_a 19.359930
_cell_length_b 9.265128
_cell_length_c 18.107486
_cell_angle_alpha 90.000000
_cell_angle_beta 90.000000
_cell_angle_gamma 90.000000
_cell_volume 3247.980135
_symmetry_space_group_name_H-M "P N M A"
_symmetry_group_IT_number 62
_symmetry_cell_setting 'orthorhombic'
loop_
_space_group_symop_operation_xyz
x,y,z
1/2-x,-y,1/2+z
1/2+x,1/2-y,1/2-z
-x,1/2+y,-z
-x,-y,-z
1/2+x,y,1/2-z
1/2-x,1/2+y,1/2+z
x,1/2-y,z
loop_
_atom_site_type_symbol
_atom_site_label
_atom_site_fract_x
_atom_site_fract_y
_atom_site_fract_z
Si Si1 0.647489 0.078084 0.551493
Si Si2 0.741159 0.584158 0.341742
Si Si3 0.390914 0.578808 0.619270
Si Si4 0.045427 0.923928 0.834524
Si Si5 0.391313 0.576218 0.196259
Si Si6 0.431224 0.577126 0.026615
Si Si7 0.281841 0.917241 0.983982
O O1 0.645897 0.250000 0.564508
O O2 0.620672 0.049639 0.467894
O O3 0.598265 0.994273 0.607441
O O4 0.725416 0.016779 0.555028
O O5 0.728136 0.750000 0.321632
O O6 0.671173 0.495241 0.336290
O O7 0.810071 0.534302 0.299699
O O8 0.762706 0.581760 0.428557
O O9 0.385171 0.750000 0.629059
O O10 0.467240 0.534233 0.643705
O O11 0.050610 0.750000 0.835760
O O12 0.065316 0.988867 0.755487
O O13 0.395302 0.750000 0.208156
O O14 0.417062 0.547366 0.113089
O O15 0.437612 0.750000 0.019078
O O16 0.500000 0.500000 0.000000
O O17 0.361671 0.534933 0.981858
O O18 0.276201 0.750000 0.959563
#
# Coordination Sequence:
#
# PCOD9462649 Si02
#       7
#     8   8   8   8   8   8   8
#     4  10  19  32  51  74 100 133 170 210 251 297
#     4   8  15  30  53  73  91 121 161 201 243 291
#     4   9  19  33  50  75 103 130 168 210 248 294
#     4  11  22  34  49  73 105 138 168 205 252 302
#     4   9  19  36  53  73 101 133 169 207 250 303
#     4   9  18  33  55  79 103 131 167 213 260 304
#     4   8  15  30  50  73  99 126 158 200 247 295
#
# _framework density 17.241485999999998
#
# number of rings (size 3 to 8) (size 9 to 14) (size 15 to 20)
#    0.000    2.857    0.000    3.000    0.000    3.429 
#    0.000    4.286    0.000    3.429    0.000    0.000 
#    0.000    0.000    0.000    0.000    0.000    0.000 
#
# Total GULP energy -312098.853547 kJ/mol
# GULP energy per Si atom -5573.193813 kJ/mol
# Density = 1.720224 g / cm^3
# Si number density = 17.241486 Si / 1000 Ang^3
#
#
#
# Elastic Constant Matrix: (Units=GPa)
#
#
# Indices 1 2 3 4 5 6 
#
# 1 187.5274 69.1263 59.3544 0.0000 0.0000 0.0000
# 2 69.1263 48.7582 38.4307 0.0000 0.0000 0.0000
# 3 59.3544 38.4307 38.5739 0.0000 0.0000 0.0000
# 4 0.0000 0.0000 0.0000 25.7768 0.0000 0.0000
# 5 0.0000 0.0000 0.0000 0.0000 10.2375 0.0000
# 6 0.0000 0.0000 0.0000 0.0000 0.0000 36.8467
#
#
#
# Elastic Compliance Matrix: (Units=1/GPa)
#
#
# Indices 1 2 3 4 5 6 
#
# 1 0.011539 -0.011012 -0.006784 0.000000 0.000000 0.000000
# 2 -0.011012 0.106019 -0.088680 0.000000 0.000000 0.000000
# 3 -0.006784 -0.088680 0.124714 0.000000 0.000000 0.000000
# 4 0.000000 0.000000 0.000000 0.038795 0.000000 0.000000
# 5 0.000000 0.000000 0.000000 0.000000 0.097680 0.000000
# 6 0.000000 0.000000 0.000000 0.000000 0.000000 0.027139
#
#
# Mechanical properties :
#
#
# Convention : Reuss Voigt Hill
#
# Bulk Modulus (GPa) = 34.10792 67.63137 50.86964
# Shear Modulus (GPa) = 7.95402 21.76874 14.86138
#
# Velocity S-wave (km/s) = 2.15019 3.55713 2.93909
# Velocity P-wave (km/s) = 5.09802 7.49547 6.40983
#
# Compressibility (1/GPa) = 0.02931870
#
# Stress axis : x y z
#
# Youngs Moduli (GPa) = 86.66143 9.43229 8.01833
#
# Poissons Ratio (x) = 0.10387 0.05440
# Poissons Ratio (y) = 0.95435 0.71107
# Poissons Ratio (z) = 0.58792 0.83646
#
# Static dielectric constant tensor:
#      x y z
#    x 1.588140 0.000000 0.000000 
#    y 0.000000 1.572420 0.000000 
#    z 0.000000 0.000000 1.580320 
# 
# From -- ./inp_files/27563.got.cif
#   From: 2010.05.17/outbox.cif.g08.bks.cpg/sg62_14_cif.got.tgz:27563.got - 2010.06.03 15:25:27.
