data_PCOD9462439
_publ_section_title
;
Structure prediction by ZEFSAII (Michael W. Deem and Ramdas Pophale) SiO2 
 PCOD9462439
Probable space group: P N M A
;
_chemical_formula_sum "Si O2"
_cell_formula_units_Z 56
_cell_length_a 19.618129
_cell_length_b 7.750345
_cell_length_c 18.630157
_cell_angle_alpha 90.000000
_cell_angle_beta 90.000000
_cell_angle_gamma 90.000000
_cell_volume 2832.664474
_symmetry_space_group_name_H-M "P N M A"
_symmetry_group_IT_number 62
_symmetry_cell_setting 'orthorhombic'
loop_
_space_group_symop_operation_xyz
x,y,z
1/2-x,-y,1/2+z
1/2+x,1/2-y,1/2-z
-x,1/2+y,-z
-x,-y,-z
1/2+x,y,1/2-z
1/2-x,1/2+y,1/2+z
x,1/2-y,z
loop_
_atom_site_type_symbol
_atom_site_label
_atom_site_fract_x
_atom_site_fract_y
_atom_site_fract_z
Si Si1 0.464362 0.049843 0.824781
Si Si2 0.897768 0.960686 0.394902
Si Si3 0.214442 0.050194 0.977443
Si Si4 0.887279 0.454974 0.809844
Si Si5 0.074583 0.043897 0.028212
Si Si6 0.138722 0.451245 0.443833
Si Si7 0.247651 0.039999 0.640029
O O1 0.481803 0.250000 0.810094
O O2 0.532181 0.974349 0.861095
O O3 0.436293 0.970336 0.751032
O O4 0.403130 0.043012 0.881811
O O5 0.899572 0.750000 0.398218
O O6 0.884803 0.016644 0.477285
O O7 0.830855 0.008126 0.348612
O O8 0.213260 0.250000 0.955901
O O9 0.279407 0.967928 0.938472
O O10 0.137103 0.978754 0.977669
O O11 0.233331 0.031712 0.061646
O O12 0.883531 0.250000 0.796475
O O13 0.914528 0.479719 0.890504
O O14 0.808823 0.518709 0.808660
O O15 0.081974 0.250000 0.030252
O O16 0.000000 0.000000 0.000000
O O17 0.121114 0.250000 0.439767
O O18 0.250294 0.250000 0.635374
#
# Coordination Sequence:
#
# PCOD9462439 Si02
#       7
#     8   8   8   8   8   8   8
#     4  10  19  31  47  70 101 134 167 207 252 300
#     4   8  15  28  47  69  93 125 167 207 243 285
#     4   9  17  30  49  73  95 119 155 198 240 287
#     4   9  18  32  50  71  98 132 168 205 252 302
#     4  10  20  34  55  78 100 127 163 208 254 299
#     4  10  19  31  48  70  97 132 168 205 249 296
#     4   8  14  28  48  67  88 119 158 198 240 289
#
# _framework density 19.769375
#
# number of rings (size 3 to 8) (size 9 to 14) (size 15 to 20)
#    0.000    2.857    0.000    2.571    0.000    2.286 
#    0.000    4.286    0.000    5.143    0.000    0.000 
#    0.000    0.000    0.000    0.000    0.000    0.000 
#
# Total GULP energy -311865.619716 kJ/mol
# GULP energy per Si atom -5569.028923 kJ/mol
# Density = 1.972438 g / cm^3
# Si number density = 19.769375 Si / 1000 Ang^3
#
#
#
# Elastic Constant Matrix: (Units=GPa)
#
#
# Indices 1 2 3 4 5 6 
#
# 1 148.0215 -12.9627 42.5780 0.0000 0.0000 0.0000
# 2 -12.9627 26.5641 -8.4086 0.0000 0.0000 0.0000
# 3 42.5780 -8.4086 49.5135 0.0000 0.0000 0.0000
# 4 0.0000 0.0000 0.0000 7.4907 0.0000 0.0000
# 5 0.0000 0.0000 0.0000 0.0000 17.2320 0.0000
# 6 0.0000 0.0000 0.0000 0.0000 0.0000 11.9479
#
#
#
# Elastic Compliance Matrix: (Units=1/GPa)
#
#
# Indices 1 2 3 4 5 6 
#
# 1 0.009083 0.002071 -0.007459 0.000000 0.000000 0.000000
# 2 0.002071 0.040256 0.005055 0.000000 0.000000 0.000000
# 3 -0.007459 0.005055 0.027469 0.000000 0.000000 0.000000
# 4 0.000000 0.000000 0.000000 0.133499 0.000000 0.000000
# 5 0.000000 0.000000 0.000000 0.000000 0.058032 0.000000
# 6 0.000000 0.000000 0.000000 0.000000 0.000000 0.083697
#
#
# Mechanical properties :
#
#
# Convention : Reuss Voigt Hill
#
# Bulk Modulus (GPa) = 13.13320 29.61249 21.37284
# Shear Modulus (GPa) = 13.22472 20.86028 17.04250
#
# Velocity S-wave (km/s) = 2.58921 3.25188 2.93928
# Velocity P-wave (km/s) = 3.94922 5.39547 4.72797
#
# Compressibility (1/GPa) = 0.07614290
#
# Stress axis : x y z
#
# Youngs Moduli (GPa) = 110.10050 24.84124 36.40482
#
# Poissons Ratio (x) = -0.05145 0.27153
# Poissons Ratio (y) = -0.22804 -0.18404
# Poissons Ratio (z) = 0.82120 -0.12558
#
# Static dielectric constant tensor:
#      x y z
#    x 1.756870 0.000000 0.000000 
#    y 0.000000 1.711200 0.000000 
#    z 0.000000 0.000000 1.673370 
# 
# From -- ./inp_files/27576.got.cif
#   From: 2010.05.17/outbox.cif.g08.bks.cpg/sg62_14_cif.got.tgz:27576.got - 2010.06.03 15:25:27.
