data_PCOD9462122
_publ_section_title
;
Structure prediction by ZEFSAII (Michael W. Deem and Ramdas Pophale) SiO2 
 PCOD9462122
Probable space group: P N M A
;
_chemical_formula_sum "Si O2"
_cell_formula_units_Z 48
_cell_length_a 14.911910
_cell_length_b 17.011662
_cell_length_c 7.454853
_cell_angle_alpha 90.000000
_cell_angle_beta 90.000000
_cell_angle_gamma 90.000000
_cell_volume 1891.120068
_symmetry_space_group_name_H-M "P N M A"
_symmetry_group_IT_number 62
_symmetry_cell_setting 'orthorhombic'
loop_
_space_group_symop_operation_xyz
x,y,z
1/2-x,-y,1/2+z
1/2+x,1/2-y,1/2-z
-x,1/2+y,-z
-x,-y,-z
1/2+x,y,1/2-z
1/2-x,1/2+y,1/2+z
x,1/2-y,z
loop_
_atom_site_type_symbol
_atom_site_label
_atom_site_fract_x
_atom_site_fract_y
_atom_site_fract_z
Si Si1 0.554008 0.919837 0.015392
Si Si2 0.732708 0.916481 0.768996
Si Si3 0.192512 0.417053 0.867921
Si Si4 0.300214 0.750000 0.365346
Si Si5 0.039081 0.750000 0.511438
Si Si6 0.717267 0.750000 0.749021
Si Si7 0.987768 0.250000 0.893747
Si Si8 0.008209 0.580722 0.107872
O O1 0.500497 0.838455 0.969208
O O2 0.576605 0.920580 0.227296
O O3 0.641967 0.918681 0.890980
O O4 0.500000 0.000000 0.000000
O O5 0.730844 0.834857 0.658910
O O6 0.734727 0.998676 0.669699
O O7 0.811095 0.912668 0.915539
O O8 0.234958 0.334778 0.802598
O O9 0.090471 0.415451 0.802692
O O10 0.283158 0.750000 0.579152
O O11 0.407070 0.750000 0.339816
O O12 0.121963 0.750000 0.648613
O O13 0.063324 0.750000 0.297861
O O14 0.974349 0.165201 0.987759
O O15 0.000000 0.500000 0.000000
#
# Coordination Sequence:
#
# PCOD9462122 Si02
#       8
#     8   8   8   4   4   4   4   8
#     4  10  18  34  53  76 101 132 169 210 250 300
#     4  10  20  34  54  76 103 135 172 209 255 304
#     4  10  20  35  54  78 101 136 172 212 253 302
#     4   8  16  32  53  69  97 135 176 201 239 305
#     4   8  16  28  51  72  95 131 169 199 243 303
#     4   8  16  32  50  70  99 137 165 199 255 312
#     4   8  16  32  50  71  97 135 170 205 243 304
#     4  10  20  34  54  76 104 133 172 212 255 299
#
# _framework density 25.381784
#
# number of rings (size 3 to 8) (size 9 to 14) (size 15 to 20)
#    0.000    2.667    1.667    0.000    2.333    0.000 
#    0.000    2.500    0.000    0.000    0.000    0.000 
#    0.000    0.000    0.000    0.000    0.000    0.000 
#
# Total GULP energy -267254.645374 kJ/mol
# GULP energy per Si atom -5567.805112 kJ/mol
# Density = 2.532401 g / cm^3
# Si number density = 25.381784 Si / 1000 Ang^3
#
#
#
# Elastic Constant Matrix: (Units=GPa)
#
#
# Indices 1 2 3 4 5 6 
#
# 1 41.0915 14.9970 -7.2910 0.0000 0.0000 0.0000
# 2 14.9970 344.2823 39.7236 0.0000 0.0000 0.0000
# 3 -7.2910 39.7236 32.1632 0.0000 0.0000 0.0000
# 4 0.0000 0.0000 0.0000 30.7118 0.0000 0.0000
# 5 0.0000 0.0000 0.0000 0.0000 21.8699 0.0000
# 6 0.0000 0.0000 0.0000 0.0000 0.0000 25.3442
#
#
#
# Elastic Compliance Matrix: (Units=1/GPa)
#
#
# Indices 1 2 3 4 5 6 
#
# 1 0.026676 -0.002169 0.008726 0.000000 0.000000 0.000000
# 2 -0.002169 0.003564 -0.004893 0.000000 0.000000 0.000000
# 3 0.008726 -0.004893 0.039113 0.000000 0.000000 0.000000
# 4 0.000000 0.000000 0.000000 0.032561 0.000000 0.000000
# 5 0.000000 0.000000 0.000000 0.000000 0.045725 0.000000
# 6 0.000000 0.000000 0.000000 0.000000 0.000000 0.039457
#
#
# Mechanical properties :
#
#
# Convention : Reuss Voigt Hill
#
# Bulk Modulus (GPa) = 13.75900 56.93291 35.34596
# Shear Modulus (GPa) = 24.03927 40.25900 32.14914
#
# Velocity S-wave (km/s) = 3.08085 3.98696 3.56282
# Velocity P-wave (km/s) = 4.25301 6.60861 5.55706
#
# Compressibility (1/GPa) = 0.07267967
#
# Stress axis : x y z
#
# Youngs Moduli (GPa) = 37.48736 280.61385 25.56725
#
# Poissons Ratio (x) = 0.60859 -0.22309
# Poissons Ratio (y) = 0.08130 0.12510
# Poissons Ratio (z) = -0.32710 1.37302
#
# Static dielectric constant tensor:
#      x y z
#    x 2.041020 0.000000 0.000000 
#    y 0.000000 2.111660 0.000000 
#    z 0.000000 0.000000 2.048310 
# 
# From -- ./inp_files/7708.got.cif
#   From: 2010.05.17/outbox.cif.g08.bks.cpg/sg62_4_cif.got.tgz:7708.got - 2010.06.03 15:25:27.
