data_PCOD9462867
_publ_section_title
;
Structure prediction by ZEFSAII (Michael W. Deem and Ramdas Pophale) SiO2 
 PCOD9462867
Probable space group: P N M A
;
_chemical_formula_sum "Si O2"
_cell_formula_units_Z 48
_cell_length_a 32.518165
_cell_length_b 8.984530
_cell_length_c 9.496602
_cell_angle_alpha 90.000000
_cell_angle_beta 90.000000
_cell_angle_gamma 90.000000
_cell_volume 2774.531314
_symmetry_space_group_name_H-M "P N M A"
_symmetry_group_IT_number 62
_symmetry_cell_setting 'orthorhombic'
loop_
_space_group_symop_operation_xyz
x,y,z
1/2-x,-y,1/2+z
1/2+x,1/2-y,1/2-z
-x,1/2+y,-z
-x,-y,-z
1/2+x,y,1/2-z
1/2-x,1/2+y,1/2+z
x,1/2-y,z
loop_
_atom_site_type_symbol
_atom_site_label
_atom_site_fract_x
_atom_site_fract_y
_atom_site_fract_z
Si Si1 0.465450 0.427527 0.096424
Si Si2 0.874573 0.073014 0.391881
Si Si3 0.464285 0.570674 0.407022
Si Si4 0.372895 0.926397 0.413758
Si Si5 0.715259 0.573005 0.913856
Si Si6 0.710704 0.926829 0.580442
O O1 0.471534 0.250000 0.107502
O O2 0.418858 0.452603 0.038292
O O3 0.466909 0.500675 0.251077
O O4 0.500000 0.500000 0.000000
O O5 0.872865 0.250000 0.354354
O O6 0.831324 0.039814 0.466754
O O7 0.874546 0.978626 0.248880
O O8 0.500000 0.500000 0.500000
O O9 0.467890 0.750000 0.398968
O O10 0.418620 0.535716 0.468386
O O11 0.367516 0.750000 0.422656
O O12 0.332416 0.005160 0.473344
O O13 0.722090 0.750000 0.927932
O O14 0.715607 0.536363 0.746927
O O15 0.750573 0.488220 0.995915
O O16 0.708462 0.750000 0.569540
#
# Coordination Sequence:
#
# PCOD9462867 Si02
#       6
#     8   8   8   8   8   8
#     4  10  19  33  53  76 103 135 170 208 250 297
#     4   8  16  31  50  71  97 130 166 202 242 292
#     4  10  20  34  53  77 102 131 168 208 252 300
#     4   9  17  30  50  73  97 128 165 202 241 291
#     4   9  18  33  51  72  98 127 163 205 244 288
#     4  10  20  33  51  75 100 129 164 201 245 294
#
# _framework density 17.300219999999999
#
# number of rings (size 3 to 8) (size 9 to 14) (size 15 to 20)
#    0.000    2.667    0.000    3.000    0.000    6.000 
#    0.000    1.667    0.000    4.000    0.000    0.000 
#    0.000    0.000    0.000    0.000    0.000    0.000 
#
# Total GULP energy -267327.596985 kJ/mol
# GULP energy per Si atom -5569.324937 kJ/mol
# Density = 1.726084 g / cm^3
# Si number density = 17.300220 Si / 1000 Ang^3
#
#
#
# Elastic Constant Matrix: (Units=GPa)
#
#
# Indices 1 2 3 4 5 6 
#
# 1 215.8862 82.4719 62.9447 0.0000 0.0000 0.0000
# 2 82.4719 62.1666 30.0747 0.0000 0.0000 0.0000
# 3 62.9447 30.0747 35.7003 0.0000 0.0000 0.0000
# 4 0.0000 0.0000 0.0000 25.6257 0.0000 0.0000
# 5 0.0000 0.0000 0.0000 0.0000 31.4096 0.0000
# 6 0.0000 0.0000 0.0000 0.0000 0.0000 31.8922
#
#
#
# Elastic Compliance Matrix: (Units=1/GPa)
#
#
# Indices 1 2 3 4 5 6 
#
# 1 0.012290 -0.009826 -0.013392 0.000000 0.000000 0.000000
# 2 -0.009826 0.035007 -0.012166 0.000000 0.000000 0.000000
# 3 -0.013392 -0.012166 0.061872 0.000000 0.000000 0.000000
# 4 0.000000 0.000000 0.000000 0.039023 0.000000 0.000000
# 5 0.000000 0.000000 0.000000 0.000000 0.031837 0.000000
# 6 0.000000 0.000000 0.000000 0.000000 0.000000 0.031356
#
#
# Mechanical properties :
#
#
# Convention : Reuss Voigt Hill
#
# Bulk Modulus (GPa) = 26.04075 73.85951 49.95013
# Shear Modulus (GPa) = 16.95179 27.00295 21.97737
#
# Velocity S-wave (km/s) = 3.13367 3.95504 3.56807
# Velocity P-wave (km/s) = 5.30831 7.97759 6.77569
#
# Compressibility (1/GPa) = 0.03840135
#
# Stress axis : x y z
#
# Youngs Moduli (GPa) = 81.36390 28.56582 16.16240
#
# Poissons Ratio (x) = 0.28069 0.21645
# Poissons Ratio (y) = 0.79949 0.19663
# Poissons Ratio (z) = 1.08964 0.34752
#
# Static dielectric constant tensor:
#      x y z
#    x 1.635620 0.000000 0.000000 
#    y 0.000000 1.575390 0.000000 
#    z 0.000000 0.000000 1.558930 
# 
# From -- ./inp_files/10142.got.cif
#   From: 2010.05.17/outbox.cif.g08.bks.cpg/sg62_6_cif.got.tgz:10142.got - 2010.06.03 15:25:27.
