data_PCOD9462690
_publ_section_title
;
Structure prediction by ZEFSAII (Michael W. Deem and Ramdas Pophale) SiO2 
 PCOD9462690
Probable space group: P N M A
;
_chemical_formula_sum "Si O2"
_cell_formula_units_Z 48
_cell_length_a 17.083895
_cell_length_b 9.294773
_cell_length_c 16.432127
_cell_angle_alpha 90.000000
_cell_angle_beta 90.000000
_cell_angle_gamma 90.000000
_cell_volume 2609.272662
_symmetry_space_group_name_H-M "P N M A"
_symmetry_group_IT_number 62
_symmetry_cell_setting 'orthorhombic'
loop_
_space_group_symop_operation_xyz
x,y,z
1/2-x,-y,1/2+z
1/2+x,1/2-y,1/2-z
-x,1/2+y,-z
-x,-y,-z
1/2+x,y,1/2-z
1/2-x,1/2+y,1/2+z
x,1/2-y,z
loop_
_atom_site_type_symbol
_atom_site_label
_atom_site_fract_x
_atom_site_fract_y
_atom_site_fract_z
Si Si1 0.233452 0.078986 0.899639
Si Si2 0.090768 0.918278 0.417742
Si Si3 0.933047 0.082401 0.390640
Si Si4 0.990527 0.584476 0.873263
Si Si5 0.377864 0.084785 0.516741
Si Si6 0.107384 0.079482 0.759975
O O1 0.229359 0.250000 0.918241
O O2 0.323765 0.042471 0.885285
O O3 0.179955 0.053168 0.820597
O O4 0.195449 0.991632 0.974017
O O5 0.074111 0.750000 0.399059
O O6 0.093771 0.931373 0.515934
O O7 0.020390 0.016871 0.387609
O O8 0.932657 0.250000 0.368760
O O9 0.881949 0.992187 0.327476
O O10 0.975349 0.750000 0.850701
O O11 0.032342 0.495452 0.802131
O O12 0.914592 0.505252 0.909230
O O13 0.054425 0.586127 0.946865
O O14 0.361934 0.250000 0.539064
O O15 0.095466 0.250000 0.753818
#
# Coordination Sequence:
#
# PCOD9462690 Si02
#       6
#     8   8   8   8   8   8
#     4   9  18  33  53  76 103 137 173 213 261 308
#     4   9  19  37  58  77 100 134 176 217 256 303
#     4  10  20  35  56  79 102 132 171 213 258 307
#     4   9  16  27  44  67  98 135 173 208 246 299
#     4   9  16  26  43  69 100 134 170 208 251 302
#     4  10  19  32  52  77 105 135 169 211 260 311
#
# _framework density 18.395931000000001
#
# number of rings (size 3 to 8) (size 9 to 14) (size 15 to 20)
#    0.000    2.667    0.000    2.000    0.000    6.000 
#    0.000    1.667    0.000    4.000    0.000    0.000 
#    0.000    0.000    0.000    0.000    0.000    0.000 
#
# Total GULP energy -267746.818185 kJ/mol
# GULP energy per Si atom -5578.058712 kJ/mol
# Density = 1.835406 g / cm^3
# Si number density = 18.395931 Si / 1000 Ang^3
#
#
#
# Elastic Constant Matrix: (Units=GPa)
#
#
# Indices 1 2 3 4 5 6 
#
# 1 56.8268 33.5566 13.3304 0.0000 0.0000 0.0000
# 2 33.5566 96.5174 33.3479 0.0000 0.0000 0.0000
# 3 13.3304 33.3479 41.3037 0.0000 0.0000 0.0000
# 4 0.0000 0.0000 0.0000 30.2705 0.0000 0.0000
# 5 0.0000 0.0000 0.0000 0.0000 5.2702 0.0000
# 6 0.0000 0.0000 0.0000 0.0000 0.0000 21.3777
#
#
#
# Elastic Compliance Matrix: (Units=1/GPa)
#
#
# Indices 1 2 3 4 5 6 
#
# 1 0.022193 -0.007269 -0.001294 0.000000 0.000000 0.000000
# 2 -0.007269 0.016750 -0.011178 0.000000 0.000000 0.000000
# 3 -0.001294 -0.011178 0.033653 0.000000 0.000000 0.000000
# 4 0.000000 0.000000 0.000000 0.033035 0.000000 0.000000
# 5 0.000000 0.000000 0.000000 0.000000 0.189747 0.000000
# 6 0.000000 0.000000 0.000000 0.000000 0.000000 0.046778
#
#
# Mechanical properties :
#
#
# Convention : Reuss Voigt Hill
#
# Bulk Modulus (GPa) = 30.19737 39.45751 34.82744
# Shear Modulus (GPa) = 12.73313 19.01121 15.87217
#
# Velocity S-wave (km/s) = 2.63377 3.21821 2.94055
# Velocity P-wave (km/s) = 5.06950 5.94178 5.52289
#
# Compressibility (1/GPa) = 0.03311546
#
# Stress axis : x y z
#
# Youngs Moduli (GPa) = 45.05877 59.70103 29.71485
#
# Poissons Ratio (x) = 0.43397 0.03844
# Poissons Ratio (y) = 0.32753 0.33215
# Poissons Ratio (z) = 0.05830 0.66732
#
# Static dielectric constant tensor:
#      x y z
#    x 1.622350 0.000000 0.000000 
#    y 0.000000 1.618320 0.000000 
#    z 0.000000 0.000000 1.643990 
# 
# From -- ./inp_files/19666.got.cif
#   From: 2010.05.17/outbox.cif.g08.bks.cpg/sg62_10_cif.got.tgz:19666.got - 2010.06.03 15:25:27.
