data_PCOD9462162
_publ_section_title
;
Structure prediction by ZEFSAII (Michael W. Deem and Ramdas Pophale) SiO2 
 PCOD9462162
Probable space group: P N M A
;
_chemical_formula_sum "Si O2"
_cell_formula_units_Z 56
_cell_length_a 15.904576
_cell_length_b 20.779468
_cell_length_c 7.490542
_cell_angle_alpha 90.000000
_cell_angle_beta 90.000000
_cell_angle_gamma 90.000000
_cell_volume 2475.538949
_symmetry_space_group_name_H-M "P N M A"
_symmetry_group_IT_number 62
_symmetry_cell_setting 'orthorhombic'
loop_
_space_group_symop_operation_xyz
x,y,z
1/2-x,-y,1/2+z
1/2+x,1/2-y,1/2-z
-x,1/2+y,-z
-x,-y,-z
1/2+x,y,1/2-z
1/2-x,1/2+y,1/2+z
x,1/2-y,z
loop_
_atom_site_type_symbol
_atom_site_label
_atom_site_fract_x
_atom_site_fract_y
_atom_site_fract_z
Si Si1 0.431019 0.121833 0.060790
Si Si2 0.174432 0.446710 0.659070
Si Si3 0.737536 0.824125 0.479222
Si Si4 0.248171 0.584278 0.680299
Si Si5 0.002927 0.586917 0.194670
Si Si6 0.413862 0.957285 0.774744
Si Si7 0.451898 0.182978 0.423219
O O1 0.332384 0.102827 0.057475
O O2 0.496959 0.070473 0.149899
O O3 0.437950 0.176471 0.211810
O O4 0.466940 0.130891 0.862679
O O5 0.225104 0.378852 0.652089
O O6 0.222397 0.510003 0.727178
O O7 0.140973 0.459995 0.457637
O O8 0.089486 0.437039 0.765266
O O9 0.771028 0.750000 0.466843
O O10 0.748572 0.859419 0.670487
O O11 0.637179 0.818243 0.474362
O O12 0.347420 0.577953 0.643280
O O13 0.065140 0.526495 0.195339
O O14 0.003806 0.622745 0.008656
O O15 0.496512 0.250000 0.460872
#
# Coordination Sequence:
#
# PCOD9462162 Si02
#       7
#     8   8   8   8   8   8   8
#     4  10  20  40  59  85 123 159 198 256 312 368
#     4  10  18  35  59  89 118 159 208 261 306 370
#     4   9  20  37  56  83 124 163 201 254 315 375
#     4  10  18  34  61  88 121 164 204 254 312 364
#     4  11  20  37  63  88 123 155 205 269 307 360
#     4  10  19  34  58  93 124 147 201 264 303 366
#     4  10  23  40  57  86 121 162 212 250 306 384
#
# _framework density 22.621337
#
# number of rings (size 3 to 8) (size 9 to 14) (size 15 to 20)
#    0.000    2.000    2.857    1.714    0.000    1.714 
#    5.143    5.714    0.000    0.000    0.000    0.000 
#    0.000    0.000    0.000    0.000    0.000    0.000 
#
# Total GULP energy -311754.670932 kJ/mol
# GULP energy per Si atom -5567.047695 kJ/mol
# Density = 2.256985 g / cm^3
# Si number density = 22.621337 Si / 1000 Ang^3
#
#
#
# Elastic Constant Matrix: (Units=GPa)
#
#
# Indices 1 2 3 4 5 6 
#
# 1 103.8885 20.9166 31.3052 0.0000 0.0000 0.0000
# 2 20.9166 115.0836 13.9294 0.0000 0.0000 0.0000
# 3 31.3052 13.9294 78.6794 0.0000 0.0000 0.0000
# 4 0.0000 0.0000 0.0000 10.3593 0.0000 0.0000
# 5 0.0000 0.0000 0.0000 0.0000 21.2349 0.0000
# 6 0.0000 0.0000 0.0000 0.0000 0.0000 2.5261
#
#
#
# Elastic Compliance Matrix: (Units=1/GPa)
#
#
# Indices 1 2 3 4 5 6 
#
# 1 0.011194 -0.001528 -0.004183 0.000000 0.000000 0.000000
# 2 -0.001528 0.009088 -0.001001 0.000000 0.000000 0.000000
# 3 -0.004183 -0.001001 0.014551 0.000000 0.000000 0.000000
# 4 0.000000 0.000000 0.000000 0.096531 0.000000 0.000000
# 5 0.000000 0.000000 0.000000 0.000000 0.047092 0.000000
# 6 0.000000 0.000000 0.000000 0.000000 0.000000 0.395864
#
#
# Mechanical properties :
#
#
# Convention : Reuss Voigt Hill
#
# Bulk Modulus (GPa) = 46.70985 47.77267 47.24126
# Shear Modulus (GPa) = 8.40502 22.25741 15.33122
#
# Velocity S-wave (km/s) = 1.92966 3.14014 2.60615
# Velocity P-wave (km/s) = 5.06539 5.85761 5.47585
#
# Compressibility (1/GPa) = 0.02140876
#
# Stress axis : x y z
#
# Youngs Moduli (GPa) = 89.33380 110.03237 68.72144
#
# Poissons Ratio (x) = 0.16815 0.28749
# Poissons Ratio (y) = 0.13652 0.06879
# Poissons Ratio (z) = 0.37371 0.11014
#
# Static dielectric constant tensor:
#      x y z
#    x 1.837000 0.000000 0.000000 
#    y 0.000000 1.917360 0.000000 
#    z 0.000000 0.000000 1.894670 
# 
# From -- ./inp_files/6766.got.cif
#   From: 2010.05.17/outbox.cif.g08.bks.cpg/sg62_4_cif.got.tgz:6766.got - 2010.06.03 15:25:27.
