data_PCOD9462877
_publ_section_title
;
Structure prediction by ZEFSAII (Michael W. Deem and Ramdas Pophale) SiO2 
 PCOD9462877
Probable space group: P N M A
;
_chemical_formula_sum "Si O2"
_cell_formula_units_Z 48
_cell_length_a 9.805097
_cell_length_b 7.360130
_cell_length_c 28.886792
_cell_angle_alpha 90.000000
_cell_angle_beta 90.000000
_cell_angle_gamma 90.000000
_cell_volume 2084.667011
_symmetry_space_group_name_H-M "P N M A"
_symmetry_group_IT_number 62
_symmetry_cell_setting 'orthorhombic'
loop_
_space_group_symop_operation_xyz
x,y,z
1/2-x,-y,1/2+z
1/2+x,1/2-y,1/2-z
-x,1/2+y,-z
-x,-y,-z
1/2+x,y,1/2-z
1/2-x,1/2+y,1/2+z
x,1/2-y,z
loop_
_atom_site_type_symbol
_atom_site_label
_atom_site_fract_x
_atom_site_fract_y
_atom_site_fract_z
Si Si1 0.096293 0.034697 0.455944
Si Si2 0.693468 0.527292 0.383033
Si Si3 0.201464 0.971923 0.282312
Si Si4 0.844785 0.466252 0.987585
Si Si5 0.990971 0.470911 0.801731
Si Si6 0.014549 0.044324 0.643302
O O1 0.101075 0.250000 0.447153
O O2 0.243179 0.965274 0.472807
O O3 0.039049 0.950697 0.409223
O O4 0.000000 0.000000 0.500000
O O5 0.697445 0.750000 0.383932
O O6 0.687332 0.464722 0.436063
O O7 0.564027 0.474374 0.352185
O O8 0.834160 0.464016 0.359401
O O9 0.207804 0.750000 0.282807
O O10 0.123211 0.025221 0.235620
O O11 0.357291 0.033386 0.288553
O O12 0.102722 0.033474 0.324074
O O13 0.821382 0.250000 0.985807
O O14 0.000000 0.500000 0.000000
O O15 0.994328 0.250000 0.801236
O O16 0.034819 0.250000 0.661001
#
# Coordination Sequence:
#
# PCOD9462877 Si02
#       6
#     8   8   8   8   8   8
#     4  11  22  38  57  80 109 143 184 225 268 322
#     4   9  17  31  48  70 106 140 171 218 266 311
#     4   9  17  27  45  74 105 138 172 214 266 320
#     4  10  22  37  53  77 108 143 179 221 270 318
#     4   9  16  27  44  72 107 139 173 216 269 317
#     4  10  19  33  53  78 108 141 177 219 270 321
#
# _framework density 23.025258000000001
#
# number of rings (size 3 to 8) (size 9 to 14) (size 15 to 20)
#    0.000    2.333    1.667    1.500    2.333    5.333 
#    0.000    0.000    0.000    0.000    0.000    5.833 
#    0.000    0.000    0.000    0.000    0.000    0.000 
#
# Total GULP energy -268232.084607 kJ/mol
# GULP energy per Si atom -5588.168429 kJ/mol
# Density = 2.297285 g / cm^3
# Si number density = 23.025258 Si / 1000 Ang^3
#
#
#
# Elastic Constant Matrix: (Units=GPa)
#
#
# Indices 1 2 3 4 5 6 
#
# 1 152.3711 -1.9354 17.4609 0.0000 0.0000 0.0000
# 2 -1.9354 88.4332 -6.0722 0.0000 0.0000 0.0000
# 3 17.4609 -6.0722 66.7484 0.0000 0.0000 0.0000
# 4 0.0000 0.0000 0.0000 -0.1122 0.0000 0.0000
# 5 0.0000 0.0000 0.0000 0.0000 46.4443 0.0000
# 6 0.0000 0.0000 0.0000 0.0000 0.0000 1.8775
#
#
#
# Elastic Compliance Matrix: (Units=1/GPa)
#
#
# Indices 1 2 3 4 5 6 
#
# 1 0.006766 0.000027 -0.001767 0.000000 0.000000 0.000000
# 2 0.000027 0.011379 0.001028 0.000000 0.000000 0.000000
# 3 -0.001767 0.001028 0.015538 0.000000 0.000000 0.000000
# 4 0.000000 0.000000 0.000000 -8.909976 0.000000 0.000000
# 5 0.000000 0.000000 0.000000 0.000000 0.021531 0.000000
# 6 0.000000 0.000000 0.000000 0.000000 0.000000 0.532615
#
#
# Mechanical properties :
#
#
# Convention : Reuss Voigt Hill
#
# Bulk Modulus (GPa) = 31.00066 36.27326 33.63696
# Shear Modulus (GPa) = -0.60169 29.51521 14.45676
#
# Velocity S-wave (km/s) = -0.51175 3.58419 2.50844
# Velocity P-wave (km/s) = 3.62544 5.73729 4.79897
#
# Compressibility (1/GPa) = 0.03225738
#
# Stress axis : x y z
#
# Youngs Moduli (GPa) = 147.80205 87.87996 64.36033
#
# Poissons Ratio (x) = -0.00235 0.11375
# Poissons Ratio (y) = -0.00395 -0.06617
# Poissons Ratio (z) = 0.26123 -0.09036
#
# Static dielectric constant tensor:
#      x y z
#    x 1.837140 0.000000 0.000000 
#    y 0.000000 1.966850 0.000000 
#    z 0.000000 0.000000 1.806270 
# 
# From -- ./inp_files/31973.got.cif
#   From: 2010.05.17/outbox.cif.g08.bks.cpg/sg62_16_cif.got.tgz:31973.got - 2010.06.03 15:25:27.
