data_PCOD9462630
_publ_section_title
;
Structure prediction by ZEFSAII (Michael W. Deem and Ramdas Pophale) SiO2 
 PCOD9462630
Probable space group: P N M A
;
_chemical_formula_sum "Si O2"
_cell_formula_units_Z 64
_cell_length_a 5.137732
_cell_length_b 34.615822
_cell_length_c 19.037069
_cell_angle_alpha 90.000000
_cell_angle_beta 90.000000
_cell_angle_gamma 90.000000
_cell_volume 3385.682115
_symmetry_space_group_name_H-M "P N M A"
_symmetry_group_IT_number 62
_symmetry_cell_setting 'orthorhombic'
loop_
_space_group_symop_operation_xyz
x,y,z
1/2-x,-y,1/2+z
1/2+x,1/2-y,1/2-z
-x,1/2+y,-z
-x,-y,-z
1/2+x,y,1/2-z
1/2-x,1/2+y,1/2+z
x,1/2-y,z
loop_
_atom_site_type_symbol
_atom_site_label
_atom_site_fract_x
_atom_site_fract_y
_atom_site_fract_z
Si Si1 0.020676 0.346686 0.907408
Si Si2 0.528602 0.084237 0.300449
Si Si3 0.483192 0.793900 0.082302
Si Si4 0.072465 0.914744 0.201735
Si Si5 0.552586 0.813349 0.924717
Si Si6 0.955295 0.997067 0.204940
Si Si7 0.350078 0.793710 0.777635
Si Si8 0.049496 0.860016 0.931704
O O1 0.788758 0.315268 0.903917
O O2 0.976325 0.380003 0.851152
O O3 0.285488 0.322697 0.895038
O O4 0.016144 0.365927 0.985585
O O5 0.787259 0.090396 0.253468
O O6 0.513038 0.109444 0.371023
O O7 0.513414 0.039249 0.325018
O O8 0.497016 0.750000 0.110032
O O9 0.513708 0.792084 0.997789
O O10 0.357408 0.912657 0.236187
O O11 0.026712 0.957062 0.166928
O O12 0.447906 0.792419 0.856262
O O13 0.355723 0.849904 0.928529
O O14 0.853664 0.824188 0.916320
O O15 0.654200 0.995701 0.228281
O O16 0.075418 0.813796 0.766699
O O17 0.300906 0.750000 0.751072
#
# Coordination Sequence:
#
# PCOD9462630 Si02
#       8
#     8   8   8   8   8   8   8   8
#     4  10  21  36  55  82 108 130 169 217 257 305
#     4  10  19  32  50  73 105 143 181 215 252 299
#     4  10  20  36  57  75  99 136 171 207 252 308
#     4  10  19  35  60  83 105 135 169 205 252 309
#     4  10  20  33  48  67  92 128 173 209 248 305
#     4   8  16  30  50  76 102 134 175 210 241 296
#     4  10  20  31  43  61  87 117 155 210 260 294
#     4  10  21  33  48  73 103 133 167 215 258 290
#
# _framework density 18.903133
#
# number of rings (size 3 to 8) (size 9 to 14) (size 15 to 20)
#    0.000    2.250    0.000    3.000    0.000    3.000 
#    0.000    4.375    0.000    7.500    0.000   15.750 
#    0.000    0.000    0.000    0.000    0.000    0.000 
#
# Total GULP energy -356567.474226 kJ/mol
# GULP energy per Si atom -5571.366785 kJ/mol
# Density = 1.886011 g / cm^3
# Si number density = 18.903133 Si / 1000 Ang^3
#
#
#
# Elastic Constant Matrix: (Units=GPa)
#
#
# Indices 1 2 3 4 5 6 
#
# 1 78.7404 -6.2266 3.1475 0.0000 0.0000 0.0000
# 2 -6.2266 96.2468 26.1005 0.0000 0.0000 0.0000
# 3 3.1475 26.1005 27.0830 0.0000 0.0000 0.0000
# 4 0.0000 0.0000 0.0000 16.3099 0.0000 0.0000
# 5 0.0000 0.0000 0.0000 0.0000 16.5761 0.0000
# 6 0.0000 0.0000 0.0000 0.0000 0.0000 9.3045
#
#
#
# Elastic Compliance Matrix: (Units=1/GPa)
#
#
# Indices 1 2 3 4 5 6 
#
# 1 0.012959 0.001688 -0.003133 0.000000 0.000000 0.000000
# 2 0.001688 0.014286 -0.013964 0.000000 0.000000 0.000000
# 3 -0.003133 -0.013964 0.050745 0.000000 0.000000 0.000000
# 4 0.000000 0.000000 0.000000 0.061312 0.000000 0.000000
# 5 0.000000 0.000000 0.000000 0.000000 0.060328 0.000000
# 6 0.000000 0.000000 0.000000 0.000000 0.000000 0.107475
#
#
# Mechanical properties :
#
#
# Convention : Reuss Voigt Hill
#
# Bulk Modulus (GPa) = 21.19889 27.56812 24.38350
# Shear Modulus (GPa) = 14.13845 20.37470 17.25658
#
# Velocity S-wave (km/s) = 2.73782 3.28662 3.02469
# Velocity P-wave (km/s) = 4.60793 5.38684 5.01254
#
# Compressibility (1/GPa) = 0.04717227
#
# Stress axis : x y z
#
# Youngs Moduli (GPa) = 77.16853 69.99905 19.70639
#
# Poissons Ratio (x) = -0.11815 0.06173
# Poissons Ratio (y) = -0.13025 0.27518
# Poissons Ratio (z) = 0.24174 0.97746
#
# Static dielectric constant tensor:
#      x y z
#    x 1.696010 0.000000 0.000000 
#    y 0.000000 1.690540 0.000000 
#    z 0.000000 0.000000 1.631350 
# 
# From -- ./inp_files/21681.got.cif
#   From: 2010.05.17/outbox.cif.g08.bks.cpg/sg62_11_cif.got.tgz:21681.got - 2010.06.03 15:25:27.
