data_PCOD9462211
_publ_section_title
;
Structure prediction by ZEFSAII (Michael W. Deem and Ramdas Pophale) SiO2 
 PCOD9462211
Probable space group: P N M A
;
_chemical_formula_sum "Si O2"
_cell_formula_units_Z 48
_cell_length_a 11.065873
_cell_length_b 14.010968
_cell_length_c 15.177637
_cell_angle_alpha 90.000000
_cell_angle_beta 90.000000
_cell_angle_gamma 90.000000
_cell_volume 2353.195366
_symmetry_space_group_name_H-M "P N M A"
_symmetry_group_IT_number 62
_symmetry_cell_setting 'orthorhombic'
loop_
_space_group_symop_operation_xyz
x,y,z
1/2-x,-y,1/2+z
1/2+x,1/2-y,1/2-z
-x,1/2+y,-z
-x,-y,-z
1/2+x,y,1/2-z
1/2-x,1/2+y,1/2+z
x,1/2-y,z
loop_
_atom_site_type_symbol
_atom_site_label
_atom_site_fract_x
_atom_site_fract_y
_atom_site_fract_z
Si Si1 0.999454 0.642847 0.484964
Si Si2 0.680460 0.250000 0.326534
Si Si3 0.929009 0.250000 0.236779
Si Si4 0.399527 0.515694 0.866906
Si Si5 0.869683 0.085638 0.097566
Si Si6 0.775470 0.145956 0.915538
Si Si7 0.392728 0.964680 0.659676
O O1 0.042643 0.750000 0.497912
O O2 0.985493 0.587149 0.577243
O O3 0.863164 0.645105 0.446859
O O4 0.075851 0.585066 0.413509
O O5 0.822270 0.250000 0.306803
O O6 0.574794 0.250000 0.248332
O O7 0.653958 0.357026 0.364574
O O8 0.898304 0.160566 0.174515
O O9 0.259643 0.540316 0.882861
O O10 0.421496 0.526079 0.763495
O O11 0.984777 0.017384 0.104842
O O12 0.855114 0.136643 0.004107
O O13 0.799432 0.250000 0.873267
O O14 0.800792 0.050038 0.861496
#
# Coordination Sequence:
#
# PCOD9462211 Si02
#       7
#     8   4   4   8   8   8   8
#     4   9  21  40  63  86 118 158 200 243 301 367
#     4  10  22  34  58  94 124 152 198 262 310 352
#     4  10  18  36  58  90 118 164 198 244 310 368
#     4  10  21  36  63  87 117 155 198 246 299 348
#     4  10  20  38  59  84 121 160 196 245 299 361
#     4  10  21  39  62  84 116 164 201 238 296 371
#     4  11  23  35  62  91 121 152 202 249 297 359
#
# _framework density 20.397796
#
# number of rings (size 3 to 8) (size 9 to 14) (size 15 to 20)
#    0.000    2.000    2.500    0.500    4.667    0.667 
#    0.000    0.833   16.500    0.000    0.000    0.000 
#    0.000    0.000    0.000    0.000    0.000    0.000 
#
# Total GULP energy -267519.769740 kJ/mol
# GULP energy per Si atom -5573.328536 kJ/mol
# Density = 2.035137 g / cm^3
# Si number density = 20.397796 Si / 1000 Ang^3
#
#
#
# Elastic Constant Matrix: (Units=GPa)
#
#
# Indices 1 2 3 4 5 6 
#
# 1 54.2305 19.7655 0.3431 0.0000 0.0000 0.0000
# 2 19.7655 119.6789 39.5310 0.0000 0.0000 0.0000
# 3 0.3431 39.5310 72.7526 0.0000 0.0000 0.0000
# 4 0.0000 0.0000 0.0000 19.8157 0.0000 0.0000
# 5 0.0000 0.0000 0.0000 0.0000 16.3367 0.0000
# 6 0.0000 0.0000 0.0000 0.0000 0.0000 -17.9536
#
#
#
# Elastic Compliance Matrix: (Units=1/GPa)
#
#
# Indices 1 2 3 4 5 6 
#
# 1 0.019871 -0.003962 0.002059 0.000000 0.000000 0.000000
# 2 -0.003962 0.010973 -0.005944 0.000000 0.000000 0.000000
# 3 0.002059 -0.005944 0.016965 0.000000 0.000000 0.000000
# 4 0.000000 0.000000 0.000000 0.050465 0.000000 0.000000
# 5 0.000000 0.000000 0.000000 0.000000 0.061212 0.000000
# 6 0.000000 0.000000 0.000000 0.000000 0.000000 -0.055699
#
#
# Mechanical properties :
#
#
# Convention : Reuss Voigt Hill
#
# Bulk Modulus (GPa) = 31.13722 40.66014 35.89868
# Shear Modulus (GPa) = 38.40676 16.10793 27.25734
#
# Velocity S-wave (km/s) = 4.34393 2.81319 3.65949
# Velocity P-wave (km/s) = 6.36064 5.52530 5.95763
#
# Compressibility (1/GPa) = 0.03211590
#
# Stress axis : x y z
#
# Youngs Moduli (GPa) = 50.32525 91.13041 58.94443
#
# Poissons Ratio (x) = 0.36104 -0.12137
# Poissons Ratio (y) = 0.19938 0.35035
# Poissons Ratio (z) = -0.10362 0.54166
#
# Static dielectric constant tensor:
#      x y z
#    x 1.756450 0.000000 0.000000 
#    y 0.000000 1.787120 0.000000 
#    z 0.000000 0.000000 1.741230 
# 
# From -- ./inp_files/18022.got.cif
#   From: 2010.05.17/outbox.cif.g08.bks.cpg/sg62_10_cif.got.tgz:18022.got - 2010.06.03 15:25:27.
