data_PCOD9462993
_publ_section_title
;
Structure prediction by ZEFSAII (Michael W. Deem and Ramdas Pophale) SiO2 
 PCOD9462993
Probable space group: P N M A
;
_chemical_formula_sum "Si O2"
_cell_formula_units_Z 64
_cell_length_a 18.623582
_cell_length_b 11.219158
_cell_length_c 15.858465
_cell_angle_alpha 90.000000
_cell_angle_beta 90.000000
_cell_angle_gamma 90.000000
_cell_volume 3313.482092
_symmetry_space_group_name_H-M "P N M A"
_symmetry_group_IT_number 62
_symmetry_cell_setting 'orthorhombic'
loop_
_space_group_symop_operation_xyz
x,y,z
1/2-x,-y,1/2+z
1/2+x,1/2-y,1/2-z
-x,1/2+y,-z
-x,-y,-z
1/2+x,y,1/2-z
1/2-x,1/2+y,1/2+z
x,1/2-y,z
loop_
_atom_site_type_symbol
_atom_site_label
_atom_site_fract_x
_atom_site_fract_y
_atom_site_fract_z
Si Si1 0.292317 0.108140 0.362828
Si Si2 0.806685 0.384158 0.679405
Si Si3 0.316070 0.106681 0.559627
Si Si4 0.504253 0.371770 0.108131
Si Si5 0.103180 0.552410 0.471078
Si Si6 0.335270 0.891488 0.119270
Si Si7 0.433496 0.390206 0.681180
Si Si8 0.074658 0.525085 0.759163
O O1 0.271482 0.250000 0.353314
O O2 0.298704 0.079782 0.462674
O O3 0.370565 0.087738 0.322302
O O4 0.241533 0.004959 0.321876
O O5 0.774281 0.250000 0.696584
O O6 0.838012 0.382046 0.583957
O O7 0.873347 0.396632 0.744436
O O8 0.320297 0.250000 0.564537
O O9 0.248496 0.072449 0.618326
O O10 0.390503 0.062701 0.598995
O O11 0.547840 0.250000 0.107773
O O12 0.554027 0.484416 0.096311
O O13 0.458616 0.383654 0.192049
O O14 0.450043 0.373214 0.029427
O O15 0.133539 0.454493 0.535861
O O16 0.340845 0.750000 0.111265
O O17 0.379042 0.935505 0.200096
O O18 0.450987 0.250000 0.671750
O O19 0.506631 0.459614 0.699622
#
# Coordination Sequence:
#
# PCOD9462993 Si02
#       8
#     8   8   8   8   8   8   8   8
#     4  11  24  42  63  89 120 163 210 253 307 372
#     4  11  22  39  63  92 123 155 200 256 306 359
#     4   9  19  37  60  82 114 160 205 249 301 363
#     4  10  20  33  51  81 121 155 186 231 298 364
#     4  10  19  33  55  87 116 154 189 241 297 360
#     4  10  19  34  60  89 119 158 205 246 299 371
#     4  10  21  38  60  89 124 159 202 256 308 361
#     4  11  22  36  57  87 120 157 204 253 304 356
#
# _framework density 19.315028999999999
#
# number of rings (size 3 to 8) (size 9 to 14) (size 15 to 20)
#    0.000    1.750    2.500    2.250    0.000    3.000 
#    0.000    0.000    0.000    1.500    0.000    0.000 
#    0.000    0.000    0.000    0.000    0.000    0.000 
#
# Total GULP energy -356659.705148 kJ/mol
# GULP energy per Si atom -5572.807893 kJ/mol
# Density = 1.927107 g / cm^3
# Si number density = 19.315029 Si / 1000 Ang^3
#
#
#
# Elastic Constant Matrix: (Units=GPa)
#
#
# Indices 1 2 3 4 5 6 
#
# 1 82.1207 40.5936 19.0912 0.0000 0.0000 0.0000
# 2 40.5936 109.5940 22.2020 0.0000 0.0000 0.0000
# 3 19.0912 22.2020 44.6192 0.0000 0.0000 0.0000
# 4 0.0000 0.0000 0.0000 1.9576 0.0000 0.0000
# 5 0.0000 0.0000 0.0000 0.0000 43.0513 0.0000
# 6 0.0000 0.0000 0.0000 0.0000 0.0000 16.7575
#
#
#
# Elastic Compliance Matrix: (Units=1/GPa)
#
#
# Indices 1 2 3 4 5 6 
#
# 1 0.015591 -0.004919 -0.004223 0.000000 0.000000 0.000000
# 2 -0.004919 0.011700 -0.003717 0.000000 0.000000 0.000000
# 3 -0.004223 -0.003717 0.026068 0.000000 0.000000 0.000000
# 4 0.000000 0.000000 0.000000 0.510824 0.000000 0.000000
# 5 0.000000 0.000000 0.000000 0.000000 0.023228 0.000000
# 6 0.000000 0.000000 0.000000 0.000000 0.000000 0.059675
#
#
# Mechanical properties :
#
#
# Convention : Reuss Voigt Hill
#
# Bulk Modulus (GPa) = 36.17899 44.45641 40.31770
# Shear Modulus (GPa) = 7.33119 22.64974 14.99047
#
# Velocity S-wave (km/s) = 1.95034 3.42811 2.78889
# Velocity P-wave (km/s) = 4.88297 6.22380 5.59371
#
# Compressibility (1/GPa) = 0.02764035
#
# Stress axis : x y z
#
# Youngs Moduli (GPa) = 64.14120 85.47264 38.36093
#
# Poissons Ratio (x) = 0.42046 0.16200
# Poissons Ratio (y) = 0.31553 0.14258
# Poissons Ratio (z) = 0.27087 0.31769
#
# Static dielectric constant tensor:
#      x y z
#    x 1.704740 0.000000 0.000000 
#    y 0.000000 1.662390 0.000000 
#    z 0.000000 0.000000 1.690600 
# 
# From -- ./inp_files/19902.got.cif
#   From: 2010.05.17/outbox.cif.g08.bks.cpg/sg62_10_cif.got.tgz:19902.got - 2010.06.03 15:25:27.
