data_PCOD9462799
_publ_section_title
;
Structure prediction by ZEFSAII (Michael W. Deem and Ramdas Pophale) SiO2 
 PCOD9462799
Probable space group: P N M A
;
_chemical_formula_sum "Si O2"
_cell_formula_units_Z 64
_cell_length_a 21.005938
_cell_length_b 8.804121
_cell_length_c 16.819049
_cell_angle_alpha 90.000000
_cell_angle_beta 90.000000
_cell_angle_gamma 90.000000
_cell_volume 3110.495073
_symmetry_space_group_name_H-M "P N M A"
_symmetry_group_IT_number 62
_symmetry_cell_setting 'orthorhombic'
loop_
_space_group_symop_operation_xyz
x,y,z
1/2-x,-y,1/2+z
1/2+x,1/2-y,1/2-z
-x,1/2+y,-z
-x,-y,-z
1/2+x,y,1/2-z
1/2-x,1/2+y,1/2+z
x,1/2-y,z
loop_
_atom_site_type_symbol
_atom_site_label
_atom_site_fract_x
_atom_site_fract_y
_atom_site_fract_z
Si Si1 0.658502 0.570725 0.947639
Si Si2 0.379871 0.930015 0.209309
Si Si3 0.726343 0.072029 0.667878
Si Si4 0.627892 0.925442 0.551635
Si Si5 0.142120 0.071117 0.382467
Si Si6 0.605673 0.933315 0.275064
Si Si7 0.975776 0.567816 0.145302
Si Si8 0.791808 0.427247 0.895156
O O1 0.659196 0.750000 0.956969
O O2 0.616541 0.520383 0.872205
O O3 0.730128 0.513706 0.926974
O O4 0.635338 0.496408 0.029594
O O5 0.383069 0.750000 0.193206
O O6 0.311332 0.961060 0.250703
O O7 0.432446 0.963951 0.276266
O O8 0.744368 0.250000 0.667362
O O9 0.673596 0.037010 0.601097
O O10 0.786352 0.971659 0.645333
O O11 0.635887 0.750000 0.578403
O O12 0.653043 0.931684 0.462221
O O13 0.557164 0.979957 0.572810
O O14 0.133536 0.250000 0.384785
O O15 0.099425 0.997835 0.313313
O O16 0.606464 0.750000 0.271398
O O17 0.546711 0.977625 0.330657
O O18 0.672214 0.981514 0.315890
O O19 0.973836 0.750000 0.131105
O O20 0.773371 0.250000 0.884948
#
# Coordination Sequence:
#
# PCOD9462799 Si02
#       8
#     8   8   8   8   8   8   8   8
#     4  12  24  37  58  87 116 149 191 237 288 352
#     4   9  19  36  58  83 113 148 188 236 287 335
#     4  10  19  34  57  84 114 151 189 230 286 346
#     4  10  19  32  55  86 119 156 192 234 283 333
#     4  12  24  38  57  83 116 150 188 239 298 349
#     4  10  22  41  61  83 115 157 200 239 287 346
#     4   9  20  39  61  83 114 158 202 241 284 338
#     4  10  21  37  58  87 123 155 186 236 293 341
#
# _framework density 20.575500999999999
#
# number of rings (size 3 to 8) (size 9 to 14) (size 15 to 20)
#    0.000    1.750    1.250    4.500    0.000    7.500 
#    0.000    0.625    0.000    0.000    0.000    0.000 
#    0.000    0.000    0.000    0.000    0.000    0.000 
#
# Total GULP energy -357597.914568 kJ/mol
# GULP energy per Si atom -5587.467415 kJ/mol
# Density = 2.052867 g / cm^3
# Si number density = 20.575501 Si / 1000 Ang^3
#
#
#
# Elastic Constant Matrix: (Units=GPa)
#
#
# Indices 1 2 3 4 5 6 
#
# 1 33.2182 -8.9204 -23.0670 0.0000 0.0000 0.0000
# 2 -8.9204 38.1018 6.9602 0.0000 0.0000 0.0000
# 3 -23.0670 6.9602 61.9230 0.0000 0.0000 0.0000
# 4 0.0000 0.0000 0.0000 26.0733 0.0000 0.0000
# 5 0.0000 0.0000 0.0000 0.0000 26.5008 0.0000
# 6 0.0000 0.0000 0.0000 0.0000 0.0000 20.3120
#
#
#
# Elastic Compliance Matrix: (Units=1/GPa)
#
#
# Indices 1 2 3 4 5 6 
#
# 1 0.042458 0.007199 0.015007 0.000000 0.000000 0.000000
# 2 0.007199 0.028016 -0.000467 0.000000 0.000000 0.000000
# 3 0.015007 -0.000467 0.021792 0.000000 0.000000 0.000000
# 4 0.000000 0.000000 0.000000 0.038353 0.000000 0.000000
# 5 0.000000 0.000000 0.000000 0.000000 0.037735 0.000000
# 6 0.000000 0.000000 0.000000 0.000000 0.000000 0.049232
#
#
# Mechanical properties :
#
#
# Convention : Reuss Voigt Hill
#
# Bulk Modulus (GPa) = 7.36684 9.24317 8.30500
# Shear Modulus (GPa) = 22.79388 25.12857 23.96123
#
# Velocity S-wave (km/s) = 3.33200 3.49848 3.41625
# Velocity P-wave (km/s) = 4.28849 4.56303 4.42789
#
# Compressibility (1/GPa) = 0.13574348
#
# Stress axis : x y z
#
# Youngs Moduli (GPa) = 23.55259 35.69357 45.88862
#
# Poissons Ratio (x) = -0.25696 -0.68865
# Poissons Ratio (y) = -0.16955 0.02145
# Poissons Ratio (z) = -0.35345 0.01668
#
# Static dielectric constant tensor:
#      x y z
#    x 1.757510 0.000000 0.000000 
#    y 0.000000 1.685430 0.000000 
#    z 0.000000 0.000000 1.756210 
# 
# From -- ./inp_files/20981.got.cif
#   From: 2010.05.17/outbox.cif.g08.bks.cpg/sg62_11_cif.got.tgz:20981.got - 2010.06.03 15:25:27.
