data_PCOD9462274
_publ_section_title
;
Structure prediction by ZEFSAII (Michael W. Deem and Ramdas Pophale) SiO2 
 PCOD9462274
Probable space group: P N M A
;
_chemical_formula_sum "Si O2"
_cell_formula_units_Z 64
_cell_length_a 26.093145
_cell_length_b 28.021268
_cell_length_c 5.167505
_cell_angle_alpha 90.000000
_cell_angle_beta 90.000000
_cell_angle_gamma 90.000000
_cell_volume 3778.288505
_symmetry_space_group_name_H-M "P N M A"
_symmetry_group_IT_number 62
_symmetry_cell_setting 'orthorhombic'
loop_
_space_group_symop_operation_xyz
x,y,z
1/2-x,-y,1/2+z
1/2+x,1/2-y,1/2-z
-x,1/2+y,-z
-x,-y,-z
1/2+x,y,1/2-z
1/2-x,1/2+y,1/2+z
x,1/2-y,z
loop_
_atom_site_type_symbol
_atom_site_label
_atom_site_fract_x
_atom_site_fract_y
_atom_site_fract_z
Si Si1 0.270808 0.027333 0.189743
Si Si2 0.108397 0.973910 0.756604
Si Si3 0.267763 0.695133 0.263540
Si Si4 0.949580 0.043586 0.753267
Si Si5 0.949403 0.555386 0.997114
Si Si6 0.106746 0.140619 0.281855
Si Si7 0.108272 0.196990 0.775879
Si Si8 0.270075 0.865876 0.769710
O O1 0.332356 0.027108 0.188941
O O2 0.250891 0.994000 0.423151
O O3 0.251674 0.081201 0.236573
O O4 0.074126 0.951902 0.528035
O O5 0.090250 0.028551 0.810892
O O6 0.093974 0.948729 0.027879
O O7 0.249180 0.750000 0.253053
O O8 0.329859 0.697911 0.249188
O O9 0.251711 0.661716 0.025727
O O10 0.255987 0.667806 0.528312
O O11 0.964562 0.987567 0.799238
O O12 0.000785 0.070560 0.840428
O O13 0.923010 0.595707 0.830618
O O14 0.097786 0.181882 0.069082
O O15 0.167812 0.130318 0.282154
O O16 0.090592 0.158497 0.564644
O O17 0.088966 0.250000 0.718638
#
# Coordination Sequence:
#
# PCOD9462274 Si02
#       8
#     8   8   8   8   8   8   8   8
#     4  12  24  35  49  70 106 147 174 199 236 298
#     4  10  20  34  49  66  97 137 158 201 247 276
#     4   9  17  32  51  67  93 126 161 212 257 283
#     4   9  20  33  51  69  97 125 162 212 241 281
#     4   9  20  31  52  73  96 122 168 204 246 279
#     4  10  19  27  49  67  94 126 158 196 231 287
#     4   9  18  30  42  65  95 126 152 187 241 294
#     4  10  20  32  45  74  99 129 172 197 234 306
#
# _framework density 16.938886
#
# number of rings (size 3 to 8) (size 9 to 14) (size 15 to 20)
#    0.750    1.500    0.000    3.375    3.500    4.000 
#    0.000    0.000    0.000    0.000    0.000    0.000 
#    0.000   20.000    0.000    0.000    0.000    0.000 
#
# Total GULP energy -356651.153252 kJ/mol
# GULP energy per Si atom -5572.674270 kJ/mol
# Density = 1.690033 g / cm^3
# Si number density = 16.938886 Si / 1000 Ang^3
#
#
#
# Elastic Constant Matrix: (Units=GPa)
#
#
# Indices 1 2 3 4 5 6 
#
# 1 50.4984 4.6817 0.4130 0.0000 0.0000 0.0000
# 2 4.6817 47.6591 -12.1754 0.0000 0.0000 0.0000
# 3 0.4130 -12.1754 50.8232 0.0000 0.0000 0.0000
# 4 0.0000 0.0000 0.0000 21.8653 0.0000 0.0000
# 5 0.0000 0.0000 0.0000 0.0000 11.2814 0.0000
# 6 0.0000 0.0000 0.0000 0.0000 0.0000 13.6404
#
#
#
# Elastic Compliance Matrix: (Units=1/GPa)
#
#
# Indices 1 2 3 4 5 6 
#
# 1 0.020006 -0.002138 -0.000675 0.000000 0.000000 0.000000
# 2 -0.002138 0.022579 0.005426 0.000000 0.000000 0.000000
# 3 -0.000675 0.005426 0.020982 0.000000 0.000000 0.000000
# 4 0.000000 0.000000 0.000000 0.045734 0.000000 0.000000
# 5 0.000000 0.000000 0.000000 0.000000 0.088642 0.000000
# 6 0.000000 0.000000 0.000000 0.000000 0.000000 0.073311
#
#
# Mechanical properties :
#
#
# Convention : Reuss Voigt Hill
#
# Bulk Modulus (GPa) = 14.53601 14.97990 14.75795
# Shear Modulus (GPa) = 17.30359 19.76152 18.53256
#
# Velocity S-wave (km/s) = 3.19961 3.41931 3.31128
# Velocity P-wave (km/s) = 4.71700 4.94486 4.83227
#
# Compressibility (1/GPa) = 0.06879468
#
# Stress axis : x y z
#
# Youngs Moduli (GPa) = 49.98422 44.28965 47.66097
#
# Poissons Ratio (x) = 0.09468 0.03216
# Poissons Ratio (y) = 0.10685 -0.25863
# Poissons Ratio (z) = 0.03372 -0.24033
#
# Static dielectric constant tensor:
#      x y z
#    x 1.568120 0.000000 0.000000 
#    y 0.000000 1.575130 0.000000 
#    z 0.000000 0.000000 1.605840 
# 
# From -- ./inp_files/2888.got.cif
#   From: 2010.05.17/outbox.cif.g08.bks.cpg/sg62_2_cif.got.tgz:2888.got - 2010.06.03 15:25:27.
