data_PCOD9462780
_publ_section_title
;
Structure prediction by ZEFSAII (Michael W. Deem and Ramdas Pophale) SiO2 
 PCOD9462780
Probable space group: P N M A
;
_chemical_formula_sum "Si O2"
_cell_formula_units_Z 56
_cell_length_a 14.770444
_cell_length_b 8.998093
_cell_length_c 21.870851
_cell_angle_alpha 90.000000
_cell_angle_beta 90.000000
_cell_angle_gamma 90.000000
_cell_volume 2906.763578
_symmetry_space_group_name_H-M "P N M A"
_symmetry_group_IT_number 62
_symmetry_cell_setting 'orthorhombic'
loop_
_space_group_symop_operation_xyz
x,y,z
1/2-x,-y,1/2+z
1/2+x,1/2-y,1/2-z
-x,1/2+y,-z
-x,-y,-z
1/2+x,y,1/2-z
1/2-x,1/2+y,1/2+z
x,1/2-y,z
loop_
_atom_site_type_symbol
_atom_site_label
_atom_site_fract_x
_atom_site_fract_y
_atom_site_fract_z
Si Si1 0.693828 0.428222 0.884910
Si Si2 0.681007 0.573346 0.271287
Si Si3 0.524644 0.420582 0.341749
Si Si4 0.328690 0.573124 0.859506
Si Si5 0.510089 0.929458 0.932550
Si Si6 0.638733 0.927246 0.583078
Si Si7 0.348183 0.579539 0.540102
O O1 0.682925 0.250000 0.885712
O O2 0.741912 0.473353 0.820664
O O3 0.599653 0.507851 0.899607
O O4 0.765517 0.478277 0.936644
O O5 0.683726 0.750000 0.268378
O O6 0.584146 0.520397 0.297542
O O7 0.689865 0.504857 0.204664
O O8 0.524225 0.250000 0.319124
O O9 0.423518 0.468483 0.358941
O O10 0.577335 0.422818 0.406525
O O11 0.332097 0.750000 0.848731
O O12 0.421947 0.529772 0.892299
O O13 0.243419 0.543672 0.903083
O O14 0.514278 0.750000 0.937426
O O15 0.500000 0.000000 0.000000
O O16 0.625586 0.750000 0.573670
O O17 0.613613 0.016495 0.522752
O O18 0.317767 0.750000 0.532863
#
# Coordination Sequence:
#
# PCOD9462780 Si02
#       7
#     8   8   8   8   8   8   8
#     4  10  21  38  59  83 113 150 190 236 286 338
#     4  10  22  39  59  82 109 144 188 236 285 333
#     4   9  19  35  56  82 113 147 182 220 271 334
#     4  10  23  40  57  79 111 148 186 230 282 339
#     4  11  23  39  61  89 118 154 196 240 292 347
#     4  10  20  35  55  80 111 147 181 220 273 330
#     4  10  19  32  54  85 116 146 181 224 272 329
#
# _framework density 19.265412000000001
#
# number of rings (size 3 to 8) (size 9 to 14) (size 15 to 20)
#    0.000    2.000    0.000    3.000    0.000    6.857 
#    0.000    4.286    0.000    0.000    0.000    0.000 
#    0.000    0.000    0.000    0.000    0.000    0.000 
#
# Total GULP energy -312721.158472 kJ/mol
# GULP energy per Si atom -5584.306401 kJ/mol
# Density = 1.922156 g / cm^3
# Si number density = 19.265412 Si / 1000 Ang^3
#
#
#
# Elastic Constant Matrix: (Units=GPa)
#
#
# Indices 1 2 3 4 5 6 
#
# 1 99.2738 25.1512 6.7853 0.0000 0.0000 0.0000
# 2 25.1512 40.0244 31.7500 0.0000 0.0000 0.0000
# 3 6.7853 31.7500 78.2946 0.0000 0.0000 0.0000
# 4 0.0000 0.0000 0.0000 35.8662 0.0000 0.0000
# 5 0.0000 0.0000 0.0000 0.0000 15.2508 0.0000
# 6 0.0000 0.0000 0.0000 0.0000 0.0000 26.4086
#
#
#
# Elastic Compliance Matrix: (Units=1/GPa)
#
#
# Indices 1 2 3 4 5 6 
#
# 1 0.012468 -0.010287 0.003091 0.000000 0.000000 0.000000
# 2 -0.010287 0.045321 -0.017487 0.000000 0.000000 0.000000
# 3 0.003091 -0.017487 0.019596 0.000000 0.000000 0.000000
# 4 0.000000 0.000000 0.000000 0.027881 0.000000 0.000000
# 5 0.000000 0.000000 0.000000 0.000000 0.065570 0.000000
# 6 0.000000 0.000000 0.000000 0.000000 0.000000 0.037867
#
#
# Mechanical properties :
#
#
# Convention : Reuss Voigt Hill
#
# Bulk Modulus (GPa) = 35.69023 38.32954 37.00989
# Shear Modulus (GPa) = 18.69802 25.76553 22.23177
#
# Velocity S-wave (km/s) = 3.11874 3.66101 3.40070
# Velocity P-wave (km/s) = 5.61556 6.14894 5.88829
#
# Compressibility (1/GPa) = 0.02801887
#
# Stress axis : x y z
#
# Youngs Moduli (GPa) = 80.20480 22.06494 51.03155
#
# Poissons Ratio (x) = 0.22698 -0.15774
# Poissons Ratio (y) = 0.82506 0.89239
# Poissons Ratio (z) = -0.24791 0.38585
#
# Static dielectric constant tensor:
#      x y z
#    x 1.683030 0.000000 0.000000 
#    y 0.000000 1.649670 0.000000 
#    z 0.000000 0.000000 1.662260 
# 
# From -- ./inp_files/27305.got.cif
#   From: 2010.05.17/outbox.cif.g08.bks.cpg/sg62_14_cif.got.tgz:27305.got - 2010.06.03 15:25:27.
