data_PCOD9462307
_publ_section_title
;
Structure prediction by ZEFSAII (Michael W. Deem and Ramdas Pophale) SiO2 
 PCOD9462307
Probable space group: P N M A
;
_chemical_formula_sum "Si O2"
_cell_formula_units_Z 64
_cell_length_a 18.509312
_cell_length_b 9.457384
_cell_length_c 20.813904
_cell_angle_alpha 90.000000
_cell_angle_beta 90.000000
_cell_angle_gamma 90.000000
_cell_volume 3643.467051
_symmetry_space_group_name_H-M "P N M A"
_symmetry_group_IT_number 62
_symmetry_cell_setting 'orthorhombic'
loop_
_space_group_symop_operation_xyz
x,y,z
1/2-x,-y,1/2+z
1/2+x,1/2-y,1/2-z
-x,1/2+y,-z
-x,-y,-z
1/2+x,y,1/2-z
1/2-x,1/2+y,1/2+z
x,1/2-y,z
loop_
_atom_site_type_symbol
_atom_site_label
_atom_site_fract_x
_atom_site_fract_y
_atom_site_fract_z
Si Si1 0.434979 0.899110 0.491276
Si Si2 0.872298 0.411997 0.663522
Si Si3 0.732153 0.582615 0.629355
Si Si4 0.178203 0.083605 0.104183
Si Si5 0.904843 0.589525 0.158134
Si Si6 0.783399 0.579746 0.483663
Si Si7 0.070994 0.918239 0.477195
Si Si8 0.932151 0.082465 0.804445
O O1 0.469388 0.750000 0.506515
O O2 0.371641 0.918498 0.540959
O O3 0.409402 0.901097 0.418817
O O4 0.500000 0.000000 0.500000
O O5 0.844068 0.250000 0.662094
O O6 0.805133 0.517031 0.658248
O O7 0.920580 0.429359 0.600007
O O8 0.915935 0.430552 0.729045
O O9 0.728946 0.750000 0.637760
O O10 0.664193 0.510801 0.665222
O O11 0.739484 0.557121 0.551547
O O12 0.194590 0.250000 0.118797
O O13 0.128143 0.008347 0.157750
O O14 0.245197 0.990014 0.078671
O O15 0.893077 0.750000 0.183320
O O16 0.984615 0.540695 0.180694
O O17 0.791640 0.750000 0.476581
O O18 0.858895 0.498169 0.494382
O O19 0.929681 0.250000 0.506731
O O20 0.000000 0.000000 0.500000
O O21 0.926002 0.250000 0.822730
#
# Coordination Sequence:
#
# PCOD9462307 Si02
#       8
#     8   8   8   8   8   8   8   8
#     4  10  19  29  45  72 107 144 179 219 261 304
#     4   9  20  39  60  79 105 143 184 225 274 332
#     4  10  20  33  54  80 105 135 178 229 277 323
#     4  11  21  32  49  77 113 148 180 218 268 318
#     4  10  19  32  51  76 107 142 183 225 265 318
#     4  10  20  34  54  81 110 142 180 224 273 328
#     4  10  20  37  62  88 110 135 177 235 293 340
#     4  10  21  37  55  77 108 150 190 221 263 326
#
# _framework density 17.565685999999999
#
# number of rings (size 3 to 8) (size 9 to 14) (size 15 to 20)
#    0.000    2.000    2.500    1.500    0.000    3.500 
#    0.000    1.250    0.000    6.000    0.000    0.000 
#    0.000    0.000    0.000    0.000    0.000    0.000 
#
# Total GULP energy -356406.756533 kJ/mol
# GULP energy per Si atom -5568.855571 kJ/mol
# Density = 1.752571 g / cm^3
# Si number density = 17.565686 Si / 1000 Ang^3
#
#
#
# Elastic Constant Matrix: (Units=GPa)
#
#
# Indices 1 2 3 4 5 6 
#
# 1 109.0196 89.6107 44.4303 0.0000 0.0000 0.0000
# 2 89.6107 112.3827 41.2488 0.0000 0.0000 0.0000
# 3 44.4303 41.2488 53.9106 0.0000 0.0000 0.0000
# 4 0.0000 0.0000 0.0000 21.0098 0.0000 0.0000
# 5 0.0000 0.0000 0.0000 0.0000 15.1347 0.0000
# 6 0.0000 0.0000 0.0000 0.0000 0.0000 33.4301
#
#
#
# Elastic Compliance Matrix: (Units=1/GPa)
#
#
# Indices 1 2 3 4 5 6 
#
# 1 0.029298 -0.020161 -0.008720 0.000000 0.000000 0.000000
# 2 -0.020161 0.026246 -0.003466 0.000000 0.000000 0.000000
# 3 -0.008720 -0.003466 0.028388 0.000000 0.000000 0.000000
# 4 0.000000 0.000000 0.000000 0.047597 0.000000 0.000000
# 5 0.000000 0.000000 0.000000 0.000000 0.066073 0.000000
# 6 0.000000 0.000000 0.000000 0.000000 0.000000 0.029913
#
#
# Mechanical properties :
#
#
# Convention : Reuss Voigt Hill
#
# Bulk Modulus (GPa) = 51.98128 69.54359 60.76244
# Shear Modulus (GPa) = 16.74355 20.58314 18.66335
#
# Velocity S-wave (km/s) = 3.09074 3.42684 3.26312
# Velocity P-wave (km/s) = 6.51104 7.43870 6.99027
#
# Compressibility (1/GPa) = 0.01923770
#
# Stress axis : x y z
#
# Youngs Moduli (GPa) = 34.13198 38.10106 35.22592
#
# Poissons Ratio (x) = 0.76814 0.30718
# Poissons Ratio (y) = 0.68813 0.12210
# Poissons Ratio (z) = 0.29764 0.13207
#
# Static dielectric constant tensor:
#      x y z
#    x 1.577630 0.000000 0.000000 
#    y 0.000000 1.618170 0.000000 
#    z 0.000000 0.000000 1.454340 
# 
# From -- ./inp_files/27687.got.cif
#   From: 2010.05.17/outbox.cif.g08.bks.cpg/sg62_14_cif.got.tgz:27687.got - 2010.06.03 15:25:27.
