data_PCOD9462934
_publ_section_title
;
Structure prediction by ZEFSAII (Michael W. Deem and Ramdas Pophale) SiO2 
 PCOD9462934
Probable space group: P N M A
;
_chemical_formula_sum "Si O2"
_cell_formula_units_Z 48
_cell_length_a 22.750263
_cell_length_b 7.774083
_cell_length_c 12.610729
_cell_angle_alpha 90.000000
_cell_angle_beta 90.000000
_cell_angle_gamma 90.000000
_cell_volume 2230.364211
_symmetry_space_group_name_H-M "P N M A"
_symmetry_group_IT_number 62
_symmetry_cell_setting 'orthorhombic'
loop_
_space_group_symop_operation_xyz
x,y,z
1/2-x,-y,1/2+z
1/2+x,1/2-y,1/2-z
-x,1/2+y,-z
-x,-y,-z
1/2+x,y,1/2-z
1/2-x,1/2+y,1/2+z
x,1/2-y,z
loop_
_atom_site_type_symbol
_atom_site_label
_atom_site_fract_x
_atom_site_fract_y
_atom_site_fract_z
Si Si1 0.009441 0.543432 0.877626
Si Si2 0.825857 0.460990 0.362142
Si Si3 0.640707 0.957618 0.634345
Si Si4 0.897760 0.541472 0.744870
Si Si5 0.801918 0.954953 0.910833
Si Si6 0.931124 0.047622 0.507261
O O1 0.009552 0.750000 0.866186
O O2 0.074051 0.480118 0.848777
O O3 0.956087 0.478444 0.806371
O O4 0.000000 0.500000 0.000000
O O5 0.827439 0.250000 0.365996
O O6 0.824149 0.510507 0.238653
O O7 0.764821 0.520626 0.413762
O O8 0.884950 0.524292 0.420616
O O9 0.639758 0.750000 0.631349
O O10 0.665663 0.014976 0.521913
O O11 0.897281 0.750000 0.748534
O O12 0.841611 0.479336 0.812710
O O13 0.904362 0.491155 0.622930
O O14 0.798076 0.750000 0.895689
O O15 0.931093 0.250000 0.490772
O O16 0.000000 0.000000 0.500000
#
# Coordination Sequence:
#
# PCOD9462934 Si02
#       6
#     8   8   8   8   8   8
#     4  10  19  33  54  82 114 149 187 234 287 338
#     4   9  21  40  60  83 116 157 192 236 296 348
#     4  10  20  36  59  82 111 149 190 234 284 342
#     4  10  21  37  59  87 121 155 192 240 294 349
#     4  10  21  38  59  85 117 154 192 236 291 347
#     4  11  23  41  64  88 119 156 200 246 297 355
#
# _framework density 21.521149000000001
#
# number of rings (size 3 to 8) (size 9 to 14) (size 15 to 20)
#    0.000    2.000    1.667    1.500    2.333    4.000 
#    0.000    5.000    0.000    0.000    0.000    0.000 
#    0.000    0.000    0.000    0.000    0.000    0.000 
#
# Total GULP energy -267997.011592 kJ/mol
# GULP energy per Si atom -5583.271075 kJ/mol
# Density = 2.147217 g / cm^3
# Si number density = 21.521149 Si / 1000 Ang^3
#
#
#
# Elastic Constant Matrix: (Units=GPa)
#
#
# Indices 1 2 3 4 5 6 
#
# 1 154.4905 16.6214 54.6939 0.0000 0.0000 0.0000
# 2 16.6214 25.3866 -4.2322 0.0000 0.0000 0.0000
# 3 54.6939 -4.2322 108.5355 0.0000 0.0000 0.0000
# 4 0.0000 0.0000 0.0000 26.4384 0.0000 0.0000
# 5 0.0000 0.0000 0.0000 0.0000 21.1985 0.0000
# 6 0.0000 0.0000 0.0000 0.0000 0.0000 14.9872
#
#
#
# Elastic Compliance Matrix: (Units=1/GPa)
#
#
# Indices 1 2 3 4 5 6 
#
# 1 0.008851 -0.006581 -0.004717 0.000000 0.000000 0.000000
# 2 -0.006581 0.044542 0.005053 0.000000 0.000000 0.000000
# 3 -0.004717 0.005053 0.011788 0.000000 0.000000 0.000000
# 4 0.000000 0.000000 0.000000 0.037824 0.000000 0.000000
# 5 0.000000 0.000000 0.000000 0.000000 0.047173 0.000000
# 6 0.000000 0.000000 0.000000 0.000000 0.000000 0.066724
#
#
# Mechanical properties :
#
#
# Convention : Reuss Voigt Hill
#
# Bulk Modulus (GPa) = 18.97848 46.95318 32.96583
# Shear Modulus (GPa) = 20.24665 27.28012 23.76339
#
# Velocity S-wave (km/s) = 3.07054 3.56419 3.32654
# Velocity P-wave (km/s) = 4.62695 6.22917 5.48686
#
# Compressibility (1/GPa) = 0.05269126
#
# Stress axis : x y z
#
# Youngs Moduli (GPa) = 112.98374 22.45058 84.83527
#
# Poissons Ratio (x) = 0.14775 0.40015
# Poissons Ratio (y) = 0.74357 -0.42870
# Poissons Ratio (z) = 0.53292 -0.11345
#
# Static dielectric constant tensor:
#      x y z
#    x 1.815270 0.000000 0.000000 
#    y 0.000000 1.801480 0.000000 
#    z 0.000000 0.000000 1.759320 
# 
# From -- ./inp_files/15142.got.cif
#   From: 2010.05.17/outbox.cif.g08.bks.cpg/sg62_8_cif.got.tgz:15142.got - 2010.06.03 15:25:27.
