data_PCOD9462583
_publ_section_title
;
Structure prediction by ZEFSAII (Michael W. Deem and Ramdas Pophale) SiO2 
 PCOD9462583
Probable space group: P N M A
;
_chemical_formula_sum "Si O2"
_cell_formula_units_Z 64
_cell_length_a 34.422157
_cell_length_b 8.882440
_cell_length_c 12.018109
_cell_angle_alpha 90.000000
_cell_angle_beta 90.000000
_cell_angle_gamma 90.000000
_cell_volume 3674.569807
_symmetry_space_group_name_H-M "P N M A"
_symmetry_group_IT_number 62
_symmetry_cell_setting 'orthorhombic'
loop_
_space_group_symop_operation_xyz
x,y,z
1/2-x,-y,1/2+z
1/2+x,1/2-y,1/2-z
-x,1/2+y,-z
-x,-y,-z
1/2+x,y,1/2-z
1/2-x,1/2+y,1/2+z
x,1/2-y,z
loop_
_atom_site_type_symbol
_atom_site_label
_atom_site_fract_x
_atom_site_fract_y
_atom_site_fract_z
Si Si1 0.174496 0.929876 0.395617
Si Si2 0.038286 0.570998 0.139935
Si Si3 0.665678 0.426561 0.464221
Si Si4 0.109403 0.072957 0.248698
Si Si5 0.628438 0.929181 0.680980
Si Si6 0.183286 0.070038 0.637422
Si Si7 0.049831 0.070714 0.896090
Si Si8 0.271359 0.430096 0.688402
O O1 0.174324 0.750000 0.410363
O O2 0.207800 0.968835 0.304862
O O3 0.134328 0.984990 0.340242
O O4 0.181409 0.011703 0.511578
O O5 0.045108 0.750000 0.137252
O O6 0.066968 0.493961 0.227238
O O7 0.992433 0.544679 0.158319
O O8 0.047870 0.502481 0.018646
O O9 0.668911 0.250000 0.491598
O O10 0.633289 0.444182 0.367338
O O11 0.652171 0.516469 0.572086
O O12 0.705223 0.486993 0.409479
O O13 0.108038 0.250000 0.274591
O O14 0.626167 0.750000 0.683025
O O15 0.650773 0.991642 0.787922
O O16 0.585610 0.999515 0.669068
O O17 0.178428 0.250000 0.641049
O O18 0.226030 0.033255 0.685538
O O19 0.055596 0.250000 0.908343
O O20 0.275766 0.250000 0.672763
#
# Coordination Sequence:
#
# PCOD9462583 Si02
#       8
#     8   8   8   8   8   8   8   8
#     4  10  21  39  59  82 112 146 191 238 280 332
#     4  10  19  31  53  84 116 151 187 230 281 335
#     4  10  20  34  55  82 113 147 185 230 279 332
#     4  10  19  33  56  83 113 150 187 228 280 334
#     4  12  24  37  56  82 114 154 193 231 283 339
#     4  11  24  41  59  82 112 149 191 234 287 339
#     4  10  20  34  52  80 118 153 188 231 282 337
#     4   9  21  39  59  83 111 145 184 233 283 333
#
# _framework density 17.417003999999999
#
# number of rings (size 3 to 8) (size 9 to 14) (size 15 to 20)
#    0.000    1.750    1.250    3.375    1.750    4.000 
#    0.000    0.000    0.000    0.750    0.000    0.000 
#    0.000    0.000    0.000    0.000    0.000    0.000 
#
# Total GULP energy -357542.033273 kJ/mol
# GULP energy per Si atom -5586.594270 kJ/mol
# Density = 1.737736 g / cm^3
# Si number density = 17.417004 Si / 1000 Ang^3
#
#
#
# Elastic Constant Matrix: (Units=GPa)
#
#
# Indices 1 2 3 4 5 6 
#
# 1 124.7076 51.2441 46.7864 0.0000 0.0000 0.0000
# 2 51.2441 71.1505 32.4418 0.0000 0.0000 0.0000
# 3 46.7864 32.4418 66.8104 0.0000 0.0000 0.0000
# 4 0.0000 0.0000 0.0000 30.8448 0.0000 0.0000
# 5 0.0000 0.0000 0.0000 0.0000 20.4899 0.0000
# 6 0.0000 0.0000 0.0000 0.0000 0.0000 29.6237
#
#
#
# Elastic Compliance Matrix: (Units=1/GPa)
#
#
# Indices 1 2 3 4 5 6 
#
# 1 0.012944 -0.006665 -0.005828 0.000000 0.000000 0.000000
# 2 -0.006665 0.021483 -0.005764 0.000000 0.000000 0.000000
# 3 -0.005828 -0.005764 0.021848 0.000000 0.000000 0.000000
# 4 0.000000 0.000000 0.000000 0.032420 0.000000 0.000000
# 5 0.000000 0.000000 0.000000 0.000000 0.048805 0.000000
# 6 0.000000 0.000000 0.000000 0.000000 0.000000 0.033757
#
#
# Mechanical properties :
#
#
# Convention : Reuss Voigt Hill
#
# Bulk Modulus (GPa) = 50.60648 58.17925 54.39286
# Shear Modulus (GPa) = 23.32529 25.00475 24.16502
#
# Velocity S-wave (km/s) = 3.66351 3.79311 3.72887
# Velocity P-wave (km/s) = 6.85667 7.25671 7.05952
#
# Compressibility (1/GPa) = 0.01976032
#
# Stress axis : x y z
#
# Youngs Moduli (GPa) = 77.25516 46.54737 45.77059
#
# Poissons Ratio (x) = 0.31025 0.26675
# Poissons Ratio (y) = 0.51493 0.26384
# Poissons Ratio (z) = 0.45025 0.26832
#
# Static dielectric constant tensor:
#      x y z
#    x 1.594980 0.000000 0.000000 
#    y 0.000000 1.576890 0.000000 
#    z 0.000000 0.000000 1.558720 
# 
# From -- ./inp_files/15748.got.cif
#   From: 2010.05.17/outbox.cif.g08.bks.cpg/sg62_8_cif.got.tgz:15748.got - 2010.06.03 15:25:27.
