data_PCOD9462452
_publ_section_title
;
Structure prediction by ZEFSAII (Michael W. Deem and Ramdas Pophale) SiO2 
 PCOD9462452
Probable space group: P N M A
;
_chemical_formula_sum "Si O2"
_cell_formula_units_Z 64
_cell_length_a 25.133533
_cell_length_b 9.351179
_cell_length_c 12.019370
_cell_angle_alpha 90.000000
_cell_angle_beta 90.000000
_cell_angle_gamma 90.000000
_cell_volume 2824.890487
_symmetry_space_group_name_H-M "P N M A"
_symmetry_group_IT_number 62
_symmetry_cell_setting 'orthorhombic'
loop_
_space_group_symop_operation_xyz
x,y,z
1/2-x,-y,1/2+z
1/2+x,1/2-y,1/2-z
-x,1/2+y,-z
-x,-y,-z
1/2+x,y,1/2-z
1/2-x,1/2+y,1/2+z
x,1/2-y,z
loop_
_atom_site_type_symbol
_atom_site_label
_atom_site_fract_x
_atom_site_fract_y
_atom_site_fract_z
Si Si1 0.652043 0.905151 0.733682
Si Si2 0.958982 0.082654 0.098173
Si Si3 0.811862 0.094395 0.999631
Si Si4 0.739110 0.087925 0.801642
Si Si5 0.414817 0.579964 0.998958
Si Si6 0.338381 0.577189 0.808724
Si Si7 0.485711 0.420375 0.166797
Si Si8 0.096146 0.418371 0.093910
O O1 0.651851 0.750000 0.789647
O O2 0.597343 0.923096 0.667137
O O3 0.693831 0.900796 0.630344
O O4 0.679425 0.027697 0.802867
O O5 0.967785 0.250000 0.070433
O O6 0.995209 0.036832 0.204202
O O7 0.947750 0.993159 0.986096
O O8 0.837722 0.250000 0.967777
O O9 0.849417 0.963459 0.968818
O O10 0.759207 0.085587 0.928728
O O11 0.738398 0.250000 0.759884
O O12 0.786372 0.004600 0.735873
O O13 0.412702 0.750000 0.022290
O O14 0.362061 0.538752 0.929896
O O15 0.463335 0.555442 0.910877
O O16 0.435130 0.495655 0.107787
O O17 0.330405 0.750000 0.805163
O O18 0.385783 0.543684 0.719227
O O19 0.476749 0.250000 0.169460
O O20 0.086552 0.250000 0.091644
#
# Coordination Sequence:
#
# PCOD9462452 Si02
#       8
#     8   8   8   8   8   8   8   8
#     4   9  17  31  48  65  92 129 161 194 244 299
#     4   9  18  33  51  71  99 133 164 200 251 303
#     4   8  16  31  47  62  88 125 159 191 239 293
#     4  10  19  31  48  71  95 123 163 207 244 286
#     4   9  18  34  55  76 100 134 170 206 251 301
#     4   9  18  33  51  72 100 132 164 200 251 303
#     4   9  18  34  55  76 101 133 170 208 249 298
#     4   9  16  27  48  73  95 123 160 200 236 285
#
# _framework density 22.655746000000001
#
# number of rings (size 3 to 8) (size 9 to 14) (size 15 to 20)
#    0.000    3.000    0.000    1.500    0.000    4.000 
#    2.250    0.625    0.000    0.000    0.000    0.000 
#    0.000    0.000    0.000    0.000    0.000    0.000 
#
# Total GULP energy -356653.655072 kJ/mol
# GULP energy per Si atom -5572.713361 kJ/mol
# Density = 2.260418 g / cm^3
# Si number density = 22.655746 Si / 1000 Ang^3
#
#
#
# Elastic Constant Matrix: (Units=GPa)
#
#
# Indices 1 2 3 4 5 6 
#
# 1 68.0071 10.2398 -4.7159 0.0000 0.0000 0.0000
# 2 10.2398 32.3922 20.8048 0.0000 0.0000 0.0000
# 3 -4.7159 20.8048 97.2736 0.0000 0.0000 0.0000
# 4 0.0000 0.0000 0.0000 24.3515 0.0000 0.0000
# 5 0.0000 0.0000 0.0000 0.0000 24.9446 0.0000
# 6 0.0000 0.0000 0.0000 0.0000 0.0000 13.0618
#
#
#
# Elastic Compliance Matrix: (Units=1/GPa)
#
#
# Indices 1 2 3 4 5 6 
#
# 1 0.015810 -0.006365 0.002128 0.000000 0.000000 0.000000
# 2 -0.006365 0.038350 -0.008511 0.000000 0.000000 0.000000
# 3 0.002128 -0.008511 0.012204 0.000000 0.000000 0.000000
# 4 0.000000 0.000000 0.000000 0.041065 0.000000 0.000000
# 5 0.000000 0.000000 0.000000 0.000000 0.040089 0.000000
# 6 0.000000 0.000000 0.000000 0.000000 0.000000 0.076559
#
#
# Mechanical properties :
#
#
# Convention : Reuss Voigt Hill
#
# Bulk Modulus (GPa) = 24.46864 27.81447 26.14156
# Shear Modulus (GPa) = 18.99732 23.89453 21.44593
#
# Velocity S-wave (km/s) = 2.89886 3.25110 3.08002
# Velocity P-wave (km/s) = 4.69342 5.13776 4.92061
#
# Compressibility (1/GPa) = 0.04086864
#
# Stress axis : x y z
#
# Youngs Moduli (GPa) = 63.25029 26.07572 81.94222
#
# Poissons Ratio (x) = 0.16596 -0.17435
# Poissons Ratio (y) = 0.40256 0.69739
# Poissons Ratio (z) = -0.13458 0.22193
#
# Static dielectric constant tensor:
#      x y z
#    x 1.988240 0.000000 0.000000 
#    y 0.000000 1.845360 0.000000 
#    z 0.000000 0.000000 1.898580 
# 
# From -- ./inp_files/20960.got.cif
#   From: 2010.05.17/outbox.cif.g08.bks.cpg/sg62_11_cif.got.tgz:20960.got - 2010.06.03 15:25:27.
