data_PCOD9462163
_publ_section_title
;
Structure prediction by ZEFSAII (Michael W. Deem and Ramdas Pophale) SiO2 
 PCOD9462163
Probable space group: P N M A
;
_chemical_formula_sum "Si O2"
_cell_formula_units_Z 56
_cell_length_a 12.840804
_cell_length_b 15.011421
_cell_length_c 14.035333
_cell_angle_alpha 90.000000
_cell_angle_beta 90.000000
_cell_angle_gamma 90.000000
_cell_volume 2705.432751
_symmetry_space_group_name_H-M "P N M A"
_symmetry_group_IT_number 62
_symmetry_cell_setting 'orthorhombic'
loop_
_space_group_symop_operation_xyz
x,y,z
1/2-x,-y,1/2+z
1/2+x,1/2-y,1/2-z
-x,1/2+y,-z
-x,-y,-z
1/2+x,y,1/2-z
1/2-x,1/2+y,1/2+z
x,1/2-y,z
loop_
_atom_site_type_symbol
_atom_site_label
_atom_site_fract_x
_atom_site_fract_y
_atom_site_fract_z
Si Si1 0.256005 0.852303 0.842174
Si Si2 0.779113 0.843832 0.335923
Si Si3 0.681125 0.653179 0.126174
Si Si4 0.887966 0.577283 0.059549
Si Si5 0.943920 0.524330 0.599419
Si Si6 0.891456 0.115708 0.988128
Si Si7 0.376616 0.486173 0.233092
O O1 0.282598 0.750000 0.817897
O O2 0.348850 0.904339 0.897982
O O3 0.215693 0.916524 0.756870
O O4 0.156449 0.851327 0.912906
O O5 0.837412 0.750000 0.351868
O O6 0.731529 0.841935 0.230527
O O7 0.683821 0.848789 0.407583
O O8 0.843253 0.934338 0.337877
O O9 0.636482 0.750000 0.101678
O O10 0.779082 0.628423 0.059408
O O11 0.604166 0.570731 0.128774
O O12 0.902995 0.534720 0.166004
O O13 0.988193 0.634672 0.032135
O O14 0.882905 0.491882 0.991018
O O15 0.000000 0.500000 0.500000
O O16 0.025248 0.556241 0.680113
#
# Coordination Sequence:
#
# PCOD9462163 Si02
#       7
#     8   8   8   8   8   8   8
#     4  11  24  44  63  91 128 167 220 266 311 388
#     4  10  19  34  61  93 123 156 199 253 312 377
#     4  10  21  39  58  89 128 159 201 251 314 384
#     4   9  19  35  60  90 121 164 193 250 309 377
#     4  12  24  42  66  93 125 171 211 272 327 382
#     4  10  18  34  62  92 121 158 204 250 313 371
#     4  10  22  40  63  87 125 163 208 253 319 379
#
# _framework density 20.699093000000001
#
# number of rings (size 3 to 8) (size 9 to 14) (size 15 to 20)
#    0.000    1.714    4.286    2.143    0.000    2.857 
#    0.000    2.857    0.000    0.000    0.000    0.000 
#    0.000    0.000    0.000    0.000    0.000    0.000 
#
# Total GULP energy -312281.052521 kJ/mol
# GULP energy per Si atom -5576.447366 kJ/mol
# Density = 2.065198 g / cm^3
# Si number density = 20.699093 Si / 1000 Ang^3
#
#
#
# Elastic Constant Matrix: (Units=GPa)
#
#
# Indices 1 2 3 4 5 6 
#
# 1 57.6549 23.2428 22.2783 0.0000 0.0000 0.0000
# 2 23.2428 114.5795 21.6740 0.0000 0.0000 0.0000
# 3 22.2783 21.6740 22.3703 0.0000 0.0000 0.0000
# 4 0.0000 0.0000 0.0000 -6.5407 0.0000 0.0000
# 5 0.0000 0.0000 0.0000 0.0000 35.3682 0.0000
# 6 0.0000 0.0000 0.0000 0.0000 0.0000 18.3523
#
#
#
# Elastic Compliance Matrix: (Units=1/GPa)
#
#
# Indices 1 2 3 4 5 6 
#
# 1 0.028218 -0.000500 -0.027617 0.000000 0.000000 0.000000
# 2 -0.000500 0.010695 -0.009864 0.000000 0.000000 0.000000
# 3 -0.027617 -0.009864 0.081763 0.000000 0.000000 0.000000
# 4 0.000000 0.000000 0.000000 -0.152889 0.000000 0.000000
# 5 0.000000 0.000000 0.000000 0.000000 0.028274 0.000000
# 6 0.000000 0.000000 0.000000 0.000000 0.000000 0.054489
#
#
# Mechanical properties :
#
#
# Convention : Reuss Voigt Hill
#
# Bulk Modulus (GPa) = 22.36496 36.55500 29.45998
# Shear Modulus (GPa) = 35.35659 17.92993 26.64326
#
# Velocity S-wave (km/s) = 4.13743 2.94635 3.59161
# Velocity P-wave (km/s) = 5.80109 5.41047 5.60918
#
# Compressibility (1/GPa) = 0.04471280
#
# Stress axis : x y z
#
# Youngs Moduli (GPa) = 35.43876 93.50268 12.23049
#
# Poissons Ratio (x) = 0.04675 0.33777
# Poissons Ratio (y) = 0.01772 0.12064
# Poissons Ratio (z) = 0.97872 0.92232
#
# Static dielectric constant tensor:
#      x y z
#    x 1.777820 0.000000 0.000000 
#    y 0.000000 1.789340 0.000000 
#    z 0.000000 0.000000 1.712100 
# 
# From -- ./inp_files/18072.got.cif
#   From: 2010.05.17/outbox.cif.g08.bks.cpg/sg62_10_cif.got.tgz:18072.got - 2010.06.03 15:25:27.
