data_PCOD9462894
_publ_section_title
;
Structure prediction by ZEFSAII (Michael W. Deem and Ramdas Pophale) SiO2 
 PCOD9462894
Probable space group: P N M A
;
_chemical_formula_sum "Si O2"
_cell_formula_units_Z 64
_cell_length_a 27.122554
_cell_length_b 13.048993
_cell_length_c 9.392204
_cell_angle_alpha 90.000000
_cell_angle_beta 90.000000
_cell_angle_gamma 90.000000
_cell_volume 3324.107786
_symmetry_space_group_name_H-M "P N M A"
_symmetry_group_IT_number 62
_symmetry_cell_setting 'orthorhombic'
loop_
_space_group_symop_operation_xyz
x,y,z
1/2-x,-y,1/2+z
1/2+x,1/2-y,1/2-z
-x,1/2+y,-z
-x,-y,-z
1/2+x,y,1/2-z
1/2-x,1/2+y,1/2+z
x,1/2-y,z
loop_
_atom_site_type_symbol
_atom_site_label
_atom_site_fract_x
_atom_site_fract_y
_atom_site_fract_z
Si Si1 0.625401 0.632297 0.595616
Si Si2 0.957346 0.970486 0.161801
Si Si3 0.787746 0.012684 0.634372
Si Si4 0.123227 0.365896 0.298681
Si Si5 0.056697 0.028239 0.528860
Si Si6 0.223522 0.628077 0.074816
Si Si7 0.034198 0.363366 0.115754
Si Si8 0.858031 0.368821 0.424683
O O1 0.606129 0.750000 0.589272
O O2 0.583130 0.546723 0.592352
O O3 0.666155 0.621132 0.473243
O O4 0.649108 0.620530 0.754065
O O5 0.939986 0.927816 0.311583
O O6 0.971781 0.884037 0.050868
O O7 0.003358 0.046328 0.187677
O O8 0.767894 0.078086 0.768946
O O9 0.813701 0.085093 0.516819
O O10 0.831472 0.941993 0.695981
O O11 0.751869 0.937816 0.545671
O O12 0.140105 0.250000 0.321864
O O13 0.082847 0.397074 0.417517
O O14 0.091519 0.371449 0.155058
O O15 0.091762 0.928073 0.534730
O O16 0.000000 0.000000 0.500000
O O17 0.236373 0.750000 0.073460
O O18 0.017516 0.250000 0.159157
O O19 0.863406 0.250000 0.457109
#
# Coordination Sequence:
#
# PCOD9462894 Si02
#       8
#     8   8   8   8   8   8   8   8
#     4   9  18  34  56  81 107 143 187 235 286 338
#     4  10  19  33  54  75 111 142 188 232 278 333
#     4  11  22  39  61  85 119 151 194 242 304 355
#     4  10  21  37  57  80 114 152 191 235 293 355
#     4  10  19  33  53  81 111 149 189 236 285 336
#     4  11  23  39  62  89 119 153 197 247 303 363
#     4  10  20  33  51  75 106 147 185 225 276 336
#     4   9  19  35  57  82 112 150 194 243 292 349
#
# _framework density 19.253285999999999
#
# number of rings (size 3 to 8) (size 9 to 14) (size 15 to 20)
#    0.000    2.000    1.250    2.625    0.000    1.500 
#    0.000    1.875    0.000    6.000    0.000    0.000 
#    0.000    0.000    0.000    0.000    0.000    0.000 
#
# Total GULP energy -356856.092593 kJ/mol
# GULP energy per Si atom -5575.876447 kJ/mol
# Density = 1.920947 g / cm^3
# Si number density = 19.253286 Si / 1000 Ang^3
#
#
#
# Elastic Constant Matrix: (Units=GPa)
#
#
# Indices 1 2 3 4 5 6 
#
# 1 42.2778 2.3502 9.0722 0.0000 0.0000 0.0000
# 2 2.3502 64.1872 31.2098 0.0000 0.0000 0.0000
# 3 9.0722 31.2098 65.3273 0.0000 0.0000 0.0000
# 4 0.0000 0.0000 0.0000 22.7033 0.0000 0.0000
# 5 0.0000 0.0000 0.0000 0.0000 27.2896 0.0000
# 6 0.0000 0.0000 0.0000 0.0000 0.0000 17.1539
#
#
#
# Elastic Compliance Matrix: (Units=1/GPa)
#
#
# Indices 1 2 3 4 5 6 
#
# 1 0.024427 0.000983 -0.003862 0.000000 0.000000 0.000000
# 2 0.000983 0.020333 -0.009851 0.000000 0.000000 0.000000
# 3 -0.003862 -0.009851 0.020550 0.000000 0.000000 0.000000
# 4 0.000000 0.000000 0.000000 0.044046 0.000000 0.000000
# 5 0.000000 0.000000 0.000000 0.000000 0.036644 0.000000
# 6 0.000000 0.000000 0.000000 0.000000 0.000000 0.058296
#
#
# Mechanical properties :
#
#
# Convention : Reuss Voigt Hill
#
# Bulk Modulus (GPa) = 25.09305 28.56186 26.82746
# Shear Modulus (GPa) = 20.57284 22.04003 21.30643
#
# Velocity S-wave (km/s) = 3.27239 3.38707 3.33023
# Velocity P-wave (km/s) = 5.22872 5.49212 5.36204
#
# Compressibility (1/GPa) = 0.03985167
#
# Stress axis : x y z
#
# Youngs Moduli (GPa) = 40.93807 49.18093 48.66190
#
# Poissons Ratio (x) = -0.04837 0.18794
# Poissons Ratio (y) = -0.04026 0.47935
# Poissons Ratio (z) = 0.15811 0.48446
#
# Static dielectric constant tensor:
#      x y z
#    x 1.673840 0.000000 0.000000 
#    y 0.000000 1.652040 0.000000 
#    z 0.000000 0.000000 1.686870 
# 
# From -- ./inp_files/9495.got.cif
#   From: 2010.05.17/outbox.cif.g08.bks.cpg/sg62_5_cif.got.tgz:9495.got - 2010.06.03 15:25:27.
