data_PCOD9462089
_publ_section_title
;
Structure prediction by ZEFSAII (Michael W. Deem and Ramdas Pophale) SiO2 
 PCOD9462089
Probable space group: P N M A
;
_chemical_formula_sum "Si O2"
_cell_formula_units_Z 48
_cell_length_a 14.727358
_cell_length_b 17.039591
_cell_length_c 8.426343
_cell_angle_alpha 90.000000
_cell_angle_beta 90.000000
_cell_angle_gamma 90.000000
_cell_volume 2114.575245
_symmetry_space_group_name_H-M "P N M A"
_symmetry_group_IT_number 62
_symmetry_cell_setting 'orthorhombic'
loop_
_space_group_symop_operation_xyz
x,y,z
1/2-x,-y,1/2+z
1/2+x,1/2-y,1/2-z
-x,1/2+y,-z
-x,-y,-z
1/2+x,y,1/2-z
1/2-x,1/2+y,1/2+z
x,1/2-y,z
loop_
_atom_site_type_symbol
_atom_site_label
_atom_site_fract_x
_atom_site_fract_y
_atom_site_fract_z
Si Si1 0.845903 0.920051 0.386989
Si Si2 0.808767 0.664340 0.818302
Si Si3 0.329525 0.339632 0.677626
Si Si4 0.249696 0.949913 0.414735
Si Si5 0.885346 0.158810 0.157154
Si Si6 0.519942 0.340836 0.083269
O O1 0.777676 0.845519 0.370788
O O2 0.824744 0.964360 0.221733
O O3 0.945074 0.891462 0.434815
O O4 0.801605 0.975341 0.519536
O O5 0.811844 0.750000 0.900641
O O6 0.717444 0.661817 0.716144
O O7 0.893616 0.659672 0.701938
O O8 0.800117 0.596136 0.945859
O O9 0.354282 0.250000 0.709128
O O10 0.326300 0.394262 0.831599
O O11 0.384662 0.371129 0.524280
O O12 0.917716 0.250000 0.144095
O O13 0.941753 0.124545 0.304037
O O14 0.499323 0.250000 0.038492
#
# Coordination Sequence:
#
# PCOD9462089 Si02
#       6
#     8   8   8   8   8   8
#     4  10  20  33  55  78 112 145 182 224 277 325
#     4  10  18  33  57  81 109 143 186 227 272 326
#     4   9  18  34  57  78 106 146 183 221 274 325
#     4  10  21  33  57  80 111 146 185 228 280 322
#     4   9  18  33  56  84 109 139 184 232 268 322
#     4  10  19  34  58  83 109 144 185 223 273 331
#
# _framework density 22.699594000000001
#
# number of rings (size 3 to 8) (size 9 to 14) (size 15 to 20)
#    1.000    1.333    1.667    2.000    0.000    0.000 
#    0.000    3.333    0.000    6.000    0.000    0.000 
#    0.000    0.000    0.000    0.000    0.000    0.000 
#
# Total GULP energy -267664.660980 kJ/mol
# GULP energy per Si atom -5576.347104 kJ/mol
# Density = 2.264793 g / cm^3
# Si number density = 22.699594 Si / 1000 Ang^3
#
#
#
# Elastic Constant Matrix: (Units=GPa)
#
#
# Indices 1 2 3 4 5 6 
#
# 1 44.7197 -4.6613 -10.4240 0.0000 0.0000 0.0000
# 2 -4.6613 72.1246 19.3037 0.0000 0.0000 0.0000
# 3 -10.4240 19.3037 65.1490 0.0000 0.0000 0.0000
# 4 0.0000 0.0000 0.0000 33.7357 0.0000 0.0000
# 5 0.0000 0.0000 0.0000 0.0000 9.6491 0.0000
# 6 0.0000 0.0000 0.0000 0.0000 0.0000 14.2879
#
#
#
# Elastic Compliance Matrix: (Units=1/GPa)
#
#
# Indices 1 2 3 4 5 6 
#
# 1 0.023248 0.000551 0.003557 0.000000 0.000000 0.000000
# 2 0.000551 0.015072 -0.004378 0.000000 0.000000 0.000000
# 3 0.003557 -0.004378 0.017216 0.000000 0.000000 0.000000
# 4 0.000000 0.000000 0.000000 0.029642 0.000000 0.000000
# 5 0.000000 0.000000 0.000000 0.000000 0.103637 0.000000
# 6 0.000000 0.000000 0.000000 0.000000 0.000000 0.069989
#
#
# Mechanical properties :
#
#
# Convention : Reuss Voigt Hill
#
# Bulk Modulus (GPa) = 18.18365 21.15891 19.67128
# Shear Modulus (GPa) = 18.00654 23.38619 20.69636
#
# Velocity S-wave (km/s) = 2.81953 3.21323 3.02280
# Velocity P-wave (km/s) = 4.31597 4.80707 4.56813
#
# Compressibility (1/GPa) = 0.05499445
#
# Stress axis : x y z
#
# Youngs Moduli (GPa) = 43.01456 66.34747 58.08678
#
# Poissons Ratio (x) = -0.03653 -0.20659
# Poissons Ratio (y) = -0.02368 0.25429
# Poissons Ratio (z) = -0.15298 0.29046
#
# Static dielectric constant tensor:
#      x y z
#    x 1.834730 0.000000 0.000000 
#    y 0.000000 1.881340 0.000000 
#    z 0.000000 0.000000 1.890150 
# 
# From -- ./inp_files/6502.got.cif
#   From: 2010.05.17/outbox.cif.g08.bks.cpg/sg62_4_cif.got.tgz:6502.got - 2010.06.03 15:25:27.
