data_PCOD9462457
_publ_section_title
;
Structure prediction by ZEFSAII (Michael W. Deem and Ramdas Pophale) SiO2 
 PCOD9462457
Probable space group: P N M A
;
_chemical_formula_sum "Si O2"
_cell_formula_units_Z 64
_cell_length_a 30.855325
_cell_length_b 9.083868
_cell_length_c 14.679256
_cell_angle_alpha 90.000000
_cell_angle_beta 90.000000
_cell_angle_gamma 90.000000
_cell_volume 4114.385535
_symmetry_space_group_name_H-M "P N M A"
_symmetry_group_IT_number 62
_symmetry_cell_setting 'orthorhombic'
loop_
_space_group_symop_operation_xyz
x,y,z
1/2-x,-y,1/2+z
1/2+x,1/2-y,1/2-z
-x,1/2+y,-z
-x,-y,-z
1/2+x,y,1/2-z
1/2-x,1/2+y,1/2+z
x,1/2-y,z
loop_
_atom_site_type_symbol
_atom_site_label
_atom_site_fract_x
_atom_site_fract_y
_atom_site_fract_z
Si Si1 0.135635 0.924076 0.683323
Si Si2 0.869851 0.578652 0.679995
Si Si3 0.704891 0.074001 0.690022
Si Si4 0.544523 0.573330 0.894330
Si Si5 0.777751 0.421824 0.001635
Si Si6 0.825364 0.584385 0.483112
Si Si7 0.794406 0.427866 0.794186
Si Si8 0.453044 0.074214 0.891476
O O1 0.137571 0.750000 0.699507
O O2 0.085419 0.966876 0.668343
O O3 0.163396 0.007844 0.758780
O O4 0.158106 0.965073 0.587617
O O5 0.875194 0.750000 0.704452
O O6 0.848831 0.572054 0.579336
O O7 0.835536 0.500237 0.745758
O O8 0.915831 0.498441 0.669521
O O9 0.703355 0.250000 0.692338
O O10 0.749284 0.028590 0.743735
O O11 0.706742 0.015861 0.587031
O O12 0.538112 0.750000 0.889361
O O13 0.500359 0.490661 0.870165
O O14 0.554855 0.538935 0.000820
O O15 0.789587 0.250000 0.015498
O O16 0.725660 0.429850 0.998492
O O17 0.792967 0.467798 0.900951
O O18 0.833455 0.750000 0.445465
O O19 0.796975 0.250000 0.788077
O O20 0.452404 0.250000 0.882216
#
# Coordination Sequence:
#
# PCOD9462457 Si02
#       8
#     8   8   8   8   8   8   8   8
#     4  11  21  33  51  74 102 138 175 210 251 304
#     4  11  21  32  50  74 103 137 173 211 253 303
#     4  11  22  35  51  75 103 134 173 214 255 301
#     4   9  19  33  48  72 102 133 170 208 250 301
#     4  10  20  37  52  70 101 137 175 216 256 296
#     4  10  19  31  48  72 103 136 172 212 252 295
#     4  10  21  35  51  71 101 136 174 214 252 298
#     4  10  19  32  50  73 102 134 169 207 253 304
#
# _framework density 15.555178
#
# number of rings (size 3 to 8) (size 9 to 14) (size 15 to 20)
#    0.000    1.750    3.750    1.500    0.000    3.500 
#    0.000    0.000    0.000    0.000    0.000    0.875 
#    0.000    0.000    0.000    0.000    0.000    0.000 
#
# Total GULP energy -357109.425294 kJ/mol
# GULP energy per Si atom -5579.834770 kJ/mol
# Density = 1.551977 g / cm^3
# Si number density = 15.555178 Si / 1000 Ang^3
#
#
#
# Elastic Constant Matrix: (Units=GPa)
#
#
# Indices 1 2 3 4 5 6 
#
# 1 128.3139 59.7909 58.4380 0.0000 0.0000 0.0000
# 2 59.7909 53.8696 48.0217 0.0000 0.0000 0.0000
# 3 58.4380 48.0217 79.2400 0.0000 0.0000 0.0000
# 4 0.0000 0.0000 0.0000 26.2278 0.0000 0.0000
# 5 0.0000 0.0000 0.0000 0.0000 21.2616 0.0000
# 6 0.0000 0.0000 0.0000 0.0000 0.0000 27.5468
#
#
#
# Elastic Compliance Matrix: (Units=1/GPa)
#
#
# Indices 1 2 3 4 5 6 
#
# 1 0.016333 -0.016075 -0.002303 0.000000 0.000000 0.000000
# 2 -0.016075 0.056197 -0.022202 0.000000 0.000000 0.000000
# 3 -0.002303 -0.022202 0.027774 0.000000 0.000000 0.000000
# 4 0.000000 0.000000 0.000000 0.038127 0.000000 0.000000
# 5 0.000000 0.000000 0.000000 0.000000 0.047033 0.000000
# 6 0.000000 0.000000 0.000000 0.000000 0.000000 0.036302
#
#
# Mechanical properties :
#
#
# Convention : Reuss Voigt Hill
#
# Bulk Modulus (GPa) = 52.23856 65.99163 59.11509
# Shear Modulus (GPa) = 16.16514 21.35210 18.75862
#
# Velocity S-wave (km/s) = 3.22718 3.70897 3.47643
# Velocity P-wave (km/s) = 6.89506 7.80117 7.36207
#
# Compressibility (1/GPa) = 0.01914295
#
# Stress axis : x y z
#
# Youngs Moduli (GPa) = 61.22626 17.79456 36.00526
#
# Poissons Ratio (x) = 0.28604 0.08293
# Poissons Ratio (y) = 0.98420 0.79939
# Poissons Ratio (z) = 0.14103 0.39508
#
# Static dielectric constant tensor:
#      x y z
#    x 1.507830 0.000000 0.000000 
#    y 0.000000 1.526800 0.000000 
#    z 0.000000 0.000000 1.502840 
# 
# From -- ./inp_files/21223.got.cif
#   From: 2010.05.17/outbox.cif.g08.bks.cpg/sg62_11_cif.got.tgz:21223.got - 2010.06.03 15:25:27.
