data_PCOD9462769
_publ_section_title
;
Structure prediction by ZEFSAII (Michael W. Deem and Ramdas Pophale) SiO2 
 PCOD9462769
Probable space group: P N M A
;
_chemical_formula_sum "Si O2"
_cell_formula_units_Z 64
_cell_length_a 24.300301
_cell_length_b 8.977456
_cell_length_c 15.652247
_cell_angle_alpha 90.000000
_cell_angle_beta 90.000000
_cell_angle_gamma 90.000000
_cell_volume 3414.614113
_symmetry_space_group_name_H-M "P N M A"
_symmetry_group_IT_number 62
_symmetry_cell_setting 'orthorhombic'
loop_
_space_group_symop_operation_xyz
x,y,z
1/2-x,-y,1/2+z
1/2+x,1/2-y,1/2-z
-x,1/2+y,-z
-x,-y,-z
1/2+x,y,1/2-z
1/2-x,1/2+y,1/2+z
x,1/2-y,z
loop_
_atom_site_type_symbol
_atom_site_label
_atom_site_fract_x
_atom_site_fract_y
_atom_site_fract_z
Si Si1 0.953734 0.426610 0.115570
Si Si2 0.958866 0.571951 0.293489
Si Si3 0.687133 0.571077 0.192928
Si Si4 0.688753 0.927403 0.382381
Si Si5 0.071274 0.074011 0.354017
Si Si6 0.773482 0.072736 0.510658
Si Si7 0.920770 0.573716 0.941302
Si Si8 0.387148 0.925866 0.040544
O O1 0.943437 0.250000 0.112529
O O2 0.938946 0.495842 0.206455
O O3 0.019345 0.450297 0.100720
O O4 0.924305 0.507773 0.036777
O O5 0.960822 0.750000 0.283166
O O6 0.919532 0.536642 0.373535
O O7 0.019303 0.510385 0.315711
O O8 0.677956 0.750000 0.188906
O O9 0.709893 0.535852 0.286790
O O10 0.628720 0.490021 0.180860
O O11 0.724453 0.530916 0.111303
O O12 0.687795 0.750000 0.391144
O O13 0.726123 0.996592 0.455969
O O14 0.627413 0.991216 0.391434
O O15 0.067116 0.250000 0.335328
O O16 0.074968 0.053379 0.456656
O O17 0.768013 0.250000 0.504580
O O18 0.832233 0.020366 0.473459
O O19 0.910277 0.750000 0.943591
O O20 0.372248 0.750000 0.042843
#
# Coordination Sequence:
#
# PCOD9462769 Si02
#       8
#     8   8   8   8   8   8   8   8
#     4  10  21  37  57  83 115 147 184 230 279 331
#     4  11  21  33  52  80 114 153 189 223 276 341
#     4   9  20  38  59  83 111 146 186 230 285 339
#     4  11  22  38  61  86 112 147 189 234 282 339
#     4  10  19  32  54  82 112 145 187 236 277 325
#     4  10  21  39  60  83 111 146 189 240 288 334
#     4  10  21  38  59  83 112 146 183 229 280 332
#     4   9  20  37  54  76 110 150 187 229 283 334
#
# _framework density 18.742967
#
# number of rings (size 3 to 8) (size 9 to 14) (size 15 to 20)
#    0.000    2.000    0.000    3.375    0.000    6.500 
#    2.250    0.000    0.000    0.000    0.000    0.000 
#    0.000    0.000    0.000    0.000    0.000    0.000 
#
# Total GULP energy -357499.125868 kJ/mol
# GULP energy per Si atom -5585.923842 kJ/mol
# Density = 1.870031 g / cm^3
# Si number density = 18.742967 Si / 1000 Ang^3
#
#
#
# Elastic Constant Matrix: (Units=GPa)
#
#
# Indices 1 2 3 4 5 6 
#
# 1 20.4953 19.9637 28.8098 0.0000 0.0000 0.0000
# 2 19.9637 50.2287 50.3701 0.0000 0.0000 0.0000
# 3 28.8098 50.3701 135.7002 0.0000 0.0000 0.0000
# 4 0.0000 0.0000 0.0000 29.5444 0.0000 0.0000
# 5 0.0000 0.0000 0.0000 0.0000 15.0717 0.0000
# 6 0.0000 0.0000 0.0000 0.0000 0.0000 34.2103
#
#
#
# Elastic Compliance Matrix: (Units=1/GPa)
#
#
# Indices 1 2 3 4 5 6 
#
# 1 0.085810 -0.025227 -0.008854 0.000000 0.000000 0.000000
# 2 -0.025227 0.039130 -0.009169 0.000000 0.000000 0.000000
# 3 -0.008854 -0.009169 0.012652 0.000000 0.000000 0.000000
# 4 0.000000 0.000000 0.000000 0.033847 0.000000 0.000000
# 5 0.000000 0.000000 0.000000 0.000000 0.066349 0.000000
# 6 0.000000 0.000000 0.000000 0.000000 0.000000 0.029231
#
#
# Mechanical properties :
#
#
# Convention : Reuss Voigt Hill
#
# Bulk Modulus (GPa) = 19.57207 44.96793 32.27000
# Shear Modulus (GPa) = 13.49342 22.91733 18.20537
#
# Velocity S-wave (km/s) = 2.68604 3.50053 3.11998
# Velocity P-wave (km/s) = 4.48160 6.35470 5.49850
#
# Compressibility (1/GPa) = 0.05109321
#
# Stress axis : x y z
#
# Youngs Moduli (GPa) = 11.65362 25.55569 79.03724
#
# Poissons Ratio (x) = 0.64469 0.69979
# Poissons Ratio (y) = 0.29399 0.72468
# Poissons Ratio (z) = 0.10318 0.23432
#
# Static dielectric constant tensor:
#      x y z
#    x 1.615290 0.000000 0.000000 
#    y 0.000000 1.621570 0.000000 
#    z 0.000000 0.000000 1.666090 
# 
# From -- ./inp_files/20972.got.cif
#   From: 2010.05.17/outbox.cif.g08.bks.cpg/sg62_11_cif.got.tgz:20972.got - 2010.06.03 15:25:27.
