data_PCOD9462796
_publ_section_title
;
Structure prediction by ZEFSAII (Michael W. Deem and Ramdas Pophale) SiO2 
 PCOD9462796
Probable space group: P N M A
;
_chemical_formula_sum "Si O2"
_cell_formula_units_Z 64
_cell_length_a 22.195772
_cell_length_b 8.977821
_cell_length_c 17.533595
_cell_angle_alpha 90.000000
_cell_angle_beta 90.000000
_cell_angle_gamma 90.000000
_cell_volume 3493.913654
_symmetry_space_group_name_H-M "P N M A"
_symmetry_group_IT_number 62
_symmetry_cell_setting 'orthorhombic'
loop_
_space_group_symop_operation_xyz
x,y,z
1/2-x,-y,1/2+z
1/2+x,1/2-y,1/2-z
-x,1/2+y,-z
-x,-y,-z
1/2+x,y,1/2-z
1/2-x,1/2+y,1/2+z
x,1/2-y,z
loop_
_atom_site_type_symbol
_atom_site_label
_atom_site_fract_x
_atom_site_fract_y
_atom_site_fract_z
Si Si1 0.117735 0.074009 0.281290
Si Si2 0.937253 0.571311 0.413235
Si Si3 0.721802 0.072848 0.341795
Si Si4 0.843991 0.571605 0.284627
Si Si5 0.531815 0.429370 0.355390
Si Si6 0.423075 0.427424 0.929519
Si Si7 0.132590 0.928616 0.040601
Si Si8 0.109102 0.928696 0.866378
O O1 0.113068 0.250000 0.297456
O O2 0.176652 0.048960 0.229801
O O3 0.061817 0.031567 0.226059
O O4 0.116396 0.985964 0.359788
O O5 0.934853 0.750000 0.421143
O O6 0.900944 0.529424 0.337758
O O7 0.908980 0.498501 0.488704
O O8 0.007514 0.527529 0.410844
O O9 0.728058 0.250000 0.352566
O O10 0.784848 0.997696 0.322659
O O11 0.688057 0.001045 0.414013
O O12 0.839358 0.750000 0.282913
O O13 0.854783 0.508571 0.200462
O O14 0.538197 0.250000 0.364543
O O15 0.572117 0.508776 0.419404
O O16 0.461794 0.468183 0.360217
O O17 0.420221 0.250000 0.934742
O O18 0.133990 0.750000 0.048677
O O19 0.131524 0.965734 0.951209
O O20 0.113785 0.750000 0.856436
#
# Coordination Sequence:
#
# PCOD9462796 Si02
#       8
#     8   8   8   8   8   8   8   8
#     4   9  18  33  54  79 108 145 181 222 274 322
#     4   9  20  37  54  78 113 145 174 220 280 329
#     4  10  22  41  60  77 106 148 190 231 280 332
#     4  11  23  39  59  82 109 145 188 235 284 331
#     4   9  18  33  55  84 118 154 187 222 274 333
#     4  10  19  32  55  85 111 139 180 223 267 328
#     4  10  20  35  57  85 115 149 187 229 277 327
#     4  10  21  36  56  85 118 150 184 225 278 338
#
# _framework density 18.317568000000001
#
# number of rings (size 3 to 8) (size 9 to 14) (size 15 to 20)
#    0.000    2.250    0.000    3.375    0.000    5.500 
#    2.250    0.000    0.000    0.000    0.000    0.000 
#    0.000    0.000    0.000    0.000    0.000    0.000 
#
# Total GULP energy -357356.900430 kJ/mol
# GULP energy per Si atom -5583.701569 kJ/mol
# Density = 1.827588 g / cm^3
# Si number density = 18.317568 Si / 1000 Ang^3
#
#
#
# Elastic Constant Matrix: (Units=GPa)
#
#
# Indices 1 2 3 4 5 6 
#
# 1 54.2649 16.6161 13.4874 0.0000 0.0000 0.0000
# 2 16.6161 22.6658 25.9406 0.0000 0.0000 0.0000
# 3 13.4874 25.9406 84.8383 0.0000 0.0000 0.0000
# 4 0.0000 0.0000 0.0000 32.3038 0.0000 0.0000
# 5 0.0000 0.0000 0.0000 0.0000 6.7306 0.0000
# 6 0.0000 0.0000 0.0000 0.0000 0.0000 28.9424
#
#
#
# Elastic Compliance Matrix: (Units=1/GPa)
#
#
# Indices 1 2 3 4 5 6 
#
# 1 0.024079 -0.020415 0.002414 0.000000 0.000000 0.000000
# 2 -0.020415 0.085179 -0.022799 0.000000 0.000000 0.000000
# 3 0.002414 -0.022799 0.018374 0.000000 0.000000 0.000000
# 4 0.000000 0.000000 0.000000 0.030956 0.000000 0.000000
# 5 0.000000 0.000000 0.000000 0.000000 0.148576 0.000000
# 6 0.000000 0.000000 0.000000 0.000000 0.000000 0.034551
#
#
# Mechanical properties :
#
#
# Convention : Reuss Voigt Hill
#
# Bulk Modulus (GPa) = 21.72401 30.42858 26.07629
# Shear Modulus (GPa) = 11.39835 20.64370 16.02103
#
# Velocity S-wave (km/s) = 2.49723 3.36071 2.96062
# Velocity P-wave (km/s) = 4.49447 5.63089 5.09447
#
# Compressibility (1/GPa) = 0.04603202
#
# Stress axis : x y z
#
# Youngs Moduli (GPa) = 41.52942 11.74003 54.42331
#
# Poissons Ratio (x) = 0.23968 -0.13139
# Poissons Ratio (y) = 0.84784 1.24080
# Poissons Ratio (z) = -0.10026 0.26766
#
# Static dielectric constant tensor:
#      x y z
#    x 1.621040 0.000000 0.000000 
#    y 0.000000 1.607290 0.000000 
#    z 0.000000 0.000000 1.608390 
# 
# From -- ./inp_files/20841.got.cif
#   From: 2010.05.17/outbox.cif.g08.bks.cpg/sg62_11_cif.got.tgz:20841.got - 2010.06.03 15:25:27.
