data_PCOD9462476
_publ_section_title
;
Structure prediction by ZEFSAII (Michael W. Deem and Ramdas Pophale) SiO2 
 PCOD9462476
Probable space group: P N M A
;
_chemical_formula_sum "Si O2"
_cell_formula_units_Z 64
_cell_length_a 22.658616
_cell_length_b 9.341888
_cell_length_c 12.531110
_cell_angle_alpha 90.000000
_cell_angle_beta 90.000000
_cell_angle_gamma 90.000000
_cell_volume 2652.513347
_symmetry_space_group_name_H-M "P N M A"
_symmetry_group_IT_number 62
_symmetry_cell_setting 'orthorhombic'
loop_
_space_group_symop_operation_xyz
x,y,z
1/2-x,-y,1/2+z
1/2+x,1/2-y,1/2-z
-x,1/2+y,-z
-x,-y,-z
1/2+x,y,1/2-z
1/2-x,1/2+y,1/2+z
x,1/2-y,z
loop_
_atom_site_type_symbol
_atom_site_label
_atom_site_fract_x
_atom_site_fract_y
_atom_site_fract_z
Si Si1 0.102175 0.913935 0.156155
Si Si2 0.746466 0.904879 0.641100
Si Si3 0.221714 0.085149 0.111310
Si Si4 0.162869 0.418770 0.592761
Si Si5 0.363505 0.583850 0.346101
Si Si6 0.503515 0.901543 0.898534
Si Si7 0.979317 0.078149 0.158017
Si Si8 0.620304 0.494829 0.111191
O O1 0.103562 0.750000 0.115722
O O2 0.111130 0.904056 0.286421
O O3 0.156929 0.013523 0.118963
O O4 0.039356 0.991235 0.131446
O O5 0.725723 0.750000 0.602499
O O6 0.750798 0.899720 0.769662
O O7 0.698872 0.024908 0.610201
O O8 0.815148 0.930349 0.621166
O O9 0.221072 0.250000 0.069291
O O10 0.269996 0.970091 0.070765
O O11 0.154542 0.250000 0.565920
O O12 0.145550 0.427399 0.717285
O O13 0.122993 0.521637 0.517143
O O14 0.373413 0.750000 0.371373
O O15 0.418817 0.489968 0.386148
O O16 0.528150 0.750000 0.931088
O O17 0.529106 0.946426 0.785689
O O18 0.433955 0.891003 0.870954
O O19 0.500000 0.000000 0.000000
O O20 0.984599 0.250000 0.139778
#
# Coordination Sequence:
#
# PCOD9462476 Si02
#       8
#     8   8   8   8   8   8   8   8
#     4  10  20  34  52  73  98 129 167 209 251 296
#     4   9  17  31  50  68  92 128 167 207 249 292
#     4   9  18  32  49  70  97 129 165 205 250 297
#     4  10  19  31  49  72 101 135 169 206 247 293
#     4  10  20  33  49  71  99 129 164 206 250 295
#     4  10  20  32  46  67  98 134 168 201 238 284
#     4  10  20  33  49  69  94 126 164 203 245 295
#     4  10  20  32  50  74 101 134 172 209 247 292
#
# _framework density 24.128060999999999
#
# number of rings (size 3 to 8) (size 9 to 14) (size 15 to 20)
#    0.000    2.250    0.000    3.375    0.000   11.500 
#    0.000    0.000    0.000    0.000    0.000    0.875 
#    0.000    0.000    0.000    0.000    0.000    0.000 
#
# Total GULP energy -356646.857399 kJ/mol
# GULP energy per Si atom -5572.607147 kJ/mol
# Density = 2.407314 g / cm^3
# Si number density = 24.128061 Si / 1000 Ang^3
#
#
#
# Elastic Constant Matrix: (Units=GPa)
#
#
# Indices 1 2 3 4 5 6 
#
# 1 153.3517 103.3789 -4.1339 0.0000 0.0000 0.0000
# 2 103.3789 116.5275 6.1296 0.0000 0.0000 0.0000
# 3 -4.1339 6.1296 49.9668 0.0000 0.0000 0.0000
# 4 0.0000 0.0000 0.0000 16.5603 0.0000 0.0000
# 5 0.0000 0.0000 0.0000 0.0000 25.3993 0.0000
# 6 0.0000 0.0000 0.0000 0.0000 0.0000 13.7872
#
#
#
# Elastic Compliance Matrix: (Units=1/GPa)
#
#
# Indices 1 2 3 4 5 6 
#
# 1 0.016725 -0.015007 0.003225 0.000000 0.000000 0.000000
# 2 -0.015007 0.022103 -0.003953 0.000000 0.000000 0.000000
# 3 0.003225 -0.003953 0.020765 0.000000 0.000000 0.000000
# 4 0.000000 0.000000 0.000000 0.060385 0.000000 0.000000
# 5 0.000000 0.000000 0.000000 0.000000 0.039371 0.000000
# 6 0.000000 0.000000 0.000000 0.000000 0.000000 0.072531
#
#
# Mechanical properties :
#
#
# Convention : Reuss Voigt Hill
#
# Bulk Modulus (GPa) = 35.55942 58.95503 47.25722
# Shear Modulus (GPa) = 18.33346 25.44746 21.89046
#
# Velocity S-wave (km/s) = 2.75951 3.25111 3.01535
# Velocity P-wave (km/s) = 4.99229 6.21130 5.63486
#
# Compressibility (1/GPa) = 0.02812194
#
# Stress axis : x y z
#
# Youngs Moduli (GPa) = 59.79227 45.24212 48.15791
#
# Poissons Ratio (x) = 0.67895 -0.15529
# Poissons Ratio (y) = 0.89731 0.19037
# Poissons Ratio (z) = -0.19281 0.17885
#
# Static dielectric constant tensor:
#      x y z
#    x 1.912990 0.000000 0.000000 
#    y 0.000000 1.937940 0.000000 
#    z 0.000000 0.000000 2.122070 
# 
# From -- ./inp_files/24786.got.cif
#   From: 2010.05.17/outbox.cif.g08.bks.cpg/sg62_13_cif.got.tgz:24786.got - 2010.06.03 15:25:27.
