data_PCOD9462417
_publ_section_title
;
Structure prediction by ZEFSAII (Michael W. Deem and Ramdas Pophale) SiO2 
 PCOD9462417
Probable space group: P N M A
;
_chemical_formula_sum "Si O2"
_cell_formula_units_Z 60
_cell_length_a 13.565948
_cell_length_b 7.300560
_cell_length_c 23.801848
_cell_angle_alpha 90.000000
_cell_angle_beta 90.000000
_cell_angle_gamma 90.000000
_cell_volume 2357.311637
_symmetry_space_group_name_H-M "P N M A"
_symmetry_group_IT_number 62
_symmetry_cell_setting 'orthorhombic'
loop_
_space_group_symop_operation_xyz
x,y,z
1/2-x,-y,1/2+z
1/2+x,1/2-y,1/2-z
-x,1/2+y,-z
-x,-y,-z
1/2+x,y,1/2-z
1/2-x,1/2+y,1/2+z
x,1/2-y,z
loop_
_atom_site_type_symbol
_atom_site_label
_atom_site_fract_x
_atom_site_fract_y
_atom_site_fract_z
Si Si1 0.078418 0.469292 0.257398
Si Si2 0.101135 0.972404 0.058378
Si Si3 0.299546 0.963506 0.262562
Si Si4 0.510649 0.969581 0.869828
Si Si5 0.277783 0.959325 0.137968
Si Si6 0.286749 0.750000 0.496529
Si Si7 0.042007 0.457028 0.848239
Si Si8 0.891377 0.533247 0.527380
O O1 0.074231 0.250000 0.252873
O O2 0.185674 0.523879 0.278302
O O3 0.004520 0.531280 0.306004
O O4 0.047152 0.546266 0.197402
O O5 0.103544 0.750000 0.052526
O O6 0.193582 0.036885 0.098630
O O7 0.006013 0.030136 0.095012
O O8 0.126817 0.088880 0.004039
O O9 0.328564 0.750000 0.257582
O O10 0.295815 0.045059 0.199379
O O11 0.370562 0.042833 0.310659
O O12 0.516832 0.750000 0.870619
O O13 0.418046 0.016982 0.907945
O O14 0.615795 0.038042 0.891243
O O15 0.248498 0.750000 0.148149
O O16 0.199069 0.590794 0.491318
O O17 0.074183 0.250000 0.861989
O O18 0.868841 0.750000 0.522561
O O19 0.000000 0.500000 0.500000
#
# Coordination Sequence:
#
# PCOD9462417 Si02
#       8
#     8   8   8   8   8   4   8   8
#     4  11  22  35  53  83 120 157 198 239 291 355
#     4  10  22  37  55  84 120 155 199 248 291 354
#     4  10  20  35  54  81 115 159 199 240 284 344
#     4  10  23  37  53  79 118 158 193 242 301 351
#     4  10  19  30  52  79 112 157 197 229 283 343
#     4  12  24  38  60  82 110 154 206 240 308 354
#     4  10  20  37  56  80 118 158 196 242 292 346
#     4  11  23  41  58  84 123 155 202 257 304 367
#
# _framework density 25.452721
#
# number of rings (size 3 to 8) (size 9 to 14) (size 15 to 20)
#    0.000    1.600    3.333    1.600    4.667    2.667 
#    0.000    0.000    0.000    0.000    0.000    0.933 
#    0.000    0.000    0.000    0.000    0.000    0.000 
#
# Total GULP energy -334359.891781 kJ/mol
# GULP energy per Si atom -5572.664863 kJ/mol
# Density = 2.539479 g / cm^3
# Si number density = 25.452721 Si / 1000 Ang^3
#
#
#
# Elastic Constant Matrix: (Units=GPa)
#
#
# Indices 1 2 3 4 5 6 
#
# 1 97.0554 -2.2415 34.2949 0.0000 0.0000 0.0000
# 2 -2.2415 141.9799 10.4303 0.0000 0.0000 0.0000
# 3 34.2949 10.4303 69.2087 0.0000 0.0000 0.0000
# 4 0.0000 0.0000 0.0000 -5.7651 0.0000 0.0000
# 5 0.0000 0.0000 0.0000 0.0000 52.2921 0.0000
# 6 0.0000 0.0000 0.0000 0.0000 0.0000 3.6153
#
#
#
# Elastic Compliance Matrix: (Units=1/GPa)
#
#
# Indices 1 2 3 4 5 6 
#
# 1 0.012552 0.000662 -0.006320 0.000000 0.000000 0.000000
# 2 0.000662 0.007157 -0.001407 0.000000 0.000000 0.000000
# 3 -0.006320 -0.001407 0.017793 0.000000 0.000000 0.000000
# 4 0.000000 0.000000 0.000000 -0.173459 0.000000 0.000000
# 5 0.000000 0.000000 0.000000 0.000000 0.019123 0.000000
# 6 0.000000 0.000000 0.000000 0.000000 0.000000 0.276599
#
#
# Mechanical properties :
#
#
# Convention : Reuss Voigt Hill
#
# Bulk Modulus (GPa) = 42.78377 43.69014 43.23696
# Shear Modulus (GPa) = 27.52033 27.74584 27.63308
#
# Velocity S-wave (km/s) = 3.29178 3.30524 3.29851
# Velocity P-wave (km/s) = 5.59405 5.63636 5.61525
#
# Compressibility (1/GPa) = 0.02337335
#
# Stress axis : x y z
#
# Youngs Moduli (GPa) = 79.67027 139.72217 56.20317
#
# Poissons Ratio (x) = -0.09255 0.35518
# Poissons Ratio (y) = -0.05277 0.07907
# Poissons Ratio (z) = 0.50348 0.19657
#
# Static dielectric constant tensor:
#      x y z
#    x 2.024770 0.000000 0.000000 
#    y 0.000000 1.909880 0.000000 
#    z 0.000000 0.000000 2.134470 
# 
# From -- ./inp_files/31327.got.cif
#   From: 2010.05.17/outbox.cif.g08.bks.cpg/sg62_16_cif.got.tgz:31327.got - 2010.06.03 15:25:27.
