data_PCOD9462284
_publ_section_title
;
Structure prediction by ZEFSAII (Michael W. Deem and Ramdas Pophale) SiO2 
 PCOD9462284
Probable space group: P N M A
;
_chemical_formula_sum "Si O2"
_cell_formula_units_Z 64
_cell_length_a 18.502804
_cell_length_b 21.031278
_cell_length_c 11.441935
_cell_angle_alpha 90.000000
_cell_angle_beta 90.000000
_cell_angle_gamma 90.000000
_cell_volume 4452.487293
_symmetry_space_group_name_H-M "P N M A"
_symmetry_group_IT_number 62
_symmetry_cell_setting 'orthorhombic'
loop_
_space_group_symop_operation_xyz
x,y,z
1/2-x,-y,1/2+z
1/2+x,1/2-y,1/2-z
-x,1/2+y,-z
-x,-y,-z
1/2+x,y,1/2-z
1/2-x,1/2+y,1/2+z
x,1/2-y,z
loop_
_atom_site_type_symbol
_atom_site_label
_atom_site_fract_x
_atom_site_fract_y
_atom_site_fract_z
Si Si1 0.534300 0.175448 0.719456
Si Si2 0.059909 0.927330 0.103728
Si Si3 0.660107 0.076714 0.771339
Si Si4 0.883183 0.525215 0.516871
Si Si5 0.676824 0.925632 0.191146
Si Si6 0.435455 0.030269 0.346757
Si Si7 0.920245 0.177071 0.569891
Si Si8 0.976447 0.085814 0.388443
O O1 0.545181 0.250000 0.693292
O O2 0.485873 0.137257 0.624860
O O3 0.607669 0.135957 0.740920
O O4 0.485830 0.170499 0.837070
O O5 0.125644 0.930478 0.194783
O O6 0.082514 0.938127 0.970281
O O7 0.004585 0.984080 0.136155
O O8 0.741492 0.085576 0.729295
O O9 0.626563 0.015796 0.703535
O O10 0.655141 0.061371 0.909926
O O11 0.833735 0.488227 0.610240
O O12 0.931517 0.470362 0.454055
O O13 0.940228 0.570401 0.583203
O O14 0.643983 0.867272 0.116784
O O15 0.457310 0.079836 0.246748
O O16 0.898667 0.250000 0.563902
O O17 0.950002 0.149880 0.448723
#
# Coordination Sequence:
#
# PCOD9462284 Si02
#       8
#     8   8   8   8   8   8   8   8
#     4   9  17  31  48  66  89 120 156 193 228 264
#     4   9  17  30  45  66  95 123 153 189 229 280
#     4  10  19  28  45  70  95 121 151 190 232 286
#     4   9  16  28  44  66  90 116 150 187 238 275
#     4  10  19  28  44  68  97 122 147 190 239 279
#     4   9  17  29  46  67  93 123 154 186 234 280
#     4   9  17  30  48  67  88 119 159 195 228 269
#     4   9  14  28  49  64  86 116 151 199 232 263
#
# _framework density 14.373988000000001
#
# number of rings (size 3 to 8) (size 9 to 14) (size 15 to 20)
#    0.000    2.750    2.500    0.000    1.750    0.500 
#    0.000    0.625    0.000    0.000    0.000    0.000 
#    0.000    1.250    0.000    0.000    0.000    0.000 
#
# Total GULP energy -356320.563438 kJ/mol
# GULP energy per Si atom -5567.508804 kJ/mol
# Density = 1.434127 g / cm^3
# Si number density = 14.373988 Si / 1000 Ang^3
#
#
#
# Elastic Constant Matrix: (Units=GPa)
#
#
# Indices 1 2 3 4 5 6 
#
# 1 92.9124 41.5751 33.8137 0.0000 0.0000 0.0000
# 2 41.5751 82.5952 51.4975 0.0000 0.0000 0.0000
# 3 33.8137 51.4975 99.0808 0.0000 0.0000 0.0000
# 4 0.0000 0.0000 0.0000 15.1931 0.0000 0.0000
# 5 0.0000 0.0000 0.0000 0.0000 14.0449 0.0000
# 6 0.0000 0.0000 0.0000 0.0000 0.0000 10.4162
#
#
#
# Elastic Compliance Matrix: (Units=1/GPa)
#
#
# Indices 1 2 3 4 5 6 
#
# 1 0.014074 -0.006050 -0.001658 0.000000 0.000000 0.000000
# 2 -0.006050 0.020513 -0.008597 0.000000 0.000000 0.000000
# 3 -0.001658 -0.008597 0.015127 0.000000 0.000000 0.000000
# 4 0.000000 0.000000 0.000000 0.065819 0.000000 0.000000
# 5 0.000000 0.000000 0.000000 0.000000 0.071200 0.000000
# 6 0.000000 0.000000 0.000000 0.000000 0.000000 0.096005
#
#
# Mechanical properties :
#
#
# Convention : Reuss Voigt Hill
#
# Bulk Modulus (GPa) = 58.47045 58.70679 58.58862
# Shear Modulus (GPa) = 15.57396 17.77764 16.67580
#
# Velocity S-wave (km/s) = 3.29520 3.52062 3.40977
# Velocity P-wave (km/s) = 7.43263 7.58007 7.50671
#
# Compressibility (1/GPa) = 0.01710266
#
# Stress axis : x y z
#
# Youngs Moduli (GPa) = 71.05516 48.75051 66.10727
#
# Poissons Ratio (x) = 0.29494 0.10963
# Poissons Ratio (y) = 0.42989 0.56831
# Poissons Ratio (z) = 0.11784 0.41910
#
# Static dielectric constant tensor:
#      x y z
#    x 1.456110 0.000000 0.000000 
#    y 0.000000 1.466200 0.000000 
#    z 0.000000 0.000000 1.476530 
# 
# From -- ./inp_files/14454.got.cif
#   From: 2010.05.17/outbox.cif.g08.bks.cpg/sg62_8_cif.got.tgz:14454.got - 2010.06.03 15:25:27.
