data_PCOD9462278
_publ_section_title
;
Structure prediction by ZEFSAII (Michael W. Deem and Ramdas Pophale) SiO2 
 PCOD9462278
Probable space group: P N M A
;
_chemical_formula_sum "Si O2"
_cell_formula_units_Z 48
_cell_length_a 14.287074
_cell_length_b 7.470385
_cell_length_c 24.648457
_cell_angle_alpha 90.000000
_cell_angle_beta 90.000000
_cell_angle_gamma 90.000000
_cell_volume 2630.728418
_symmetry_space_group_name_H-M "P N M A"
_symmetry_group_IT_number 62
_symmetry_cell_setting 'orthorhombic'
loop_
_space_group_symop_operation_xyz
x,y,z
1/2-x,-y,1/2+z
1/2+x,1/2-y,1/2-z
-x,1/2+y,-z
-x,-y,-z
1/2+x,y,1/2-z
1/2-x,1/2+y,1/2+z
x,1/2-y,z
loop_
_atom_site_type_symbol
_atom_site_label
_atom_site_fract_x
_atom_site_fract_y
_atom_site_fract_z
Si Si1 0.218879 0.468845 0.665264
Si Si2 0.114050 0.468337 0.774651
Si Si3 0.411330 0.540357 0.939635
Si Si4 0.403169 0.031731 0.725214
Si Si5 0.878626 0.544343 0.441430
Si Si6 0.297849 0.465734 0.833808
O O1 0.216876 0.250000 0.664391
O O2 0.151055 0.521433 0.715001
O O3 0.323583 0.522932 0.682364
O O4 0.181359 0.534939 0.607610
O O5 0.113212 0.250000 0.775197
O O6 0.193508 0.525443 0.817390
O O7 0.008614 0.529322 0.784920
O O8 0.431148 0.750000 0.947949
O O9 0.511777 0.457484 0.925008
O O10 0.337879 0.521417 0.891492
O O11 0.376659 0.466510 0.997740
O O12 0.403975 0.250000 0.725131
O O13 0.366081 0.976618 0.784686
O O14 0.847128 0.750000 0.446620
O O15 0.297544 0.250000 0.833189
#
# Coordination Sequence:
#
# PCOD9462278 Si02
#       6
#     8   8   8   8   8   8
#     4   8  13  22  39  62  83 102 128 166 206 237
#     4   8  13  21  37  63  86 101 125 164 205 238
#     4  10  19  28  40  60  84 109 135 164 201 244
#     4   8  13  22  40  65  85 101 130 171 205 234
#     4   9  17  29  44  61  81 106 136 169 204 240
#     4   9  16  26  42  62  83 107 132 162 201 240
#
# _framework density 18.245895999999998
#
# number of rings (size 3 to 8) (size 9 to 14) (size 15 to 20)
#    0.000    3.333    0.000    3.500    0.000    3.333 
#    0.000    0.000    0.000   10.000    0.000    0.000 
#    0.000    0.000    0.000    0.000    0.000    0.500 
#
# Total GULP energy -267505.296081 kJ/mol
# GULP energy per Si atom -5573.027002 kJ/mol
# Density = 1.820437 g / cm^3
# Si number density = 18.245896 Si / 1000 Ang^3
#
#
#
# Elastic Constant Matrix: (Units=GPa)
#
#
# Indices 1 2 3 4 5 6 
#
# 1 155.6690 -1.8703 94.0653 0.0000 0.0000 0.0000
# 2 -1.8703 51.4078 1.9537 0.0000 0.0000 0.0000
# 3 94.0653 1.9537 136.8878 0.0000 0.0000 0.0000
# 4 0.0000 0.0000 0.0000 7.2600 0.0000 0.0000
# 5 0.0000 0.0000 0.0000 0.0000 28.1430 0.0000
# 6 0.0000 0.0000 0.0000 0.0000 0.0000 1.0854
#
#
#
# Elastic Compliance Matrix: (Units=1/GPa)
#
#
# Indices 1 2 3 4 5 6 
#
# 1 0.011010 0.000688 -0.007575 0.000000 0.000000 0.000000
# 2 0.000688 0.019506 -0.000751 0.000000 0.000000 0.000000
# 3 -0.007575 -0.000751 0.012522 0.000000 0.000000 0.000000
# 4 0.000000 0.000000 0.000000 0.137742 0.000000 0.000000
# 5 0.000000 0.000000 0.000000 0.000000 0.035533 0.000000
# 6 0.000000 0.000000 0.000000 0.000000 0.000000 0.921360
#
#
# Mechanical properties :
#
#
# Convention : Reuss Voigt Hill
#
# Bulk Modulus (GPa) = 36.02261 59.14023 47.58142
# Shear Modulus (GPa) = 4.30218 23.95206 14.12712
#
# Velocity S-wave (km/s) = 1.53721 3.62710 2.78558
# Velocity P-wave (km/s) = 4.78920 7.07279 6.03990
#
# Compressibility (1/GPa) = 0.02776034
#
# Stress axis : x y z
#
# Youngs Moduli (GPa) = 90.82923 51.26654 79.86240
#
# Poissons Ratio (x) = -0.03529 0.60499
# Poissons Ratio (y) = -0.06253 0.06001
# Poissons Ratio (z) = 0.68806 0.03853
#
# Static dielectric constant tensor:
#      x y z
#    x 1.610740 0.000000 0.000000 
#    y 0.000000 1.716600 0.000000 
#    z 0.000000 0.000000 1.623650 
# 
# From -- ./inp_files/26879.got.cif
#   From: 2010.05.17/outbox.cif.g08.bks.cpg/sg62_14_cif.got.tgz:26879.got - 2010.06.03 15:25:27.
