data_PCOD9462961
_publ_section_title
;
Structure prediction by ZEFSAII (Michael W. Deem and Ramdas Pophale) SiO2 
 PCOD9462961
Probable space group: P N M A
;
_chemical_formula_sum "Si O2"
_cell_formula_units_Z 64
_cell_length_a 15.868054
_cell_length_b 8.838865
_cell_length_c 24.060348
_cell_angle_alpha 90.000000
_cell_angle_beta 90.000000
_cell_angle_gamma 90.000000
_cell_volume 3374.598235
_symmetry_space_group_name_H-M "P N M A"
_symmetry_group_IT_number 62
_symmetry_cell_setting 'orthorhombic'
loop_
_space_group_symop_operation_xyz
x,y,z
1/2-x,-y,1/2+z
1/2+x,1/2-y,1/2-z
-x,1/2+y,-z
-x,-y,-z
1/2+x,y,1/2-z
1/2-x,1/2+y,1/2+z
x,1/2-y,z
loop_
_atom_site_type_symbol
_atom_site_label
_atom_site_fract_x
_atom_site_fract_y
_atom_site_fract_z
Si Si1 0.683332 0.068945 0.803994
Si Si2 0.617373 0.068144 0.540211
Si Si3 0.128855 0.932799 0.196447
Si Si4 0.031455 0.427428 0.405862
Si Si5 0.802683 0.069884 0.544143
Si Si6 0.489651 0.427099 0.224154
Si Si7 0.064414 0.932305 0.076748
Si Si8 0.641394 0.071094 0.932760
O O1 0.676730 0.250000 0.796796
O O2 0.776811 0.018420 0.786833
O O3 0.673274 0.039451 0.870277
O O4 0.604813 0.992774 0.773492
O O5 0.617551 0.250000 0.535222
O O6 0.708793 0.024149 0.563093
O O7 0.534934 0.026072 0.575723
O O8 0.603814 0.999973 0.479011
O O9 0.128414 0.750000 0.196844
O O10 0.108750 0.981836 0.133335
O O11 0.055882 0.991126 0.236299
O O12 0.020942 0.250000 0.419496
O O13 0.122068 0.485438 0.424777
O O14 0.019369 0.446289 0.339775
O O15 0.956635 0.523073 0.434023
O O16 0.812783 0.250000 0.550521
O O17 0.811105 0.023552 0.479535
O O18 0.488303 0.250000 0.236862
O O19 0.070757 0.750000 0.073522
O O20 0.650897 0.250000 0.943373
#
# Coordination Sequence:
#
# PCOD9462961 Si02
#       8
#     8   8   8   8   8   8   8   8
#     4   9  19  36  58  83 107 140 183 226 274 327
#     4   9  19  34  52  78 112 144 175 215 265 317
#     4  10  20  36  60  85 109 141 184 229 273 326
#     4  10  21  37  53  72 104 143 180 222 272 321
#     4  11  21  32  49  77 110 145 181 216 263 323
#     4  10  22  39  57  79 110 144 180 231 281 325
#     4   9  18  35  57  80 108 140 177 221 265 314
#     4  10  19  33  55  80 107 138 178 224 267 318
#
# _framework density 18.965219999999999
#
# number of rings (size 3 to 8) (size 9 to 14) (size 15 to 20)
#    0.000    2.250    0.000    2.625    0.000    5.000 
#    2.250    0.000    0.000    0.000    0.000    0.000 
#    0.000    0.000    0.000    0.000    0.000    0.000 
#
# Total GULP energy -357303.687153 kJ/mol
# GULP energy per Si atom -5582.870112 kJ/mol
# Density = 1.892205 g / cm^3
# Si number density = 18.965220 Si / 1000 Ang^3
#
#
#
# Elastic Constant Matrix: (Units=GPa)
#
#
# Indices 1 2 3 4 5 6 
#
# 1 152.2475 23.8526 27.2140 0.0000 0.0000 0.0000
# 2 23.8526 18.3767 12.7049 0.0000 0.0000 0.0000
# 3 27.2140 12.7049 16.7872 0.0000 0.0000 0.0000
# 4 0.0000 0.0000 0.0000 25.2693 0.0000 0.0000
# 5 0.0000 0.0000 0.0000 0.0000 18.9622 0.0000
# 6 0.0000 0.0000 0.0000 0.0000 0.0000 19.4722
#
#
#
# Elastic Compliance Matrix: (Units=1/GPa)
#
#
# Indices 1 2 3 4 5 6 
#
# 1 0.009353 -0.003476 -0.012531 0.000000 0.000000 0.000000
# 2 -0.003476 0.115431 -0.081725 0.000000 0.000000 0.000000
# 3 -0.012531 -0.081725 0.141735 0.000000 0.000000 0.000000
# 4 0.000000 0.000000 0.000000 0.039574 0.000000 0.000000
# 5 0.000000 0.000000 0.000000 0.000000 0.052736 0.000000
# 6 0.000000 0.000000 0.000000 0.000000 0.000000 0.051355
#
#
# Mechanical properties :
#
#
# Convention : Reuss Voigt Hill
#
# Bulk Modulus (GPa) = 14.07389 34.99491 24.53440
# Shear Modulus (GPa) = 7.94492 20.98341 14.46417
#
# Velocity S-wave (km/s) = 2.04898 3.32989 2.76464
# Velocity P-wave (km/s) = 3.61037 5.76857 4.81203
#
# Compressibility (1/GPa) = 0.07105358
#
# Stress axis : x y z
#
# Youngs Moduli (GPa) = 106.92006 8.66322 7.05542
#
# Poissons Ratio (x) = 0.03012 0.08841
# Poissons Ratio (y) = 0.37168 0.57660
# Poissons Ratio (z) = 1.33982 0.70800
#
# Static dielectric constant tensor:
#      x y z
#    x 1.676460 0.000000 0.000000 
#    y 0.000000 1.632770 0.000000 
#    z 0.000000 0.000000 1.640510 
# 
# From -- ./inp_files/29786.got.cif
#   From: 2010.05.17/outbox.cif.g08.bks.cpg/sg62_15_cif.got.tgz:29786.got - 2010.06.03 15:25:27.
