data_PCOD9462944
_publ_section_title
;
Structure prediction by ZEFSAII (Michael W. Deem and Ramdas Pophale) SiO2 
 PCOD9462944
Probable space group: P N M A
;
_chemical_formula_sum "Si O2"
_cell_formula_units_Z 64
_cell_length_a 23.590197
_cell_length_b 8.379060
_cell_length_c 16.091793
_cell_angle_alpha 90.000000
_cell_angle_beta 90.000000
_cell_angle_gamma 90.000000
_cell_volume 3180.762959
_symmetry_space_group_name_H-M "P N M A"
_symmetry_group_IT_number 62
_symmetry_cell_setting 'orthorhombic'
loop_
_space_group_symop_operation_xyz
x,y,z
1/2-x,-y,1/2+z
1/2+x,1/2-y,1/2-z
-x,1/2+y,-z
-x,-y,-z
1/2+x,y,1/2-z
1/2-x,1/2+y,1/2+z
x,1/2-y,z
loop_
_atom_site_type_symbol
_atom_site_label
_atom_site_fract_x
_atom_site_fract_y
_atom_site_fract_z
Si Si1 0.544829 0.556506 0.930882
Si Si2 0.873431 0.561620 0.873584
Si Si3 0.995848 0.064431 0.906104
Si Si4 0.570958 0.942434 0.746123
Si Si5 0.757967 0.944113 0.934752
Si Si6 0.298929 0.444332 0.241703
Si Si7 0.682643 0.062894 0.192362
Si Si8 0.653916 0.560255 0.028484
O O1 0.542952 0.750000 0.930647
O O2 0.542103 0.504624 0.834007
O O3 0.500000 0.500000 0.000000
O O4 0.605551 0.501018 0.967014
O O5 0.884984 0.750000 0.889785
O O6 0.931240 0.467859 0.879522
O O7 0.822709 0.500678 0.932993
O O8 0.845835 0.549982 0.782425
O O9 0.008939 0.250000 0.908125
O O10 0.036590 0.988776 0.836141
O O11 0.000000 0.000000 0.000000
O O12 0.572786 0.750000 0.749864
O O13 0.636808 0.998964 0.743578
O O14 0.762092 0.750000 0.935861
O O15 0.723980 0.984320 0.850320
O O16 0.716431 0.002053 0.006300
O O17 0.299430 0.250000 0.245802
O O18 0.247401 0.499793 0.300806
O O19 0.684807 0.250000 0.171749
O O20 0.644590 0.978579 0.123902
O O21 0.655145 0.750000 0.016957
#
# Coordination Sequence:
#
# PCOD9462944 Si02
#       8
#     8   8   8   8   8   8   8   8
#     4  10  22  37  57  85 120 161 202 239 287 347
#     4   9  19  38  62  84 112 150 193 237 290 348
#     4  12  27  45  63  85 115 151 197 249 300 354
#     4  10  20  39  66  89 116 158 203 248 293 347
#     4   8  14  30  57  83 109 146 188 233 283 341
#     4   8  14  31  57  82 108 143 191 234 280 339
#     4   9  19  33  54  85 117 151 185 228 285 347
#     4  10  19  33  54  84 118 151 190 232 281 342
#
# _framework density 20.120958000000002
#
# number of rings (size 3 to 8) (size 9 to 14) (size 15 to 20)
#    0.000    2.500    1.250    2.625    1.750    2.500 
#    0.000    3.750    0.000    1.500    0.000    0.000 
#    0.000    0.000    0.000    0.000    0.000    0.000 
#
# Total GULP energy -356654.919462 kJ/mol
# GULP energy per Si atom -5572.733117 kJ/mol
# Density = 2.007516 g / cm^3
# Si number density = 20.120958 Si / 1000 Ang^3
#
#
#
# Elastic Constant Matrix: (Units=GPa)
#
#
# Indices 1 2 3 4 5 6 
#
# 1 95.8739 11.5281 35.2566 0.0000 0.0000 0.0000
# 2 11.5281 8.2814 16.0240 0.0000 0.0000 0.0000
# 3 35.2566 16.0240 88.7960 0.0000 0.0000 0.0000
# 4 0.0000 0.0000 0.0000 24.5078 0.0000 0.0000
# 5 0.0000 0.0000 0.0000 0.0000 24.3621 0.0000
# 6 0.0000 0.0000 0.0000 0.0000 0.0000 18.4113
#
#
#
# Elastic Compliance Matrix: (Units=1/GPa)
#
#
# Indices 1 2 3 4 5 6 
#
# 1 0.013000 -0.012460 -0.002913 0.000000 0.000000 0.000000
# 2 -0.012460 0.197478 -0.030690 0.000000 0.000000 0.000000
# 3 -0.002913 -0.030690 0.017957 0.000000 0.000000 0.000000
# 4 0.000000 0.000000 0.000000 0.040803 0.000000 0.000000
# 5 0.000000 0.000000 0.000000 0.000000 0.041047 0.000000
# 6 0.000000 0.000000 0.000000 0.000000 0.000000 0.054315
#
#
# Mechanical properties :
#
#
# Convention : Reuss Voigt Hill
#
# Bulk Modulus (GPa) = 7.33620 35.39653 21.36637
# Shear Modulus (GPa) = 9.95695 22.13241 16.04468
#
# Velocity S-wave (km/s) = 2.22695 3.32017 2.82691
# Velocity P-wave (km/s) = 3.20412 5.68578 4.61489
#
# Compressibility (1/GPa) = 0.13631028
#
# Stress axis : x y z
#
# Youngs Moduli (GPa) = 76.92414 5.06384 55.68965
#
# Poissons Ratio (x) = 0.06309 0.16223
# Poissons Ratio (y) = 0.95844 1.70909
# Poissons Ratio (z) = 0.22409 0.15541
#
# Static dielectric constant tensor:
#      x y z
#    x 1.743620 0.000000 0.000000 
#    y 0.000000 1.720550 0.000000 
#    z 0.000000 0.000000 1.724080 
# 
# From -- ./inp_files/20897.got.cif
#   From: 2010.05.17/outbox.cif.g08.bks.cpg/sg62_11_cif.got.tgz:20897.got - 2010.06.03 15:25:27.
