data_PCOD9462393
_publ_section_title
;
Structure prediction by ZEFSAII (Michael W. Deem and Ramdas Pophale) SiO2 
 PCOD9462393
Probable space group: P N M A
;
_chemical_formula_sum "Si O2"
_cell_formula_units_Z 48
_cell_length_a 15.544088
_cell_length_b 7.632931
_cell_length_c 20.494227
_cell_angle_alpha 90.000000
_cell_angle_beta 90.000000
_cell_angle_gamma 90.000000
_cell_volume 2431.577550
_symmetry_space_group_name_H-M "P N M A"
_symmetry_group_IT_number 62
_symmetry_cell_setting 'orthorhombic'
loop_
_space_group_symop_operation_xyz
x,y,z
1/2-x,-y,1/2+z
1/2+x,1/2-y,1/2-z
-x,1/2+y,-z
-x,-y,-z
1/2+x,y,1/2-z
1/2-x,1/2+y,1/2+z
x,1/2-y,z
loop_
_atom_site_type_symbol
_atom_site_label
_atom_site_fract_x
_atom_site_fract_y
_atom_site_fract_z
Si Si1 0.298412 0.952143 0.673703
Si Si2 0.584906 0.541914 0.959744
Si Si3 0.431751 0.040152 0.443251
Si Si4 0.011107 0.465600 0.193075
Si Si5 0.274809 0.454972 0.524960
Si Si6 0.891082 0.464758 0.312094
O O1 0.299074 0.750000 0.695058
O O2 0.390057 0.027918 0.694499
O O3 0.207354 0.027131 0.697620
O O4 0.293140 0.956702 0.594764
O O5 0.594240 0.750000 0.957176
O O6 0.674004 0.472911 0.989921
O O7 0.580687 0.478808 0.884637
O O8 0.500000 0.500000 0.000000
O O9 0.426021 0.250000 0.436243
O O10 0.466185 0.974217 0.374012
O O11 0.339340 0.977100 0.469560
O O12 0.500000 0.000000 0.500000
O O13 0.013152 0.250000 0.191771
O O14 0.955486 0.519126 0.255389
O O15 0.293849 0.250000 0.534958
O O16 0.889477 0.250000 0.312028
#
# Coordination Sequence:
#
# PCOD9462393 Si02
#       6
#     8   8   8   8   8   8
#     4   9  16  29  51  71  93 133 170 205 257 307
#     4  10  20  36  57  78 101 134 173 215 261 310
#     4  10  19  30  49  76 104 133 168 209 256 303
#     4   9  16  29  48  73 101 129 167 216 259 298
#     4  10  19  31  49  76 104 134 169 211 255 306
#     4   8  16  30  48  74  98 124 168 211 252 300
#
# _framework density 19.740271
#
# number of rings (size 3 to 8) (size 9 to 14) (size 15 to 20)
#    0.000    2.667    1.667    2.000    0.000    0.667 
#    3.000    0.000    0.000   10.000    0.000    0.000 
#    0.000    0.000    0.000    0.000    0.000    0.000 
#
# Total GULP energy -267694.199500 kJ/mol
# GULP energy per Si atom -5576.962490 kJ/mol
# Density = 1.969534 g / cm^3
# Si number density = 19.740271 Si / 1000 Ang^3
#
#
#
# Elastic Constant Matrix: (Units=GPa)
#
#
# Indices 1 2 3 4 5 6 
#
# 1 216.5012 -4.0002 108.2628 0.0000 0.0000 0.0000
# 2 -4.0002 38.1511 -1.9109 0.0000 0.0000 0.0000
# 3 108.2628 -1.9109 105.1712 0.0000 0.0000 0.0000
# 4 0.0000 0.0000 0.0000 14.1227 0.0000 0.0000
# 5 0.0000 0.0000 0.0000 0.0000 36.6040 0.0000
# 6 0.0000 0.0000 0.0000 0.0000 0.0000 13.7455
#
#
#
# Elastic Compliance Matrix: (Units=1/GPa)
#
#
# Indices 1 2 3 4 5 6 
#
# 1 0.009529 0.000508 -0.009799 0.000000 0.000000 0.000000
# 2 0.000508 0.026263 -0.000046 0.000000 0.000000 0.000000
# 3 -0.009799 -0.000046 0.019595 0.000000 0.000000 0.000000
# 4 0.000000 0.000000 0.000000 0.070808 0.000000 0.000000
# 5 0.000000 0.000000 0.000000 0.000000 0.027319 0.000000
# 6 0.000000 0.000000 0.000000 0.000000 0.000000 0.072751
#
#
# Mechanical properties :
#
#
# Convention : Reuss Voigt Hill
#
# Bulk Modulus (GPa) = 27.23926 62.72519 44.98223
# Shear Modulus (GPa) = 19.44191 30.05923 24.75057
#
# Velocity S-wave (km/s) = 3.14169 3.90646 3.54476
# Velocity P-wave (km/s) = 5.19510 7.22437 6.29208
#
# Compressibility (1/GPa) = 0.03671171
#
# Stress axis : x y z
#
# Youngs Moduli (GPa) = 104.94764 38.07701 51.03357
#
# Poissons Ratio (x) = -0.01935 0.50010
# Poissons Ratio (y) = -0.05334 0.00235
# Poissons Ratio (z) = 1.02843 0.00175
#
# Static dielectric constant tensor:
#      x y z
#    x 1.714720 0.000000 0.000000 
#    y 0.000000 1.959300 0.000000 
#    z 0.000000 0.000000 1.702720 
# 
# From -- ./inp_files/26865.got.cif
#   From: 2010.05.17/outbox.cif.g08.bks.cpg/sg62_14_cif.got.tgz:26865.got - 2010.06.03 15:25:27.
