data_PCOD9462803
_publ_section_title
;
Structure prediction by ZEFSAII (Michael W. Deem and Ramdas Pophale) SiO2 
 PCOD9462803
Probable space group: P N M A
;
_chemical_formula_sum "Si O2"
_cell_formula_units_Z 64
_cell_length_a 34.697651
_cell_length_b 7.709745
_cell_length_c 11.697991
_cell_angle_alpha 90.000000
_cell_angle_beta 90.000000
_cell_angle_gamma 90.000000
_cell_volume 3129.330056
_symmetry_space_group_name_H-M "P N M A"
_symmetry_group_IT_number 62
_symmetry_cell_setting 'orthorhombic'
loop_
_space_group_symop_operation_xyz
x,y,z
1/2-x,-y,1/2+z
1/2+x,1/2-y,1/2-z
-x,1/2+y,-z
-x,-y,-z
1/2+x,y,1/2-z
1/2-x,1/2+y,1/2+z
x,1/2-y,z
loop_
_atom_site_type_symbol
_atom_site_label
_atom_site_fract_x
_atom_site_fract_y
_atom_site_fract_z
Si Si1 0.477939 0.545365 0.657031
Si Si2 0.630816 0.041762 0.713731
Si Si3 0.557774 0.452363 0.577680
Si Si4 0.201710 0.045649 0.925622
Si Si5 0.167708 0.540570 0.170066
Si Si6 0.363656 0.041121 0.025066
Si Si7 0.787997 0.038281 0.600885
Si Si8 0.907622 0.459317 0.698810
O O1 0.483797 0.750000 0.640824
O O2 0.520400 0.465690 0.659016
O O3 0.455934 0.472642 0.544115
O O4 0.449612 0.517088 0.762487
O O5 0.631272 0.250000 0.699043
O O6 0.595466 0.971956 0.637560
O O7 0.671487 0.972648 0.666283
O O8 0.625801 0.008486 0.847273
O O9 0.565833 0.250000 0.555980
O O10 0.205924 0.250000 0.900965
O O11 0.244999 0.973180 0.922331
O O12 0.182261 0.026771 0.049428
O O13 0.167280 0.750000 0.164258
O O14 0.196429 0.490937 0.273304
O O15 0.125026 0.483113 0.209536
O O16 0.363296 0.250000 0.019510
O O17 0.320787 0.980477 0.988528
O O18 0.392778 0.981452 0.925356
O O19 0.787840 0.250000 0.596284
O O20 0.907172 0.250000 0.698899
#
# Coordination Sequence:
#
# PCOD9462803 Si02
#       8
#     8   8   8   8   8   8   8   8
#     4  10  19  32  56  84 105 131 173 217 255 307
#     4  10  21  35  52  76 106 140 172 209 262 313
#     4   9  19  35  51  75 112 143 166 205 264 316
#     4  10  20  33  51  75 104 136 167 211 267 307
#     4   9  18  33  52  74  99 131 173 211 248 306
#     4   9  19  36  55  73 100 140 180 214 254 308
#     4   8  17  34  52  71 101 137 169 209 261 306
#     4   9  18  34  54  75 102 137 171 211 264 309
#
# _framework density 20.451661999999999
#
# number of rings (size 3 to 8) (size 9 to 14) (size 15 to 20)
#    0.000    2.750    0.000    2.625    1.750    3.500 
#    0.000    3.125    0.000    0.000    0.000    0.000 
#    0.000    0.000    0.000    0.000    0.000    0.000 
#
# Total GULP energy -357093.278279 kJ/mol
# GULP energy per Si atom -5579.582473 kJ/mol
# Density = 2.040511 g / cm^3
# Si number density = 20.451662 Si / 1000 Ang^3
#
#
#
# Elastic Constant Matrix: (Units=GPa)
#
#
# Indices 1 2 3 4 5 6 
#
# 1 69.7445 1.7437 14.2554 0.0000 0.0000 0.0000
# 2 1.7437 32.0019 -6.5393 0.0000 0.0000 0.0000
# 3 14.2554 -6.5393 43.5754 0.0000 0.0000 0.0000
# 4 0.0000 0.0000 0.0000 21.7323 0.0000 0.0000
# 5 0.0000 0.0000 0.0000 0.0000 16.2577 0.0000
# 6 0.0000 0.0000 0.0000 0.0000 0.0000 14.2290
#
#
#
# Elastic Compliance Matrix: (Units=1/GPa)
#
#
# Indices 1 2 3 4 5 6 
#
# 1 0.015481 -0.001938 -0.005355 0.000000 0.000000 0.000000
# 2 -0.001938 0.032479 0.005508 0.000000 0.000000 0.000000
# 3 -0.005355 0.005508 0.025527 0.000000 0.000000 0.000000
# 4 0.000000 0.000000 0.000000 0.046014 0.000000 0.000000
# 5 0.000000 0.000000 0.000000 0.000000 0.061509 0.000000
# 6 0.000000 0.000000 0.000000 0.000000 0.000000 0.070279
#
#
# Mechanical properties :
#
#
# Convention : Reuss Voigt Hill
#
# Bulk Modulus (GPa) = 14.30260 18.24907 16.27584
# Shear Modulus (GPa) = 17.97484 19.50126 18.73805
#
# Velocity S-wave (km/s) = 2.96783 3.09128 3.03018
# Velocity P-wave (km/s) = 4.33042 4.65658 4.49646
#
# Compressibility (1/GPa) = 0.06991735
#
# Stress axis : x y z
#
# Youngs Moduli (GPa) = 64.59488 30.78889 39.17377
#
# Poissons Ratio (x) = 0.05966 0.20979
# Poissons Ratio (y) = 0.12518 -0.21577
# Poissons Ratio (z) = 0.34593 -0.16959
#
# Static dielectric constant tensor:
#      x y z
#    x 1.741160 0.000000 0.000000 
#    y 0.000000 1.764340 0.000000 
#    z 0.000000 0.000000 1.705460 
# 
# From -- ./inp_files/15799.got.cif
#   From: 2010.05.17/outbox.cif.g08.bks.cpg/sg62_8_cif.got.tgz:15799.got - 2010.06.03 15:25:27.
