data_PCOD9462420
_publ_section_title
;
Structure prediction by ZEFSAII (Michael W. Deem and Ramdas Pophale) SiO2 
 PCOD9462420
Probable space group: P N M A
;
_chemical_formula_sum "Si O2"
_cell_formula_units_Z 64
_cell_length_a 19.932450
_cell_length_b 9.868945
_cell_length_c 17.411781
_cell_angle_alpha 90.000000
_cell_angle_beta 90.000000
_cell_angle_gamma 90.000000
_cell_volume 3425.110665
_symmetry_space_group_name_H-M "P N M A"
_symmetry_group_IT_number 62
_symmetry_cell_setting 'orthorhombic'
loop_
_space_group_symop_operation_xyz
x,y,z
1/2-x,-y,1/2+z
1/2+x,1/2-y,1/2-z
-x,1/2+y,-z
-x,-y,-z
1/2+x,y,1/2-z
1/2-x,1/2+y,1/2+z
x,1/2-y,z
loop_
_atom_site_type_symbol
_atom_site_label
_atom_site_fract_x
_atom_site_fract_y
_atom_site_fract_z
Si Si1 0.158661 0.900365 0.770982
Si Si2 0.011516 0.965086 0.089432
Si Si3 0.266284 0.404665 0.109903
Si Si4 0.985766 0.090234 0.620030
Si Si5 0.360623 0.902270 0.402136
Si Si6 0.343049 0.403149 0.548949
Si Si7 0.594246 0.907665 0.967565
Si Si8 0.498787 0.898845 0.744311
O O1 0.170323 0.750000 0.805629
O O2 0.200862 0.911333 0.693864
O O3 0.079714 0.904443 0.750116
O O4 0.171105 0.021555 0.829656
O O5 0.941317 0.895172 0.111513
O O6 0.083866 0.896618 0.088369
O O7 0.017101 0.080896 0.154209
O O8 0.000000 0.000000 0.000000
O O9 0.241097 0.250000 0.098329
O O10 0.209932 0.516863 0.100398
O O11 0.327736 0.428656 0.050759
O O12 0.999815 0.250000 0.630602
O O13 0.927048 0.077074 0.556369
O O14 0.048535 0.010481 0.581486
O O15 0.971120 0.015570 0.700270
O O16 0.335822 0.750000 0.414941
O O17 0.349800 0.001848 0.473873
O O18 0.322245 0.250000 0.530154
O O19 0.578935 0.750000 0.945670
O O20 0.476161 0.750000 0.769762
#
# Coordination Sequence:
#
# PCOD9462420 Si02
#       8
#     8   8   8   8   8   8   8   8
#     4   9  18  34  56  81 109 143 180 225 276 326
#     4   9  21  38  58  83 109 141 184 237 290 340
#     4  10  20  37  58  79 110 152 194 230 274 337
#     4  10  19  30  52  84 115 145 185 234 279 325
#     4  10  20  36  60  85 109 140 183 231 280 337
#     4  11  23  38  56  81 113 147 184 230 283 338
#     4   9  18  35  54  76 110 152 190 229 278 327
#     4  10  19  34  57  84 115 147 182 224 282 341
#
# _framework density 18.685528999999999
#
# number of rings (size 3 to 8) (size 9 to 14) (size 15 to 20)
#    0.000    2.250    1.250    1.500    0.000    9.500 
#    0.000    1.250    0.000    1.500    0.000    0.000 
#    0.000    0.000    0.000    0.000    0.000    0.000 
#
# Total GULP energy -356564.090815 kJ/mol
# GULP energy per Si atom -5571.313919 kJ/mol
# Density = 1.864300 g / cm^3
# Si number density = 18.685529 Si / 1000 Ang^3
#
#
#
# Elastic Constant Matrix: (Units=GPa)
#
#
# Indices 1 2 3 4 5 6 
#
# 1 53.2389 41.4431 25.0355 0.0000 0.0000 0.0000
# 2 41.4431 155.1680 58.2376 0.0000 0.0000 0.0000
# 3 25.0355 58.2376 83.1360 0.0000 0.0000 0.0000
# 4 0.0000 0.0000 0.0000 23.1485 0.0000 0.0000
# 5 0.0000 0.0000 0.0000 0.0000 20.6189 0.0000
# 6 0.0000 0.0000 0.0000 0.0000 0.0000 8.0336
#
#
#
# Elastic Compliance Matrix: (Units=1/GPa)
#
#
# Indices 1 2 3 4 5 6 
#
# 1 0.024568 -0.005135 -0.003801 0.000000 0.000000 0.000000
# 2 -0.005135 0.009817 -0.005330 0.000000 0.000000 0.000000
# 3 -0.003801 -0.005330 0.016907 0.000000 0.000000 0.000000
# 4 0.000000 0.000000 0.000000 0.043199 0.000000 0.000000
# 5 0.000000 0.000000 0.000000 0.000000 0.048499 0.000000
# 6 0.000000 0.000000 0.000000 0.000000 0.000000 0.124477
#
#
# Mechanical properties :
#
#
# Convention : Reuss Voigt Hill
#
# Bulk Modulus (GPa) = 43.93937 60.10838 52.02388
# Shear Modulus (GPa) = 16.46972 21.48197 18.97585
#
# Velocity S-wave (km/s) = 2.97209 3.39434 3.19021
# Velocity P-wave (km/s) = 5.94508 6.89930 6.43989
#
# Compressibility (1/GPa) = 0.02275863
#
# Stress axis : x y z
#
# Youngs Moduli (GPa) = 40.70315 101.86708 59.14669
#
# Poissons Ratio (x) = 0.52310 0.22483
# Poissons Ratio (y) = 0.20902 0.31527
# Poissons Ratio (z) = 0.15472 0.54298
#
# Static dielectric constant tensor:
#      x y z
#    x 1.636680 0.000000 0.000000 
#    y 0.000000 1.797580 0.000000 
#    z 0.000000 0.000000 1.707110 
# 
# From -- ./inp_files/24787.got.cif
#   From: 2010.05.17/outbox.cif.g08.bks.cpg/sg62_13_cif.got.tgz:24787.got - 2010.06.03 15:25:27.
