data_PCOD9462372
_publ_section_title
;
Structure prediction by ZEFSAII (Michael W. Deem and Ramdas Pophale) SiO2 
 PCOD9462372
Probable space group: P N M A
;
_chemical_formula_sum "Si O2"
_cell_formula_units_Z 44
_cell_length_a 4.879357
_cell_length_b 28.445985
_cell_length_c 13.179364
_cell_angle_alpha 90.000000
_cell_angle_beta 90.000000
_cell_angle_gamma 90.000000
_cell_volume 1829.270894
_symmetry_space_group_name_H-M "P N M A"
_symmetry_group_IT_number 62
_symmetry_cell_setting 'orthorhombic'
loop_
_space_group_symop_operation_xyz
x,y,z
1/2-x,-y,1/2+z
1/2+x,1/2-y,1/2-z
-x,1/2+y,-z
-x,-y,-z
1/2+x,y,1/2-z
1/2-x,1/2+y,1/2+z
x,1/2-y,z
loop_
_atom_site_type_symbol
_atom_site_label
_atom_site_fract_x
_atom_site_fract_y
_atom_site_fract_z
Si Si1 0.393246 0.800185 0.174693
Si Si2 0.544075 0.896434 0.186464
Si Si3 0.105961 0.849367 0.820298
Si Si4 0.758920 0.250000 0.177094
Si Si5 0.279382 0.451071 0.403363
Si Si6 0.250921 0.510695 0.116620
O O1 0.599549 0.800168 0.271465
O O2 0.432690 0.750000 0.120061
O O3 0.453849 0.850409 0.123096
O O4 0.863878 0.892690 0.209574
O O5 0.446598 0.947678 0.155614
O O6 0.295703 0.849628 0.719088
O O7 0.173563 0.799790 0.874659
O O8 0.177025 0.897313 0.876416
O O9 0.454491 0.250000 0.222287
O O10 0.366676 0.461762 0.518304
O O11 0.483574 0.484611 0.337056
O O12 0.966026 0.468318 0.400924
#
# Coordination Sequence:
#
# PCOD9462372 Si02
#       6
#     8   8   8   4   8   8
#     4   8  14  25  41  62  86 113 144 179 225 271
#     4  10  19  30  48  71  93 121 156 201 238 269
#     4  10  19  32  53  78 100 127 164 205 246 294
#     4   8  16  30  48  74 102 124 152 198 254 296
#     4  10  21  35  50  68  97 135 160 192 243 294
#     4  10  21  35  48  68  99 132 163 195 242 290
#
# _framework density 24.053297000000001
#
# number of rings (size 3 to 8) (size 9 to 14) (size 15 to 20)
#    0.000    2.545    0.000    2.182    0.000    4.364 
#    0.000    0.000    2.000    0.000    0.000    0.000 
#    0.000    0.000    0.000    0.000    0.000    0.000 
#
# Total GULP energy -245065.954642 kJ/mol
# GULP energy per Si atom -5569.680787 kJ/mol
# Density = 2.399855 g / cm^3
# Si number density = 24.053297 Si / 1000 Ang^3
#
#
#
# Elastic Constant Matrix: (Units=GPa)
#
#
# Indices 1 2 3 4 5 6 
#
# 1 79.1248 11.5056 -7.9690 0.0000 0.0000 0.0000
# 2 11.5056 221.8408 18.8072 0.0000 0.0000 0.0000
# 3 -7.9690 18.8072 5.5274 0.0000 0.0000 0.0000
# 4 0.0000 0.0000 0.0000 16.0781 0.0000 0.0000
# 5 0.0000 0.0000 0.0000 0.0000 1.3562 0.0000
# 6 0.0000 0.0000 0.0000 0.0000 0.0000 35.5956
#
#
#
# Elastic Compliance Matrix: (Units=1/GPa)
#
#
# Indices 1 2 3 4 5 6 
#
# 1 0.017186 -0.004205 0.039085 0.000000 0.000000 0.000000
# 2 -0.004205 0.007364 -0.031119 0.000000 0.000000 0.000000
# 3 0.039085 -0.031119 0.343149 0.000000 0.000000 0.000000
# 4 0.000000 0.000000 0.000000 0.062197 0.000000 0.000000
# 5 0.000000 0.000000 0.000000 0.000000 0.737371 0.000000
# 6 0.000000 0.000000 0.000000 0.000000 0.000000 0.028093
#
#
# Mechanical properties :
#
#
# Convention : Reuss Voigt Hill
#
# Bulk Modulus (GPa) = 2.66509 39.02006 20.84257
# Shear Modulus (GPa) = 3.80833 29.54924 16.67878
#
# Velocity S-wave (km/s) = 1.25965 3.50878 2.63612
# Velocity P-wave (km/s) = 1.79612 5.71603 4.23669
#
# Compressibility (1/GPa) = 0.37522201
#
# Stress axis : x y z
#
# Youngs Moduli (GPa) = 58.18657 135.79609 2.91419
#
# Poissons Ratio (x) = 0.57101 -0.11390
# Poissons Ratio (y) = 0.24467 0.09069
# Poissons Ratio (z) = -2.27421 4.22578
#
# Static dielectric constant tensor:
#      x y z
#    x 1.893760 0.000000 0.000000 
#    y 0.000000 2.082530 0.000000 
#    z 0.000000 0.000000 2.047500 
# 
# From -- ./inp_files/16208.got.cif
#   From: 2010.05.17/outbox.cif.g08.bks.cpg/sg62_9_cif.got.tgz:16208.got - 2010.06.03 15:25:27.
