data_PCOD9462918
_publ_section_title
;
Structure prediction by ZEFSAII (Michael W. Deem and Ramdas Pophale) SiO2 
 PCOD9462918
Probable space group: P N M A
;
_chemical_formula_sum "Si O2"
_cell_formula_units_Z 64
_cell_length_a 20.404952
_cell_length_b 9.069721
_cell_length_c 19.850351
_cell_angle_alpha 90.000000
_cell_angle_beta 90.000000
_cell_angle_gamma 90.000000
_cell_volume 3673.649309
_symmetry_space_group_name_H-M "P N M A"
_symmetry_group_IT_number 62
_symmetry_cell_setting 'orthorhombic'
loop_
_space_group_symop_operation_xyz
x,y,z
1/2-x,-y,1/2+z
1/2+x,1/2-y,1/2-z
-x,1/2+y,-z
-x,-y,-z
1/2+x,y,1/2-z
1/2-x,1/2+y,1/2+z
x,1/2-y,z
loop_
_atom_site_type_symbol
_atom_site_label
_atom_site_fract_x
_atom_site_fract_y
_atom_site_fract_z
Si Si1 0.771799 0.579072 0.088710
Si Si2 0.706894 0.573783 0.725770
Si Si3 0.674348 0.573442 0.305921
Si Si4 0.232009 0.575642 0.048973
Si Si5 0.388641 0.575676 0.049227
Si Si6 0.386921 0.078016 0.909958
Si Si7 0.079666 0.924739 0.685712
Si Si8 0.063728 0.424748 0.274520
O O1 0.789694 0.750000 0.095408
O O2 0.800213 0.485448 0.150160
O O3 0.692377 0.568825 0.092503
O O4 0.790129 0.515452 0.015856
O O5 0.715579 0.750000 0.725663
O O6 0.770053 0.496443 0.758317
O O7 0.643982 0.536863 0.771463
O O8 0.674751 0.750000 0.297792
O O9 0.694232 0.537924 0.382575
O O10 0.605695 0.507168 0.281954
O O11 0.223930 0.750000 0.035799
O O12 0.310104 0.550729 0.058844
O O13 0.399587 0.750000 0.041730
O O14 0.422205 0.513355 0.116023
O O15 0.408299 0.491500 0.981095
O O16 0.405416 0.250000 0.905542
O O17 0.413665 0.987782 0.846788
O O18 0.082793 0.750000 0.669631
O O19 0.013988 0.950009 0.728277
O O20 0.076609 0.250000 0.271619
#
# Coordination Sequence:
#
# PCOD9462918 Si02
#       8
#     8   8   8   8   8   8   8   8
#     4  10  20  33  54  83 113 140 178 227 270 321
#     4  11  21  35  58  82 109 145 182 225 274 321
#     4  11  21  36  57  84 112 140 180 228 273 323
#     4   9  19  34  54  81 112 141 176 223 274 325
#     4  10  19  33  54  79 108 146 186 224 270 323
#     4  10  20  34  52  77 111 147 184 225 268 320
#     4  10  23  39  54  78 111 147 187 227 272 324
#     4  11  23  38  55  78 110 148 187 226 270 326
#
# _framework density 17.421368999999999
#
# number of rings (size 3 to 8) (size 9 to 14) (size 15 to 20)
#    0.000    1.750    2.500    2.250    0.000    4.500 
#    0.000    0.000    0.000    0.750    0.000    0.000 
#    0.000    0.000    0.000    0.000    0.000    0.000 
#
# Total GULP energy -357514.167483 kJ/mol
# GULP energy per Si atom -5586.158867 kJ/mol
# Density = 1.738172 g / cm^3
# Si number density = 17.421369 Si / 1000 Ang^3
#
#
#
# Elastic Constant Matrix: (Units=GPa)
#
#
# Indices 1 2 3 4 5 6 
#
# 1 16.8394 10.2391 -2.4243 0.0000 0.0000 0.0000
# 2 10.2391 50.4591 28.2358 0.0000 0.0000 0.0000
# 3 -2.4243 28.2358 69.7762 0.0000 0.0000 0.0000
# 4 0.0000 0.0000 0.0000 32.5351 0.0000 0.0000
# 5 0.0000 0.0000 0.0000 0.0000 16.2420 0.0000
# 6 0.0000 0.0000 0.0000 0.0000 0.0000 4.1013
#
#
#
# Elastic Compliance Matrix: (Units=1/GPa)
#
#
# Indices 1 2 3 4 5 6 
#
# 1 0.073910 -0.021246 0.011165 0.000000 0.000000 0.000000
# 2 -0.021246 0.031726 -0.013577 0.000000 0.000000 0.000000
# 3 0.011165 -0.013577 0.020213 0.000000 0.000000 0.000000
# 4 0.000000 0.000000 0.000000 0.030736 0.000000 0.000000
# 5 0.000000 0.000000 0.000000 0.000000 0.061569 0.000000
# 6 0.000000 0.000000 0.000000 0.000000 0.000000 0.243827
#
#
# Mechanical properties :
#
#
# Convention : Reuss Voigt Hill
#
# Bulk Modulus (GPa) = 12.73302 23.24176 17.98739
# Shear Modulus (GPa) = 9.33751 17.31062 13.32407
#
# Velocity S-wave (km/s) = 2.31764 3.15563 2.76852
# Velocity P-wave (km/s) = 3.80613 5.16210 4.53508
#
# Compressibility (1/GPa) = 0.07853599
#
# Stress axis : x y z
#
# Youngs Moduli (GPa) = 13.52993 31.51954 49.47211
#
# Poissons Ratio (x) = 0.66965 -0.55237
# Poissons Ratio (y) = 0.28745 0.67166
# Poissons Ratio (z) = -0.15106 0.42793
#
# Static dielectric constant tensor:
#      x y z
#    x 1.592340 0.000000 0.000000 
#    y 0.000000 1.578250 0.000000 
#    z 0.000000 0.000000 1.570150 
# 
# From -- ./inp_files/24767.got.cif
#   From: 2010.05.17/outbox.cif.g08.bks.cpg/sg62_13_cif.got.tgz:24767.got - 2010.06.03 15:25:27.
