data_PCOD9462987
_publ_section_title
;
Structure prediction by ZEFSAII (Michael W. Deem and Ramdas Pophale) SiO2 
 PCOD9462987
Probable space group: P N M A
;
_chemical_formula_sum "Si O2"
_cell_formula_units_Z 48
_cell_length_a 20.284946
_cell_length_b 8.526805
_cell_length_c 15.394767
_cell_angle_alpha 90.000000
_cell_angle_beta 90.000000
_cell_angle_gamma 90.000000
_cell_volume 2662.767866
_symmetry_space_group_name_H-M "P N M A"
_symmetry_group_IT_number 62
_symmetry_cell_setting 'orthorhombic'
loop_
_space_group_symop_operation_xyz
x,y,z
1/2-x,-y,1/2+z
1/2+x,1/2-y,1/2-z
-x,1/2+y,-z
-x,-y,-z
1/2+x,y,1/2-z
1/2-x,1/2+y,1/2+z
x,1/2-y,z
loop_
_atom_site_type_symbol
_atom_site_label
_atom_site_fract_x
_atom_site_fract_y
_atom_site_fract_z
Si Si1 0.459030 0.061540 0.580869
Si Si2 0.483291 0.440236 0.772642
Si Si3 0.667899 0.938328 0.196806
Si Si4 0.800381 0.561609 0.511333
Si Si5 0.813270 0.563048 0.885945
Si Si6 0.057944 0.439688 0.561864
O O1 0.457190 0.250000 0.579448
O O2 0.490768 0.009945 0.673028
O O3 0.500000 0.000000 0.500000
O O4 0.384401 0.999379 0.582760
O O5 0.483637 0.250000 0.773034
O O6 0.409665 0.487493 0.803242
O O7 0.537958 0.492640 0.841171
O O8 0.670190 0.750000 0.195601
O O9 0.701858 0.004523 0.110807
O O10 0.696666 0.997662 0.288221
O O11 0.798108 0.750000 0.509550
O O12 0.742449 0.495244 0.451745
O O13 0.870864 0.508311 0.471756
O O14 0.814382 0.750000 0.882947
O O15 0.057520 0.250000 0.560083
O O16 0.000000 0.500000 0.500000
#
# Coordination Sequence:
#
# PCOD9462987 Si02
#       6
#     8   8   8   8   8   8
#     4  10  20  38  62  86 115 150 194 241 290 349
#     4   8  16  32  55  81 111 146 184 228 279 340
#     4  10  19  36  61  83 111 151 191 235 291 352
#     4  11  22  36  57  86 119 153 193 242 291 348
#     4  11  23  40  60  83 115 155 198 242 292 347
#     4  10  19  33  55  85 116 148 187 232 280 338
#
# _framework density 18.026354000000001
#
# number of rings (size 3 to 8) (size 9 to 14) (size 15 to 20)
#    0.000    2.000    1.667    4.000    0.000    0.667 
#    3.000    0.833    0.000    0.000    0.000    0.000 
#    0.000    0.000    0.000    0.000    0.000    0.000 
#
# Total GULP energy -267923.416939 kJ/mol
# GULP energy per Si atom -5581.737853 kJ/mol
# Density = 1.798533 g / cm^3
# Si number density = 18.026354 Si / 1000 Ang^3
#
#
#
# Elastic Constant Matrix: (Units=GPa)
#
#
# Indices 1 2 3 4 5 6 
#
# 1 94.7605 32.9891 97.8039 0.0000 0.0000 0.0000
# 2 32.9891 69.8855 44.0257 0.0000 0.0000 0.0000
# 3 97.8039 44.0257 188.6767 0.0000 0.0000 0.0000
# 4 0.0000 0.0000 0.0000 29.5176 0.0000 0.0000
# 5 0.0000 0.0000 0.0000 0.0000 36.5169 0.0000
# 6 0.0000 0.0000 0.0000 0.0000 0.0000 23.7022
#
#
#
# Elastic Compliance Matrix: (Units=1/GPa)
#
#
# Indices 1 2 3 4 5 6 
#
# 1 0.023625 -0.004029 -0.011306 0.000000 0.000000 0.000000
# 2 -0.004029 0.017462 -0.001986 0.000000 0.000000 0.000000
# 3 -0.011306 -0.001986 0.011624 0.000000 0.000000 0.000000
# 4 0.000000 0.000000 0.000000 0.033878 0.000000 0.000000
# 5 0.000000 0.000000 0.000000 0.000000 0.027385 0.000000
# 6 0.000000 0.000000 0.000000 0.000000 0.000000 0.042190
#
#
# Mechanical properties :
#
#
# Convention : Reuss Voigt Hill
#
# Bulk Modulus (GPa) = 55.34535 78.10668 66.72601
# Shear Modulus (GPa) = 25.40258 29.84761 27.62509
#
# Velocity S-wave (km/s) = 3.75799 4.07354 3.91894
# Velocity P-wave (km/s) = 7.04266 8.09618 7.58773
#
# Compressibility (1/GPa) = 0.01806836
#
# Stress axis : x y z
#
# Youngs Moduli (GPa) = 42.32791 57.26633 86.02713
#
# Poissons Ratio (x) = 0.23075 0.97264
# Poissons Ratio (y) = 0.17056 0.17084
# Poissons Ratio (z) = 0.47857 0.11372
#
# Static dielectric constant tensor:
#      x y z
#    x 1.591410 0.000000 0.000000 
#    y 0.000000 1.611880 0.000000 
#    z 0.000000 0.000000 1.622970 
# 
# From -- ./inp_files/19536.got.cif
#   From: 2010.05.17/outbox.cif.g08.bks.cpg/sg62_10_cif.got.tgz:19536.got - 2010.06.03 15:25:27.
