data_PCOD9462624
_publ_section_title
;
Structure prediction by ZEFSAII (Michael W. Deem and Ramdas Pophale) SiO2 
 PCOD9462624
Probable space group: P N M A
;
_chemical_formula_sum "Si O2"
_cell_formula_units_Z 64
_cell_length_a 10.018406
_cell_length_b 12.963989
_cell_length_c 24.910158
_cell_angle_alpha 90.000000
_cell_angle_beta 90.000000
_cell_angle_gamma 90.000000
_cell_volume 3235.294085
_symmetry_space_group_name_H-M "P N M A"
_symmetry_group_IT_number 62
_symmetry_cell_setting 'orthorhombic'
loop_
_space_group_symop_operation_xyz
x,y,z
1/2-x,-y,1/2+z
1/2+x,1/2-y,1/2-z
-x,1/2+y,-z
-x,-y,-z
1/2+x,y,1/2-z
1/2-x,1/2+y,1/2+z
x,1/2-y,z
loop_
_atom_site_type_symbol
_atom_site_label
_atom_site_fract_x
_atom_site_fract_y
_atom_site_fract_z
Si Si1 0.177841 0.130666 0.735002
Si Si2 0.439464 0.504651 0.726747
Si Si3 0.395251 0.568582 0.843186
Si Si4 0.414310 0.623848 0.615317
Si Si5 0.995261 0.866197 0.372549
Si Si6 0.627476 0.872733 0.923417
Si Si7 0.913828 0.875850 0.491100
Si Si8 0.689435 0.870413 0.571314
O O1 0.180774 0.250000 0.753718
O O2 0.323868 0.082029 0.729913
O O3 0.080987 0.054817 0.768711
O O4 0.109318 0.130423 0.676114
O O5 0.414823 0.574705 0.779775
O O6 0.426250 0.572321 0.673662
O O7 0.390688 0.447081 0.857822
O O8 0.528747 0.606599 0.873423
O O9 0.271429 0.620695 0.872693
O O10 0.416509 0.750000 0.619926
O O11 0.275485 0.589392 0.588607
O O12 0.541794 0.588092 0.580644
O O13 0.046110 0.750000 0.377931
O O14 0.925487 0.897203 0.428209
O O15 0.640343 0.750000 0.928466
O O16 0.547714 0.906541 0.976573
O O17 0.908516 0.750000 0.494793
O O18 0.786113 0.914064 0.525019
O O19 0.672627 0.750000 0.558995
#
# Coordination Sequence:
#
# PCOD9462624 Si02
#       8
#     8   8   8   8   8   8   8   8
#     4  10  21  37  57  77 100 131 171 218 264 306
#     4  11  21  35  53  76 103 136 173 210 254 303
#     4  10  19  32  50  72  98 129 167 212 249 290
#     4  10  20  33  49  74 109 143 169 200 247 305
#     4   9  18  32  53  79  99 123 168 219 261 302
#     4   9  18  32  51  75 102 134 171 205 242 295
#     4   8  15  31  54  75  97 128 168 212 253 299
#     4   9  18  31  48  72 102 133 164 199 245 301
#
# _framework density 19.781818000000001
#
# number of rings (size 3 to 8) (size 9 to 14) (size 15 to 20)
#    0.000    2.500    0.000    3.750    0.000    3.500 
#    0.000    3.125    0.000    9.750    0.000   17.500 
#    0.000    0.000    0.000    0.000    0.000    0.000 
#
# Total GULP energy -357052.899307 kJ/mol
# GULP energy per Si atom -5578.951552 kJ/mol
# Density = 1.973679 g / cm^3
# Si number density = 19.781818 Si / 1000 Ang^3
#
#
#
# Elastic Constant Matrix: (Units=GPa)
#
#
# Indices 1 2 3 4 5 6 
#
# 1 116.0363 18.3533 27.6734 0.0000 0.0000 0.0000
# 2 18.3533 38.0284 16.7152 0.0000 0.0000 0.0000
# 3 27.6734 16.7152 94.3941 0.0000 0.0000 0.0000
# 4 0.0000 0.0000 0.0000 27.9162 0.0000 0.0000
# 5 0.0000 0.0000 0.0000 0.0000 9.8403 0.0000
# 6 0.0000 0.0000 0.0000 0.0000 0.0000 27.6161
#
#
#
# Elastic Compliance Matrix: (Units=1/GPa)
#
#
# Indices 1 2 3 4 5 6 
#
# 1 0.009731 -0.003733 -0.002192 0.000000 0.000000 0.000000
# 2 -0.003733 0.029948 -0.004209 0.000000 0.000000 0.000000
# 3 -0.002192 -0.004209 0.011982 0.000000 0.000000 0.000000
# 4 0.000000 0.000000 0.000000 0.035821 0.000000 0.000000
# 5 0.000000 0.000000 0.000000 0.000000 0.101623 0.000000
# 6 0.000000 0.000000 0.000000 0.000000 0.000000 0.036211
#
#
# Mechanical properties :
#
#
# Convention : Reuss Voigt Hill
#
# Bulk Modulus (GPa) = 31.85377 41.54918 36.70148
# Shear Modulus (GPa) = 19.52760 25.45565 22.49162
#
# Velocity S-wave (km/s) = 3.14530 3.59112 3.37558
# Velocity P-wave (km/s) = 5.41554 6.18419 5.81258
#
# Compressibility (1/GPa) = 0.03139346
#
# Stress axis : x y z
#
# Youngs Moduli (GPa) = 102.76256 33.39152 83.46034
#
# Poissons Ratio (x) = 0.12465 0.18293
# Poissons Ratio (y) = 0.38362 0.35126
# Poissons Ratio (z) = 0.22524 0.14054
#
# Static dielectric constant tensor:
#      x y z
#    x 1.684740 0.000000 0.000000 
#    y 0.000000 1.762520 0.000000 
#    z 0.000000 0.000000 1.694600 
# 
# From -- ./inp_files/28993.got.cif
#   From: 2010.05.17/outbox.cif.g08.bks.cpg/sg62_15_cif.got.tgz:28993.got - 2010.06.03 15:25:27.
