data_PCOD9462954
_publ_section_title
;
Structure prediction by ZEFSAII (Michael W. Deem and Ramdas Pophale) SiO2 
 PCOD9462954
Probable space group: P N M A
;
_chemical_formula_sum "Si O2"
_cell_formula_units_Z 64
_cell_length_a 9.543995
_cell_length_b 13.876757
_cell_length_c 28.296853
_cell_angle_alpha 90.000000
_cell_angle_beta 90.000000
_cell_angle_gamma 90.000000
_cell_volume 3747.626706
_symmetry_space_group_name_H-M "P N M A"
_symmetry_group_IT_number 62
_symmetry_cell_setting 'orthorhombic'
loop_
_space_group_symop_operation_xyz
x,y,z
1/2-x,-y,1/2+z
1/2+x,1/2-y,1/2-z
-x,1/2+y,-z
-x,-y,-z
1/2+x,y,1/2-z
1/2-x,1/2+y,1/2+z
x,1/2-y,z
loop_
_atom_site_type_symbol
_atom_site_label
_atom_site_fract_x
_atom_site_fract_y
_atom_site_fract_z
Si Si1 0.407099 0.519695 0.591405
Si Si2 0.935178 0.866519 0.811181
Si Si3 0.859822 0.362730 0.429143
Si Si4 0.922293 0.137368 0.535602
Si Si5 0.242818 0.866000 0.773369
Si Si6 0.612448 0.133703 0.131367
Si Si7 0.761596 0.635706 0.449109
Si Si8 0.788197 0.464053 0.050112
O O1 0.431702 0.570848 0.641536
O O2 0.286713 0.584163 0.567065
O O3 0.335761 0.414816 0.589781
O O4 0.550939 0.517529 0.562845
O O5 0.930080 0.750000 0.821180
O O6 0.807508 0.894416 0.776708
O O7 0.080761 0.886370 0.783751
O O8 0.832734 0.250000 0.421617
O O9 0.940599 0.373035 0.478770
O O10 0.959374 0.397838 0.386817
O O11 0.886526 0.250000 0.544264
O O12 0.072883 0.115520 0.558419
O O13 0.802820 0.062219 0.549480
O O14 0.255104 0.750000 0.773816
O O15 0.336327 0.901371 0.817591
O O16 0.609733 0.250000 0.132193
O O17 0.722109 0.100890 0.091662
O O18 0.743731 0.750000 0.451028
O O19 0.724034 0.589707 0.500009
#
# Coordination Sequence:
#
# PCOD9462954 Si02
#       8
#     8   8   8   8   8   8   8   8
#     4  12  24  35  51  82 113 150 183 227 274 329
#     4  10  21  37  55  80 114 145 179 222 274 334
#     4  10  20  33  52  78 107 146 189 223 264 317
#     4  10  21  38  56  75 106 147 193 233 267 318
#     4   9  19  35  54  79 111 143 176 220 274 328
#     4  10  19  33  55  79 108 148 184 219 266 326
#     4  11  23  38  55  78 111 151 191 235 274 315
#     4  12  21  36  54  80 113 149 188 223 272 323
#
# _framework density 17.077473999999999
#
# number of rings (size 3 to 8) (size 9 to 14) (size 15 to 20)
#    0.000    1.500    3.750    2.250    1.750    2.000 
#    0.000    0.000    0.000    0.000    0.000    1.750 
#    0.000    0.000    0.000    0.000    0.000    0.000 
#
# Total GULP energy -357143.455365 kJ/mol
# GULP energy per Si atom -5580.366490 kJ/mol
# Density = 1.703861 g / cm^3
# Si number density = 17.077474 Si / 1000 Ang^3
#
#
#
# Elastic Constant Matrix: (Units=GPa)
#
#
# Indices 1 2 3 4 5 6 
#
# 1 114.6865 48.1801 29.0438 0.0000 0.0000 0.0000
# 2 48.1801 71.3350 29.7985 0.0000 0.0000 0.0000
# 3 29.0438 29.7985 59.1941 0.0000 0.0000 0.0000
# 4 0.0000 0.0000 0.0000 20.2872 0.0000 0.0000
# 5 0.0000 0.0000 0.0000 0.0000 29.8041 0.0000
# 6 0.0000 0.0000 0.0000 0.0000 0.0000 20.8936
#
#
#
# Elastic Compliance Matrix: (Units=1/GPa)
#
#
# Indices 1 2 3 4 5 6 
#
# 1 0.012431 -0.007405 -0.002371 0.000000 0.000000 0.000000
# 2 -0.007405 0.022163 -0.007523 0.000000 0.000000 0.000000
# 3 -0.002371 -0.007523 0.021844 0.000000 0.000000 0.000000
# 4 0.000000 0.000000 0.000000 0.049292 0.000000 0.000000
# 5 0.000000 0.000000 0.000000 0.000000 0.033552 0.000000
# 6 0.000000 0.000000 0.000000 0.000000 0.000000 0.047861
#
#
# Mechanical properties :
#
#
# Convention : Reuss Voigt Hill
#
# Bulk Modulus (GPa) = 45.79202 51.02894 48.41048
# Shear Modulus (GPa) = 21.83180 23.40984 22.62082
#
# Velocity S-wave (km/s) = 3.57935 3.70645 3.64345
# Velocity P-wave (km/s) = 6.62984 6.94714 6.79034
#
# Compressibility (1/GPa) = 0.02183786
#
# Stress axis : x y z
#
# Youngs Moduli (GPa) = 80.44412 45.12089 45.77835
#
# Poissons Ratio (x) = 0.33414 0.10856
# Poissons Ratio (y) = 0.59572 0.34440
# Poissons Ratio (z) = 0.19077 0.33946
#
# Static dielectric constant tensor:
#      x y z
#    x 1.605930 0.000000 0.000000 
#    y 0.000000 1.586120 0.000000 
#    z 0.000000 0.000000 1.590340 
# 
# From -- ./inp_files/28988.got.cif
#   From: 2010.05.17/outbox.cif.g08.bks.cpg/sg62_15_cif.got.tgz:28988.got - 2010.06.03 15:25:27.
