data_PCOD9462399
_publ_section_title
;
Structure prediction by ZEFSAII (Michael W. Deem and Ramdas Pophale) SiO2 
 PCOD9462399
Probable space group: P N M A
;
_chemical_formula_sum "Si O2"
_cell_formula_units_Z 48
_cell_length_a 12.585922
_cell_length_b 8.574923
_cell_length_c 19.608587
_cell_angle_alpha 90.000000
_cell_angle_beta 90.000000
_cell_angle_gamma 90.000000
_cell_volume 2116.223653
_symmetry_space_group_name_H-M "P N M A"
_symmetry_group_IT_number 62
_symmetry_cell_setting 'orthorhombic'
loop_
_space_group_symop_operation_xyz
x,y,z
1/2-x,-y,1/2+z
1/2+x,1/2-y,1/2-z
-x,1/2+y,-z
-x,-y,-z
1/2+x,y,1/2-z
1/2-x,1/2+y,1/2+z
x,1/2-y,z
loop_
_atom_site_type_symbol
_atom_site_label
_atom_site_fract_x
_atom_site_fract_y
_atom_site_fract_z
Si Si1 0.066238 0.922281 0.941811
Si Si2 0.431888 0.430202 0.663119
Si Si3 0.890870 0.434535 0.532172
Si Si4 0.392681 0.564614 0.233909
Si Si5 0.300758 0.567615 0.099675
Si Si6 0.754933 0.938268 0.645386
O O1 0.096067 0.750000 0.964079
O O2 0.169118 0.000304 0.910380
O O3 0.986721 0.932282 0.878766
O O4 0.000000 0.000000 0.000000
O O5 0.463924 0.250000 0.643668
O O6 0.487872 0.452932 0.736290
O O7 0.309961 0.439350 0.641543
O O8 0.897539 0.250000 0.539960
O O9 0.807353 0.478400 0.471439
O O10 0.860552 0.505304 0.606460
O O11 0.000000 0.500000 0.500000
O O12 0.371145 0.750000 0.231809
O O13 0.382264 0.506270 0.156807
O O14 0.300407 0.495774 0.284142
O O15 0.321150 0.750000 0.083705
O O16 0.754698 0.750000 0.648078
#
# Coordination Sequence:
#
# PCOD9462399 Si02
#       6
#     8   8   8   8   8   8
#     4  10  19  30  49  77 108 141 178 225 279 336
#     4   9  18  33  53  79 112 149 190 237 288 343
#     4  12  26  43  63  87 118 158 204 253 311 377
#     4   9  19  36  59  88 122 163 208 252 304 364
#     4  10  21  38  60  88 123 161 205 255 304 361
#     4  10  21  38  58  83 116 152 195 248 302 357
#
# _framework density 22.681912000000001
#
# number of rings (size 3 to 8) (size 9 to 14) (size 15 to 20)
#    0.000    2.000    0.000    3.500    0.000    8.667 
#    0.000    3.333    0.000    0.000    0.000    0.000 
#    0.000    0.000    0.000    0.000    0.000    0.000 
#
# Total GULP energy -267324.971070 kJ/mol
# GULP energy per Si atom -5569.270231 kJ/mol
# Density = 2.263029 g / cm^3
# Si number density = 22.681912 Si / 1000 Ang^3
#
#
#
# Elastic Constant Matrix: (Units=GPa)
#
#
# Indices 1 2 3 4 5 6 
#
# 1 55.4492 1.6084 6.5174 0.0000 0.0000 0.0000
# 2 1.6084 46.8807 15.0403 0.0000 0.0000 0.0000
# 3 6.5174 15.0403 91.6587 0.0000 0.0000 0.0000
# 4 0.0000 0.0000 0.0000 23.7293 0.0000 0.0000
# 5 0.0000 0.0000 0.0000 0.0000 28.0121 0.0000
# 6 0.0000 0.0000 0.0000 0.0000 0.0000 23.9806
#
#
#
# Elastic Compliance Matrix: (Units=1/GPa)
#
#
# Indices 1 2 3 4 5 6 
#
# 1 0.018189 -0.000221 -0.001257 0.000000 0.000000 0.000000
# 2 -0.000221 0.022519 -0.003679 0.000000 0.000000 0.000000
# 3 -0.001257 -0.003679 0.011603 0.000000 0.000000 0.000000
# 4 0.000000 0.000000 0.000000 0.042142 0.000000 0.000000
# 5 0.000000 0.000000 0.000000 0.000000 0.035699 0.000000
# 6 0.000000 0.000000 0.000000 0.000000 0.000000 0.041700
#
#
# Mechanical properties :
#
#
# Convention : Reuss Voigt Hill
#
# Bulk Modulus (GPa) = 23.81170 26.70231 25.25701
# Shear Modulus (GPa) = 25.48875 26.53257 26.01066
#
# Velocity S-wave (km/s) = 3.35587 3.42390 3.39006
# Velocity P-wave (km/s) = 5.05339 5.23725 5.14614
#
# Compressibility (1/GPa) = 0.04199616
#
# Stress axis : x y z
#
# Youngs Moduli (GPa) = 54.97927 44.40740 86.18325
#
# Poissons Ratio (x) = 0.00980 0.10834
# Poissons Ratio (y) = 0.01213 0.31710
# Poissons Ratio (z) = 0.06911 0.16339
#
# Static dielectric constant tensor:
#      x y z
#    x 1.890160 0.000000 0.000000 
#    y 0.000000 1.838540 0.000000 
#    z 0.000000 0.000000 1.803220 
# 
# From -- ./inp_files/29250.got.cif
#   From: 2010.05.17/outbox.cif.g08.bks.cpg/sg62_15_cif.got.tgz:29250.got - 2010.06.03 15:25:27.
