data_PCOD9462297
_publ_section_title
;
Structure prediction by ZEFSAII (Michael W. Deem and Ramdas Pophale) SiO2 
 PCOD9462297
Probable space group: P N M A
;
_chemical_formula_sum "Si O2"
_cell_formula_units_Z 56
_cell_length_a 18.894016
_cell_length_b 8.879875
_cell_length_c 21.422485
_cell_angle_alpha 90.000000
_cell_angle_beta 90.000000
_cell_angle_gamma 90.000000
_cell_volume 3594.189562
_symmetry_space_group_name_H-M "P N M A"
_symmetry_group_IT_number 62
_symmetry_cell_setting 'orthorhombic'
loop_
_space_group_symop_operation_xyz
x,y,z
1/2-x,-y,1/2+z
1/2+x,1/2-y,1/2-z
-x,1/2+y,-z
-x,-y,-z
1/2+x,y,1/2-z
1/2-x,1/2+y,1/2+z
x,1/2-y,z
loop_
_atom_site_type_symbol
_atom_site_label
_atom_site_fract_x
_atom_site_fract_y
_atom_site_fract_z
Si Si1 0.855758 0.428594 0.875259
Si Si2 0.788569 0.572578 0.682307
Si Si3 0.720797 0.072344 0.803082
Si Si4 0.575799 0.069528 0.250651
Si Si5 0.658748 0.069498 0.623824
Si Si6 0.424219 0.570724 0.248800
Si Si7 0.578176 0.068998 0.498259
O O1 0.869251 0.250000 0.880395
O O2 0.771874 0.450976 0.861821
O O3 0.896673 0.491220 0.814302
O O4 0.882577 0.511526 0.936518
O O5 0.786182 0.750000 0.671502
O O6 0.752411 0.530083 0.748373
O O7 0.869846 0.526620 0.694824
O O8 0.737881 0.492889 0.632617
O O9 0.729208 0.250000 0.784837
O O10 0.637027 0.044617 0.802889
O O11 0.579914 0.250000 0.258444
O O12 0.496251 0.017434 0.238451
O O13 0.662546 0.250000 0.624363
O O14 0.611347 0.027293 0.684472
O O15 0.620737 0.021197 0.560378
O O16 0.438956 0.750000 0.251169
O O17 0.573600 0.250000 0.497947
O O18 0.500000 0.000000 0.500000
#
# Coordination Sequence:
#
# PCOD9462297 Si02
#       7
#     8   8   8   8   8   8   8
#     4  10  19  32  48  65  89 123 156 186 221 263
#     4   9  17  28  44  65  88 114 147 184 223 265
#     4   8  16  30  46  63  86 116 150 184 221 266
#     4  10  19  29  43  68  96 119 146 184 227 269
#     4   9  19  33  46  62  88 120 153 184 217 261
#     4   9  16  28  46  67  89 116 149 184 223 269
#     4  11  22  34  48  68  93 122 155 188 219 259
#
# _framework density 15.580702
#
# number of rings (size 3 to 8) (size 9 to 14) (size 15 to 20)
#    0.000    2.571    0.000    3.429    0.000    6.857 
#    0.000    0.000    0.000    0.000    0.000    1.000 
#    0.000    0.000    0.000    0.000    0.000    0.000 
#
# Total GULP energy -311906.228847 kJ/mol
# GULP energy per Si atom -5569.754087 kJ/mol
# Density = 1.554524 g / cm^3
# Si number density = 15.580702 Si / 1000 Ang^3
#
#
#
# Elastic Constant Matrix: (Units=GPa)
#
#
# Indices 1 2 3 4 5 6 
#
# 1 135.9282 39.9489 56.0403 0.0000 0.0000 0.0000
# 2 39.9489 35.4358 25.2419 0.0000 0.0000 0.0000
# 3 56.0403 25.2419 69.4226 0.0000 0.0000 0.0000
# 4 0.0000 0.0000 0.0000 20.5918 0.0000 0.0000
# 5 0.0000 0.0000 0.0000 0.0000 23.7273 0.0000
# 6 0.0000 0.0000 0.0000 0.0000 0.0000 25.1665
#
#
#
# Elastic Compliance Matrix: (Units=1/GPa)
#
#
# Indices 1 2 3 4 5 6 
#
# 1 0.013140 -0.009795 -0.007046 0.000000 0.000000 0.000000
# 2 -0.009795 0.045385 -0.008595 0.000000 0.000000 0.000000
# 3 -0.007046 -0.008595 0.023217 0.000000 0.000000 0.000000
# 4 0.000000 0.000000 0.000000 0.048563 0.000000 0.000000
# 5 0.000000 0.000000 0.000000 0.000000 0.042146 0.000000
# 6 0.000000 0.000000 0.000000 0.000000 0.000000 0.039735
#
#
# Mechanical properties :
#
#
# Convention : Reuss Voigt Hill
#
# Bulk Modulus (GPa) = 32.39297 53.69430 43.04364
# Shear Modulus (GPa) = 18.29162 21.86748 20.07955
#
# Velocity S-wave (km/s) = 3.43007 3.75039 3.59380
# Velocity P-wave (km/s) = 6.04341 7.30005 6.70125
#
# Compressibility (1/GPa) = 0.03087089
#
# Stress axis : x y z
#
# Youngs Moduli (GPa) = 76.10084 22.03368 43.07106
#
# Poissons Ratio (x) = 0.21582 0.30348
# Poissons Ratio (y) = 0.74541 0.37020
# Poissons Ratio (z) = 0.53621 0.18938
#
# Static dielectric constant tensor:
#      x y z
#    x 1.544040 0.000000 0.000000 
#    y 0.000000 1.526310 0.000000 
#    z 0.000000 0.000000 1.503540 
# 
# From -- ./inp_files/27513.got.cif
#   From: 2010.05.17/outbox.cif.g08.bks.cpg/sg62_14_cif.got.tgz:27513.got - 2010.06.03 15:25:27.
