data_PCOD9462774
_publ_section_title
;
Structure prediction by ZEFSAII (Michael W. Deem and Ramdas Pophale) SiO2 
 PCOD9462774
Probable space group: P N M A
;
_chemical_formula_sum "Si O2"
_cell_formula_units_Z 56
_cell_length_a 19.040670
_cell_length_b 9.505573
_cell_length_c 14.507418
_cell_angle_alpha 90.000000
_cell_angle_beta 90.000000
_cell_angle_gamma 90.000000
_cell_volume 2625.733543
_symmetry_space_group_name_H-M "P N M A"
_symmetry_group_IT_number 62
_symmetry_cell_setting 'orthorhombic'
loop_
_space_group_symop_operation_xyz
x,y,z
1/2-x,-y,1/2+z
1/2+x,1/2-y,1/2-z
-x,1/2+y,-z
-x,-y,-z
1/2+x,y,1/2-z
1/2-x,1/2+y,1/2+z
x,1/2-y,z
loop_
_atom_site_type_symbol
_atom_site_label
_atom_site_fract_x
_atom_site_fract_y
_atom_site_fract_z
Si Si1 0.787454 0.591977 0.400916
Si Si2 0.723912 0.910495 0.074009
Si Si3 0.118246 0.911317 0.119057
Si Si4 0.089988 0.084448 0.734263
Si Si5 0.999979 0.408550 0.408812
Si Si6 0.861962 0.591417 0.707222
Si Si7 0.106774 0.411475 0.943851
O O1 0.805466 0.750000 0.434967
O O2 0.804991 0.479483 0.479741
O O3 0.703723 0.588708 0.387048
O O4 0.830960 0.571081 0.307136
O O5 0.699917 0.750000 0.086057
O O6 0.808121 0.910477 0.064298
O O7 0.700130 0.003687 0.160235
O O8 0.094921 0.750000 0.129694
O O9 0.105056 0.008228 0.207012
O O10 0.089064 0.982887 0.026352
O O11 0.071395 0.250000 0.724733
O O12 0.082039 0.047910 0.841606
O O13 0.044718 0.986870 0.668811
O O14 0.974261 0.250000 0.425461
O O15 0.000000 0.500000 0.500000
O O16 0.078537 0.400562 0.370102
O O17 0.840863 0.750000 0.734445
O O18 0.085182 0.250000 0.963916
#
# Coordination Sequence:
#
# PCOD9462774 Si02
#       7
#     8   8   8   8   8   8   8
#     4   9  18  33  53  82 117 146 175 218 272 323
#     4  10  19  32  54  84 114 145 182 221 265 324
#     4  10  20  35  57  84 112 143 182 225 267 322
#     4  10  20  36  58  80 108 147 184 221 270 323
#     4  11  25  42  59  81 109 141 181 227 271 319
#     4  11  23  38  55  77 109 147 183 225 277 323
#     4   9  19  36  56  82 116 147 176 219 275 326
#
# _framework density 21.327373999999999
#
# number of rings (size 3 to 8) (size 9 to 14) (size 15 to 20)
#    0.000    2.000    0.000    3.429    0.000   10.286 
#    0.000    2.143    0.000    0.000    0.000    0.000 
#    0.000    0.000    0.000    0.000    0.000    0.000 
#
# Total GULP energy -313008.729951 kJ/mol
# GULP energy per Si atom -5589.441606 kJ/mol
# Density = 2.127883 g / cm^3
# Si number density = 21.327374 Si / 1000 Ang^3
#
#
#
# Elastic Constant Matrix: (Units=GPa)
#
#
# Indices 1 2 3 4 5 6 
#
# 1 21.3885 11.5250 -3.6948 0.0000 0.0000 0.0000
# 2 11.5250 158.8522 97.6068 0.0000 0.0000 0.0000
# 3 -3.6948 97.6068 133.4038 0.0000 0.0000 0.0000
# 4 0.0000 0.0000 0.0000 38.2054 0.0000 0.0000
# 5 0.0000 0.0000 0.0000 0.0000 25.8427 0.0000
# 6 0.0000 0.0000 0.0000 0.0000 0.0000 17.3329
#
#
#
# Elastic Compliance Matrix: (Units=1/GPa)
#
#
# Indices 1 2 3 4 5 6 
#
# 1 0.052712 -0.008578 0.007736 0.000000 0.000000 0.000000
# 2 -0.008578 0.012833 -0.009627 0.000000 0.000000 0.000000
# 3 0.007736 -0.009627 0.014754 0.000000 0.000000 0.000000
# 4 0.000000 0.000000 0.000000 0.026174 0.000000 0.000000
# 5 0.000000 0.000000 0.000000 0.000000 0.038696 0.000000
# 6 0.000000 0.000000 0.000000 0.000000 0.000000 0.057694
#
#
# Mechanical properties :
#
#
# Convention : Reuss Voigt Hill
#
# Bulk Modulus (GPa) = 16.84582 58.27982 37.56282
# Shear Modulus (GPa) = 20.52656 30.15672 25.34164
#
# Velocity S-wave (km/s) = 3.10571 3.76439 3.45080
# Velocity P-wave (km/s) = 4.55811 6.80292 5.79034
#
# Compressibility (1/GPa) = 0.05936190
#
# Stress axis : x y z
#
# Youngs Moduli (GPa) = 18.97085 77.92615 67.77885
#
# Poissons Ratio (x) = 0.66843 -0.52433
# Poissons Ratio (y) = 0.16273 0.65249
# Poissons Ratio (z) = -0.14676 0.75018
#
# Static dielectric constant tensor:
#      x y z
#    x 1.809370 0.000000 0.000000 
#    y 0.000000 1.761490 0.000000 
#    z 0.000000 0.000000 1.744460 
# 
# From -- ./inp_files/20191.got.cif
#   From: 2010.05.17/outbox.cif.g08.bks.cpg/sg62_11_cif.got.tgz:20191.got - 2010.06.03 15:25:27.
