data_PCOD9462717
_publ_section_title
;
Structure prediction by ZEFSAII (Michael W. Deem and Ramdas Pophale) SiO2 
 PCOD9462717
Probable space group: P N M A
;
_chemical_formula_sum "Si O2"
_cell_formula_units_Z 64
_cell_length_a 17.072067
_cell_length_b 8.740494
_cell_length_c 21.026582
_cell_angle_alpha 90.000000
_cell_angle_beta 90.000000
_cell_angle_gamma 90.000000
_cell_volume 3137.550804
_symmetry_space_group_name_H-M "P N M A"
_symmetry_group_IT_number 62
_symmetry_cell_setting 'orthorhombic'
loop_
_space_group_symop_operation_xyz
x,y,z
1/2-x,-y,1/2+z
1/2+x,1/2-y,1/2-z
-x,1/2+y,-z
-x,-y,-z
1/2+x,y,1/2-z
1/2-x,1/2+y,1/2+z
x,1/2-y,z
loop_
_atom_site_type_symbol
_atom_site_label
_atom_site_fract_x
_atom_site_fract_y
_atom_site_fract_z
Si Si1 0.171286 0.424831 0.223234
Si Si2 0.220322 0.932030 0.890401
Si Si3 0.551400 0.064037 0.841558
Si Si4 0.033158 0.075740 0.118149
Si Si5 0.782125 0.933703 0.377144
Si Si6 0.399276 0.931288 0.300333
Si Si7 0.351996 0.433926 0.521797
Si Si8 0.622708 0.568375 0.145393
O O1 0.183995 0.250000 0.244799
O O2 0.101855 0.423866 0.171091
O O3 0.245404 0.490097 0.185449
O O4 0.144425 0.527774 0.281786
O O5 0.220908 0.750000 0.890346
O O6 0.179565 0.992183 0.826388
O O7 0.308726 0.991817 0.895222
O O8 0.168413 0.982949 0.950609
O O9 0.547110 0.250000 0.840407
O O10 0.627176 0.020726 0.882918
O O11 0.570441 0.015550 0.768879
O O12 0.466212 0.010599 0.864137
O O13 0.004788 0.250000 0.109163
O O14 0.073815 0.012540 0.054715
O O15 0.965390 0.973657 0.148149
O O16 0.779348 0.750000 0.368797
O O17 0.724670 0.971041 0.435308
O O18 0.387368 0.750000 0.296859
O O19 0.362606 0.250000 0.523785
O O20 0.625216 0.750000 0.136120
#
# Coordination Sequence:
#
# PCOD9462717 Si02
#       8
#     8   8   8   8   8   8   8   8
#     4  10  19  32  52  82 114 144 176 221 281 335
#     4  11  24  40  55  80 113 148 189 236 284 335
#     4   9  19  34  56  85 111 136 180 231 273 329
#     4  10  20  34  56  85 116 148 183 229 279 331
#     4   9  17  34  59  82 105 143 189 233 275 327
#     4  11  21  36  58  86 116 148 185 228 283 343
#     4   9  20  38  59  79 109 151 194 234 279 333
#     4  11  21  36  56  79 109 147 184 227 279 337
#
# _framework density 20.398077000000001
#
# number of rings (size 3 to 8) (size 9 to 14) (size 15 to 20)
#    0.000    2.000    1.250    2.625    0.000    3.500 
#    0.000    2.500    0.000    0.000    0.000    0.000 
#    0.000    0.000    0.000    0.000    0.000    0.000 
#
# Total GULP energy -357506.633583 kJ/mol
# GULP energy per Si atom -5586.041150 kJ/mol
# Density = 2.035165 g / cm^3
# Si number density = 20.398077 Si / 1000 Ang^3
#
#
#
# Elastic Constant Matrix: (Units=GPa)
#
#
# Indices 1 2 3 4 5 6 
#
# 1 65.5304 3.5372 -15.1422 0.0000 0.0000 0.0000
# 2 3.5372 33.3916 1.6063 0.0000 0.0000 0.0000
# 3 -15.1422 1.6063 39.8650 0.0000 0.0000 0.0000
# 4 0.0000 0.0000 0.0000 19.2368 0.0000 0.0000
# 5 0.0000 0.0000 0.0000 0.0000 28.1882 0.0000
# 6 0.0000 0.0000 0.0000 0.0000 0.0000 23.5203
#
#
#
# Elastic Compliance Matrix: (Units=1/GPa)
#
#
# Indices 1 2 3 4 5 6 
#
# 1 0.016874 -0.002100 0.006494 0.000000 0.000000 0.000000
# 2 -0.002100 0.030267 -0.002017 0.000000 0.000000 0.000000
# 3 0.006494 -0.002017 0.027633 0.000000 0.000000 0.000000
# 4 0.000000 0.000000 0.000000 0.051984 0.000000 0.000000
# 5 0.000000 0.000000 0.000000 0.000000 0.035476 0.000000
# 6 0.000000 0.000000 0.000000 0.000000 0.000000 0.042517
#
#
# Mechanical properties :
#
#
# Convention : Reuss Voigt Hill
#
# Bulk Modulus (GPa) = 12.57425 13.19884 12.88654
# Shear Modulus (GPa) = 22.07456 24.10810 23.09133
#
# Velocity S-wave (km/s) = 3.29323 3.44158 3.36822
# Velocity P-wave (km/s) = 4.54294 4.71988 4.63226
#
# Compressibility (1/GPa) = 0.07952763
#
# Stress axis : x y z
#
# Youngs Moduli (GPa) = 59.26267 33.03915 36.18917
#
# Poissons Ratio (x) = 0.06938 -0.23501
# Poissons Ratio (y) = 0.12444 0.07300
# Poissons Ratio (z) = -0.38485 0.06665
#
# Static dielectric constant tensor:
#      x y z
#    x 1.760500 0.000000 0.000000 
#    y 0.000000 1.687750 0.000000 
#    z 0.000000 0.000000 1.719120 
# 
# From -- ./inp_files/29880.got.cif
#   From: 2010.05.17/outbox.cif.g08.bks.cpg/sg62_15_cif.got.tgz:29880.got - 2010.06.03 15:25:27.
