data_PCOD9462086
_publ_section_title
;
Structure prediction by ZEFSAII (Michael W. Deem and Ramdas Pophale) SiO2 
 PCOD9462086
Probable space group: P N M A
;
_chemical_formula_sum "Si O2"
_cell_formula_units_Z 64
_cell_length_a 20.135867
_cell_length_b 8.046420
_cell_length_c 21.228551
_cell_angle_alpha 90.000000
_cell_angle_beta 90.000000
_cell_angle_gamma 90.000000
_cell_volume 3439.484710
_symmetry_space_group_name_H-M "P N M A"
_symmetry_group_IT_number 62
_symmetry_cell_setting 'orthorhombic'
loop_
_space_group_symop_operation_xyz
x,y,z
1/2-x,-y,1/2+z
1/2+x,1/2-y,1/2-z
-x,1/2+y,-z
-x,-y,-z
1/2+x,y,1/2-z
1/2-x,1/2+y,1/2+z
x,1/2-y,z
loop_
_atom_site_type_symbol
_atom_site_label
_atom_site_fract_x
_atom_site_fract_y
_atom_site_fract_z
Si Si1 0.087317 0.945040 0.374628
Si Si2 0.942853 0.046751 0.234505
Si Si3 0.732532 0.944469 0.294619
Si Si4 0.809470 0.053086 0.172278
Si Si5 0.943178 0.050861 0.381130
Si Si6 0.301355 0.949449 0.078506
Si Si7 0.778963 0.548820 0.558563
Si Si8 0.089802 0.443947 0.231685
O O1 0.093290 0.750000 0.361530
O O2 0.147792 0.000582 0.417915
O O3 0.092130 0.038372 0.307638
O O4 0.014456 0.982160 0.402109
O O5 0.942867 0.250000 0.234257
O O6 0.881414 0.986020 0.192892
O O7 0.933545 0.997665 0.307730
O O8 0.016373 0.993455 0.213460
O O9 0.748987 0.750000 0.288931
O O10 0.766765 0.013419 0.357783
O O11 0.761198 0.029630 0.232106
O O12 0.653421 0.965449 0.296226
O O13 0.818030 0.250000 0.162466
O O14 0.773831 0.984740 0.109991
O O15 0.945972 0.250000 0.382752
O O16 0.879242 0.991040 0.418788
O O17 0.294133 0.750000 0.079369
O O18 0.270558 0.010837 0.012975
O O19 0.775489 0.750000 0.558643
O O20 0.095024 0.250000 0.215554
#
# Coordination Sequence:
#
# PCOD9462086 Si02
#       8
#     8   8   8   8   8   8   8   8
#     4  11  21  33  51  77 109 141 175 218 266 315
#     4   8  16  30  51  79 102 125 170 220 259 304
#     4  11  21  33  52  79 108 137 175 222 268 313
#     4  10  18  33  57  79 100 133 177 222 266 313
#     4  10  19  33  53  76 104 141 182 218 258 317
#     4  10  22  37  51  75 109 143 179 220 267 317
#     4  10  21  36  54  75 105 144 180 216 265 322
#     4  10  19  33  53  78 107 138 174 217 263 320
#
# _framework density 18.607438999999999
#
# number of rings (size 3 to 8) (size 9 to 14) (size 15 to 20)
#    0.000    2.000    2.500    3.000    0.000    1.500 
#    0.000    0.625    0.000    0.750    0.000    0.000 
#    0.000    0.000    0.000    0.000    0.000    0.625 
#
# Total GULP energy -357191.769159 kJ/mol
# GULP energy per Si atom -5581.121393 kJ/mol
# Density = 1.856509 g / cm^3
# Si number density = 18.607439 Si / 1000 Ang^3
#
#
#
# Elastic Constant Matrix: (Units=GPa)
#
#
# Indices 1 2 3 4 5 6 
#
# 1 77.8780 -11.2078 7.7790 0.0000 0.0000 0.0000
# 2 -11.2078 12.9198 -2.9739 0.0000 0.0000 0.0000
# 3 7.7790 -2.9739 32.6763 0.0000 0.0000 0.0000
# 4 0.0000 0.0000 0.0000 9.8140 0.0000 0.0000
# 5 0.0000 0.0000 0.0000 0.0000 21.2446 0.0000
# 6 0.0000 0.0000 0.0000 0.0000 0.0000 -11.8146
#
#
#
# Elastic Compliance Matrix: (Units=1/GPa)
#
#
# Indices 1 2 3 4 5 6 
#
# 1 0.014857 0.012332 -0.002414 0.000000 0.000000 0.000000
# 2 0.012332 0.089293 0.005191 0.000000 0.000000 0.000000
# 3 -0.002414 0.005191 0.031650 0.000000 0.000000 0.000000
# 4 0.000000 0.000000 0.000000 0.101895 0.000000 0.000000
# 5 0.000000 0.000000 0.000000 0.000000 0.047071 0.000000
# 6 0.000000 0.000000 0.000000 0.000000 0.000000 -0.084641
#
#
# Mechanical properties :
#
#
# Convention : Reuss Voigt Hill
#
# Bulk Modulus (GPa) = 6.02346 12.29651 9.15999
# Shear Modulus (GPa) = 22.19786 12.50727 17.35256
#
# Velocity S-wave (km/s) = 3.45767 2.59543 3.05710
# Velocity P-wave (km/s) = 4.38004 3.95024 4.17068
#
# Compressibility (1/GPa) = 0.16601742
#
# Stress axis : x y z
#
# Youngs Moduli (GPa) = 67.31033 11.19906 31.59516
#
# Poissons Ratio (x) = -0.13811 0.07628
# Poissons Ratio (y) = -0.83008 -0.16401
# Poissons Ratio (z) = 0.16252 -0.05813
#
# Static dielectric constant tensor:
#      x y z
#    x 1.654670 0.000000 0.000000 
#    y 0.000000 1.648990 0.000000 
#    z 0.000000 0.000000 1.647240 
# 
# From -- ./inp_files/27629.got.cif
#   From: 2010.05.17/outbox.cif.g08.bks.cpg/sg62_14_cif.got.tgz:27629.got - 2010.06.03 15:25:27.
