data_PCOD9462523
_publ_section_title
;
Structure prediction by ZEFSAII (Michael W. Deem and Ramdas Pophale) SiO2 
 PCOD9462523
Probable space group: P N M A
;
_chemical_formula_sum "Si O2"
_cell_formula_units_Z 64
_cell_length_a 22.607249
_cell_length_b 7.935095
_cell_length_c 17.857534
_cell_angle_alpha 90.000000
_cell_angle_beta 90.000000
_cell_angle_gamma 90.000000
_cell_volume 3203.474962
_symmetry_space_group_name_H-M "P N M A"
_symmetry_group_IT_number 62
_symmetry_cell_setting 'orthorhombic'
loop_
_space_group_symop_operation_xyz
x,y,z
1/2-x,-y,1/2+z
1/2+x,1/2-y,1/2-z
-x,1/2+y,-z
-x,-y,-z
1/2+x,y,1/2-z
1/2-x,1/2+y,1/2+z
x,1/2-y,z
loop_
_atom_site_type_symbol
_atom_site_label
_atom_site_fract_x
_atom_site_fract_y
_atom_site_fract_z
Si Si1 0.890016 0.052954 0.264168
Si Si2 0.370221 0.953380 0.464112
Si Si3 0.345883 0.542971 0.788439
Si Si4 0.889802 0.552267 0.870388
Si Si5 0.283099 0.452804 0.337844
Si Si6 0.575538 0.447451 0.921392
Si Si7 0.560553 0.454943 0.087103
Si Si8 0.023241 0.053255 0.857338
O O1 0.895977 0.250000 0.246457
O O2 0.830424 0.988637 0.224623
O O3 0.890727 0.031192 0.352786
O O4 0.945408 0.965782 0.223299
O O5 0.374318 0.750000 0.465606
O O6 0.371677 0.019240 0.548784
O O7 0.427948 0.012157 0.416993
O O8 0.312205 0.999055 0.416852
O O9 0.346170 0.750000 0.787549
O O10 0.359394 0.482409 0.704411
O O11 0.282552 0.486298 0.819764
O O12 0.398003 0.492433 0.844862
O O13 0.874463 0.750000 0.872461
O O14 0.960520 0.536435 0.861897
O O15 0.280939 0.250000 0.334567
O O16 0.588622 0.250000 0.918807
O O17 0.505676 0.476203 0.907563
O O18 0.586383 0.508067 0.006159
O O19 0.556400 0.250000 0.086719
O O20 0.012734 0.250000 0.872426
#
# Coordination Sequence:
#
# PCOD9462523 Si02
#       8
#     8   8   8   8   8   8   8   8
#     4  10  19  32  51  74 100 134 174 212 253 302
#     4   9  19  34  51  76 107 138 167 205 257 306
#     4   9  18  35  55  73  97 133 174 213 252 300
#     4  10  19  32  53  79 106 135 168 206 255 313
#     4   9  19  36  55  71  94 133 178 215 248 296
#     4  10  19  31  50  78 107 132 166 212 258 307
#     4   9  18  33  53  75 103 137 169 207 258 312
#     4  10  19  31  50  77 110 138 166 207 255 305
#
# _framework density 19.978303
#
# number of rings (size 3 to 8) (size 9 to 14) (size 15 to 20)
#    0.000    2.500    0.000    2.250    0.000    3.000 
#    2.250    1.250    0.000    0.000    0.000    0.000 
#    0.000    0.000    0.000    0.000    0.000    0.000 
#
# Total GULP energy -357153.483594 kJ/mol
# GULP energy per Si atom -5580.523181 kJ/mol
# Density = 1.993283 g / cm^3
# Si number density = 19.978303 Si / 1000 Ang^3
#
#
#
# Elastic Constant Matrix: (Units=GPa)
#
#
# Indices 1 2 3 4 5 6 
#
# 1 59.0606 -3.0620 32.0136 0.0000 0.0000 0.0000
# 2 -3.0620 13.3589 4.0069 0.0000 0.0000 0.0000
# 3 32.0136 4.0069 119.5466 0.0000 0.0000 0.0000
# 4 0.0000 0.0000 0.0000 16.8496 0.0000 0.0000
# 5 0.0000 0.0000 0.0000 0.0000 6.7680 0.0000
# 6 0.0000 0.0000 0.0000 0.0000 0.0000 14.3204
#
#
#
# Elastic Compliance Matrix: (Units=1/GPa)
#
#
# Indices 1 2 3 4 5 6 
#
# 1 0.020327 0.006356 -0.005657 0.000000 0.000000 0.000000
# 2 0.006356 0.077604 -0.004303 0.000000 0.000000 0.000000
# 3 -0.005657 -0.004303 0.010024 0.000000 0.000000 0.000000
# 4 0.000000 0.000000 0.000000 0.059349 0.000000 0.000000
# 5 0.000000 0.000000 0.000000 0.000000 0.147753 0.000000
# 6 0.000000 0.000000 0.000000 0.000000 0.000000 0.069831
#
#
# Mechanical properties :
#
#
# Convention : Reuss Voigt Hill
#
# Bulk Modulus (GPa) = 9.92580 28.65370 19.28975
# Shear Modulus (GPa) = 11.74596 18.18810 14.96703
#
# Velocity S-wave (km/s) = 2.42737 3.02054 2.74006
# Velocity P-wave (km/s) = 3.58263 5.15155 4.43699
#
# Compressibility (1/GPa) = 0.10074759
#
# Stress axis : x y z
#
# Youngs Moduli (GPa) = 49.19471 12.88594 99.76113
#
# Poissons Ratio (x) = -0.08190 0.56430
# Poissons Ratio (y) = -0.31267 0.42929
# Poissons Ratio (z) = 0.27827 0.05545
#
# Static dielectric constant tensor:
#      x y z
#    x 1.667050 0.000000 0.000000 
#    y 0.000000 1.731760 0.000000 
#    z 0.000000 0.000000 1.722150 
# 
# From -- ./inp_files/24841.got.cif
#   From: 2010.05.17/outbox.cif.g08.bks.cpg/sg62_13_cif.got.tgz:24841.got - 2010.06.03 15:25:27.
