data_PCOD9462514
_publ_section_title
;
Structure prediction by ZEFSAII (Michael W. Deem and Ramdas Pophale) SiO2 
 PCOD9462514
Probable space group: P N M A
;
_chemical_formula_sum "Si O2"
_cell_formula_units_Z 64
_cell_length_a 7.977141
_cell_length_b 14.949431
_cell_length_c 25.776776
_cell_angle_alpha 90.000000
_cell_angle_beta 90.000000
_cell_angle_gamma 90.000000
_cell_volume 3073.976401
_symmetry_space_group_name_H-M "P N M A"
_symmetry_group_IT_number 62
_symmetry_cell_setting 'orthorhombic'
loop_
_space_group_symop_operation_xyz
x,y,z
1/2-x,-y,1/2+z
1/2+x,1/2-y,1/2-z
-x,1/2+y,-z
-x,-y,-z
1/2+x,y,1/2-z
1/2-x,1/2+y,1/2+z
x,1/2-y,z
loop_
_atom_site_type_symbol
_atom_site_label
_atom_site_fract_x
_atom_site_fract_y
_atom_site_fract_z
Si Si1 0.580980 0.354105 0.048088
Si Si2 0.026567 0.353503 0.771022
Si Si3 0.274335 0.977232 0.414583
Si Si4 0.420494 0.648674 0.497527
Si Si5 0.717273 0.352789 0.942968
Si Si6 0.867950 0.028825 0.855518
Si Si7 0.621459 0.647283 0.167772
Si Si8 0.274247 0.850737 0.605993
O O1 0.637317 0.250000 0.051665
O O2 0.700653 0.425549 0.075134
O O3 0.401865 0.359620 0.075764
O O4 0.579680 0.375667 0.986443
O O5 0.968736 0.250000 0.776416
O O6 0.906833 0.419125 0.802980
O O7 0.020839 0.373989 0.709935
O O8 0.207984 0.357827 0.797700
O O9 0.314346 0.925807 0.467980
O O10 0.450258 0.976550 0.383820
O O11 0.147105 0.918800 0.379798
O O12 0.358575 0.750000 0.485705
O O13 0.608219 0.642917 0.475651
O O14 0.406995 0.637291 0.558984
O O15 0.696729 0.250000 0.925985
O O16 0.747269 0.416106 0.894279
O O17 0.798972 0.928550 0.852681
O O18 0.606113 0.750000 0.149994
O O19 0.287800 0.750000 0.626513
#
# Coordination Sequence:
#
# PCOD9462514 Si02
#       8
#     8   8   8   8   8   8   8   8
#     4  10  21  34  46  65  96 130 162 199 240 278
#     4   9  18  33  52  75 102 127 152 187 233 284
#     4  10  19  31  50  73  95 124 162 198 232 276
#     4   9  17  30  48  70  97 128 160 193 231 278
#     4   9  17  30  48  70  97 128 160 193 231 278
#     4  10  19  31  50  73  95 124 162 198 232 276
#     4   9  18  33  52  75 102 127 152 187 233 284
#     4  10  21  34  46  65  96 130 162 199 240 278
#
# _framework density 20.819938
#
# number of rings (size 3 to 8) (size 9 to 14) (size 15 to 20)
#    0.000    2.500    0.000    2.250    0.000    9.500 
#    0.000    0.000    0.000    8.250    0.000    0.000 
#    0.000    0.000    0.000    0.000    0.000    0.000 
#
# Total GULP energy -357784.951538 kJ/mol
# GULP energy per Si atom -5590.389868 kJ/mol
# Density = 2.077255 g / cm^3
# Si number density = 20.819938 Si / 1000 Ang^3
#
#
#
# Elastic Constant Matrix: (Units=GPa)
#
#
# Indices 1 2 3 4 5 6 
#
# 1 68.0375 27.8425 14.0442 0.0000 0.0000 0.0000
# 2 27.8425 89.7830 41.7269 0.0000 0.0000 0.0000
# 3 14.0442 41.7269 51.2343 0.0000 0.0000 0.0000
# 4 0.0000 0.0000 0.0000 23.1753 0.0000 0.0000
# 5 0.0000 0.0000 0.0000 0.0000 32.1692 0.0000
# 6 0.0000 0.0000 0.0000 0.0000 0.0000 2.8810
#
#
#
# Elastic Compliance Matrix: (Units=1/GPa)
#
#
# Indices 1 2 3 4 5 6 
#
# 1 0.016845 -0.004952 -0.000584 0.000000 0.000000 0.000000
# 2 -0.004952 0.019377 -0.014424 0.000000 0.000000 0.000000
# 3 -0.000584 -0.014424 0.031426 0.000000 0.000000 0.000000
# 4 0.000000 0.000000 0.000000 0.043149 0.000000 0.000000
# 5 0.000000 0.000000 0.000000 0.000000 0.031086 0.000000
# 6 0.000000 0.000000 0.000000 0.000000 0.000000 0.347099
#
#
# Mechanical properties :
#
#
# Convention : Reuss Voigt Hill
#
# Bulk Modulus (GPa) = 36.06595 41.80913 38.93754
# Shear Modulus (GPa) = 9.29116 20.00784 14.64950
#
# Velocity S-wave (km/s) = 2.11478 3.10335 2.65548
# Velocity P-wave (km/s) = 4.82944 5.74160 5.30516
#
# Compressibility (1/GPa) = 0.02772699
#
# Stress axis : x y z
#
# Youngs Moduli (GPa) = 59.36497 51.60673 31.82110
#
# Poissons Ratio (x) = 0.25557 0.01859
# Poissons Ratio (y) = 0.29399 0.45899
# Poissons Ratio (z) = 0.03468 0.74438
#
# Static dielectric constant tensor:
#      x y z
#    x 1.826620 0.000000 0.000000 
#    y 0.000000 1.739250 0.000000 
#    z 0.000000 0.000000 1.714650 
# 
# From -- ./inp_files/28971.got.cif
#   From: 2010.05.17/outbox.cif.g08.bks.cpg/sg62_15_cif.got.tgz:28971.got - 2010.06.03 15:25:27.
