data_PCOD9462037
_publ_section_title
;
Structure prediction by ZEFSAII (Michael W. Deem and Ramdas Pophale) SiO2 
 PCOD9462037
Probable space group: P N M A
;
_chemical_formula_sum "Si O2"
_cell_formula_units_Z 64
_cell_length_a 29.367682
_cell_length_b 8.631207
_cell_length_c 12.697096
_cell_angle_alpha 90.000000
_cell_angle_beta 90.000000
_cell_angle_gamma 90.000000
_cell_volume 3218.441387
_symmetry_space_group_name_H-M "P N M A"
_symmetry_group_IT_number 62
_symmetry_cell_setting 'orthorhombic'
loop_
_space_group_symop_operation_xyz
x,y,z
1/2-x,-y,1/2+z
1/2+x,1/2-y,1/2-z
-x,1/2+y,-z
-x,-y,-z
1/2+x,y,1/2-z
1/2-x,1/2+y,1/2+z
x,1/2-y,z
loop_
_atom_site_type_symbol
_atom_site_label
_atom_site_fract_x
_atom_site_fract_y
_atom_site_fract_z
Si Si1 0.378522 0.063504 0.668774
Si Si2 0.061687 0.936834 0.357058
Si Si3 0.470262 0.939048 0.264548
Si Si4 0.283544 0.067208 0.572470
Si Si5 0.686225 0.932473 0.874053
Si Si6 0.425802 0.931383 0.468953
Si Si7 0.661653 0.568428 0.634216
Si Si8 0.092157 0.434183 0.574381
O O1 0.377287 0.250000 0.665829
O O2 0.396002 0.014892 0.783156
O O3 0.327917 0.008704 0.637321
O O4 0.414694 0.013393 0.579087
O O5 0.061290 0.750000 0.364278
O O6 0.016765 0.984483 0.292715
O O7 0.065268 0.003118 0.473526
O O8 0.469179 0.750000 0.269410
O O9 0.463281 0.992181 0.385226
O O10 0.430279 0.990762 0.184350
O O11 0.278148 0.250000 0.595478
O O12 0.298538 0.051176 0.451217
O O13 0.236367 0.984916 0.594599
O O14 0.681308 0.750000 0.891390
O O15 0.678708 0.965039 0.750413
O O16 0.644536 0.015341 0.932296
O O17 0.433168 0.750000 0.488624
O O18 0.379339 0.959345 0.402323
O O19 0.646489 0.750000 0.628133
O O20 0.088943 0.250000 0.574949
#
# Coordination Sequence:
#
# PCOD9462037 Si02
#       8
#     8   8   8   8   8   8   8   8
#     4   9  20  38  57  80 114 152 187 231 287 337
#     4  10  21  39  59  81 116 157 193 232 280 340
#     4   9  19  35  57  85 115 149 189 237 287 330
#     4   9  19  36  55  78 108 143 181 228 286 337
#     4  11  22  36  57  84 108 141 189 233 280 340
#     4  10  18  32  57  84 111 145 188 232 277 332
#     4   9  19  36  55  77 108 144 183 230 281 331
#     4  11  22  38  57  82 116 149 188 237 287 335
#
# _framework density 19.885401999999999
#
# number of rings (size 3 to 8) (size 9 to 14) (size 15 to 20)
#    0.000    2.250    1.250    2.250    0.000    4.500 
#    0.000    4.375    0.000    0.000    0.000    0.000 
#    0.000    0.000    0.000    0.000    0.000    0.000 
#
# Total GULP energy -357156.945944 kJ/mol
# GULP energy per Si atom -5580.577280 kJ/mol
# Density = 1.984014 g / cm^3
# Si number density = 19.885402 Si / 1000 Ang^3
#
#
#
# Elastic Constant Matrix: (Units=GPa)
#
#
# Indices 1 2 3 4 5 6 
#
# 1 57.5196 1.0454 -4.8193 0.0000 0.0000 0.0000
# 2 1.0454 7.3978 2.7811 0.0000 0.0000 0.0000
# 3 -4.8193 2.7811 42.8250 0.0000 0.0000 0.0000
# 4 0.0000 0.0000 0.0000 23.3704 0.0000 0.0000
# 5 0.0000 0.0000 0.0000 0.0000 20.3429 0.0000
# 6 0.0000 0.0000 0.0000 0.0000 0.0000 20.9297
#
#
#
# Elastic Compliance Matrix: (Units=1/GPa)
#
#
# Indices 1 2 3 4 5 6 
#
# 1 0.017630 -0.003318 0.002199 0.000000 0.000000 0.000000
# 2 -0.003318 0.139182 -0.009412 0.000000 0.000000 0.000000
# 3 0.002199 -0.009412 0.024210 0.000000 0.000000 0.000000
# 4 0.000000 0.000000 0.000000 0.042789 0.000000 0.000000
# 5 0.000000 0.000000 0.000000 0.000000 0.049157 0.000000
# 6 0.000000 0.000000 0.000000 0.000000 0.000000 0.047779
#
#
# Mechanical properties :
#
#
# Convention : Reuss Voigt Hill
#
# Bulk Modulus (GPa) = 6.25155 11.75076 9.00115
# Shear Modulus (GPa) = 12.65410 20.17762 16.41586
#
# Velocity S-wave (km/s) = 2.52534 3.18888 2.87631
# Velocity P-wave (km/s) = 3.41375 4.41370 3.94553
#
# Compressibility (1/GPa) = 0.15996044
#
# Stress axis : x y z
#
# Youngs Moduli (GPa) = 56.72164 7.18482 41.30596
#
# Poissons Ratio (x) = 0.02384 -0.09085
# Poissons Ratio (y) = 0.18821 0.38877
# Poissons Ratio (z) = -0.12476 0.06762
#
# Static dielectric constant tensor:
#      x y z
#    x 1.710710 0.000000 0.000000 
#    y 0.000000 1.680720 0.000000 
#    z 0.000000 0.000000 1.697800 
# 
# From -- ./inp_files/15772.got.cif
#   From: 2010.05.17/outbox.cif.g08.bks.cpg/sg62_8_cif.got.tgz:15772.got - 2010.06.03 15:25:27.
