data_PCOD9462088
_publ_section_title
;
Structure prediction by ZEFSAII (Michael W. Deem and Ramdas Pophale) SiO2 
 PCOD9462088
Probable space group: P N M A
;
_chemical_formula_sum "Si O2"
_cell_formula_units_Z 64
_cell_length_a 24.497072
_cell_length_b 7.440636
_cell_length_c 15.753880
_cell_angle_alpha 90.000000
_cell_angle_beta 90.000000
_cell_angle_gamma 90.000000
_cell_volume 2871.519506
_symmetry_space_group_name_H-M "P N M A"
_symmetry_group_IT_number 62
_symmetry_cell_setting 'orthorhombic'
loop_
_space_group_symop_operation_xyz
x,y,z
1/2-x,-y,1/2+z
1/2+x,1/2-y,1/2-z
-x,1/2+y,-z
-x,-y,-z
1/2+x,y,1/2-z
1/2-x,1/2+y,1/2+z
x,1/2-y,z
loop_
_atom_site_type_symbol
_atom_site_label
_atom_site_fract_x
_atom_site_fract_y
_atom_site_fract_z
Si Si1 0.952006 0.955322 0.777051
Si Si2 0.617882 0.956607 0.117235
Si Si3 0.866470 0.470057 0.430824
Si Si4 0.259039 0.967128 0.834031
Si Si5 0.131409 0.038653 0.086741
Si Si6 0.750570 0.031424 0.362890
Si Si7 0.145337 0.533589 0.898732
Si Si8 0.572604 0.970104 0.760618
O O1 0.963357 0.750000 0.804085
O O2 0.914466 0.038534 0.850830
O O3 0.011224 0.033497 0.756950
O O4 0.915908 0.952710 0.691945
O O5 0.599802 0.750000 0.117187
O O6 0.682168 0.963072 0.138957
O O7 0.612306 0.031018 0.022258
O O8 0.865974 0.250000 0.433260
O O9 0.804126 0.528809 0.413276
O O10 0.902991 0.526097 0.351040
O O11 0.262197 0.750000 0.837602
O O12 0.246045 0.015690 0.736541
O O13 0.208142 0.028461 0.890953
O O14 0.135113 0.250000 0.108468
O O15 0.192296 0.965369 0.103172
O O16 0.119318 0.020767 0.987681
O O17 0.751141 0.250000 0.367172
O O18 0.146434 0.750000 0.896341
O O19 0.111633 0.474047 0.816642
O O20 0.573033 0.750000 0.762647
#
# Coordination Sequence:
#
# PCOD9462088 Si02
#       8
#     8   8   8   8   8   8   8   8
#     4  10  21  38  58  77 103 146 191 224 261 319
#     4  11  22  34  54  83 113 141 175 223 276 321
#     4   9  17  31  53  80 106 138 176 217 267 321
#     4  10  18  33  57  81 108 142 178 216 264 325
#     4  10  20  34  53  77 108 145 180 214 267 331
#     4   9  15  29  53  76 103 140 176 208 255 323
#     4  10  20  34  57  85 109 136 178 228 270 312
#     4   9  18  35  57  79 104 140 188 228 261 316
#
# _framework density 22.287852000000001
#
# number of rings (size 3 to 8) (size 9 to 14) (size 15 to 20)
#    0.000    2.250    2.500    1.125    0.000    3.000 
#    0.000    0.625    0.000    3.000    0.000    0.000 
#    0.000    0.000    0.000    0.000    0.000    0.000 
#
# Total GULP energy -357643.966545 kJ/mol
# GULP energy per Si atom -5588.186977 kJ/mol
# Density = 2.223712 g / cm^3
# Si number density = 22.287852 Si / 1000 Ang^3
#
#
#
# Elastic Constant Matrix: (Units=GPa)
#
#
# Indices 1 2 3 4 5 6 
#
# 1 111.9038 -6.9216 18.7049 0.0000 0.0000 0.0000
# 2 -6.9216 66.8368 -12.9219 0.0000 0.0000 0.0000
# 3 18.7049 -12.9219 92.3890 0.0000 0.0000 0.0000
# 4 0.0000 0.0000 0.0000 -2.9747 0.0000 0.0000
# 5 0.0000 0.0000 0.0000 0.0000 1.5765 0.0000
# 6 0.0000 0.0000 0.0000 0.0000 0.0000 -15.4217
#
#
#
# Elastic Compliance Matrix: (Units=1/GPa)
#
#
# Indices 1 2 3 4 5 6 
#
# 1 0.009274 0.000614 -0.001792 0.000000 0.000000 0.000000
# 2 0.000614 0.015418 0.002032 0.000000 0.000000 0.000000
# 3 -0.001792 0.002032 0.011471 0.000000 0.000000 0.000000
# 4 0.000000 0.000000 0.000000 -0.336169 0.000000 0.000000
# 5 0.000000 0.000000 0.000000 0.000000 0.634331 0.000000
# 6 0.000000 0.000000 0.000000 0.000000 0.000000 -0.064844
#
#
# Mechanical properties :
#
#
# Convention : Reuss Voigt Hill
#
# Bulk Modulus (GPa) = 26.40494 29.87251 28.13873
# Shear Modulus (GPa) = 17.83194 14.78723 16.30959
#
# Velocity S-wave (km/s) = 2.83163 2.57858 2.70806
# Velocity P-wave (km/s) = 4.75013 4.72203 4.73610
#
# Compressibility (1/GPa) = 0.03787170
#
# Stress axis : x y z
#
# Youngs Moduli (GPa) = 107.83180 64.85807 87.17820
#
# Poissons Ratio (x) = -0.03982 0.15619
# Poissons Ratio (y) = -0.06621 -0.17716
# Poissons Ratio (z) = 0.19320 -0.13180
#
# Static dielectric constant tensor:
#      x y z
#    x 1.789710 0.000000 0.000000 
#    y 0.000000 1.817790 0.000000 
#    z 0.000000 0.000000 1.788870 
# 
# From -- ./inp_files/20944.got.cif
#   From: 2010.05.17/outbox.cif.g08.bks.cpg/sg62_11_cif.got.tgz:20944.got - 2010.06.03 15:25:27.
