data_PCOD9462785
_publ_section_title
;
Structure prediction by ZEFSAII (Michael W. Deem and Ramdas Pophale) SiO2 
 PCOD9462785
Probable space group: P N M A
;
_chemical_formula_sum "Si O2"
_cell_formula_units_Z 56
_cell_length_a 23.003971
_cell_length_b 8.866919
_cell_length_c 14.490855
_cell_angle_alpha 90.000000
_cell_angle_beta 90.000000
_cell_angle_gamma 90.000000
_cell_volume 2955.762694
_symmetry_space_group_name_H-M "P N M A"
_symmetry_group_IT_number 62
_symmetry_cell_setting 'orthorhombic'
loop_
_space_group_symop_operation_xyz
x,y,z
1/2-x,-y,1/2+z
1/2+x,1/2-y,1/2-z
-x,1/2+y,-z
-x,-y,-z
1/2+x,y,1/2-z
1/2-x,1/2+y,1/2+z
x,1/2-y,z
loop_
_atom_site_type_symbol
_atom_site_label
_atom_site_fract_x
_atom_site_fract_y
_atom_site_fract_z
Si Si1 0.652929 0.071192 0.889966
Si Si2 0.718634 0.074456 0.610694
Si Si3 0.496709 0.570630 0.398251
Si Si4 0.277147 0.574254 0.608125
Si Si5 0.389262 0.428284 0.289410
Si Si6 0.656406 0.069442 0.101814
Si Si7 0.603136 0.430336 0.289029
O O1 0.646234 0.250000 0.878197
O O2 0.720316 0.025005 0.873698
O O3 0.614295 0.984635 0.815809
O O4 0.639998 0.031078 0.996695
O O5 0.713347 0.250000 0.637230
O O6 0.708219 0.062658 0.500523
O O7 0.671598 0.976827 0.664315
O O8 0.783708 0.014713 0.625513
O O9 0.500000 0.500000 0.500000
O O10 0.494060 0.750000 0.405707
O O11 0.440174 0.509491 0.345477
O O12 0.552848 0.518908 0.340437
O O13 0.262367 0.750000 0.627564
O O14 0.334154 0.534658 0.665827
O O15 0.397085 0.250000 0.293803
O O16 0.667609 0.250000 0.104809
O O17 0.609350 0.035931 0.180371
O O18 0.593551 0.250000 0.300649
#
# Coordination Sequence:
#
# PCOD9462785 Si02
#       7
#     8   8   8   8   8   8   8
#     4  10  20  35  56  85 119 153 192 236 281 333
#     4  10  19  32  54  86 121 153 188 233 285 342
#     4  12  26  44  64  87 114 145 185 232 283 340
#     4   9  18  32  54  85 120 154 185 225 281 341
#     4  12  24  39  59  82 112 152 195 238 287 339
#     4   9  19  35  57  86 121 156 190 233 284 339
#     4  10  20  37  59  83 114 153 194 235 283 336
#
# _framework density 18.946041000000001
#
# number of rings (size 3 to 8) (size 9 to 14) (size 15 to 20)
#    0.000    1.714    0.000    5.143    0.000    4.571 
#    0.000    0.714    0.000    0.000    0.000    0.000 
#    0.000    0.000    0.000    0.000    0.000    0.000 
#
# Total GULP energy -313039.446459 kJ/mol
# GULP energy per Si atom -5589.990115 kJ/mol
# Density = 1.890292 g / cm^3
# Si number density = 18.946041 Si / 1000 Ang^3
#
#
#
# Elastic Constant Matrix: (Units=GPa)
#
#
# Indices 1 2 3 4 5 6 
#
# 1 57.8585 53.2300 79.2680 0.0000 0.0000 0.0000
# 2 53.2300 111.5900 77.1686 0.0000 0.0000 0.0000
# 3 79.2680 77.1686 132.6054 0.0000 0.0000 0.0000
# 4 0.0000 0.0000 0.0000 29.9020 0.0000 0.0000
# 5 0.0000 0.0000 0.0000 0.0000 29.1301 0.0000
# 6 0.0000 0.0000 0.0000 0.0000 0.0000 35.0565
#
#
#
# Elastic Compliance Matrix: (Units=1/GPa)
#
#
# Indices 1 2 3 4 5 6 
#
# 1 0.102901 -0.010957 -0.055135 0.000000 0.000000 0.000000
# 2 -0.010957 0.016163 -0.002856 0.000000 0.000000 0.000000
# 3 -0.055135 -0.002856 0.042162 0.000000 0.000000 0.000000
# 4 0.000000 0.000000 0.000000 0.033443 0.000000 0.000000
# 5 0.000000 0.000000 0.000000 0.000000 0.034329 0.000000
# 6 0.000000 0.000000 0.000000 0.000000 0.000000 0.028525
#
#
# Mechanical properties :
#
#
# Convention : Reuss Voigt Hill
#
# Bulk Modulus (GPa) = 42.86519 80.15413 61.50966
# Shear Modulus (GPa) = 12.40092 24.97686 18.68889
#
# Velocity S-wave (km/s) = 2.56117 3.63480 3.14415
# Velocity P-wave (km/s) = 5.60537 7.74688 6.76144
#
# Compressibility (1/GPa) = 0.02332895
#
# Stress axis : x y z
#
# Youngs Moduli (GPa) = 9.71807 61.86868 23.71832
#
# Poissons Ratio (x) = 0.67792 1.30771
# Poissons Ratio (y) = 0.10648 0.06774
# Poissons Ratio (z) = 0.53581 0.17670
#
# Static dielectric constant tensor:
#      x y z
#    x 1.617580 0.000000 0.000000 
#    y 0.000000 1.636940 0.000000 
#    z 0.000000 0.000000 1.682520 
# 
# From -- ./inp_files/20185.got.cif
#   From: 2010.05.17/outbox.cif.g08.bks.cpg/sg62_11_cif.got.tgz:20185.got - 2010.06.03 15:25:27.
