data_PCOD9462147
_publ_section_title
;
Structure prediction by ZEFSAII (Michael W. Deem and Ramdas Pophale) SiO2 
 PCOD9462147
Probable space group: P N M A
;
_chemical_formula_sum "Si O2"
_cell_formula_units_Z 64
_cell_length_a 16.498342
_cell_length_b 8.763758
_cell_length_c 23.073500
_cell_angle_alpha 90.000000
_cell_angle_beta 90.000000
_cell_angle_gamma 90.000000
_cell_volume 3336.139143
_symmetry_space_group_name_H-M "P N M A"
_symmetry_group_IT_number 62
_symmetry_cell_setting 'orthorhombic'
loop_
_space_group_symop_operation_xyz
x,y,z
1/2-x,-y,1/2+z
1/2+x,1/2-y,1/2-z
-x,1/2+y,-z
-x,-y,-z
1/2+x,y,1/2-z
1/2-x,1/2+y,1/2+z
x,1/2-y,z
loop_
_atom_site_type_symbol
_atom_site_label
_atom_site_fract_x
_atom_site_fract_y
_atom_site_fract_z
Si Si1 0.927775 0.067497 0.461124
Si Si2 0.813511 0.571506 0.838257
Si Si3 0.243409 0.064195 0.037039
Si Si4 0.195235 0.079043 0.743569
Si Si5 0.385156 0.423969 0.343836
Si Si6 0.579529 0.434110 0.532477
Si Si7 0.463927 0.577910 0.162123
Si Si8 0.043879 0.424534 0.235551
O O1 0.929566 0.250000 0.465970
O O2 0.835613 0.014499 0.477454
O O3 0.943968 0.020258 0.394405
O O4 0.000000 0.000000 0.500000
O O5 0.829425 0.750000 0.849782
O O6 0.778971 0.508044 0.898151
O O7 0.749102 0.546341 0.787916
O O8 0.894425 0.503275 0.810610
O O9 0.246726 0.250000 0.037386
O O10 0.165588 0.023347 0.997997
O O11 0.230464 0.250000 0.741399
O O12 0.114128 0.083197 0.704393
O O13 0.178013 0.028656 0.809129
O O14 0.356867 0.250000 0.353525
O O15 0.414931 0.498408 0.403130
O O16 0.459859 0.416678 0.299017
O O17 0.500000 0.500000 0.500000
O O18 0.573842 0.250000 0.532827
O O19 0.483178 0.750000 0.143541
O O20 0.532879 0.510833 0.204136
O O21 0.069174 0.250000 0.248251
#
# Coordination Sequence:
#
# PCOD9462147 Si02
#       8
#     8   8   8   8   8   8   8   8
#     4  11  22  40  64  86 113 154 204 256 307 357
#     4  10  18  34  58  84 110 144 192 238 286 352
#     4   9  20  38  62  87 117 159 204 247 298 359
#     4  10  20  34  55  83 114 146 182 233 291 348
#     4  10  20  37  58  81 112 153 194 236 286 345
#     4  11  22  39  61  89 123 161 202 247 301 363
#     4  10  20  36  57  83 115 147 187 237 295 357
#     4   9  19  34  57  85 114 148 190 237 288 351
#
# _framework density 19.183852999999999
#
# number of rings (size 3 to 8) (size 9 to 14) (size 15 to 20)
#    0.000    2.000    1.250    2.625    0.000    4.000 
#    2.250    5.000    0.000    0.000    0.000    0.000 
#    0.000    0.000    0.000    0.000    0.000    0.000 
#
# Total GULP energy -356601.570850 kJ/mol
# GULP energy per Si atom -5571.899545 kJ/mol
# Density = 1.914019 g / cm^3
# Si number density = 19.183853 Si / 1000 Ang^3
#
#
#
# Elastic Constant Matrix: (Units=GPa)
#
#
# Indices 1 2 3 4 5 6 
#
# 1 77.0171 21.7129 27.1367 0.0000 0.0000 0.0000
# 2 21.7129 49.8987 25.5870 0.0000 0.0000 0.0000
# 3 27.1367 25.5870 92.9281 0.0000 0.0000 0.0000
# 4 0.0000 0.0000 0.0000 17.5189 0.0000 0.0000
# 5 0.0000 0.0000 0.0000 0.0000 24.7122 0.0000
# 6 0.0000 0.0000 0.0000 0.0000 0.0000 16.5377
#
#
#
# Elastic Compliance Matrix: (Units=1/GPa)
#
#
# Indices 1 2 3 4 5 6 
#
# 1 0.015538 -0.005163 -0.003116 0.000000 0.000000 0.000000
# 2 -0.005163 0.025051 -0.005390 0.000000 0.000000 0.000000
# 3 -0.003116 -0.005390 0.013155 0.000000 0.000000 0.000000
# 4 0.000000 0.000000 0.000000 0.057081 0.000000 0.000000
# 5 0.000000 0.000000 0.000000 0.000000 0.040466 0.000000
# 6 0.000000 0.000000 0.000000 0.000000 0.000000 0.060468
#
#
# Mechanical properties :
#
#
# Convention : Reuss Voigt Hill
#
# Bulk Modulus (GPa) = 37.87015 40.96857 39.41936
# Shear Modulus (GPa) = 20.16957 21.44758 20.80858
#
# Velocity S-wave (km/s) = 3.24602 3.34728 3.29704
# Velocity P-wave (km/s) = 5.81656 6.02836 5.92341
#
# Compressibility (1/GPa) = 0.02640602
#
# Stress axis : x y z
#
# Youngs Moduli (GPa) = 64.36011 39.91819 76.01759
#
# Poissons Ratio (x) = 0.20612 0.23684
# Poissons Ratio (y) = 0.33232 0.40972
# Poissons Ratio (z) = 0.20052 0.21515
#
# Static dielectric constant tensor:
#      x y z
#    x 1.728920 0.000000 0.000000 
#    y 0.000000 1.682690 0.000000 
#    z 0.000000 0.000000 1.647100 
# 
# From -- ./inp_files/27753.got.cif
#   From: 2010.05.17/outbox.cif.g08.bks.cpg/sg62_14_cif.got.tgz:27753.got - 2010.06.03 15:25:27.
