data_PCOD9462328
_publ_section_title
;
Structure prediction by ZEFSAII (Michael W. Deem and Ramdas Pophale) SiO2 
 PCOD9462328
Probable space group: P N M A
;
_chemical_formula_sum "Si O2"
_cell_formula_units_Z 52
_cell_length_a 17.040502
_cell_length_b 7.573841
_cell_length_c 14.575239
_cell_angle_alpha 90.000000
_cell_angle_beta 90.000000
_cell_angle_gamma 90.000000
_cell_volume 1881.110264
_symmetry_space_group_name_H-M "P N M A"
_symmetry_group_IT_number 62
_symmetry_cell_setting 'orthorhombic'
loop_
_space_group_symop_operation_xyz
x,y,z
1/2-x,-y,1/2+z
1/2+x,1/2-y,1/2-z
-x,1/2+y,-z
-x,-y,-z
1/2+x,y,1/2-z
1/2-x,1/2+y,1/2+z
x,1/2-y,z
loop_
_atom_site_type_symbol
_atom_site_label
_atom_site_fract_x
_atom_site_fract_y
_atom_site_fract_z
Si Si1 0.537089 0.250000 0.857366
Si Si2 0.655099 0.455105 0.546056
Si Si3 0.703194 0.453443 0.911692
Si Si4 0.614686 0.947542 0.071965
Si Si5 0.565646 0.463189 0.377004
Si Si6 0.404326 0.049365 0.272099
Si Si7 0.707241 0.955036 0.244340
O O1 0.471710 0.404722 0.889759
O O2 0.591971 0.402890 0.806194
O O3 0.640012 0.250000 0.563410
O O4 0.732167 0.473901 0.484080
O O5 0.586662 0.527889 0.479176
O O6 0.659921 0.540309 0.646215
O O7 0.724570 0.250000 0.900311
O O8 0.727694 0.539365 0.813217
O O9 0.625056 0.452319 0.976444
O O10 0.643678 0.750000 0.048959
O O11 0.668678 0.030112 0.151338
O O12 0.575639 0.250000 0.377139
O O13 0.481939 0.500903 0.333156
O O14 0.630719 0.544198 0.310281
O O15 0.414696 0.250000 0.238716
O O16 0.727654 0.750000 0.222057
#
# Coordination Sequence:
#
# PCOD9462328 Si02
#       7
#     4   8   8   8   8   8   8
#     4  10  20  34  50  68  96 132 172 208 250 300
#     4  10  19  30  44  63  99 134 165 201 247 296
#     4  10  20  31  48  73  99 131 173 212 250 301
#     4   9  18  33  49  65  95 136 167 207 257 295
#     4   9  17  26  40  65  91 128 169 201 234 288
#     4  11  19  30  46  69  95 131 169 207 244 296
#     4   9  16  30  47  65  93 133 168 206 250 293
#
# _framework density 27.643252
#
# number of rings (size 3 to 8) (size 9 to 14) (size 15 to 20)
#    0.462    1.846    2.308    1.385    0.000    2.462 
#    0.000    0.000    0.000    0.000    0.000    0.000 
#    0.000    1.231    1.231    0.154    0.000    0.154 
#
# Total GULP energy -289742.657192 kJ/mol
# GULP energy per Si atom -5571.974177 kJ/mol
# Density = 2.758033 g / cm^3
# Si number density = 27.643252 Si / 1000 Ang^3
#
#
#
# Elastic Constant Matrix: (Units=GPa)
#
#
# Indices 1 2 3 4 5 6 
#
# 1 96.1552 -25.3554 -5.9649 0.0000 0.0000 0.0000
# 2 -25.3554 99.1645 7.6789 0.0000 0.0000 0.0000
# 3 -5.9649 7.6789 207.6446 0.0000 0.0000 0.0000
# 4 0.0000 0.0000 0.0000 -851.9513 0.0000 0.0000
# 5 0.0000 0.0000 0.0000 0.0000 30.9896 0.0000
# 6 0.0000 0.0000 0.0000 0.0000 0.0000 27.2680
#
#
#
# Elastic Compliance Matrix: (Units=1/GPa)
#
#
# Indices 1 2 3 4 5 6 
#
# 1 0.011161 0.002837 0.000216 0.000000 0.000000 0.000000
# 2 0.002837 0.010834 -0.000319 0.000000 0.000000 0.000000
# 3 0.000216 -0.000319 0.004834 0.000000 0.000000 0.000000
# 4 0.000000 0.000000 0.000000 -0.001174 0.000000 0.000000
# 5 0.000000 0.000000 0.000000 0.000000 0.032269 0.000000
# 6 0.000000 0.000000 0.000000 0.000000 0.000000 0.036673
#
#
# Mechanical properties :
#
#
# Convention : Reuss Voigt Hill
#
# Bulk Modulus (GPa) = 30.96258 39.52017 35.24138
# Shear Modulus (GPa) = 50.05201 -130.29835 -40.12317
#
# Velocity S-wave (km/s) = 4.25978 -6.87299 -3.81394
# Velocity P-wave (km/s) = 5.95142 6.97542 2.57265
#
# Compressibility (1/GPa) = 0.03229705
#
# Stress axis : x y z
#
# Youngs Moduli (GPa) = 89.59481 92.29864 206.87144
#
# Poissons Ratio (x) = -0.26186 -0.04462
# Poissons Ratio (y) = -0.25419 0.06603
# Poissons Ratio (z) = -0.01933 0.02946
#
# Static dielectric constant tensor:
#      x y z
#    x 2.363910 0.000000 0.000000 
#    y 0.000000 2.011120 0.000000 
#    z 0.000000 0.000000 2.285370 
# 
# From -- ./inp_files/20148.got.cif
#   From: 2010.05.17/outbox.cif.g08.bks.cpg/sg62_11_cif.got.tgz:20148.got - 2010.06.03 15:25:27.
