data_PCOD9462614
_publ_section_title
;
Structure prediction by ZEFSAII (Michael W. Deem and Ramdas Pophale) SiO2 
 PCOD9462614
Probable space group: P N M A
;
_chemical_formula_sum "Si O2"
_cell_formula_units_Z 56
_cell_length_a 18.763791
_cell_length_b 7.949603
_cell_length_c 19.579035
_cell_angle_alpha 90.000000
_cell_angle_beta 90.000000
_cell_angle_gamma 90.000000
_cell_volume 2920.500671
_symmetry_space_group_name_H-M "P N M A"
_symmetry_group_IT_number 62
_symmetry_cell_setting 'orthorhombic'
loop_
_space_group_symop_operation_xyz
x,y,z
1/2-x,-y,1/2+z
1/2+x,1/2-y,1/2-z
-x,1/2+y,-z
-x,-y,-z
1/2+x,y,1/2-z
1/2-x,1/2+y,1/2+z
x,1/2-y,z
loop_
_atom_site_type_symbol
_atom_site_label
_atom_site_fract_x
_atom_site_fract_y
_atom_site_fract_z
Si Si1 0.312751 0.956754 0.887126
Si Si2 0.326388 0.050962 0.462139
Si Si3 0.394219 0.448692 0.600231
Si Si4 0.472033 0.549466 0.926051
Si Si5 0.845564 0.557251 0.757927
Si Si6 0.499366 0.551794 0.216638
Si Si7 0.447515 0.546875 0.358357
O O1 0.312549 0.750000 0.885489
O O2 0.248452 0.016988 0.934302
O O3 0.390330 0.009700 0.914511
O O4 0.304185 0.012698 0.808034
O O5 0.314907 0.250000 0.473347
O O6 0.357320 0.978464 0.532821
O O7 0.385460 0.028550 0.403711
O O8 0.403395 0.250000 0.589265
O O9 0.347441 0.471733 0.668457
O O10 0.474484 0.512583 0.614931
O O11 0.472322 0.750000 0.920784
O O12 0.517855 0.480296 0.862170
O O13 0.500000 0.500000 0.000000
O O14 0.824744 0.750000 0.768235
O O15 0.927753 0.547176 0.732362
O O16 0.515644 0.750000 0.225649
O O17 0.445384 0.506295 0.277420
O O18 0.444065 0.750000 0.364938
#
# Coordination Sequence:
#
# PCOD9462614 Si02
#       7
#     8   8   8   8   8   8   8
#     4   8  17  33  50  70  96 126 161 201 246 292
#     4  10  19  32  50  70  97 133 165 196 242 299
#     4   9  18  31  48  71  97 127 164 201 237 285
#     4  10  19  33  54  77 100 127 163 207 251 292
#     4   9  16  29  50  70  90 120 158 200 243 286
#     4   9  17  31  50  72  98 124 156 198 240 287
#     4   9  18  31  46  70 101 127 158 203 244 279
#
# _framework density 19.174796000000001
#
# number of rings (size 3 to 8) (size 9 to 14) (size 15 to 20)
#    0.000    2.857    0.000    3.429    0.000    3.429 
#    0.000    5.714    0.000    5.143    0.000    0.000 
#    0.000    0.000    0.000    0.000    0.000    0.000 
#
# Total GULP energy -311936.048535 kJ/mol
# GULP energy per Si atom -5570.286581 kJ/mol
# Density = 1.913115 g / cm^3
# Si number density = 19.174796 Si / 1000 Ang^3
#
#
#
# Elastic Constant Matrix: (Units=GPa)
#
#
# Indices 1 2 3 4 5 6 
#
# 1 59.8665 -0.5654 54.2456 0.0000 0.0000 0.0000
# 2 -0.5654 15.8715 -7.3810 0.0000 0.0000 0.0000
# 3 54.2456 -7.3810 156.2157 0.0000 0.0000 0.0000
# 4 0.0000 0.0000 0.0000 25.9312 0.0000 0.0000
# 5 0.0000 0.0000 0.0000 0.0000 18.0924 0.0000
# 6 0.0000 0.0000 0.0000 0.0000 0.0000 8.2637
#
#
#
# Elastic Compliance Matrix: (Units=1/GPa)
#
#
# Indices 1 2 3 4 5 6 
#
# 1 0.024526 -0.003156 -0.008666 0.000000 0.000000 0.000000
# 2 -0.003156 0.064828 0.004159 0.000000 0.000000 0.000000
# 3 -0.008666 0.004159 0.009607 0.000000 0.000000 0.000000
# 4 0.000000 0.000000 0.000000 0.038564 0.000000 0.000000
# 5 0.000000 0.000000 0.000000 0.000000 0.055272 0.000000
# 6 0.000000 0.000000 0.000000 0.000000 0.000000 0.121012
#
#
# Mechanical properties :
#
#
# Convention : Reuss Voigt Hill
#
# Bulk Modulus (GPa) = 11.95672 36.06135 24.00904
# Shear Modulus (GPa) = 14.00510 22.83441 18.41975
#
# Velocity S-wave (km/s) = 2.70551 3.45462 3.10275
# Velocity P-wave (km/s) = 4.00111 5.89576 5.03830
#
# Compressibility (1/GPa) = 0.08363501
#
# Stress axis : x y z
#
# Youngs Moduli (GPa) = 40.77270 15.42547 104.08965
#
# Poissons Ratio (x) = 0.04869 0.90202
# Poissons Ratio (y) = 0.12869 -0.43291
# Poissons Ratio (z) = 0.35333 -0.06416
#
# Static dielectric constant tensor:
#      x y z
#    x 1.652350 0.000000 0.000000 
#    y 0.000000 1.796730 0.000000 
#    z 0.000000 0.000000 1.710470 
# 
# From -- ./inp_files/24623.got.cif
#   From: 2010.05.17/outbox.cif.g08.bks.cpg/sg62_13_cif.got.tgz:24623.got - 2010.06.03 15:25:27.
