data_PCOD9462684
_publ_section_title
;
Structure prediction by ZEFSAII (Michael W. Deem and Ramdas Pophale) SiO2 
 PCOD9462684
Probable space group: P N M A
;
_chemical_formula_sum "Si O2"
_cell_formula_units_Z 64
_cell_length_a 25.313404
_cell_length_b 7.375530
_cell_length_c 15.028066
_cell_angle_alpha 90.000000
_cell_angle_beta 90.000000
_cell_angle_gamma 90.000000
_cell_volume 2805.736475
_symmetry_space_group_name_H-M "P N M A"
_symmetry_group_IT_number 62
_symmetry_cell_setting 'orthorhombic'
loop_
_space_group_symop_operation_xyz
x,y,z
1/2-x,-y,1/2+z
1/2+x,1/2-y,1/2-z
-x,1/2+y,-z
-x,-y,-z
1/2+x,y,1/2-z
1/2-x,1/2+y,1/2+z
x,1/2-y,z
loop_
_atom_site_type_symbol
_atom_site_label
_atom_site_fract_x
_atom_site_fract_y
_atom_site_fract_z
Si Si1 0.551704 0.537946 0.221847
Si Si2 0.822460 0.471805 0.045211
Si Si3 0.784432 0.968969 0.767193
Si Si4 0.588280 0.540825 0.033711
Si Si5 0.205613 0.467819 0.441604
Si Si6 0.115555 0.954860 0.116977
Si Si7 0.168135 0.529499 0.749221
Si Si8 0.561767 0.969783 0.845276
O O1 0.567604 0.750000 0.224595
O O2 0.574538 0.459565 0.313465
O O3 0.489247 0.524510 0.210241
O O4 0.576056 0.458777 0.130408
O O5 0.822354 0.250000 0.042169
O O6 0.866487 0.537843 0.976516
O O7 0.762416 0.528999 0.021316
O O8 0.832937 0.523510 0.147028
O O9 0.787614 0.750000 0.773628
O O10 0.794215 0.016123 0.663541
O O11 0.724786 0.027034 0.789710
O O12 0.829611 0.049241 0.828093
O O13 0.571597 0.750000 0.039990
O O14 0.559553 0.463481 0.947201
O O15 0.651261 0.536458 0.017107
O O16 0.204176 0.250000 0.447041
O O17 0.097123 0.750000 0.097043
O O18 0.168356 0.750000 0.747863
O O19 0.116456 0.467875 0.697998
O O20 0.562739 0.750000 0.847596
#
# Coordination Sequence:
#
# PCOD9462684 Si02
#       8
#     8   8   8   8   8   8   8   8
#     4  10  21  36  50  70 104 136 166 210 257 301
#     4   8  16  31  51  74 103 135 166 200 246 306
#     4   9  17  30  50  75 103 133 163 202 250 297
#     4  10  20  33  49  74 105 134 165 205 255 302
#     4   9  17  30  49  75 104 134 166 199 239 298
#     4  10  19  32  52  76 102 134 168 202 249 304
#     4   8  16  33  52  73 101 131 168 211 251 293
#     4  10  21  35  54  74  95 133 179 216 250 294
#
# _framework density 22.810410999999998
#
# number of rings (size 3 to 8) (size 9 to 14) (size 15 to 20)
#    0.000    2.750    1.250    1.875    1.750    1.500 
#    0.000    1.250    0.000    2.250    0.000    0.000 
#    0.000    0.000    0.000    0.000    0.000    0.000 
#
# Total GULP energy -357450.010470 kJ/mol
# GULP energy per Si atom -5585.156414 kJ/mol
# Density = 2.275849 g / cm^3
# Si number density = 22.810411 Si / 1000 Ang^3
#
#
#
# Elastic Constant Matrix: (Units=GPa)
#
#
# Indices 1 2 3 4 5 6 
#
# 1 87.3356 -8.0974 4.7746 0.0000 0.0000 0.0000
# 2 -8.0974 82.2719 0.1150 0.0000 0.0000 0.0000
# 3 4.7746 0.1150 29.2031 0.0000 0.0000 0.0000
# 4 0.0000 0.0000 0.0000 -4.4694 0.0000 0.0000
# 5 0.0000 0.0000 0.0000 0.0000 40.5409 0.0000
# 6 0.0000 0.0000 0.0000 0.0000 0.0000 18.4715
#
#
#
# Elastic Compliance Matrix: (Units=1/GPa)
#
#
# Indices 1 2 3 4 5 6 
#
# 1 0.011661 0.001150 -0.001911 0.000000 0.000000 0.000000
# 2 0.001150 0.012268 -0.000236 0.000000 0.000000 0.000000
# 3 -0.001911 -0.000236 0.034556 0.000000 0.000000 0.000000
# 4 0.000000 0.000000 0.000000 -0.223746 0.000000 0.000000
# 5 0.000000 0.000000 0.000000 0.000000 0.024666 0.000000
# 6 0.000000 0.000000 0.000000 0.000000 0.000000 0.054137
#
#
# Mechanical properties :
#
#
# Convention : Reuss Voigt Hill
#
# Bulk Modulus (GPa) = 17.70171 21.37722 19.53947
# Shear Modulus (GPa) = -76.18321 24.37650 -25.90336
#
# Velocity S-wave (km/s) = -5.78541 3.27258 -3.37351
# Velocity P-wave (km/s) = 6.07048 4.86536 2.56700
#
# Compressibility (1/GPa) = 0.05649172
#
# Stress axis : x y z
#
# Youngs Moduli (GPa) = 85.75433 81.51035 28.93827
#
# Poissons Ratio (x) = -0.09377 0.05530
# Poissons Ratio (y) = -0.09865 0.00684
# Poissons Ratio (z) = 0.16389 0.01927
#
# Static dielectric constant tensor:
#      x y z
#    x 1.820760 0.000000 0.000000 
#    y 0.000000 1.852480 0.000000 
#    z 0.000000 0.000000 1.861420 
# 
# From -- ./inp_files/20964.got.cif
#   From: 2010.05.17/outbox.cif.g08.bks.cpg/sg62_11_cif.got.tgz:20964.got - 2010.06.03 15:25:27.
