data_PCOD9462885
_publ_section_title
;
Structure prediction by ZEFSAII (Michael W. Deem and Ramdas Pophale) SiO2 
 PCOD9462885
Probable space group: P N M A
;
_chemical_formula_sum "Si O2"
_cell_formula_units_Z 48
_cell_length_a 8.930975
_cell_length_b 16.621254
_cell_length_c 18.649572
_cell_angle_alpha 90.000000
_cell_angle_beta 90.000000
_cell_angle_gamma 90.000000
_cell_volume 2768.417139
_symmetry_space_group_name_H-M "P N M A"
_symmetry_group_IT_number 62
_symmetry_cell_setting 'orthorhombic'
loop_
_space_group_symop_operation_xyz
x,y,z
1/2-x,-y,1/2+z
1/2+x,1/2-y,1/2-z
-x,1/2+y,-z
-x,-y,-z
1/2+x,y,1/2-z
1/2-x,1/2+y,1/2+z
x,1/2-y,z
loop_
_atom_site_type_symbol
_atom_site_label
_atom_site_fract_x
_atom_site_fract_y
_atom_site_fract_z
Si Si1 0.075738 0.495353 0.577213
Si Si2 0.580916 0.583287 0.292776
Si Si3 0.386231 0.925608 0.797427
Si Si4 0.930801 0.345418 0.170239
Si Si5 0.113685 0.157865 0.669216
Si Si6 0.431831 0.523410 0.576001
O O1 0.066039 0.404566 0.607768
O O2 0.251287 0.518432 0.574646
O O3 0.000000 0.500000 0.500000
O O4 0.988990 0.550240 0.635146
O O5 0.647515 0.508502 0.246140
O O6 0.711217 0.642336 0.317718
O O7 0.466982 0.629294 0.241981
O O8 0.514600 0.540093 0.362984
O O9 0.234671 0.882564 0.821155
O O10 0.477378 0.870505 0.741584
O O11 0.926207 0.250000 0.161941
O O12 0.011629 0.390633 0.104355
O O13 0.080549 0.250000 0.652997
O O14 0.500000 0.500000 0.500000
#
# Coordination Sequence:
#
# PCOD9462885 Si02
#       6
#     8   8   8   8   8   8
#     4  10  21  37  56  77 107 148 184 215 265 332
#     4   9  18  33  54  76 103 139 172 206 260 321
#     4  10  19  35  56  78 108 144 180 217 270 333
#     4  11  21  35  56  84 109 137 180 233 276 317
#     4  10  19  33  53  80 105 130 170 221 261 303
#     4  10  20  37  57  77 107 146 182 218 267 332
#
# _framework density 17.338426999999999
#
# number of rings (size 3 to 8) (size 9 to 14) (size 15 to 20)
#    0.000    2.000    0.000    7.000    0.000    1.333 
#    0.000   10.833    0.000    0.000    0.000    0.000 
#    0.000    0.000    0.000    0.000    0.000    0.000 
#
# Total GULP energy -267925.163341 kJ/mol
# GULP energy per Si atom -5581.774236 kJ/mol
# Density = 1.729896 g / cm^3
# Si number density = 17.338427 Si / 1000 Ang^3
#
#
#
# Elastic Constant Matrix: (Units=GPa)
#
#
# Indices 1 2 3 4 5 6 
#
# 1 87.2922 59.4280 51.1620 0.0000 0.0000 0.0000
# 2 59.4280 140.5019 60.6465 0.0000 0.0000 0.0000
# 3 51.1620 60.6465 140.9194 0.0000 0.0000 0.0000
# 4 0.0000 0.0000 0.0000 8.4883 0.0000 0.0000
# 5 0.0000 0.0000 0.0000 0.0000 29.4813 0.0000
# 6 0.0000 0.0000 0.0000 0.0000 0.0000 20.6494
#
#
#
# Elastic Compliance Matrix: (Units=1/GPa)
#
#
# Indices 1 2 3 4 5 6 
#
# 1 0.017704 -0.005789 -0.003936 0.000000 0.000000 0.000000
# 2 -0.005789 0.010634 -0.002475 0.000000 0.000000 0.000000
# 3 -0.003936 -0.002475 0.009590 0.000000 0.000000 0.000000
# 4 0.000000 0.000000 0.000000 0.117810 0.000000 0.000000
# 5 0.000000 0.000000 0.000000 0.000000 0.033920 0.000000
# 6 0.000000 0.000000 0.000000 0.000000 0.000000 0.048428
#
#
# Mechanical properties :
#
#
# Convention : Reuss Voigt Hill
#
# Bulk Modulus (GPa) = 73.91881 79.02071 76.46976
# Shear Modulus (GPa) = 18.72690 24.88892 21.80791
#
# Velocity S-wave (km/s) = 3.29002 3.79288 3.55037
# Velocity P-wave (km/s) = 7.56028 8.05330 7.81068
#
# Compressibility (1/GPa) = 0.01352836
#
# Stress axis : x y z
#
# Youngs Moduli (GPa) = 56.48425 94.03606 104.27169
#
# Poissons Ratio (x) = 0.54440 0.41043
# Poissons Ratio (y) = 0.32700 0.25804
# Poissons Ratio (z) = 0.22233 0.23271
#
# Static dielectric constant tensor:
#      x y z
#    x 1.590410 0.000000 0.000000 
#    y 0.000000 1.575060 0.000000 
#    z 0.000000 0.000000 1.571730 
# 
# From -- ./inp_files/22182.got.cif
#   From: 2010.05.17/outbox.cif.g08.bks.cpg/sg62_12_cif.got.tgz:22182.got - 2010.06.03 15:25:27.
