data_PCOD9462165
_publ_section_title
;
Structure prediction by ZEFSAII (Michael W. Deem and Ramdas Pophale) SiO2 
 PCOD9462165
Probable space group: P N M A
;
_chemical_formula_sum "Si O2"
_cell_formula_units_Z 44
_cell_length_a 17.939283
_cell_length_b 14.236360
_cell_length_c 7.308510
_cell_angle_alpha 90.000000
_cell_angle_beta 90.000000
_cell_angle_gamma 90.000000
_cell_volume 1866.521033
_symmetry_space_group_name_H-M "P N M A"
_symmetry_group_IT_number 62
_symmetry_cell_setting 'orthorhombic'
loop_
_space_group_symop_operation_xyz
x,y,z
1/2-x,-y,1/2+z
1/2+x,1/2-y,1/2-z
-x,1/2+y,-z
-x,-y,-z
1/2+x,y,1/2-z
1/2-x,1/2+y,1/2+z
x,1/2-y,z
loop_
_atom_site_type_symbol
_atom_site_label
_atom_site_fract_x
_atom_site_fract_y
_atom_site_fract_z
Si Si1 0.329693 0.898015 0.734553
Si Si2 0.410715 0.250000 0.559815
Si Si3 0.047858 0.250000 0.211494
Si Si4 0.689305 0.603645 0.282727
Si Si5 0.037501 0.250000 0.652273
Si Si6 0.141942 0.426902 0.666622
Si Si7 0.661565 0.642327 0.862944
O O1 0.398425 0.837271 0.668431
O O2 0.247989 0.857829 0.699591
O O3 0.328216 0.999899 0.649790
O O4 0.342918 0.915548 0.949340
O O5 0.475693 0.250000 0.412097
O O6 0.352201 0.165642 0.568183
O O7 0.459402 0.250000 0.745846
O O8 0.032652 0.250000 0.430434
O O9 0.778333 0.606655 0.255604
O O10 0.658647 0.629661 0.083038
O O11 0.080691 0.346730 0.707701
O O12 0.128420 0.539185 0.702372
O O13 0.635325 0.750000 0.824460
#
# Coordination Sequence:
#
# PCOD9462165 Si02
#       7
#     8   4   4   8   4   8   8
#     4   9  19  37  63  90 119 158 205 264 315 375
#     4  12  25  40  63  90 129 181 206 262 317 376
#     4  10  22  41  60  85 126 169 211 249 313 385
#     4  10  21  38  59  92 124 153 214 264 312 373
#     4  10  23  43  63  89 129 172 219 253 320 389
#     4   9  20  38  63  90 121 163 205 272 319 366
#     4  10  18  34  63  94 119 149 207 269 318 374
#
# _framework density 23.573267999999999
#
# number of rings (size 3 to 8) (size 9 to 14) (size 15 to 20)
#    0.000    2.182    1.818    0.545    2.545    0.727 
#    3.273    8.182    0.000    0.000    0.000    0.000 
#    0.000    0.000    0.000    0.000    0.000    0.000 
#
# Total GULP energy -245604.632748 kJ/mol
# GULP energy per Si atom -5581.923472 kJ/mol
# Density = 2.351961 g / cm^3
# Si number density = 23.573268 Si / 1000 Ang^3
#
#
#
# Elastic Constant Matrix: (Units=GPa)
#
#
# Indices 1 2 3 4 5 6 
#
# 1 88.6316 72.1915 27.2557 0.0000 0.0000 0.0000
# 2 72.1915 168.7966 4.9680 0.0000 0.0000 0.0000
# 3 27.2557 4.9680 45.9055 0.0000 0.0000 0.0000
# 4 0.0000 0.0000 0.0000 7.6828 0.0000 0.0000
# 5 0.0000 0.0000 0.0000 0.0000 43.0394 0.0000
# 6 0.0000 0.0000 0.0000 0.0000 0.0000 188.1430
#
#
#
# Elastic Compliance Matrix: (Units=1/GPa)
#
#
# Indices 1 2 3 4 5 6 
#
# 1 0.022751 -0.009362 -0.012495 0.000000 0.000000 0.000000
# 2 -0.009362 0.009796 0.004499 0.000000 0.000000 0.000000
# 3 -0.012495 0.004499 0.028716 0.000000 0.000000 0.000000
# 4 0.000000 0.000000 0.000000 0.130161 0.000000 0.000000
# 5 0.000000 0.000000 0.000000 0.000000 0.023235 0.000000
# 6 0.000000 0.000000 0.000000 0.000000 0.000000 0.005315
#
#
# Mechanical properties :
#
#
# Convention : Reuss Voigt Hill
#
# Bulk Modulus (GPa) = 37.67126 56.90713 47.28920
# Shear Modulus (GPa) = 18.97254 61.03427 40.00341
#
# Velocity S-wave (km/s) = 2.84004 5.09387 4.12391
# Velocity P-wave (km/s) = 5.17393 7.66744 6.54061
#
# Compressibility (1/GPa) = 0.02654543
#
# Stress axis : x y z
#
# Youngs Moduli (GPa) = 43.95452 102.08220 34.82427
#
# Poissons Ratio (x) = 0.95573 0.43512
# Poissons Ratio (y) = 0.41152 -0.15666
# Poissons Ratio (z) = 0.54920 -0.45923
#
# Static dielectric constant tensor:
#      x y z
#    x 1.822230 0.000000 0.000000 
#    y 0.000000 1.952320 0.000000 
#    z 0.000000 0.000000 1.950830 
# 
# From -- ./inp_files/7582.got.cif
#   From: 2010.05.17/outbox.cif.g08.bks.cpg/sg62_4_cif.got.tgz:7582.got - 2010.06.03 15:25:27.
