data_PCOD9462453
_publ_section_title
;
Structure prediction by ZEFSAII (Michael W. Deem and Ramdas Pophale) SiO2 
 PCOD9462453
Probable space group: P N M A
;
_chemical_formula_sum "Si O2"
_cell_formula_units_Z 48
_cell_length_a 24.736764
_cell_length_b 8.539049
_cell_length_c 14.091337
_cell_angle_alpha 90.000000
_cell_angle_beta 90.000000
_cell_angle_gamma 90.000000
_cell_volume 2976.491131
_symmetry_space_group_name_H-M "P N M A"
_symmetry_group_IT_number 62
_symmetry_cell_setting 'orthorhombic'
loop_
_space_group_symop_operation_xyz
x,y,z
1/2-x,-y,1/2+z
1/2+x,1/2-y,1/2-z
-x,1/2+y,-z
-x,-y,-z
1/2+x,y,1/2-z
1/2-x,1/2+y,1/2+z
x,1/2-y,z
loop_
_atom_site_type_symbol
_atom_site_label
_atom_site_fract_x
_atom_site_fract_y
_atom_site_fract_z
Si Si1 0.775393 0.562215 0.108201
Si Si2 0.773411 0.437964 0.899070
Si Si3 0.442071 0.060919 0.888783
Si Si4 0.558834 0.938809 0.891002
Si Si5 0.331210 0.438191 0.207675
Si Si6 0.834141 0.440415 0.712574
O O1 0.777069 0.750000 0.108943
O O2 0.816100 0.498640 0.187892
O O3 0.715184 0.513299 0.143228
O O4 0.785756 0.500538 0.003197
O O5 0.771903 0.250000 0.900141
O O6 0.715512 0.499607 0.862408
O O7 0.816476 0.488365 0.818322
O O8 0.442451 0.250000 0.886927
O O9 0.391807 0.004539 0.825691
O O10 0.500831 0.001388 0.858106
O O11 0.433865 0.012307 0.998794
O O12 0.557336 0.750000 0.889615
O O13 0.610137 0.990092 0.829411
O O14 0.329534 0.250000 0.206680
O O15 0.835421 0.250000 0.711737
#
# Coordination Sequence:
#
# PCOD9462453 Si02
#       6
#     8   8   8   8   8   8
#     4  10  19  32  49  70  97 125 156 193 235 281
#     4  10  19  31  48  71  97 124 157 193 233 280
#     4   9  16  29  48  67  90 122 155 185 226 279
#     4   9  18  30  45  68  96 123 151 189 235 276
#     4  10  19  32  49  69  96 127 157 191 234 279
#     4   8  16  30  47  67  92 122 152 187 231 277
#
# _framework density 16.126370000000001
#
# number of rings (size 3 to 8) (size 9 to 14) (size 15 to 20)
#    0.000    2.667    0.000    3.500    0.000    4.000 
#    0.000    8.333    0.000    1.000    0.000    0.000 
#    0.000    0.000    0.000    0.000    0.000    0.000 
#
# Total GULP energy -267603.679302 kJ/mol
# GULP energy per Si atom -5575.076652 kJ/mol
# Density = 1.608967 g / cm^3
# Si number density = 16.126370 Si / 1000 Ang^3
#
#
#
# Elastic Constant Matrix: (Units=GPa)
#
#
# Indices 1 2 3 4 5 6 
#
# 1 164.2040 27.9254 88.0372 0.0000 0.0000 0.0000
# 2 27.9254 31.6282 26.9284 0.0000 0.0000 0.0000
# 3 88.0372 26.9284 121.4381 0.0000 0.0000 0.0000
# 4 0.0000 0.0000 0.0000 25.3543 0.0000 0.0000
# 5 0.0000 0.0000 0.0000 0.0000 22.4528 0.0000
# 6 0.0000 0.0000 0.0000 0.0000 0.0000 23.8201
#
#
#
# Elastic Compliance Matrix: (Units=1/GPa)
#
#
# Indices 1 2 3 4 5 6 
#
# 1 0.010243 -0.003355 -0.006682 0.000000 0.000000 0.000000
# 2 -0.003355 0.040075 -0.006454 0.000000 0.000000 0.000000
# 3 -0.006682 -0.006454 0.014510 0.000000 0.000000 0.000000
# 4 0.000000 0.000000 0.000000 0.039441 0.000000 0.000000
# 5 0.000000 0.000000 0.000000 0.000000 0.044538 0.000000
# 6 0.000000 0.000000 0.000000 0.000000 0.000000 0.041981
#
#
# Mechanical properties :
#
#
# Convention : Reuss Voigt Hill
#
# Bulk Modulus (GPa) = 31.40142 67.00581 49.20361
# Shear Modulus (GPa) = 21.33247 25.95074 23.64160
#
# Velocity S-wave (km/s) = 3.64102 4.01585 3.83302
# Velocity P-wave (km/s) = 6.09839 7.94628 7.08286
#
# Compressibility (1/GPa) = 0.03184569
#
# Stress axis : x y z
#
# Youngs Moduli (GPa) = 97.62850 24.95340 68.91901
#
# Poissons Ratio (x) = 0.08372 0.46050
# Poissons Ratio (y) = 0.32754 0.44482
# Poissons Ratio (z) = 0.65233 0.16105
#
# Static dielectric constant tensor:
#      x y z
#    x 1.531300 0.000000 0.000000 
#    y 0.000000 1.550510 0.000000 
#    z 0.000000 0.000000 1.529790 
# 
# From -- ./inp_files/15116.got.cif
#   From: 2010.05.17/outbox.cif.g08.bks.cpg/sg62_8_cif.got.tgz:15116.got - 2010.06.03 15:25:27.
