data_PCOD9462484
_publ_section_title
;
Structure prediction by ZEFSAII (Michael W. Deem and Ramdas Pophale) SiO2 
 PCOD9462484
Probable space group: P N M A
;
_chemical_formula_sum "Si O2"
_cell_formula_units_Z 64
_cell_length_a 28.542608
_cell_length_b 9.187978
_cell_length_c 14.614011
_cell_angle_alpha 90.000000
_cell_angle_beta 90.000000
_cell_angle_gamma 90.000000
_cell_volume 3832.507642
_symmetry_space_group_name_H-M "P N M A"
_symmetry_group_IT_number 62
_symmetry_cell_setting 'orthorhombic'
loop_
_space_group_symop_operation_xyz
x,y,z
1/2-x,-y,1/2+z
1/2+x,1/2-y,1/2-z
-x,1/2+y,-z
-x,-y,-z
1/2+x,y,1/2-z
1/2-x,1/2+y,1/2+z
x,1/2-y,z
loop_
_atom_site_type_symbol
_atom_site_label
_atom_site_fract_x
_atom_site_fract_y
_atom_site_fract_z
Si Si1 0.051324 0.075769 0.100106
Si Si2 0.364550 0.924540 0.730346
Si Si3 0.323466 0.922517 0.096416
Si Si4 0.238048 0.416904 0.835782
Si Si5 0.556642 0.923149 0.593146
Si Si6 0.136473 0.079813 0.799094
Si Si7 0.734046 0.079524 0.341308
Si Si8 0.163229 0.581801 0.417766
O O1 0.055142 0.250000 0.085787
O O2 0.087212 0.036694 0.180487
O O3 0.997036 0.042143 0.121294
O O4 0.063974 0.996163 0.005857
O O5 0.363008 0.750000 0.746708
O O6 0.321077 0.956744 0.661296
O O7 0.356433 0.006796 0.825925
O O8 0.322988 0.750000 0.083893
O O9 0.347652 0.954097 0.194774
O O10 0.270357 0.983041 0.102290
O O11 0.348396 0.998982 0.011027
O O12 0.239829 0.250000 0.795265
O O13 0.183842 0.438144 0.860176
O O14 0.250837 0.539760 0.762374
O O15 0.279925 0.421147 0.907440
O O16 0.560768 0.750000 0.585488
O O17 0.594484 0.984671 0.663420
O O18 0.123462 0.250000 0.802610
O O19 0.740275 0.250000 0.361998
O O20 0.148944 0.750000 0.421166
#
# Coordination Sequence:
#
# PCOD9462484 Si02
#       8
#     8   8   8   8   8   8   8   8
#     4   9  19  36  54  72  98 129 157 191 243 302
#     4   9  18  33  52  72  97 131 165 196 240 297
#     4  10  20  33  48  68  99 138 171 198 237 289
#     4   8  16  30  45  64  93 128 160 190 234 285
#     4  10  20  33  52  77  99 121 156 203 247 287
#     4   9  18  33  51  69  95 132 166 197 239 292
#     4   9  16  27  45  68  92 121 160 201 234 269
#     4  10  19  31  49  73 101 131 165 206 242 278
#
# _framework density 16.699249999999999
#
# number of rings (size 3 to 8) (size 9 to 14) (size 15 to 20)
#    0.000    2.750    0.000    2.250    0.000    5.500 
#    0.000    5.000    0.000    0.750    0.000    0.000 
#    0.000    0.000    0.000    0.000    0.000    0.000 
#
# Total GULP energy -356410.504485 kJ/mol
# GULP energy per Si atom -5568.914133 kJ/mol
# Density = 1.666124 g / cm^3
# Si number density = 16.699250 Si / 1000 Ang^3
#
#
#
# Elastic Constant Matrix: (Units=GPa)
#
#
# Indices 1 2 3 4 5 6 
#
# 1 87.2372 46.5279 47.6375 0.0000 0.0000 0.0000
# 2 46.5279 56.8600 44.0395 0.0000 0.0000 0.0000
# 3 47.6375 44.0395 66.8375 0.0000 0.0000 0.0000
# 4 0.0000 0.0000 0.0000 26.1544 0.0000 0.0000
# 5 0.0000 0.0000 0.0000 0.0000 19.1813 0.0000
# 6 0.0000 0.0000 0.0000 0.0000 0.0000 23.8159
#
#
#
# Elastic Compliance Matrix: (Units=1/GPa)
#
#
# Indices 1 2 3 4 5 6 
#
# 1 0.022197 -0.012069 -0.007868 0.000000 0.000000 0.000000
# 2 -0.012069 0.042480 -0.019388 0.000000 0.000000 0.000000
# 3 -0.007868 -0.019388 0.033344 0.000000 0.000000 0.000000
# 4 0.000000 0.000000 0.000000 0.038234 0.000000 0.000000
# 5 0.000000 0.000000 0.000000 0.000000 0.052134 0.000000
# 6 0.000000 0.000000 0.000000 0.000000 0.000000 0.041989
#
#
# Mechanical properties :
#
#
# Convention : Reuss Voigt Hill
#
# Bulk Modulus (GPa) = 51.62508 54.14938 52.88723
# Shear Modulus (GPa) = 15.84868 18.67897 17.26383
#
# Velocity S-wave (km/s) = 3.08403 3.34810 3.21878
# Velocity P-wave (km/s) = 6.60783 6.88789 6.74931
#
# Compressibility (1/GPa) = 0.01937043
#
# Stress axis : x y z
#
# Youngs Moduli (GPa) = 45.05209 23.54073 29.99057
#
# Poissons Ratio (x) = 0.28412 0.23596
# Poissons Ratio (y) = 0.54376 0.58145
# Poissons Ratio (z) = 0.35445 0.45640
#
# Static dielectric constant tensor:
#      x y z
#    x 1.572830 0.000000 0.000000 
#    y 0.000000 1.559980 0.000000 
#    z 0.000000 0.000000 1.565410 
# 
# From -- ./inp_files/21266.got.cif
#   From: 2010.05.17/outbox.cif.g08.bks.cpg/sg62_11_cif.got.tgz:21266.got - 2010.06.03 15:25:27.
