data_PCOD9462722
_publ_section_title
;
Structure prediction by ZEFSAII (Michael W. Deem and Ramdas Pophale) SiO2 
 PCOD9462722
Probable space group: P N M A
;
_chemical_formula_sum "Si O2"
_cell_formula_units_Z 64
_cell_length_a 17.887632
_cell_length_b 9.062471
_cell_length_c 20.998094
_cell_angle_alpha 90.000000
_cell_angle_beta 90.000000
_cell_angle_gamma 90.000000
_cell_volume 3403.920097
_symmetry_space_group_name_H-M "P N M A"
_symmetry_group_IT_number 62
_symmetry_cell_setting 'orthorhombic'
loop_
_space_group_symop_operation_xyz
x,y,z
1/2-x,-y,1/2+z
1/2+x,1/2-y,1/2-z
-x,1/2+y,-z
-x,-y,-z
1/2+x,y,1/2-z
1/2-x,1/2+y,1/2+z
x,1/2-y,z
loop_
_atom_site_type_symbol
_atom_site_label
_atom_site_fract_x
_atom_site_fract_y
_atom_site_fract_z
Si Si1 0.378887 0.080049 0.993879
Si Si2 0.920399 0.924713 0.240430
Si Si3 0.292507 0.425822 0.632267
Si Si4 0.701711 0.427612 0.635398
Si Si5 0.302916 0.918788 0.505520
Si Si6 0.913390 0.424702 0.761589
Si Si7 0.870213 0.427396 0.366502
Si Si8 0.635633 0.425286 0.134629
O O1 0.402011 0.250000 0.984369
O O2 0.287798 0.078859 0.998757
O O3 0.402700 0.027236 0.064173
O O4 0.397340 0.985280 0.932034
O O5 0.911085 0.750000 0.254035
O O6 0.855611 0.967095 0.191065
O O7 0.003025 0.945427 0.212160
O O8 0.913985 0.012691 0.306014
O O9 0.281078 0.250000 0.634073
O O10 0.323038 0.475202 0.563328
O O11 0.349932 0.467444 0.687965
O O12 0.213319 0.506952 0.640191
O O13 0.715856 0.250000 0.637959
O O14 0.669076 0.458222 0.564942
O O15 0.779916 0.511650 0.641053
O O16 0.323851 0.750000 0.520751
O O17 0.903567 0.250000 0.748028
O O18 0.905899 0.512351 0.696151
O O19 0.866633 0.250000 0.367029
O O20 0.636084 0.250000 0.133858
#
# Coordination Sequence:
#
# PCOD9462722 Si02
#       8
#     8   8   8   8   8   8   8   8
#     4   8  16  32  52  74 103 135 163 200 253 306
#     4  10  21  37  55  73  98 137 179 212 246 297
#     4  10  19  32  53  78 103 134 172 209 246 298
#     4   9  18  34  55  77 102 134 170 207 253 305
#     4   8  15  29  50  76 104 131 162 207 257 298
#     4  10  22  38  52  70 102 141 175 208 250 300
#     4  10  20  34  54  80 106 131 164 209 259 304
#     4  11  21  32  53  82 105 129 167 212 253 298
#
# _framework density 18.801850999999999
#
# number of rings (size 3 to 8) (size 9 to 14) (size 15 to 20)
#    0.000    2.500    0.000    4.125    0.000   10.000 
#    0.000    1.250    0.000    0.000    0.000    0.000 
#    0.000    0.000    0.000    0.000    0.000    0.000 
#
# Total GULP energy -357061.292001 kJ/mol
# GULP energy per Si atom -5579.082688 kJ/mol
# Density = 1.875906 g / cm^3
# Si number density = 18.801851 Si / 1000 Ang^3
#
#
#
# Elastic Constant Matrix: (Units=GPa)
#
#
# Indices 1 2 3 4 5 6 
#
# 1 43.4991 17.8167 21.0402 0.0000 0.0000 0.0000
# 2 17.8167 36.7230 26.8299 0.0000 0.0000 0.0000
# 3 21.0402 26.8299 91.4476 0.0000 0.0000 0.0000
# 4 0.0000 0.0000 0.0000 33.9634 0.0000 0.0000
# 5 0.0000 0.0000 0.0000 0.0000 -15.1496 0.0000
# 6 0.0000 0.0000 0.0000 0.0000 0.0000 11.0149
#
#
#
# Elastic Compliance Matrix: (Units=1/GPa)
#
#
# Indices 1 2 3 4 5 6 
#
# 1 0.029447 -0.011884 -0.003288 0.000000 0.000000 0.000000
# 2 -0.011884 0.039457 -0.008842 0.000000 0.000000 0.000000
# 3 -0.003288 -0.008842 0.014286 0.000000 0.000000 0.000000
# 4 0.000000 0.000000 0.000000 0.029443 0.000000 0.000000
# 5 0.000000 0.000000 0.000000 0.000000 -0.066008 0.000000
# 6 0.000000 0.000000 0.000000 0.000000 0.000000 0.090786
#
#
# Mechanical properties :
#
#
# Convention : Reuss Voigt Hill
#
# Bulk Modulus (GPa) = 28.44090 33.67148 31.05619
# Shear Modulus (GPa) = 25.36000 13.03126 19.19563
#
# Velocity S-wave (km/s) = 3.67659 2.63550 3.19869
# Velocity P-wave (km/s) = 5.76043 5.21619 5.49505
#
# Compressibility (1/GPa) = 0.03516063
#
# Stress axis : x y z
#
# Youngs Moduli (GPa) = 33.95902 25.34428 69.99880
#
# Poissons Ratio (x) = 0.30120 0.23019
# Poissons Ratio (y) = 0.40358 0.61892
# Poissons Ratio (z) = 0.11167 0.22409
#
# Static dielectric constant tensor:
#      x y z
#    x 1.638460 0.000000 0.000000 
#    y 0.000000 1.627640 0.000000 
#    z 0.000000 0.000000 1.672720 
# 
# From -- ./inp_files/27908.got.cif
#   From: 2010.05.17/outbox.cif.g08.bks.cpg/sg62_14_cif.got.tgz:27908.got - 2010.06.03 15:25:27.
