data_PCOD9462533
_publ_section_title
;
Structure prediction by ZEFSAII (Michael W. Deem and Ramdas Pophale) SiO2 
 PCOD9462533
Probable space group: P N M A
;
_chemical_formula_sum "Si O2"
_cell_formula_units_Z 56
_cell_length_a 14.174073
_cell_length_b 7.625035
_cell_length_c 21.979628
_cell_angle_alpha 90.000000
_cell_angle_beta 90.000000
_cell_angle_gamma 90.000000
_cell_volume 2375.509899
_symmetry_space_group_name_H-M "P N M A"
_symmetry_group_IT_number 62
_symmetry_cell_setting 'orthorhombic'
loop_
_space_group_symop_operation_xyz
x,y,z
1/2-x,-y,1/2+z
1/2+x,1/2-y,1/2-z
-x,1/2+y,-z
-x,-y,-z
1/2+x,y,1/2-z
1/2-x,1/2+y,1/2+z
x,1/2-y,z
loop_
_atom_site_type_symbol
_atom_site_label
_atom_site_fract_x
_atom_site_fract_y
_atom_site_fract_z
Si Si1 0.353414 0.456074 0.352833
Si Si2 0.725448 0.050561 0.388244
Si Si3 0.502183 0.959221 0.259624
Si Si4 0.785439 0.545981 0.752712
Si Si5 0.925174 0.961934 0.362945
Si Si6 0.215662 0.041694 0.982393
Si Si7 0.578908 0.540708 0.049921
O O1 0.336471 0.250000 0.356911
O O2 0.455521 0.488780 0.323110
O O3 0.275058 0.529173 0.304177
O O4 0.345210 0.522952 0.421566
O O5 0.689281 0.250000 0.381182
O O6 0.720094 0.964440 0.321249
O O7 0.684872 0.971947 0.450955
O O8 0.838814 0.049034 0.397808
O O9 0.512180 0.750000 0.257340
O O10 0.426871 0.010265 0.207707
O O11 0.602639 0.037354 0.242815
O O12 0.756371 0.750000 0.758025
O O13 0.916429 0.750000 0.369374
O O14 0.026257 0.017378 0.389136
O O15 0.225485 0.250000 0.993403
O O16 0.318676 0.966500 0.964418
O O17 0.590187 0.750000 0.054421
O O18 0.500000 0.500000 0.000000
#
# Coordination Sequence:
#
# PCOD9462533 Si02
#       7
#     8   8   8   8   8   8   8
#     4  11  23  40  63  90 122 158 198 250 303 355
#     4  10  20  37  60  84 115 156 196 239 292 349
#     4  11  23  39  62  89 118 155 199 249 302 356
#     4  10  22  40  62  89 119 155 201 248 298 354
#     4  10  20  33  53  83 116 149 189 239 291 351
#     4  10  21  37  57  83 120 160 197 243 298 357
#     4  10  19  31  50  79 115 152 189 232 286 350
#
# _framework density 23.573886000000002
#
# number of rings (size 3 to 8) (size 9 to 14) (size 15 to 20)
#    0.000    1.714    2.857    1.714    0.000    4.571 
#    0.000    0.714    0.000    0.000    0.000    0.000 
#    0.000    0.000    0.000    0.000    0.000    0.000 
#
# Total GULP energy -312470.375786 kJ/mol
# GULP energy per Si atom -5579.828139 kJ/mol
# Density = 2.352023 g / cm^3
# Si number density = 23.573886 Si / 1000 Ang^3
#
#
#
# Elastic Constant Matrix: (Units=GPa)
#
#
# Indices 1 2 3 4 5 6 
#
# 1 21.2239 -1.8893 -10.9230 0.0000 0.0000 0.0000
# 2 -1.8893 56.5277 13.6638 0.0000 0.0000 0.0000
# 3 -10.9230 13.6638 133.5508 0.0000 0.0000 0.0000
# 4 0.0000 0.0000 0.0000 16.4045 0.0000 0.0000
# 5 0.0000 0.0000 0.0000 0.0000 33.4387 0.0000
# 6 0.0000 0.0000 0.0000 0.0000 0.0000 13.5186
#
#
#
# Elastic Compliance Matrix: (Units=1/GPa)
#
#
# Indices 1 2 3 4 5 6 
#
# 1 0.049213 0.000689 0.003955 0.000000 0.000000 0.000000
# 2 0.000689 0.018149 -0.001800 0.000000 0.000000 0.000000
# 3 0.003955 -0.001800 0.007995 0.000000 0.000000 0.000000
# 4 0.000000 0.000000 0.000000 0.060959 0.000000 0.000000
# 5 0.000000 0.000000 0.000000 0.000000 0.029905 0.000000
# 6 0.000000 0.000000 0.000000 0.000000 0.000000 0.073972
#
#
# Mechanical properties :
#
#
# Convention : Reuss Voigt Hill
#
# Bulk Modulus (GPa) = 12.33903 23.66726 18.00315
# Shear Modulus (GPa) = 19.11882 26.70242 22.91062
#
# Velocity S-wave (km/s) = 2.85093 3.36923 3.12086
# Velocity P-wave (km/s) = 4.01031 5.01966 4.54311
#
# Compressibility (1/GPa) = 0.08104364
#
# Stress axis : x y z
#
# Youngs Moduli (GPa) = 20.31971 55.10041 125.07128
#
# Poissons Ratio (x) = -0.03796 -0.49461
# Poissons Ratio (y) = -0.01400 0.22519
# Poissons Ratio (z) = -0.08036 0.09921
#
# Static dielectric constant tensor:
#      x y z
#    x 1.893850 0.000000 0.000000 
#    y 0.000000 1.872970 0.000000 
#    z 0.000000 0.000000 2.012830 
# 
# From -- ./inp_files/27075.got.cif
#   From: 2010.05.17/outbox.cif.g08.bks.cpg/sg62_14_cif.got.tgz:27075.got - 2010.06.03 15:25:27.
