data_PCOD9462969
_publ_section_title
;
Structure prediction by ZEFSAII (Michael W. Deem and Ramdas Pophale) SiO2 
 PCOD9462969
Probable space group: P N M A
;
_chemical_formula_sum "Si O2"
_cell_formula_units_Z 56
_cell_length_a 16.757813
_cell_length_b 8.728238
_cell_length_c 20.170930
_cell_angle_alpha 90.000000
_cell_angle_beta 90.000000
_cell_angle_gamma 90.000000
_cell_volume 2950.324883
_symmetry_space_group_name_H-M "P N M A"
_symmetry_group_IT_number 62
_symmetry_cell_setting 'orthorhombic'
loop_
_space_group_symop_operation_xyz
x,y,z
1/2-x,-y,1/2+z
1/2+x,1/2-y,1/2-z
-x,1/2+y,-z
-x,-y,-z
1/2+x,y,1/2-z
1/2-x,1/2+y,1/2+z
x,1/2-y,z
loop_
_atom_site_type_symbol
_atom_site_label
_atom_site_fract_x
_atom_site_fract_y
_atom_site_fract_z
Si Si1 0.927642 0.433249 0.196090
Si Si2 0.726463 0.935296 0.519282
Si Si3 0.242969 0.433606 0.766767
Si Si4 0.642031 0.065496 0.128322
Si Si5 0.055334 0.432258 0.942338
Si Si6 0.797713 0.565888 0.380335
Si Si7 0.533375 0.565898 0.845692
O O1 0.927570 0.250000 0.189403
O O2 0.836510 0.492273 0.201727
O O3 0.966292 0.506245 0.130955
O O4 0.966297 0.474446 0.267123
O O5 0.715903 0.750000 0.521283
O O6 0.800408 0.974423 0.567267
O O7 0.749543 0.983579 0.444957
O O8 0.645496 0.012676 0.543345
O O9 0.236888 0.250000 0.771578
O O10 0.318565 0.493198 0.806641
O O11 0.242453 0.478640 0.689404
O O12 0.643030 0.250000 0.134951
O O13 0.550115 0.017409 0.122082
O O14 0.050473 0.250000 0.942814
O O15 0.000000 0.500000 0.000000
O O16 0.801493 0.750000 0.382138
O O17 0.887939 0.504639 0.378107
O O18 0.540006 0.750000 0.849523
#
# Coordination Sequence:
#
# PCOD9462969 Si02
#       7
#     8   8   8   8   8   8   8
#     4  10  19  36  58  80 111 147 187 236 290 342
#     4  10  21  39  60  83 117 157 194 235 293 348
#     4  10  19  33  55  81 109 145 193 239 285 342
#     4  10  20  35  57  83 114 152 195 239 289 344
#     4  12  25  40  60  86 116 150 194 240 293 353
#     4   9  20  37  56  82 117 155 192 239 291 341
#     4   9  20  36  56  85 116 152 196 241 288 341
#
# _framework density 18.980962000000002
#
# number of rings (size 3 to 8) (size 9 to 14) (size 15 to 20)
#    0.000    2.000    1.429    2.143    0.000    4.000 
#    0.000    2.857    0.000    0.000    0.000    0.000 
#    0.000    0.000    0.000    0.000    0.000    0.000 
#
# Total GULP energy -312718.715245 kJ/mol
# GULP energy per Si atom -5584.262772 kJ/mol
# Density = 1.893776 g / cm^3
# Si number density = 18.980962 Si / 1000 Ang^3
#
#
#
# Elastic Constant Matrix: (Units=GPa)
#
#
# Indices 1 2 3 4 5 6 
#
# 1 9.5697 6.3757 16.4544 0.0000 0.0000 0.0000
# 2 6.3757 29.8913 25.8957 0.0000 0.0000 0.0000
# 3 16.4544 25.8957 80.8964 0.0000 0.0000 0.0000
# 4 0.0000 0.0000 0.0000 22.7943 0.0000 0.0000
# 5 0.0000 0.0000 0.0000 0.0000 30.2922 0.0000
# 6 0.0000 0.0000 0.0000 0.0000 0.0000 27.4775
#
#
#
# Elastic Compliance Matrix: (Units=1/GPa)
#
#
# Indices 1 2 3 4 5 6 
#
# 1 0.162180 -0.008322 -0.030324 0.000000 0.000000 0.000000
# 2 -0.008322 0.046719 -0.013263 0.000000 0.000000 0.000000
# 3 -0.030324 -0.013263 0.022775 0.000000 0.000000 0.000000
# 4 0.000000 0.000000 0.000000 0.043871 0.000000 0.000000
# 5 0.000000 0.000000 0.000000 0.000000 0.033012 0.000000
# 6 0.000000 0.000000 0.000000 0.000000 0.000000 0.036393
#
#
# Mechanical properties :
#
#
# Convention : Reuss Voigt Hill
#
# Bulk Modulus (GPa) = 7.82120 24.20101 16.01111
# Shear Modulus (GPa) = 10.17529 20.88822 15.53176
#
# Velocity S-wave (km/s) = 2.31785 3.32095 2.86366
# Velocity P-wave (km/s) = 3.36047 5.24240 4.40315
#
# Compressibility (1/GPa) = 0.12785758
#
# Stress axis : x y z
#
# Youngs Moduli (GPa) = 6.16598 21.40437 43.90812
#
# Poissons Ratio (x) = 0.17813 1.33145
# Poissons Ratio (y) = 0.05131 0.58233
# Poissons Ratio (z) = 0.18697 0.28388
#
# Static dielectric constant tensor:
#      x y z
#    x 1.632610 0.000000 0.000000 
#    y 0.000000 1.638140 0.000000 
#    z 0.000000 0.000000 1.671640 
# 
# From -- ./inp_files/27551.got.cif
#   From: 2010.05.17/outbox.cif.g08.bks.cpg/sg62_14_cif.got.tgz:27551.got - 2010.06.03 15:25:27.
