data_PCOD9462539
_publ_section_title
;
Structure prediction by ZEFSAII (Michael W. Deem and Ramdas Pophale) SiO2 
 PCOD9462539
Probable space group: P N M A
;
_chemical_formula_sum "Si O2"
_cell_formula_units_Z 56
_cell_length_a 22.564988
_cell_length_b 7.597080
_cell_length_c 15.092399
_cell_angle_alpha 90.000000
_cell_angle_beta 90.000000
_cell_angle_gamma 90.000000
_cell_volume 2587.260063
_symmetry_space_group_name_H-M "P N M A"
_symmetry_group_IT_number 62
_symmetry_cell_setting 'orthorhombic'
loop_
_space_group_symop_operation_xyz
x,y,z
1/2-x,-y,1/2+z
1/2+x,1/2-y,1/2-z
-x,1/2+y,-z
-x,-y,-z
1/2+x,y,1/2-z
1/2-x,1/2+y,1/2+z
x,1/2-y,z
loop_
_atom_site_type_symbol
_atom_site_label
_atom_site_fract_x
_atom_site_fract_y
_atom_site_fract_z
Si Si1 0.389579 0.458163 0.282962
Si Si2 0.646942 0.533854 0.357278
Si Si3 0.717654 0.037412 0.835581
Si Si4 0.431226 0.461449 0.476693
Si Si5 0.406668 0.458559 0.824586
Si Si6 0.364632 0.537449 0.003740
Si Si7 0.969231 0.953196 0.382132
O O1 0.401443 0.250000 0.280491
O O2 0.321916 0.483876 0.249364
O O3 0.408767 0.524351 0.380087
O O4 0.429950 0.543627 0.206966
O O5 0.647336 0.750000 0.358775
O O6 0.714808 0.477765 0.343681
O O7 0.612670 0.475408 0.445417
O O8 0.611977 0.472759 0.270362
O O9 0.717783 0.250000 0.834989
O O10 0.683556 0.978343 0.924767
O O11 0.500000 0.500000 0.500000
O O12 0.426236 0.250000 0.474787
O O13 0.415849 0.250000 0.812533
O O14 0.468182 0.537645 0.859517
O O15 0.358907 0.483198 0.902288
O O16 0.365047 0.750000 0.006547
O O17 0.427431 0.468345 0.042111
O O18 0.979047 0.750000 0.407110
#
# Coordination Sequence:
#
# PCOD9462539 Si02
#       7
#     8   8   8   8   8   8   8
#     4  10  20  33  54  82 106 132 170 219 266 301
#     4   9  19  36  55  74 101 138 177 214 254 311
#     4   9  19  37  56  73  99 139 178 207 252 318
#     4  10  21  37  57  81 109 142 180 222 269 319
#     4  10  19  31  51  76  99 129 168 207 248 294
#     4   9  18  31  49  73 101 134 167 202 249 304
#     4   9  18  33  52  75 104 138 169 197 245 313
#
# _framework density 21.644518999999999
#
# number of rings (size 3 to 8) (size 9 to 14) (size 15 to 20)
#    0.000    2.571    0.000    2.571    0.000    6.286 
#    0.000    3.571    0.000    0.000    0.000    0.000 
#    0.000    0.000    0.000    0.000    0.000    0.000 
#
# Total GULP energy -312513.473981 kJ/mol
# GULP energy per Si atom -5580.597750 kJ/mol
# Density = 2.159526 g / cm^3
# Si number density = 21.644519 Si / 1000 Ang^3
#
#
#
# Elastic Constant Matrix: (Units=GPa)
#
#
# Indices 1 2 3 4 5 6 
#
# 1 111.3463 -2.8081 52.0585 0.0000 0.0000 0.0000
# 2 -2.8081 51.9250 -5.8888 0.0000 0.0000 0.0000
# 3 52.0585 -5.8888 166.5694 0.0000 0.0000 0.0000
# 4 0.0000 0.0000 0.0000 19.0411 0.0000 0.0000
# 5 0.0000 0.0000 0.0000 0.0000 17.5011 0.0000
# 6 0.0000 0.0000 0.0000 0.0000 0.0000 11.5044
#
#
#
# Elastic Compliance Matrix: (Units=1/GPa)
#
#
# Indices 1 2 3 4 5 6 
#
# 1 0.010520 0.000197 -0.003281 0.000000 0.000000 0.000000
# 2 0.000197 0.019340 0.000622 0.000000 0.000000 0.000000
# 3 -0.003281 0.000622 0.007051 0.000000 0.000000 0.000000
# 4 0.000000 0.000000 0.000000 0.052518 0.000000 0.000000
# 5 0.000000 0.000000 0.000000 0.000000 0.057139 0.000000
# 6 0.000000 0.000000 0.000000 0.000000 0.000000 0.086923
#
#
# Mechanical properties :
#
#
# Convention : Reuss Voigt Hill
#
# Bulk Modulus (GPa) = 31.26283 46.28489 38.77386
# Shear Modulus (GPa) = 20.07410 28.70791 24.39100
#
# Velocity S-wave (km/s) = 3.04870 3.64584 3.36056
# Velocity P-wave (km/s) = 5.18343 6.25727 5.74549
#
# Compressibility (1/GPa) = 0.03198686
#
# Stress axis : x y z
#
# Youngs Moduli (GPa) = 95.05813 51.70698 141.82630
#
# Poissons Ratio (x) = -0.01018 0.46531
# Poissons Ratio (y) = -0.01871 -0.08825
# Poissons Ratio (z) = 0.31187 -0.03217
#
# Static dielectric constant tensor:
#      x y z
#    x 1.799870 0.000000 0.000000 
#    y 0.000000 1.798490 0.000000 
#    z 0.000000 0.000000 1.779110 
# 
# From -- ./inp_files/20317.got.cif
#   From: 2010.05.17/outbox.cif.g08.bks.cpg/sg62_11_cif.got.tgz:20317.got - 2010.06.03 15:25:27.
