data_PCOD9462943
_publ_section_title
;
Structure prediction by ZEFSAII (Michael W. Deem and Ramdas Pophale) SiO2 
 PCOD9462943
Probable space group: P N M A
;
_chemical_formula_sum "Si O2"
_cell_formula_units_Z 56
_cell_length_a 9.291139
_cell_length_b 14.022666
_cell_length_c 18.946876
_cell_angle_alpha 90.000000
_cell_angle_beta 90.000000
_cell_angle_gamma 90.000000
_cell_volume 2468.522898
_symmetry_space_group_name_H-M "P N M A"
_symmetry_group_IT_number 62
_symmetry_cell_setting 'orthorhombic'
loop_
_space_group_symop_operation_xyz
x,y,z
1/2-x,-y,1/2+z
1/2+x,1/2-y,1/2-z
-x,1/2+y,-z
-x,-y,-z
1/2+x,y,1/2-z
1/2-x,1/2+y,1/2+z
x,1/2-y,z
loop_
_atom_site_type_symbol
_atom_site_label
_atom_site_fract_x
_atom_site_fract_y
_atom_site_fract_z
Si Si1 0.980129 0.145460 0.529577
Si Si2 0.105073 0.555730 0.929278
Si Si3 0.794027 0.357311 0.767408
Si Si4 0.086035 0.141893 0.849129
Si Si5 0.898144 0.000113 0.355366
Si Si6 0.699909 0.417834 0.463169
Si Si7 0.381051 0.641639 0.871565
O O1 0.014134 0.250000 0.558180
O O2 0.033137 0.064742 0.582523
O O3 0.054185 0.137744 0.452049
O O4 0.809112 0.136342 0.514607
O O5 0.066642 0.451683 0.896515
O O6 0.216894 0.609262 0.880038
O O7 0.961807 0.613849 0.947585
O O8 0.180942 0.522873 0.001898
O O9 0.751309 0.250000 0.789700
O O10 0.744244 0.363588 0.686274
O O11 0.695933 0.433981 0.806033
O O12 0.960332 0.366353 0.789243
O O13 0.068485 0.250000 0.879032
O O14 0.784302 0.071925 0.390664
O O15 0.027654 0.065283 0.326908
O O16 0.394527 0.750000 0.846889
#
# Coordination Sequence:
#
# PCOD9462943 Si02
#       7
#     8   8   8   8   8   8   8
#     4  10  19  33  54  84 117 153 191 233 288 355
#     4  11  20  37  56  80 118 154 192 244 295 340
#     4  10  22  39  61  91 121 154 194 236 292 359
#     4  10  23  40  59  89 122 154 193 238 293 360
#     4  11  18  38  57  85 119 157 197 237 291 350
#     4  10  20  33  54  81 116 152 195 236 283 352
#     4  10  21  35  55  80 112 152 196 240 285 340
#
# _framework density 22.685631000000001
#
# number of rings (size 3 to 8) (size 9 to 14) (size 15 to 20)
#    0.000    1.714    4.286    1.286    2.000    1.143 
#    0.000    2.143    0.000    0.857    0.000    0.000 
#    0.000    0.000    0.000    0.000    0.000    0.000 
#
# Total GULP energy -312617.756512 kJ/mol
# GULP energy per Si atom -5582.459938 kJ/mol
# Density = 2.263400 g / cm^3
# Si number density = 22.685631 Si / 1000 Ang^3
#
#
#
# Elastic Constant Matrix: (Units=GPa)
#
#
# Indices 1 2 3 4 5 6 
#
# 1 111.5488 18.8338 5.4414 0.0000 0.0000 0.0000
# 2 18.8338 86.9106 4.0280 0.0000 0.0000 0.0000
# 3 5.4414 4.0280 20.5958 0.0000 0.0000 0.0000
# 4 0.0000 0.0000 0.0000 21.7910 0.0000 0.0000
# 5 0.0000 0.0000 0.0000 0.0000 26.2673 0.0000
# 6 0.0000 0.0000 0.0000 0.0000 0.0000 21.7902
#
#
#
# Elastic Compliance Matrix: (Units=1/GPa)
#
#
# Indices 1 2 3 4 5 6 
#
# 1 0.009395 -0.001938 -0.002103 0.000000 0.000000 0.000000
# 2 -0.001938 0.012011 -0.001837 0.000000 0.000000 0.000000
# 3 -0.002103 -0.001837 0.049468 0.000000 0.000000 0.000000
# 4 0.000000 0.000000 0.000000 0.045891 0.000000 0.000000
# 5 0.000000 0.000000 0.000000 0.000000 0.038070 0.000000
# 6 0.000000 0.000000 0.000000 0.000000 0.000000 0.045892
#
#
# Mechanical properties :
#
#
# Convention : Reuss Voigt Hill
#
# Bulk Modulus (GPa) = 16.91542 30.62906 23.77224
# Shear Modulus (GPa) = 21.53414 26.68651 24.11033
#
# Velocity S-wave (km/s) = 3.08432 3.43353 3.26360
# Velocity P-wave (km/s) = 4.48962 5.40830 4.97023
#
# Compressibility (1/GPa) = 0.05911765
#
# Stress axis : x y z
#
# Youngs Moduli (GPa) = 106.44483 83.25523 20.21494
#
# Poissons Ratio (x) = 0.16138 0.04251
# Poissons Ratio (y) = 0.20633 0.03713
# Poissons Ratio (z) = 0.22385 0.15294
#
# Static dielectric constant tensor:
#      x y z
#    x 1.867800 0.000000 0.000000 
#    y 0.000000 1.837360 0.000000 
#    z 0.000000 0.000000 1.895080 
# 
# From -- ./inp_files/26015.got.cif
#   From: 2010.05.17/outbox.cif.g08.bks.cpg/sg62_14_cif.got.tgz:26015.got - 2010.06.03 15:25:27.
