data_PCOD9462596
_publ_section_title
;
Structure prediction by ZEFSAII (Michael W. Deem and Ramdas Pophale) SiO2 
 PCOD9462596
Probable space group: P N M A
;
_chemical_formula_sum "Si O2"
_cell_formula_units_Z 40
_cell_length_a 5.075887
_cell_length_b 10.901110
_cell_length_c 36.759886
_cell_angle_alpha 90.000000
_cell_angle_beta 90.000000
_cell_angle_gamma 90.000000
_cell_volume 2034.027513
_symmetry_space_group_name_H-M "P N M A"
_symmetry_group_IT_number 62
_symmetry_cell_setting 'orthorhombic'
loop_
_space_group_symop_operation_xyz
x,y,z
1/2-x,-y,1/2+z
1/2+x,1/2-y,1/2-z
-x,1/2+y,-z
-x,-y,-z
1/2+x,y,1/2-z
1/2-x,1/2+y,1/2+z
x,1/2-y,z
loop_
_atom_site_type_symbol
_atom_site_label
_atom_site_fract_x
_atom_site_fract_y
_atom_site_fract_z
Si Si1 0.164506 0.750000 0.970321
Si Si2 0.159033 0.750000 0.479382
Si Si3 0.081407 0.010314 0.957586
Si Si4 0.288245 0.898046 0.352153
Si Si5 0.130090 0.600561 0.271986
Si Si6 0.702658 0.397801 0.897745
O O1 0.200776 0.622827 0.949160
O O2 0.370255 0.750000 0.003778
O O3 0.868945 0.750000 0.987149
O O4 0.226796 0.871949 0.456735
O O5 0.830401 0.038804 0.932794
O O6 0.000000 0.000000 0.000000
O O7 0.261141 0.750000 0.351307
O O8 0.215765 0.942505 0.311908
O O9 0.075588 0.940646 0.381912
O O10 0.581821 0.921808 0.365881
O O11 0.843166 0.563557 0.258298
O O12 0.131776 0.750000 0.273235
O O13 0.698667 0.250000 0.904163
#
# Coordination Sequence:
#
# PCOD9462596 Si02
#       6
#     4   4   8   8   8   8
#     4  10  22  34  52  72  96 120 160 214 256 302
#     4  10  20  36  52  72  94 122 160 208 260 304
#     4  10  21  37  53  74  96 130 170 216 262 306
#     4   9  18  29  44  67  94 126 166 198 238 293
#     4   9  15  24  40  62  91 126 158 190 229 283
#     4  10  19  32  47  66  93 128 164 207 246 294
#
# _framework density 19.665419
#
# number of rings (size 3 to 8) (size 9 to 14) (size 15 to 20)
#    0.000    2.400    1.000    1.800    0.000   11.200 
#    0.000    0.000    0.000    0.000    0.000    0.000 
#    0.000    0.000    0.000   18.000    0.000    8.000 
#
# Total GULP energy -223355.242269 kJ/mol
# GULP energy per Si atom -5583.881057 kJ/mol
# Density = 1.962066 g / cm^3
# Si number density = 19.665419 Si / 1000 Ang^3
#
#
#
# Elastic Constant Matrix: (Units=GPa)
#
#
# Indices 1 2 3 4 5 6 
#
# 1 46.2643 4.6437 -13.1539 0.0000 0.0000 0.0000
# 2 4.6437 93.9603 3.4239 0.0000 0.0000 0.0000
# 3 -13.1539 3.4239 69.0718 0.0000 0.0000 0.0000
# 4 0.0000 0.0000 0.0000 11.7004 0.0000 0.0000
# 5 0.0000 0.0000 0.0000 0.0000 27.1959 0.0000
# 6 0.0000 0.0000 0.0000 0.0000 0.0000 7.1268
#
#
#
# Elastic Compliance Matrix: (Units=1/GPa)
#
#
# Indices 1 2 3 4 5 6 
#
# 1 0.023010 -0.001299 0.004446 0.000000 0.000000 0.000000
# 2 -0.001299 0.010735 -0.000780 0.000000 0.000000 0.000000
# 3 0.004446 -0.000780 0.015363 0.000000 0.000000 0.000000
# 4 0.000000 0.000000 0.000000 0.085467 0.000000 0.000000
# 5 0.000000 0.000000 0.000000 0.000000 0.036770 0.000000
# 6 0.000000 0.000000 0.000000 0.000000 0.000000 0.140316
#
#
# Mechanical properties :
#
#
# Convention : Reuss Voigt Hill
#
# Bulk Modulus (GPa) = 18.57248 22.12486 20.34867
# Shear Modulus (GPa) = 15.39059 23.49680 19.44369
#
# Velocity S-wave (km/s) = 2.80057 3.46038 3.14781
# Velocity P-wave (km/s) = 4.46345 5.21926 4.85608
#
# Compressibility (1/GPa) = 0.05384309
#
# Stress axis : x y z
#
# Youngs Moduli (GPa) = 43.46025 93.14967 65.09111
#
# Poissons Ratio (x) = 0.12102 -0.28942
# Poissons Ratio (y) = 0.05646 0.05074
# Poissons Ratio (z) = -0.19324 0.07262
#
# Static dielectric constant tensor:
#      x y z
#    x 1.722310 0.000000 0.000000 
#    y 0.000000 1.711330 0.000000 
#    z 0.000000 0.000000 1.723320 
# 
# From -- ./inp_files/31524.got.cif
#   From: 2010.05.17/outbox.cif.g08.bks.cpg/sg62_16_cif.got.tgz:31524.got - 2010.06.03 15:25:27.
