data_PCOD9462884
_publ_section_title
;
Structure prediction by ZEFSAII (Michael W. Deem and Ramdas Pophale) SiO2 
 PCOD9462884
Probable space group: P N M A
;
_chemical_formula_sum "Si O2"
_cell_formula_units_Z 64
_cell_length_a 11.069752
_cell_length_b 9.232466
_cell_length_c 31.618544
_cell_angle_alpha 90.000000
_cell_angle_beta 90.000000
_cell_angle_gamma 90.000000
_cell_volume 3231.450261
_symmetry_space_group_name_H-M "P N M A"
_symmetry_group_IT_number 62
_symmetry_cell_setting 'orthorhombic'
loop_
_space_group_symop_operation_xyz
x,y,z
1/2-x,-y,1/2+z
1/2+x,1/2-y,1/2-z
-x,1/2+y,-z
-x,-y,-z
1/2+x,y,1/2-z
1/2-x,1/2+y,1/2+z
x,1/2-y,z
loop_
_atom_site_type_symbol
_atom_site_label
_atom_site_fract_x
_atom_site_fract_y
_atom_site_fract_z
Si Si1 0.654979 0.572927 0.715762
Si Si2 0.128581 0.914478 0.878014
Si Si3 0.488015 0.584615 0.455008
Si Si4 0.560435 0.074113 0.219125
Si Si5 0.127222 0.919451 0.501445
Si Si6 0.417796 0.080894 0.134617
Si Si7 0.742610 0.412916 0.922129
Si Si8 0.139875 0.090460 0.424238
O O1 0.658435 0.750000 0.715415
O O2 0.613132 0.524663 0.668825
O O3 0.544883 0.530938 0.747189
O O4 0.796998 0.527749 0.724373
O O5 0.079393 0.750000 0.879743
O O6 0.272673 0.905905 0.884287
O O7 0.085119 0.998448 0.919255
O O8 0.500000 0.500000 0.500000
O O9 0.445215 0.750000 0.463303
O O10 0.616412 0.595854 0.431153
O O11 0.565424 0.250000 0.219888
O O12 0.498035 0.032347 0.174416
O O13 0.115461 0.750000 0.505516
O O14 0.200206 0.986735 0.539510
O O15 0.179369 0.967476 0.456403
O O16 0.000000 0.000000 0.500000
O O17 0.384564 0.250000 0.140912
O O18 0.506665 0.072837 0.094095
O O19 0.302945 0.985688 0.121305
O O20 0.690841 0.250000 0.925186
O O21 0.151027 0.250000 0.445173
#
# Coordination Sequence:
#
# PCOD9462884 Si02
#       8
#     8   8   8   8   8   8   8   8
#     4   9  17  31  54  86 123 159 196 244 300 357
#     4  10  20  36  60  86 116 156 198 241 291 348
#     4  11  25  43  61  84 117 156 198 248 298 356
#     4   9  17  31  53  86 125 161 198 247 304 359
#     4  12  23  34  52  80 111 146 189 235 285 343
#     4  10  19  33  56  83 114 152 192 238 294 350
#     4  11  24  40  56  80 115 151 192 244 300 349
#     4  10  19  33  53  79 113 149 189 237 288 335
#
# _framework density 19.805350000000001
#
# number of rings (size 3 to 8) (size 9 to 14) (size 15 to 20)
#    0.000    1.750    2.500    2.625    0.000    6.500 
#    0.000    2.500    0.000    0.750    0.000    0.000 
#    0.000    0.000    0.000    0.000    0.000    0.000 
#
# Total GULP energy -356433.739943 kJ/mol
# GULP energy per Si atom -5569.277187 kJ/mol
# Density = 1.976027 g / cm^3
# Si number density = 19.805350 Si / 1000 Ang^3
#
#
#
# Elastic Constant Matrix: (Units=GPa)
#
#
# Indices 1 2 3 4 5 6 
#
# 1 84.8315 26.9553 46.6459 0.0000 0.0000 0.0000
# 2 26.9553 84.6952 35.5581 0.0000 0.0000 0.0000
# 3 46.6459 35.5581 117.5311 0.0000 0.0000 0.0000
# 4 0.0000 0.0000 0.0000 17.0011 0.0000 0.0000
# 5 0.0000 0.0000 0.0000 0.0000 35.0192 0.0000
# 6 0.0000 0.0000 0.0000 0.0000 0.0000 19.7067
#
#
#
# Elastic Compliance Matrix: (Units=1/GPa)
#
#
# Indices 1 2 3 4 5 6 
#
# 1 0.015604 -0.002710 -0.005373 0.000000 0.000000 0.000000
# 2 -0.002710 0.013996 -0.003159 0.000000 0.000000 0.000000
# 3 -0.005373 -0.003159 0.011596 0.000000 0.000000 0.000000
# 4 0.000000 0.000000 0.000000 0.058820 0.000000 0.000000
# 5 0.000000 0.000000 0.000000 0.000000 0.028556 0.000000
# 6 0.000000 0.000000 0.000000 0.000000 0.000000 0.050744
#
#
# Mechanical properties :
#
#
# Convention : Reuss Voigt Hill
#
# Bulk Modulus (GPa) = 53.44105 56.15294 54.79700
# Shear Modulus (GPa) = 24.03428 26.20531 25.11980
#
# Velocity S-wave (km/s) = 3.48735 3.64145 3.56523
# Velocity P-wave (km/s) = 6.57702 6.78927 6.68399
#
# Compressibility (1/GPa) = 0.01871221
#
# Stress axis : x y z
#
# Youngs Moduli (GPa) = 64.08782 71.45034 86.23398
#
# Poissons Ratio (x) = 0.19366 0.46332
# Poissons Ratio (y) = 0.17370 0.27238
# Poissons Ratio (z) = 0.34433 0.22568
#
# Static dielectric constant tensor:
#      x y z
#    x 1.679610 0.000000 0.000000 
#    y 0.000000 1.709020 0.000000 
#    z 0.000000 0.000000 1.724700 
# 
# From -- ./inp_files/32535.got.cif
#   From: 2010.05.17/outbox.cif.g08.bks.cpg/sg62_17_cif.got.tgz:32535.got - 2010.06.03 15:25:27.
