data_PCOD9462978
_publ_section_title
;
Structure prediction by ZEFSAII (Michael W. Deem and Ramdas Pophale) SiO2 
 PCOD9462978
Probable space group: P N M A
;
_chemical_formula_sum "Si O2"
_cell_formula_units_Z 48
_cell_length_a 20.053490
_cell_length_b 12.564975
_cell_length_c 11.606225
_cell_angle_alpha 90.000000
_cell_angle_beta 90.000000
_cell_angle_gamma 90.000000
_cell_volume 2924.439089
_symmetry_space_group_name_H-M "P N M A"
_symmetry_group_IT_number 62
_symmetry_cell_setting 'orthorhombic'
loop_
_space_group_symop_operation_xyz
x,y,z
1/2-x,-y,1/2+z
1/2+x,1/2-y,1/2-z
-x,1/2+y,-z
-x,-y,-z
1/2+x,y,1/2-z
1/2-x,1/2+y,1/2+z
x,1/2-y,z
loop_
_atom_site_type_symbol
_atom_site_label
_atom_site_fract_x
_atom_site_fract_y
_atom_site_fract_z
Si Si1 0.988556 0.624023 0.631235
Si Si2 0.112003 0.502056 0.527312
Si Si3 0.559653 0.983155 0.344212
Si Si4 0.678454 0.124246 0.768304
Si Si5 0.927608 0.874875 0.064804
Si Si6 0.828946 0.123379 0.688253
O O1 0.987405 0.750000 0.645045
O O2 0.934113 0.585164 0.537522
O O3 0.970537 0.563374 0.749016
O O4 0.059929 0.582991 0.586486
O O5 0.156420 0.445797 0.623503
O O6 0.153766 0.563277 0.430168
O O7 0.500075 0.906041 0.384949
O O8 0.618767 0.918989 0.282971
O O9 0.583417 0.051380 0.453691
O O10 0.673959 0.250000 0.797270
O O11 0.627279 0.104925 0.663252
O O12 0.753620 0.101767 0.728275
O O13 0.925552 0.750000 0.034812
O O14 0.836885 0.250000 0.673266
#
# Coordination Sequence:
#
# PCOD9462978 Si02
#       6
#     8   8   8   8   8   8
#     4  10  19  33  55  83 109 135 176 228 273 318
#     4  10  20  35  56  81 106 141 178 223 273 320
#     4  10  20  35  56  83 109 142 180 223 270 317
#     4  10  21  37  56  79 108 144 182 218 269 323
#     4  10  20  35  56  80 110 145 182 221 266 320
#     4  10  22  37  57  80 108 145 181 223 269 321
#
# _framework density 16.413405000000001
#
# number of rings (size 3 to 8) (size 9 to 14) (size 15 to 20)
#    0.000    2.000    1.667    2.000    2.333    0.000 
#    0.000    0.000    0.000    3.000    0.000    0.000 
#    0.000    0.000    0.000    0.000    0.000    0.000 
#
# Total GULP energy -267934.245441 kJ/mol
# GULP energy per Si atom -5581.963447 kJ/mol
# Density = 1.637605 g / cm^3
# Si number density = 16.413405 Si / 1000 Ang^3
#
#
#
# Elastic Constant Matrix: (Units=GPa)
#
#
# Indices 1 2 3 4 5 6 
#
# 1 122.1624 64.3302 79.3053 0.0000 0.0000 0.0000
# 2 64.3302 81.2795 54.9727 0.0000 0.0000 0.0000
# 3 79.3053 54.9727 117.1223 0.0000 0.0000 0.0000
# 4 0.0000 0.0000 0.0000 17.4353 0.0000 0.0000
# 5 0.0000 0.0000 0.0000 0.0000 12.3894 0.0000
# 6 0.0000 0.0000 0.0000 0.0000 0.0000 22.4314
#
#
#
# Elastic Compliance Matrix: (Units=1/GPa)
#
#
# Indices 1 2 3 4 5 6 
#
# 1 0.018110 -0.008849 -0.008109 0.000000 0.000000 0.000000
# 2 -0.008849 0.022349 -0.004498 0.000000 0.000000 0.000000
# 3 -0.008109 -0.004498 0.016140 0.000000 0.000000 0.000000
# 4 0.000000 0.000000 0.000000 0.057355 0.000000 0.000000
# 5 0.000000 0.000000 0.000000 0.000000 0.080714 0.000000
# 6 0.000000 0.000000 0.000000 0.000000 0.000000 0.044580
#
#
# Mechanical properties :
#
#
# Convention : Reuss Voigt Hill
#
# Bulk Modulus (GPa) = 73.06269 79.75339 76.40804
# Shear Modulus (GPa) = 17.43842 18.58162 18.01002
#
# Velocity S-wave (km/s) = 3.26306 3.36832 3.31611
# Velocity P-wave (km/s) = 7.66860 7.98895 7.83041
#
# Compressibility (1/GPa) = 0.01368688
#
# Stress axis : x y z
#
# Youngs Moduli (GPa) = 55.21833 44.74458 61.95721
#
# Poissons Ratio (x) = 0.39594 0.50242
# Poissons Ratio (y) = 0.48862 0.27869
# Poissons Ratio (z) = 0.44778 0.20126
#
# Static dielectric constant tensor:
#      x y z
#    x 1.526570 0.000000 0.000000 
#    y 0.000000 1.520850 0.000000 
#    z 0.000000 0.000000 1.533830 
# 
# From -- ./inp_files/14086.got.cif
#   From: 2010.05.17/outbox.cif.g08.bks.cpg/sg62_8_cif.got.tgz:14086.got - 2010.06.03 15:25:27.
