data_PCOD9462382
_publ_section_title
;
Structure prediction by ZEFSAII (Michael W. Deem and Ramdas Pophale) SiO2 
 PCOD9462382
Probable space group: P N M A
;
_chemical_formula_sum "Si O2"
_cell_formula_units_Z 48
_cell_length_a 14.300093
_cell_length_b 18.339823
_cell_length_c 6.822805
_cell_angle_alpha 90.000000
_cell_angle_beta 90.000000
_cell_angle_gamma 90.000000
_cell_volume 1789.356853
_symmetry_space_group_name_H-M "P N M A"
_symmetry_group_IT_number 62
_symmetry_cell_setting 'orthorhombic'
loop_
_space_group_symop_operation_xyz
x,y,z
1/2-x,-y,1/2+z
1/2+x,1/2-y,1/2-z
-x,1/2+y,-z
-x,-y,-z
1/2+x,y,1/2-z
1/2-x,1/2+y,1/2+z
x,1/2-y,z
loop_
_atom_site_type_symbol
_atom_site_label
_atom_site_fract_x
_atom_site_fract_y
_atom_site_fract_z
Si Si1 0.229669 0.662121 0.509495
Si Si2 0.287268 0.070721 0.395842
Si Si3 0.523027 0.831247 0.921926
Si Si4 0.430364 0.165242 0.547859
Si Si5 0.912173 0.962686 0.608622
Si Si6 0.100840 0.064841 0.927094
O O1 0.241060 0.750000 0.509320
O O2 0.240379 0.626409 0.725280
O O3 0.119476 0.647205 0.469254
O O4 0.312968 0.620640 0.402003
O O5 0.332664 0.122257 0.559772
O O6 0.195584 0.023587 0.445722
O O7 0.366767 0.011957 0.335184
O O8 0.500582 0.750000 0.977403
O O9 0.547722 0.832479 0.688652
O O10 0.433351 0.879786 0.950098
O O11 0.427949 0.250000 0.608512
O O12 0.511031 0.112581 0.629846
O O13 0.915217 0.961659 0.845965
O O14 0.000000 0.000000 0.500000
#
# Coordination Sequence:
#
# PCOD9462382 Si02
#       6
#     8   8   8   8   8   8
#     4   9  17  31  52  79 107 139 176 215 258 310
#     4  10  19  30  48  75 104 131 167 217 267 314
#     4   8  15  28  48  72  98 125 164 213 254 293
#     4   9  17  30  48  73 100 129 167 213 261 311
#     4  10  20  32  48  71 100 134 167 204 255 312
#     4  10  19  31  50  76 105 134 169 218 265 310
#
# _framework density 26.825281
#
# number of rings (size 3 to 8) (size 9 to 14) (size 15 to 20)
#    0.000    2.667    0.000    3.500    0.000    6.000 
#    0.000    0.000    0.000    2.000    0.000   28.000 
#    0.000    0.000    0.000    0.000    0.000    0.000 
#
# Total GULP energy -268443.260472 kJ/mol
# GULP energy per Si atom -5592.567926 kJ/mol
# Density = 2.676423 g / cm^3
# Si number density = 26.825281 Si / 1000 Ang^3
#
#
#
# Elastic Constant Matrix: (Units=GPa)
#
#
# Indices 1 2 3 4 5 6 
#
# 1 172.2330 73.8450 8.3202 0.0000 0.0000 0.0000
# 2 73.8450 161.4716 5.0503 0.0000 0.0000 0.0000
# 3 8.3202 5.0503 102.2550 0.0000 0.0000 0.0000
# 4 0.0000 0.0000 0.0000 11.8209 0.0000 0.0000
# 5 0.0000 0.0000 0.0000 0.0000 33.2595 0.0000
# 6 0.0000 0.0000 0.0000 0.0000 0.0000 52.9500
#
#
#
# Elastic Compliance Matrix: (Units=1/GPa)
#
#
# Indices 1 2 3 4 5 6 
#
# 1 0.007241 -0.003298 -0.000426 0.000000 0.000000 0.000000
# 2 -0.003298 0.007705 -0.000112 0.000000 0.000000 0.000000
# 3 -0.000426 -0.000112 0.009820 0.000000 0.000000 0.000000
# 4 0.000000 0.000000 0.000000 0.084596 0.000000 0.000000
# 5 0.000000 0.000000 0.000000 0.000000 0.030067 0.000000
# 6 0.000000 0.000000 0.000000 0.000000 0.000000 0.018886
#
#
# Mechanical properties :
#
#
# Convention : Reuss Voigt Hill
#
# Bulk Modulus (GPa) = 58.50596 67.82115 63.16356
# Shear Modulus (GPa) = 29.12335 42.85569 35.98952
#
# Velocity S-wave (km/s) = 3.29852 4.00132 3.66680
# Velocity P-wave (km/s) = 6.03029 6.83263 6.44396
#
# Compressibility (1/GPa) = 0.01709228
#
# Stress axis : x y z
#
# Youngs Moduli (GPa) = 138.10796 129.78895 101.83608
#
# Poissons Ratio (x) = 0.42805 0.04341
# Poissons Ratio (y) = 0.45548 0.01142
# Poissons Ratio (z) = 0.05887 0.01456
#
# Static dielectric constant tensor:
#      x y z
#    x 2.080350 0.000000 0.000000 
#    y 0.000000 2.028940 0.000000 
#    z 0.000000 0.000000 2.308180 
# 
# From -- ./inp_files/13464.got.cif
#   From: 2010.05.17/outbox.cif.g08.bks.cpg/sg62_7_cif.got.tgz:13464.got - 2010.06.03 15:25:27.
