data_PCOD9462335
_publ_section_title
;
Structure prediction by ZEFSAII (Michael W. Deem and Ramdas Pophale) SiO2 
 PCOD9462335
Probable space group: P N M A
;
_chemical_formula_sum "Si O2"
_cell_formula_units_Z 40
_cell_length_a 14.419262
_cell_length_b 8.585987
_cell_length_c 13.008616
_cell_angle_alpha 90.000000
_cell_angle_beta 90.000000
_cell_angle_gamma 90.000000
_cell_volume 1610.513441
_symmetry_space_group_name_H-M "P N M A"
_symmetry_group_IT_number 62
_symmetry_cell_setting 'orthorhombic'
loop_
_space_group_symop_operation_xyz
x,y,z
1/2-x,-y,1/2+z
1/2+x,1/2-y,1/2-z
-x,1/2+y,-z
-x,-y,-z
1/2+x,y,1/2-z
1/2-x,1/2+y,1/2+z
x,1/2-y,z
loop_
_atom_site_type_symbol
_atom_site_label
_atom_site_fract_x
_atom_site_fract_y
_atom_site_fract_z
Si Si1 0.448952 0.437919 0.601321
Si Si2 0.250889 0.429824 0.293050
Si Si3 0.062920 0.565080 0.705231
Si Si4 0.743468 0.928656 0.472639
Si Si5 0.905901 0.428436 0.585309
O O1 0.500000 0.500000 0.500000
O O2 0.446426 0.250000 0.600078
O O3 0.505977 0.495928 0.698921
O O4 0.341169 0.492798 0.594110
O O5 0.223574 0.250000 0.269310
O O6 0.330939 0.492843 0.218826
O O7 0.295230 0.422322 0.408757
O O8 0.162986 0.537344 0.317510
O O9 0.070330 0.750000 0.715114
O O10 0.996778 0.528092 0.608758
O O11 0.766350 0.750000 0.445545
O O12 0.836631 0.025828 0.493129
O O13 0.932027 0.250000 0.581115
#
# Coordination Sequence:
#
# PCOD9462335 Si02
#       5
#     8   8   8   8   8
#     4  11  19  28  44  69  98 125 155 190 235 286
#     4   8  16  31  46  62  89 125 156 186 227 272
#     4  11  20  31  48  70  97 129 161 192 234 284
#     4   8  16  31  44  59  90 125 152 183 226 273
#     4  10  19  30  45  67  93 122 159 198 232 274
#
# _framework density 24.8368
#
# number of rings (size 3 to 8) (size 9 to 14) (size 15 to 20)
#    1.200    1.200    2.000    2.400    0.000    4.800 
#    0.000    0.000    0.000    0.000    0.000    1.400 
#    0.000    0.000    0.000    0.000    0.000    0.000 
#
# Total GULP energy -223505.820331 kJ/mol
# GULP energy per Si atom -5587.645508 kJ/mol
# Density = 2.478027 g / cm^3
# Si number density = 24.836800 Si / 1000 Ang^3
#
#
#
# Elastic Constant Matrix: (Units=GPa)
#
#
# Indices 1 2 3 4 5 6 
#
# 1 182.9437 30.0333 8.9141 0.0000 0.0000 0.0000
# 2 30.0333 77.6263 -15.0669 0.0000 0.0000 0.0000
# 3 8.9141 -15.0669 87.9762 0.0000 0.0000 0.0000
# 4 0.0000 0.0000 0.0000 26.4998 0.0000 0.0000
# 5 0.0000 0.0000 0.0000 0.0000 42.7520 0.0000
# 6 0.0000 0.0000 0.0000 0.0000 0.0000 32.6620
#
#
#
# Elastic Compliance Matrix: (Units=1/GPa)
#
#
# Indices 1 2 3 4 5 6 
#
# 1 0.005925 -0.002492 -0.001027 0.000000 0.000000 0.000000
# 2 -0.002492 0.014373 0.002714 0.000000 0.000000 0.000000
# 3 -0.001027 0.002714 0.011936 0.000000 0.000000 0.000000
# 4 0.000000 0.000000 0.000000 0.037736 0.000000 0.000000
# 5 0.000000 0.000000 0.000000 0.000000 0.023391 0.000000
# 6 0.000000 0.000000 0.000000 0.000000 0.000000 0.030617
#
#
# Mechanical properties :
#
#
# Convention : Reuss Voigt Hill
#
# Bulk Modulus (GPa) = 32.65398 44.03412 38.34405
# Shear Modulus (GPa) = 36.82010 42.02714 39.42362
#
# Velocity S-wave (km/s) = 3.85448 4.11802 3.98842
# Velocity P-wave (km/s) = 5.74328 6.35442 6.05656
#
# Compressibility (1/GPa) = 0.03062414
#
# Stress axis : x y z
#
# Youngs Moduli (GPa) = 168.76831 69.57449 83.78299
#
# Poissons Ratio (x) = 0.17337 0.08606
# Poissons Ratio (y) = 0.42054 -0.22739
# Poissons Ratio (z) = 0.17335 -0.18883
#
# Static dielectric constant tensor:
#      x y z
#    x 1.990280 0.000000 0.000000 
#    y 0.000000 1.693280 0.000000 
#    z 0.000000 0.000000 2.161990 
# 
# From -- ./inp_files/23453.got.cif
#   From: 2010.05.17/outbox.cif.g08.bks.cpg/sg62_12_cif.got.tgz:23453.got - 2010.06.03 15:25:27.
