data_PCOD9462968
_publ_section_title
;
Structure prediction by ZEFSAII (Michael W. Deem and Ramdas Pophale) SiO2 
 PCOD9462968
Probable space group: P N M A
;
_chemical_formula_sum "Si O2"
_cell_formula_units_Z 64
_cell_length_a 19.696004
_cell_length_b 20.247280
_cell_length_c 8.218054
_cell_angle_alpha 90.000000
_cell_angle_beta 90.000000
_cell_angle_gamma 90.000000
_cell_volume 3277.281928
_symmetry_space_group_name_H-M "P N M A"
_symmetry_group_IT_number 62
_symmetry_cell_setting 'orthorhombic'
loop_
_space_group_symop_operation_xyz
x,y,z
1/2-x,-y,1/2+z
1/2+x,1/2-y,1/2-z
-x,1/2+y,-z
-x,-y,-z
1/2+x,y,1/2-z
1/2-x,1/2+y,1/2+z
x,1/2-y,z
loop_
_atom_site_type_symbol
_atom_site_label
_atom_site_fract_x
_atom_site_fract_y
_atom_site_fract_z
Si Si1 0.947289 0.073546 0.145062
Si Si2 0.615254 0.173279 0.634680
Si Si3 0.994350 0.930123 0.221108
Si Si4 0.673628 0.095918 0.126785
Si Si5 0.730683 0.413642 0.764022
Si Si6 0.807579 0.063755 0.265347
Si Si7 0.441530 0.674950 0.734222
Si Si8 0.633286 0.552947 0.126375
O O1 0.868235 0.090270 0.154847
O O2 0.994874 0.125988 0.234777
O O3 0.971717 0.071130 0.958576
O O4 0.957876 0.001430 0.226660
O O5 0.615008 0.250000 0.683673
O O6 0.560853 0.127748 0.730633
O O7 0.687893 0.139076 0.661734
O O8 0.591744 0.169807 0.446530
O O9 0.056358 0.925075 0.346092
O O10 0.736955 0.101969 0.249365
O O11 0.617205 0.151213 0.145331
O O12 0.637376 0.025622 0.162035
O O13 0.707034 0.093656 0.949492
O O14 0.709621 0.488332 0.712596
O O15 0.811433 0.411225 0.740765
O O16 0.837495 0.063072 0.446231
O O17 0.462018 0.750000 0.762538
#
# Coordination Sequence:
#
# PCOD9462968 Si02
#       8
#     8   8   8   8   8   8   8   8
#     4  10  19  33  55  81 109 143 183 226 272 325
#     4  10  21  37  56  79 110 146 181 221 274 331
#     4  10  19  33  55  81 109 143 183 226 272 325
#     4  10  20  34  54  80 109 141 180 225 272 324
#     4  10  20  34  54  80 109 141 180 225 272 324
#     4  10  20  33  54  82 110 139 179 229 275 318
#     4  10  21  37  56  79 110 146 181 221 274 331
#     4  10  20  33  54  82 110 139 179 229 275 318
#
# _framework density 19.528376999999999
#
# number of rings (size 3 to 8) (size 9 to 14) (size 15 to 20)
#    0.000    2.000    2.500    1.500    0.000    4.000 
#    0.000    1.250    0.000    4.500    0.000    0.000 
#    0.000    0.000    0.000    0.000    0.000    0.000 
#
# Total GULP energy -357472.765007 kJ/mol
# GULP energy per Si atom -5585.511953 kJ/mol
# Density = 1.948393 g / cm^3
# Si number density = 19.528377 Si / 1000 Ang^3
#
#
#
# Elastic Constant Matrix: (Units=GPa)
#
#
# Indices 1 2 3 4 5 6 
#
# 1 45.0230 9.8080 6.1149 0.0000 0.0000 0.0000
# 2 9.8080 77.7851 11.9371 0.0000 0.0000 0.0000
# 3 6.1149 11.9371 25.9241 0.0000 0.0000 0.0000
# 4 0.0000 0.0000 0.0000 16.2022 0.0000 0.0000
# 5 0.0000 0.0000 0.0000 0.0000 32.9778 0.0000
# 6 0.0000 0.0000 0.0000 0.0000 0.0000 23.5930
#
#
#
# Elastic Compliance Matrix: (Units=1/GPa)
#
#
# Indices 1 2 3 4 5 6 
#
# 1 0.023308 -0.002254 -0.004460 0.000000 0.000000 0.000000
# 2 -0.002254 0.014052 -0.005938 0.000000 0.000000 0.000000
# 3 -0.004460 -0.005938 0.042360 0.000000 0.000000 0.000000
# 4 0.000000 0.000000 0.000000 0.061720 0.000000 0.000000
# 5 0.000000 0.000000 0.000000 0.000000 0.030323 0.000000
# 6 0.000000 0.000000 0.000000 0.000000 0.000000 0.042386
#
#
# Mechanical properties :
#
#
# Convention : Reuss Voigt Hill
#
# Bulk Modulus (GPa) = 18.37744 22.71691 20.54718
# Shear Modulus (GPa) = 19.41055 22.61275 21.01165
#
# Velocity S-wave (km/s) = 3.15614 3.40655 3.28373
# Velocity P-wave (km/s) = 4.76579 5.20872 4.99217
#
# Compressibility (1/GPa) = 0.05441454
#
# Stress axis : x y z
#
# Youngs Moduli (GPa) = 42.90427 71.16672 23.60693
#
# Poissons Ratio (x) = 0.16044 0.10528
# Poissons Ratio (y) = 0.09673 0.14019
# Poissons Ratio (z) = 0.19134 0.42262
#
# Static dielectric constant tensor:
#      x y z
#    x 1.672730 0.000000 0.000000 
#    y 0.000000 1.656350 0.000000 
#    z 0.000000 0.000000 1.737100 
# 
# From -- ./inp_files/8086.got.cif
#   From: 2010.05.17/outbox.cif.g08.bks.cpg/sg62_5_cif.got.tgz:8086.got - 2010.06.03 15:25:27.
