data_PCOD9462438
_publ_section_title
;
Structure prediction by ZEFSAII (Michael W. Deem and Ramdas Pophale) SiO2 
 PCOD9462438
Probable space group: P N M A
;
_chemical_formula_sum "Si O2"
_cell_formula_units_Z 64
_cell_length_a 15.045397
_cell_length_b 7.815200
_cell_length_c 28.847957
_cell_angle_alpha 90.000000
_cell_angle_beta 90.000000
_cell_angle_gamma 90.000000
_cell_volume 3392.023173
_symmetry_space_group_name_H-M "P N M A"
_symmetry_group_IT_number 62
_symmetry_cell_setting 'orthorhombic'
loop_
_space_group_symop_operation_xyz
x,y,z
1/2-x,-y,1/2+z
1/2+x,1/2-y,1/2-z
-x,1/2+y,-z
-x,-y,-z
1/2+x,y,1/2-z
1/2-x,1/2+y,1/2+z
x,1/2-y,z
loop_
_atom_site_type_symbol
_atom_site_label
_atom_site_fract_x
_atom_site_fract_y
_atom_site_fract_z
Si Si1 0.269114 0.050538 0.868882
Si Si2 0.221726 0.956900 0.634930
Si Si3 0.603248 0.544918 0.948652
Si Si4 0.096612 0.542668 0.445765
Si Si5 0.403878 0.954648 0.323293
Si Si6 0.603716 0.953270 0.317152
Si Si7 0.904346 0.456899 0.281788
Si Si8 0.107736 0.450494 0.286534
O O1 0.255264 0.250000 0.880567
O O2 0.329374 0.976977 0.910124
O O3 0.172809 0.974276 0.856656
O O4 0.327007 0.041044 0.822004
O O5 0.218219 0.750000 0.634733
O O6 0.176029 0.019419 0.587685
O O7 0.161882 0.016961 0.678365
O O8 0.322426 0.008784 0.644709
O O9 0.612123 0.750000 0.950844
O O10 0.503356 0.506999 0.931500
O O11 0.610642 0.480224 0.001443
O O12 0.099195 0.750000 0.446001
O O13 0.406456 0.750000 0.329916
O O14 0.504753 0.019844 0.328905
O O15 0.378356 0.987383 0.269788
O O16 0.597384 0.750000 0.310449
O O17 0.632357 0.029208 0.267457
O O18 0.905267 0.250000 0.282087
O O19 0.005940 0.514119 0.290652
O O20 0.109629 0.250000 0.298283
#
# Coordination Sequence:
#
# PCOD9462438 Si02
#       8
#     8   8   8   8   8   8   8   8
#     4  10  19  31  48  70  94 122 158 194 230 276
#     4  10  19  31  48  69  93 123 158 193 232 279
#     4   9  18  33  51  72  99 126 152 188 236 286
#     4   9  18  32  51  74  98 124 154 190 234 284
#     4   9  19  33  46  62  89 123 155 190 229 268
#     4  10  20  33  47  65  91 124 160 196 233 271
#     4   9  18  30  44  65  93 122 151 184 224 273
#     4  10  19  31  47  69  97 126 154 187 230 277
#
# _framework density 18.867794
#
# number of rings (size 3 to 8) (size 9 to 14) (size 15 to 20)
#    0.000    2.500    0.000    2.250    0.000    6.000 
#    0.000    0.000    0.000    0.750    0.000    0.000 
#    0.000    0.000    0.000    0.000    0.000    0.375 
#
# Total GULP energy -357128.646131 kJ/mol
# GULP energy per Si atom -5580.135096 kJ/mol
# Density = 1.882485 g / cm^3
# Si number density = 18.867794 Si / 1000 Ang^3
#
#
#
# Elastic Constant Matrix: (Units=GPa)
#
#
# Indices 1 2 3 4 5 6 
#
# 1 108.3670 -2.0777 76.8704 0.0000 0.0000 0.0000
# 2 -2.0777 22.4988 -2.4335 0.0000 0.0000 0.0000
# 3 76.8704 -2.4335 85.1153 0.0000 0.0000 0.0000
# 4 0.0000 0.0000 0.0000 11.3155 0.0000 0.0000
# 5 0.0000 0.0000 0.0000 0.0000 33.5501 0.0000
# 6 0.0000 0.0000 0.0000 0.0000 0.0000 16.6508
#
#
#
# Elastic Compliance Matrix: (Units=1/GPa)
#
#
# Indices 1 2 3 4 5 6 
#
# 1 0.025679 -0.000137 -0.023196 0.000000 0.000000 0.000000
# 2 -0.000137 0.044585 0.001399 0.000000 0.000000 0.000000
# 3 -0.023196 0.001399 0.032737 0.000000 0.000000 0.000000
# 4 0.000000 0.000000 0.000000 0.088375 0.000000 0.000000
# 5 0.000000 0.000000 0.000000 0.000000 0.029806 0.000000
# 6 0.000000 0.000000 0.000000 0.000000 0.000000 0.060057
#
#
# Mechanical properties :
#
#
# Convention : Reuss Voigt Hill
#
# Bulk Modulus (GPa) = 16.91083 40.07771 28.49427
# Shear Modulus (GPa) = 14.50035 21.87807 18.18921
#
# Velocity S-wave (km/s) = 2.77523 3.40890 3.10826
# Velocity P-wave (km/s) = 4.38765 6.06479 5.29307
#
# Compressibility (1/GPa) = 0.05913369
#
# Stress axis : x y z
#
# Youngs Moduli (GPa) = 38.94220 22.42883 30.54610
#
# Poissons Ratio (x) = 0.00308 0.70853
# Poissons Ratio (y) = 0.00535 -0.04273
# Poissons Ratio (z) = 0.90329 -0.03137
#
# Static dielectric constant tensor:
#      x y z
#    x 1.676220 0.000000 0.000000 
#    y 0.000000 1.687580 0.000000 
#    z 0.000000 0.000000 1.645060 
# 
# From -- ./inp_files/32704.got.cif
#   From: 2010.05.17/outbox.cif.g08.bks.cpg/sg62_17_cif.got.tgz:32704.got - 2010.06.03 15:25:27.
