data_PCOD9462137
_publ_section_title
;
Structure prediction by ZEFSAII (Michael W. Deem and Ramdas Pophale) SiO2 
 PCOD9462137
Probable space group: P N M A
;
_chemical_formula_sum "Si O2"
_cell_formula_units_Z 56
_cell_length_a 15.881350
_cell_length_b 7.531319
_cell_length_c 20.158009
_cell_angle_alpha 90.000000
_cell_angle_beta 90.000000
_cell_angle_gamma 90.000000
_cell_volume 2411.049324
_symmetry_space_group_name_H-M "P N M A"
_symmetry_group_IT_number 62
_symmetry_cell_setting 'orthorhombic'
loop_
_space_group_symop_operation_xyz
x,y,z
1/2-x,-y,1/2+z
1/2+x,1/2-y,1/2-z
-x,1/2+y,-z
-x,-y,-z
1/2+x,y,1/2-z
1/2-x,1/2+y,1/2+z
x,1/2-y,z
loop_
_atom_site_type_symbol
_atom_site_label
_atom_site_fract_x
_atom_site_fract_y
_atom_site_fract_z
Si Si1 0.833410 0.550116 0.147692
Si Si2 0.152679 0.540794 0.135239
Si Si3 0.687007 0.542434 0.923884
Si Si4 0.097726 0.961814 0.992762
Si Si5 0.502379 0.031770 0.724566
Si Si6 0.321498 0.031394 0.927863
Si Si7 0.001092 0.463524 0.623173
O O1 0.819400 0.750000 0.173667
O O2 0.869865 0.554476 0.073051
O O3 0.741423 0.471131 0.131150
O O4 0.909960 0.470895 0.190486
O O5 0.135963 0.750000 0.132990
O O6 0.253777 0.522510 0.136813
O O7 0.082718 0.471732 0.186287
O O8 0.135026 0.469474 0.061675
O O9 0.701698 0.750000 0.927464
O O10 0.588966 0.514130 0.909457
O O11 0.704080 0.468123 0.998278
O O12 0.111714 0.750000 0.985813
O O13 0.000000 0.000000 0.000000
O O14 0.503796 0.250000 0.722087
O O15 0.499399 0.976544 0.800631
O O16 0.318213 0.250000 0.927703
O O17 0.416925 0.975667 0.913860
O O18 0.997664 0.250000 0.623719
#
# Coordination Sequence:
#
# PCOD9462137 Si02
#       7
#     8   8   8   8   8   8   8
#     4  10  18  34  56  83 114 145 183 230 280 337
#     4  10  20  35  56  85 114 144 185 230 275 333
#     4  11  22  37  57  83 111 147 187 236 290 332
#     4  11  20  31  52  83 116 148 180 225 281 333
#     4   9  19  35  58  85 113 145 184 225 273 330
#     4   9  19  34  57  83 109 143 186 231 282 330
#     4  10  21  39  59  81 109 149 193 235 276 328
#
# _framework density 23.226400000000002
#
# number of rings (size 3 to 8) (size 9 to 14) (size 15 to 20)
#    0.000    2.000    2.857    1.286    0.000    1.714 
#    0.000    7.143    0.000    0.000    0.000    0.000 
#    0.000    0.000    0.000    0.000    0.000    0.000 
#
# Total GULP energy -312499.255722 kJ/mol
# GULP energy per Si atom -5580.343852 kJ/mol
# Density = 2.317354 g / cm^3
# Si number density = 23.226400 Si / 1000 Ang^3
#
#
#
# Elastic Constant Matrix: (Units=GPa)
#
#
# Indices 1 2 3 4 5 6 
#
# 1 160.1547 -1.3172 31.0783 0.0000 0.0000 0.0000
# 2 -1.3172 67.9823 8.1483 0.0000 0.0000 0.0000
# 3 31.0783 8.1483 74.2358 0.0000 0.0000 0.0000
# 4 0.0000 0.0000 0.0000 7.6658 0.0000 0.0000
# 5 0.0000 0.0000 0.0000 0.0000 35.3318 0.0000
# 6 0.0000 0.0000 0.0000 0.0000 0.0000 -2.7864
#
#
#
# Elastic Compliance Matrix: (Units=1/GPa)
#
#
# Indices 1 2 3 4 5 6 
#
# 1 0.006811 0.000480 -0.002904 0.000000 0.000000 0.000000
# 2 0.000480 0.014940 -0.001841 0.000000 0.000000 0.000000
# 3 -0.002904 -0.001841 0.014888 0.000000 0.000000 0.000000
# 4 0.000000 0.000000 0.000000 0.130449 0.000000 0.000000
# 5 0.000000 0.000000 0.000000 0.000000 0.028303 0.000000
# 6 0.000000 0.000000 0.000000 0.000000 0.000000 -0.358882
#
#
# Mechanical properties :
#
#
# Convention : Reuss Voigt Hill
#
# Bulk Modulus (GPa) = 35.57496 42.02128 38.79812
# Shear Modulus (GPa) = -34.34305 25.67314 -4.33495
#
# Velocity S-wave (km/s) = -3.84946 3.32828 -1.36764
# Velocity P-wave (km/s) = 2.09950 5.73596 3.77448
#
# Compressibility (1/GPa) = 0.02810966
#
# Stress axis : x y z
#
# Youngs Moduli (GPa) = 146.81076 66.93599 67.16598
#
# Poissons Ratio (x) = -0.03213 0.19507
# Poissons Ratio (y) = -0.07048 0.12364
# Poissons Ratio (z) = 0.42638 0.12322
#
# Static dielectric constant tensor:
#      x y z
#    x 1.991950 0.000000 0.000000 
#    y 0.000000 1.927220 0.000000 
#    z 0.000000 0.000000 1.834400 
# 
# From -- ./inp_files/27172.got.cif
#   From: 2010.05.17/outbox.cif.g08.bks.cpg/sg62_14_cif.got.tgz:27172.got - 2010.06.03 15:25:27.
