data_PCOD9462658
_publ_section_title
;
Structure prediction by ZEFSAII (Michael W. Deem and Ramdas Pophale) SiO2 
 PCOD9462658
Probable space group: P N M A
;
_chemical_formula_sum "Si O2"
_cell_formula_units_Z 64
_cell_length_a 23.158162
_cell_length_b 12.015105
_cell_length_c 9.979687
_cell_angle_alpha 90.000000
_cell_angle_beta 90.000000
_cell_angle_gamma 90.000000
_cell_volume 2776.825434
_symmetry_space_group_name_H-M "P N M A"
_symmetry_group_IT_number 62
_symmetry_cell_setting 'orthorhombic'
loop_
_space_group_symop_operation_xyz
x,y,z
1/2-x,-y,1/2+z
1/2+x,1/2-y,1/2-z
-x,1/2+y,-z
-x,-y,-z
1/2+x,y,1/2-z
1/2-x,1/2+y,1/2+z
x,1/2-y,z
loop_
_atom_site_type_symbol
_atom_site_label
_atom_site_fract_x
_atom_site_fract_y
_atom_site_fract_z
Si Si1 0.633672 0.374149 0.028787
Si Si2 0.645925 0.552880 0.349812
Si Si3 0.992181 0.629830 0.448117
Si Si4 0.721820 0.129092 0.272057
Si Si5 0.127192 0.624170 0.456787
Si Si6 0.549952 0.125788 0.429023
Si Si7 0.954219 0.000230 0.197027
Si Si8 0.153558 0.871201 0.856093
O O1 0.644879 0.250000 0.960658
O O2 0.670230 0.366220 0.163709
O O3 0.648562 0.503311 0.984948
O O4 0.563742 0.376111 0.045229
O O5 0.704106 0.478199 0.355703
O O6 0.637032 0.610242 0.205107
O O7 0.593333 0.466907 0.373043
O O8 0.648170 0.626249 0.482975
O O9 0.986258 0.750000 0.380760
O O10 0.980356 0.540939 0.334156
O O11 0.058712 0.626046 0.490432
O O12 0.723608 0.250000 0.341937
O O13 0.781270 0.113924 0.193060
O O14 0.149314 0.750000 0.492603
O O15 0.571955 0.250000 0.412173
O O16 0.489621 0.106032 0.355410
O O17 0.539593 0.094585 0.583990
O O18 0.887903 0.034280 0.200331
O O19 0.134336 0.750000 0.807091
#
# Coordination Sequence:
#
# PCOD9462658 Si02
#       8
#     8   8   8   8   8   8   8   8
#     4   9  19  35  55  77 105 144 189 230 273 326
#     4  10  19  34  57  79 104 141 184 221 274 328
#     4  10  19  33  52  77 111 144 176 221 278 330
#     4   9  19  36  56  78 104 139 185 231 274 324
#     4  10  19  33  53  80 111 143 181 228 280 332
#     4  10  19  32  51  76 106 138 177 222 271 329
#     4  10  20  33  49  78 108 139 175 220 275 330
#     4  10  21  36  54  78 109 143 180 227 277 328
#
# _framework density 23.047899999999998
#
# number of rings (size 3 to 8) (size 9 to 14) (size 15 to 20)
#    0.000    2.250    1.250    1.875    0.000    1.500 
#    0.000    1.250    0.000   23.250    0.000    0.000 
#    0.000    0.000    0.000    0.000    0.000    0.000 
#
# Total GULP energy -356697.312013 kJ/mol
# GULP energy per Si atom -5573.395500 kJ/mol
# Density = 2.299544 g / cm^3
# Si number density = 23.047900 Si / 1000 Ang^3
#
#
#
# Elastic Constant Matrix: (Units=GPa)
#
#
# Indices 1 2 3 4 5 6 
#
# 1 63.8186 8.7297 3.4089 0.0000 0.0000 0.0000
# 2 8.7297 166.4580 20.2805 0.0000 0.0000 0.0000
# 3 3.4089 20.2805 44.0906 0.0000 0.0000 0.0000
# 4 0.0000 0.0000 0.0000 5.8367 0.0000 0.0000
# 5 0.0000 0.0000 0.0000 0.0000 26.9717 0.0000
# 6 0.0000 0.0000 0.0000 0.0000 0.0000 19.3208
#
#
#
# Elastic Compliance Matrix: (Units=1/GPa)
#
#
# Indices 1 2 3 4 5 6 
#
# 1 0.015816 -0.000721 -0.000891 0.000000 0.000000 0.000000
# 2 -0.000721 0.006397 -0.002887 0.000000 0.000000 0.000000
# 3 -0.000891 -0.002887 0.024077 0.000000 0.000000 0.000000
# 4 0.000000 0.000000 0.000000 0.171328 0.000000 0.000000
# 5 0.000000 0.000000 0.000000 0.000000 0.037076 0.000000
# 6 0.000000 0.000000 0.000000 0.000000 0.000000 0.051758
#
#
# Mechanical properties :
#
#
# Convention : Reuss Voigt Hill
#
# Bulk Modulus (GPa) = 26.81515 37.68948 32.25231
# Shear Modulus (GPa) = 15.24947 26.55573 20.90260
#
# Velocity S-wave (km/s) = 2.57503 3.39809 3.01478
# Velocity P-wave (km/s) = 4.52778 5.63774 5.11297
#
# Compressibility (1/GPa) = 0.03729235
#
# Stress axis : x y z
#
# Youngs Moduli (GPa) = 63.22864 156.32252 41.53293
#
# Poissons Ratio (x) = 0.11269 0.03701
# Poissons Ratio (y) = 0.04558 0.11989
# Poissons Ratio (z) = 0.05635 0.45126
#
# Static dielectric constant tensor:
#      x y z
#    x 1.844170 0.000000 0.000000 
#    y 0.000000 1.955070 0.000000 
#    z 0.000000 0.000000 1.876830 
# 
# From -- ./inp_files/15312.got.cif
#   From: 2010.05.17/outbox.cif.g08.bks.cpg/sg62_8_cif.got.tgz:15312.got - 2010.06.03 15:25:27.
