data_PCOD9462994
_publ_section_title
;
Structure prediction by ZEFSAII (Michael W. Deem and Ramdas Pophale) SiO2 
 PCOD9462994
Probable space group: P N M A
;
_chemical_formula_sum "Si O2"
_cell_formula_units_Z 64
_cell_length_a 14.826389
_cell_length_b 8.504686
_cell_length_c 25.525650
_cell_angle_alpha 90.000000
_cell_angle_beta 90.000000
_cell_angle_gamma 90.000000
_cell_volume 3218.625771
_symmetry_space_group_name_H-M "P N M A"
_symmetry_group_IT_number 62
_symmetry_cell_setting 'orthorhombic'
loop_
_space_group_symop_operation_xyz
x,y,z
1/2-x,-y,1/2+z
1/2+x,1/2-y,1/2-z
-x,1/2+y,-z
-x,-y,-z
1/2+x,y,1/2-z
1/2-x,1/2+y,1/2+z
x,1/2-y,z
loop_
_atom_site_type_symbol
_atom_site_label
_atom_site_fract_x
_atom_site_fract_y
_atom_site_fract_z
Si Si1 0.640126 0.566098 0.130184
Si Si2 0.282548 0.061930 0.446677
Si Si3 0.747313 0.561598 0.842586
Si Si4 0.536905 0.059512 0.604570
Si Si5 0.251405 0.436841 0.274010
Si Si6 0.853511 0.061489 0.941895
Si Si7 0.963417 0.435431 0.333368
Si Si8 0.451325 0.935015 0.278830
O O1 0.653792 0.750000 0.138569
O O2 0.694251 0.512964 0.078930
O O3 0.684056 0.475037 0.179352
O O4 0.534827 0.525063 0.130893
O O5 0.272287 0.250000 0.446857
O O6 0.306513 0.003797 0.505082
O O7 0.368820 0.016485 0.411389
O O8 0.754091 0.750000 0.848264
O O9 0.782491 0.520246 0.784300
O O10 0.798645 0.482892 0.890185
O O11 0.640813 0.519719 0.842737
O O12 0.546389 0.250000 0.602645
O O13 0.456414 0.006730 0.566476
O O14 0.510935 0.018352 0.664415
O O15 0.272185 0.250000 0.273398
O O16 0.344258 0.530261 0.282854
O O17 0.857593 0.250000 0.945681
O O18 0.972294 0.250000 0.341835
O O19 0.983740 0.473746 0.272415
O O20 0.467049 0.750000 0.270594
#
# Coordination Sequence:
#
# PCOD9462994 Si02
#       8
#     8   8   8   8   8   8   8   8
#     4  12  24  38  60  89 118 155 202 250 303 357
#     4  11  23  40  61  86 119 159 202 247 299 355
#     4   9  21  40  61  87 117 153 196 243 296 352
#     4  10  21  37  57  87 123 158 198 243 292 349
#     4  10  20  36  57  85 120 156 195 240 296 356
#     4  10  23  40  60  87 119 157 200 248 298 353
#     4  10  22  40  60  85 122 159 197 246 300 360
#     4  10  19  33  55  87 123 157 194 235 290 350
#
# _framework density 19.884264000000002
#
# number of rings (size 3 to 8) (size 9 to 14) (size 15 to 20)
#    0.000    1.750    1.250    3.750    1.750    5.000 
#    0.000    0.625    0.000    0.000    0.000    0.000 
#    0.000    0.000    0.000    0.000    0.000    0.000 
#
# Total GULP energy -357616.565483 kJ/mol
# GULP energy per Si atom -5587.758836 kJ/mol
# Density = 1.983901 g / cm^3
# Si number density = 19.884264 Si / 1000 Ang^3
#
#
#
# Elastic Constant Matrix: (Units=GPa)
#
#
# Indices 1 2 3 4 5 6 
#
# 1 16.9986 -5.3324 -2.6531 0.0000 0.0000 0.0000
# 2 -5.3324 14.5671 -1.7541 0.0000 0.0000 0.0000
# 3 -2.6531 -1.7541 56.7823 0.0000 0.0000 0.0000
# 4 0.0000 0.0000 0.0000 27.6393 0.0000 0.0000
# 5 0.0000 0.0000 0.0000 0.0000 29.7168 0.0000
# 6 0.0000 0.0000 0.0000 0.0000 0.0000 22.8922
#
#
#
# Elastic Compliance Matrix: (Units=1/GPa)
#
#
# Indices 1 2 3 4 5 6 
#
# 1 0.067319 0.025115 0.003921 0.000000 0.000000 0.000000
# 2 0.025115 0.078274 0.003591 0.000000 0.000000 0.000000
# 3 0.003921 0.003591 0.017905 0.000000 0.000000 0.000000
# 4 0.000000 0.000000 0.000000 0.036180 0.000000 0.000000
# 5 0.000000 0.000000 0.000000 0.000000 0.033651 0.000000
# 6 0.000000 0.000000 0.000000 0.000000 0.000000 0.043683
#
#
# Mechanical properties :
#
#
# Convention : Reuss Voigt Hill
#
# Bulk Modulus (GPa) = 4.37153 7.65209 6.01181
# Shear Modulus (GPa) = 17.36061 22.58883 19.97472
#
# Velocity S-wave (km/s) = 2.95800 3.37414 3.17290
# Velocity P-wave (km/s) = 3.72420 4.36308 4.05623
#
# Compressibility (1/GPa) = 0.22875291
#
# Stress axis : x y z
#
# Youngs Moduli (GPa) = 14.85467 12.77568 55.84948
#
# Poissons Ratio (x) = -0.32086 -0.21900
# Poissons Ratio (y) = -0.37307 -0.20058
# Poissons Ratio (z) = -0.05825 -0.04588
#
# Static dielectric constant tensor:
#      x y z
#    x 1.698120 0.000000 0.000000 
#    y 0.000000 1.675280 0.000000 
#    z 0.000000 0.000000 1.706490 
# 
# From -- ./inp_files/29754.got.cif
#   From: 2010.05.17/outbox.cif.g08.bks.cpg/sg62_15_cif.got.tgz:29754.got - 2010.06.03 15:25:27.
