data_PCOD9462743
_publ_section_title
;
Structure prediction by ZEFSAII (Michael W. Deem and Ramdas Pophale) SiO2 
 PCOD9462743
Probable space group: P N M A
;
_chemical_formula_sum "Si O2"
_cell_formula_units_Z 64
_cell_length_a 19.919625
_cell_length_b 8.625912
_cell_length_c 21.083818
_cell_angle_alpha 90.000000
_cell_angle_beta 90.000000
_cell_angle_gamma 90.000000
_cell_volume 3622.725601
_symmetry_space_group_name_H-M "P N M A"
_symmetry_group_IT_number 62
_symmetry_cell_setting 'orthorhombic'
loop_
_space_group_symop_operation_xyz
x,y,z
1/2-x,-y,1/2+z
1/2+x,1/2-y,1/2-z
-x,1/2+y,-z
-x,-y,-z
1/2+x,y,1/2-z
1/2-x,1/2+y,1/2+z
x,1/2-y,z
loop_
_atom_site_type_symbol
_atom_site_label
_atom_site_fract_x
_atom_site_fract_y
_atom_site_fract_z
Si Si1 0.324262 0.936704 0.113888
Si Si2 0.538083 0.564656 0.686112
Si Si3 0.965463 0.434917 0.937451
Si Si4 0.175784 0.936483 0.755459
Si Si5 0.960998 0.435281 0.691644
Si Si6 0.326359 0.437929 0.617928
Si Si7 0.463868 0.562972 0.062036
Si Si8 0.827576 0.564346 0.739522
O O1 0.325302 0.750000 0.113383
O O2 0.248464 0.985543 0.096131
O O3 0.386663 0.990561 0.071359
O O4 0.335650 0.990748 0.186187
O O5 0.534046 0.750000 0.679451
O O6 0.505769 0.487702 0.624773
O O7 0.615549 0.519168 0.698092
O O8 0.498218 0.513878 0.749020
O O9 0.965708 0.250000 0.940968
O O10 0.887958 0.485126 0.926751
O O11 0.000000 0.500000 0.000000
O O12 0.174001 0.750000 0.748059
O O13 0.250838 0.978143 0.777271
O O14 0.966664 0.250000 0.698350
O O15 0.883715 0.485882 0.696419
O O16 0.995826 0.481700 0.625799
O O17 0.327285 0.250000 0.623746
O O18 0.337641 0.507969 0.687923
O O19 0.463777 0.750000 0.059000
O O20 0.500000 0.500000 0.000000
O O21 0.834769 0.750000 0.737034
#
# Coordination Sequence:
#
# PCOD9462743 Si02
#       8
#     8   8   8   8   8   8   8   8
#     4   9  17  33  55  79 105 140 181 224 273 327
#     4  11  21  35  57  83 111 143 181 228 278 326
#     4  11  23  38  56  81 113 148 187 229 277 332
#     4   9  19  33  52  82 113 141 179 228 277 323
#     4  11  21  35  54  81 112 143 182 226 273 328
#     4   9  18  33  55  79 106 139 180 226 273 325
#     4  10  22  37  55  79 110 145 184 226 273 329
#     4  10  19  32  53  82 112 143 181 225 275 327
#
# _framework density 17.666257000000002
#
# number of rings (size 3 to 8) (size 9 to 14) (size 15 to 20)
#    0.000    2.000    2.500    1.500    0.000    3.000 
#    0.000    1.250    0.000    6.000    0.000    0.000 
#    0.000    0.000    0.000    0.000    0.000    0.000 
#
# Total GULP energy -357110.004633 kJ/mol
# GULP energy per Si atom -5579.843822 kJ/mol
# Density = 1.762605 g / cm^3
# Si number density = 17.666257 Si / 1000 Ang^3
#
#
#
# Elastic Constant Matrix: (Units=GPa)
#
#
# Indices 1 2 3 4 5 6 
#
# 1 174.7436 29.9273 79.5715 0.0000 0.0000 0.0000
# 2 29.9273 16.0231 20.1542 0.0000 0.0000 0.0000
# 3 79.5715 20.1542 107.1347 0.0000 0.0000 0.0000
# 4 0.0000 0.0000 0.0000 29.0925 0.0000 0.0000
# 5 0.0000 0.0000 0.0000 0.0000 27.9383 0.0000
# 6 0.0000 0.0000 0.0000 0.0000 0.0000 24.6177
#
#
#
# Elastic Compliance Matrix: (Units=1/GPa)
#
#
# Indices 1 2 3 4 5 6 
#
# 1 0.010272 -0.012562 -0.005266 0.000000 0.000000 0.000000
# 2 -0.012562 0.097117 -0.008940 0.000000 0.000000 0.000000
# 3 -0.005266 -0.008940 0.014927 0.000000 0.000000 0.000000
# 4 0.000000 0.000000 0.000000 0.034373 0.000000 0.000000
# 5 0.000000 0.000000 0.000000 0.000000 0.035793 0.000000
# 6 0.000000 0.000000 0.000000 0.000000 0.000000 0.040621
#
#
# Mechanical properties :
#
#
# Convention : Reuss Voigt Hill
#
# Bulk Modulus (GPa) = 14.53898 61.91193 38.22545
# Shear Modulus (GPa) = 16.15167 27.54627 21.84897
#
# Velocity S-wave (km/s) = 3.02696 3.95303 3.52058
# Velocity P-wave (km/s) = 4.52375 7.48042 6.18146
#
# Compressibility (1/GPa) = 0.06878060
#
# Stress axis : x y z
#
# Youngs Moduli (GPa) = 97.35136 10.29688 66.99226
#
# Poissons Ratio (x) = 0.12935 0.35279
# Poissons Ratio (y) = 1.22291 0.59889
# Poissons Ratio (z) = 0.51267 0.09205
#
# Static dielectric constant tensor:
#      x y z
#    x 1.650970 0.000000 0.000000 
#    y 0.000000 1.601330 0.000000 
#    z 0.000000 0.000000 1.550670 
# 
# From -- ./inp_files/24714.got.cif
#   From: 2010.05.17/outbox.cif.g08.bks.cpg/sg62_13_cif.got.tgz:24714.got - 2010.06.03 15:25:27.
