data_PCOD9462910
_publ_section_title
;
Structure prediction by ZEFSAII (Michael W. Deem and Ramdas Pophale) SiO2 
 PCOD9462910
Probable space group: P N M A
;
_chemical_formula_sum "Si O2"
_cell_formula_units_Z 40
_cell_length_a 5.021763
_cell_length_b 21.765146
_cell_length_c 20.295683
_cell_angle_alpha 90.000000
_cell_angle_beta 90.000000
_cell_angle_gamma 90.000000
_cell_volume 2218.306073
_symmetry_space_group_name_H-M "P N M A"
_symmetry_group_IT_number 62
_symmetry_cell_setting 'orthorhombic'
loop_
_space_group_symop_operation_xyz
x,y,z
1/2-x,-y,1/2+z
1/2+x,1/2-y,1/2-z
-x,1/2+y,-z
-x,-y,-z
1/2+x,y,1/2-z
1/2-x,1/2+y,1/2+z
x,1/2-y,z
loop_
_atom_site_type_symbol
_atom_site_label
_atom_site_fract_x
_atom_site_fract_y
_atom_site_fract_z
Si Si1 0.489756 0.059587 0.290789
Si Si2 0.498109 0.820635 0.629022
Si Si3 0.765387 0.014720 0.912367
Si Si4 0.735790 0.573250 0.040639
Si Si5 0.486129 0.679674 0.961586
O O1 0.187649 0.047310 0.270038
O O2 0.500357 0.130863 0.312519
O O3 0.608420 0.020731 0.351135
O O4 0.564351 0.750000 0.647305
O O5 0.209713 0.821084 0.595387
O O6 0.712665 0.841210 0.573307
O O7 0.467680 0.040564 0.908942
O O8 0.968348 0.069694 0.930882
O O9 0.751993 0.967265 0.973664
O O10 0.603394 0.636672 0.018270
O O11 0.449145 0.750000 0.983625
#
# Coordination Sequence:
#
# PCOD9462910 Si02
#       5
#     8   8   8   8   8
#     4  12  24  36  52  71 105 142 184 222 247 298
#     4  10  21  35  50  71 103 140 183 218 247 291
#     4  10  21  33  51  78 100 133 176 210 268 307
#     4  10  19  33  56  75 103 130 166 220 260 330
#     4  10  19  33  54  78 105 133 167 214 265 309
#
# _framework density 18.031777999999999
#
# number of rings (size 3 to 8) (size 9 to 14) (size 15 to 20)
#    0.000    1.600    2.000    3.600    5.600    0.800 
#    0.000    0.000    0.000    0.000    0.000    0.000 
#    0.000   16.000    0.000    0.000    0.000    0.000 
#
# Total GULP energy -223225.059462 kJ/mol
# GULP energy per Si atom -5580.626487 kJ/mol
# Density = 1.799074 g / cm^3
# Si number density = 18.031778 Si / 1000 Ang^3
#
#
#
# Elastic Constant Matrix: (Units=GPa)
#
#
# Indices 1 2 3 4 5 6 
#
# 1 67.1398 13.4182 9.5909 0.0000 0.0000 0.0000
# 2 13.4182 45.3320 23.7669 0.0000 0.0000 0.0000
# 3 9.5909 23.7669 40.8253 0.0000 0.0000 0.0000
# 4 0.0000 0.0000 0.0000 28.7078 0.0000 0.0000
# 5 0.0000 0.0000 0.0000 0.0000 25.7230 0.0000
# 6 0.0000 0.0000 0.0000 0.0000 0.0000 20.1630
#
#
#
# Elastic Compliance Matrix: (Units=1/GPa)
#
#
# Indices 1 2 3 4 5 6 
#
# 1 0.015889 -0.003952 -0.001432 0.000000 0.000000 0.000000
# 2 -0.003952 0.032733 -0.018128 0.000000 0.000000 0.000000
# 3 -0.001432 -0.018128 0.035384 0.000000 0.000000 0.000000
# 4 0.000000 0.000000 0.000000 0.034834 0.000000 0.000000
# 5 0.000000 0.000000 0.000000 0.000000 0.038876 0.000000
# 6 0.000000 0.000000 0.000000 0.000000 0.000000 0.049596
#
#
# Mechanical properties :
#
#
# Convention : Reuss Voigt Hill
#
# Bulk Modulus (GPa) = 27.03960 27.42769 27.23365
# Shear Modulus (GPa) = 18.75028 22.02016 20.38522
#
# Velocity S-wave (km/s) = 3.22816 3.49834 3.36596
# Velocity P-wave (km/s) = 5.37799 5.61797 5.49929
#
# Compressibility (1/GPa) = 0.03698280
#
# Stress axis : x y z
#
# Youngs Moduli (GPa) = 62.93773 30.54978 28.26122
#
# Poissons Ratio (x) = 0.12075 0.04046
# Poissons Ratio (y) = 0.24876 0.51231
# Poissons Ratio (z) = 0.09011 0.55380
#
# Static dielectric constant tensor:
#      x y z
#    x 1.622500 0.000000 0.000000 
#    y 0.000000 1.647450 0.000000 
#    z 0.000000 0.000000 1.608430 
# 
# From -- ./inp_files/21547.got.cif
#   From: 2010.05.17/outbox.cif.g08.bks.cpg/sg62_11_cif.got.tgz:21547.got - 2010.06.03 15:25:27.
