data_PCOD9462136
_publ_section_title
;
Structure prediction by ZEFSAII (Michael W. Deem and Ramdas Pophale) SiO2 
 PCOD9462136
Probable space group: P N M A
;
_chemical_formula_sum "Si O2"
_cell_formula_units_Z 36
_cell_length_a 12.399518
_cell_length_b 13.563309
_cell_length_c 11.180733
_cell_angle_alpha 90.000000
_cell_angle_beta 90.000000
_cell_angle_gamma 90.000000
_cell_volume 1880.358839
_symmetry_space_group_name_H-M "P N M A"
_symmetry_group_IT_number 62
_symmetry_cell_setting 'orthorhombic'
loop_
_space_group_symop_operation_xyz
x,y,z
1/2-x,-y,1/2+z
1/2+x,1/2-y,1/2-z
-x,1/2+y,-z
-x,-y,-z
1/2+x,y,1/2-z
1/2-x,1/2+y,1/2+z
x,1/2-y,z
loop_
_atom_site_type_symbol
_atom_site_label
_atom_site_fract_x
_atom_site_fract_y
_atom_site_fract_z
Si Si1 0.010255 0.750000 0.284380
Si Si2 0.402578 0.946715 0.567260
Si Si3 0.957250 0.033245 0.694528
Si Si4 0.649472 0.250000 0.576153
Si Si5 0.118795 0.750000 0.516393
Si Si6 0.155947 0.530631 0.559647
O O1 0.901189 0.750000 0.207413
O O2 0.063056 0.643509 0.254964
O O3 0.014278 0.750000 0.430181
O O4 0.388593 0.843601 0.500199
O O5 0.282035 0.992185 0.562713
O O6 0.500000 0.000000 0.500000
O O7 0.433530 0.951781 0.706440
O O8 0.887793 0.016498 0.575134
O O9 0.081361 0.029038 0.650914
O O10 0.778747 0.250000 0.573976
O O11 0.132393 0.647386 0.585544
#
# Coordination Sequence:
#
# PCOD9462136 Si02
#       6
#     4   8   8   4   4   8
#     4  10  18  34  56  82 110 143 192 231 277 328
#     4  11  22  36  59  81 115 147 188 237 283 335
#     4  10  21  37  60  83 114 151 187 235 284 340
#     4  10  20  37  51  85 110 148 194 226 285 332
#     4   8  18  35  57  75 114 151 182 235 276 334
#     4   9  21  38  58  85 111 150 191 228 288 338
#
# _framework density 19.145282999999999
#
# number of rings (size 3 to 8) (size 9 to 14) (size 15 to 20)
#    0.000    2.222    2.222    0.000    3.111    2.667 
#    0.000    1.111    0.000    0.000    0.000    0.000 
#    0.000    0.000    0.000    0.000    0.000    0.000 
#
# Total GULP energy -200435.251069 kJ/mol
# GULP energy per Si atom -5567.645863 kJ/mol
# Density = 1.910171 g / cm^3
# Si number density = 19.145283 Si / 1000 Ang^3
#
#
#
# Elastic Constant Matrix: (Units=GPa)
#
#
# Indices 1 2 3 4 5 6 
#
# 1 135.2694 30.7481 51.1083 0.0000 0.0000 0.0000
# 2 30.7481 64.1310 19.1700 0.0000 0.0000 0.0000
# 3 51.1083 19.1700 67.3263 0.0000 0.0000 0.0000
# 4 0.0000 0.0000 0.0000 17.1892 0.0000 0.0000
# 5 0.0000 0.0000 0.0000 0.0000 22.1658 0.0000
# 6 0.0000 0.0000 0.0000 0.0000 0.0000 24.9379
#
#
#
# Elastic Compliance Matrix: (Units=1/GPa)
#
#
# Indices 1 2 3 4 5 6 
#
# 1 0.010869 -0.003000 -0.007397 0.000000 0.000000 0.000000
# 2 -0.003000 0.017872 -0.002811 0.000000 0.000000 0.000000
# 3 -0.007397 -0.002811 0.021268 0.000000 0.000000 0.000000
# 4 0.000000 0.000000 0.000000 0.058176 0.000000 0.000000
# 5 0.000000 0.000000 0.000000 0.000000 0.045115 0.000000
# 6 0.000000 0.000000 0.000000 0.000000 0.000000 0.040100
#
#
# Mechanical properties :
#
#
# Convention : Reuss Voigt Hill
#
# Bulk Modulus (GPa) = 42.38503 52.08661 47.23582
# Shear Modulus (GPa) = 21.96055 23.90526 22.93291
#
# Velocity S-wave (km/s) = 3.39048 3.53742 3.46473
# Velocity P-wave (km/s) = 6.12486 6.62944 6.38214
#
# Compressibility (1/GPa) = 0.02359324
#
# Stress axis : x y z
#
# Youngs Moduli (GPa) = 92.00176 55.95370 47.01801
#
# Poissons Ratio (x) = 0.16788 0.34778
# Poissons Ratio (y) = 0.27604 0.13217
# Poissons Ratio (z) = 0.68052 0.15729
#
# Static dielectric constant tensor:
#      x y z
#    x 1.687690 0.000000 0.000000 
#    y 0.000000 1.684190 0.000000 
#    z 0.000000 0.000000 1.656990 
# 
# From -- ./inp_files/11892.got.cif
#   From: 2010.05.17/outbox.cif.g08.bks.cpg/sg62_6_cif.got.tgz:11892.got - 2010.06.03 15:25:27.
