data_PCOD9462685
_publ_section_title
;
Structure prediction by ZEFSAII (Michael W. Deem and Ramdas Pophale) SiO2 
 PCOD9462685
Probable space group: P N M A
;
_chemical_formula_sum "Si O2"
_cell_formula_units_Z 48
_cell_length_a 5.120376
_cell_length_b 18.448457
_cell_length_c 28.672495
_cell_angle_alpha 90.000000
_cell_angle_beta 90.000000
_cell_angle_gamma 90.000000
_cell_volume 2708.490941
_symmetry_space_group_name_H-M "P N M A"
_symmetry_group_IT_number 62
_symmetry_cell_setting 'orthorhombic'
loop_
_space_group_symop_operation_xyz
x,y,z
1/2-x,-y,1/2+z
1/2+x,1/2-y,1/2-z
-x,1/2+y,-z
-x,-y,-z
1/2+x,y,1/2-z
1/2-x,1/2+y,1/2+z
x,1/2-y,z
loop_
_atom_site_type_symbol
_atom_site_label
_atom_site_fract_x
_atom_site_fract_y
_atom_site_fract_z
Si Si1 0.987963 0.624029 0.151548
Si Si2 0.973576 0.250000 0.778686
Si Si3 0.966778 0.066964 0.534848
Si Si4 0.525559 0.665339 0.455306
Si Si5 0.443834 0.590694 0.783709
Si Si6 0.142961 0.250000 0.279846
Si Si7 0.493535 0.965406 0.142926
O O1 0.076116 0.679678 0.190416
O O2 0.996066 0.661737 0.100969
O O3 0.195207 0.558837 0.149908
O O4 0.697289 0.595363 0.160585
O O5 0.774214 0.250000 0.736265
O O6 0.710289 0.115545 0.525954
O O7 0.955654 0.033657 0.587337
O O8 0.208086 0.123100 0.533049
O O9 0.000000 0.000000 0.500000
O O10 0.521346 0.750000 0.469527
O O11 0.698471 0.580985 0.751139
O O12 0.424984 0.673336 0.802544
O O13 0.449609 0.536031 0.826727
O O14 0.446623 0.250000 0.265034
#
# Coordination Sequence:
#
# PCOD9462685 Si02
#       7
#     8   4   8   8   8   4   8
#     4  10  21  36  49  74 103 137 188 216 257 318
#     4  12  24  34  48  70 108 150 178 230 274 298
#     4  10  21  36  57  86 111 142 180 230 277 329
#     4  10  19  36  61  79 104 144 187 224 262 326
#     4  10  19  32  52  76 102 135 176 217 256 316
#     4   8  16  30  48  70  92 124 166 204 252 306
#     4  10  21  34  55  77 104 143 172 221 270 312
#
# _framework density 17.722045999999999
#
# number of rings (size 3 to 8) (size 9 to 14) (size 15 to 20)
#    0.000    2.000    0.833    3.000    0.000    4.000 
#    0.000    0.000    3.667    0.000    4.333    0.000 
#    0.000    0.000    0.000    0.000    0.000    0.000 
#
# Total GULP energy -267666.237745 kJ/mol
# GULP energy per Si atom -5576.379953 kJ/mol
# Density = 1.768171 g / cm^3
# Si number density = 17.722046 Si / 1000 Ang^3
#
#
#
# Elastic Constant Matrix: (Units=GPa)
#
#
# Indices 1 2 3 4 5 6 
#
# 1 84.2819 6.4050 1.0060 0.0000 0.0000 0.0000
# 2 6.4050 111.9678 44.8614 0.0000 0.0000 0.0000
# 3 1.0060 44.8614 40.5760 0.0000 0.0000 0.0000
# 4 0.0000 0.0000 0.0000 22.8347 0.0000 0.0000
# 5 0.0000 0.0000 0.0000 0.0000 13.7616 0.0000
# 6 0.0000 0.0000 0.0000 0.0000 0.0000 12.9202
#
#
#
# Elastic Compliance Matrix: (Units=1/GPa)
#
#
# Indices 1 2 3 4 5 6 
#
# 1 0.011932 -0.001013 0.000824 0.000000 0.000000 0.000000
# 2 -0.001013 0.016120 -0.017797 0.000000 0.000000 0.000000
# 3 0.000824 -0.017797 0.044301 0.000000 0.000000 0.000000
# 4 0.000000 0.000000 0.000000 0.043793 0.000000 0.000000
# 5 0.000000 0.000000 0.000000 0.000000 0.072666 0.000000
# 6 0.000000 0.000000 0.000000 0.000000 0.000000 0.077398
#
#
# Mechanical properties :
#
#
# Convention : Reuss Voigt Hill
#
# Bulk Modulus (GPa) = 27.48670 37.93006 32.70838
# Shear Modulus (GPa) = 15.90792 22.20687 19.05740
#
# Velocity S-wave (km/s) = 2.99931 3.54371 3.28281
# Velocity P-wave (km/s) = 5.24767 6.18005 5.73284
#
# Compressibility (1/GPa) = 0.03638124
#
# Stress axis : x y z
#
# Youngs Moduli (GPa) = 83.80784 62.03590 22.57267
#
# Poissons Ratio (x) = 0.06282 -0.01859
# Poissons Ratio (y) = 0.08486 0.40173
# Poissons Ratio (z) = -0.06903 1.10406
#
# Static dielectric constant tensor:
#      x y z
#    x 1.618150 0.000000 0.000000 
#    y 0.000000 1.600030 0.000000 
#    z 0.000000 0.000000 1.576040 
# 
# From -- ./inp_files/30433.got.cif
#   From: 2010.05.17/outbox.cif.g08.bks.cpg/sg62_16_cif.got.tgz:30433.got - 2010.06.03 15:25:27.
