data_PCOD9462076
_publ_section_title
;
Structure prediction by ZEFSAII (Michael W. Deem and Ramdas Pophale) SiO2 
 PCOD9462076
Probable space group: P N M A
;
_chemical_formula_sum "Si O2"
_cell_formula_units_Z 56
_cell_length_a 17.986258
_cell_length_b 7.585335
_cell_length_c 19.365008
_cell_angle_alpha 90.000000
_cell_angle_beta 90.000000
_cell_angle_gamma 90.000000
_cell_volume 2642.002750
_symmetry_space_group_name_H-M "P N M A"
_symmetry_group_IT_number 62
_symmetry_cell_setting 'orthorhombic'
loop_
_space_group_symop_operation_xyz
x,y,z
1/2-x,-y,1/2+z
1/2+x,1/2-y,1/2-z
-x,1/2+y,-z
-x,-y,-z
1/2+x,y,1/2-z
1/2-x,1/2+y,1/2+z
x,1/2-y,z
loop_
_atom_site_type_symbol
_atom_site_label
_atom_site_fract_x
_atom_site_fract_y
_atom_site_fract_z
Si Si1 0.434540 0.455151 0.095554
Si Si2 0.471925 0.038183 0.577632
Si Si3 0.694428 0.539360 0.395711
Si Si4 0.618280 0.466536 0.650403
Si Si5 0.683904 0.452685 0.793502
Si Si6 0.254401 0.537976 0.452571
Si Si7 0.907536 0.036750 0.561732
O O1 0.413764 0.250000 0.096540
O O2 0.383163 0.546260 0.151431
O O3 0.522950 0.472871 0.106291
O O4 0.420476 0.522548 0.017711
O O5 0.468214 0.250000 0.582867
O O6 0.389211 0.969236 0.593690
O O7 0.535478 0.975428 0.630437
O O8 0.500000 0.000000 0.500000
O O9 0.689078 0.750000 0.385961
O O10 0.744622 0.468389 0.332847
O O11 0.737804 0.510876 0.467496
O O12 0.616556 0.250000 0.651544
O O13 0.651891 0.529886 0.722776
O O14 0.674420 0.523315 0.589948
O O15 0.703516 0.250000 0.777012
O O16 0.254341 0.750000 0.449661
O O17 0.175823 0.478989 0.420786
O O18 0.910463 0.250000 0.562705
#
# Coordination Sequence:
#
# PCOD9462076 Si02
#       7
#     8   8   8   8   8   8   8
#     4  10  19  32  52  76 103 137 177 217 264 317
#     4  10  19  34  56  82 107 137 178 225 272 321
#     4  10  20  32  53  82 108 137 176 222 274 323
#     4   9  19  35  55  78 106 141 180 223 268 320
#     4  10  20  36  53  75 109 146 180 220 275 329
#     4  10  18  33  56  80 104 137 180 221 262 318
#     4   9  18  31  50  78 104 132 174 219 264 312
#
# _framework density 21.196043
#
# number of rings (size 3 to 8) (size 9 to 14) (size 15 to 20)
#    0.000    2.286    2.857    0.429    0.000    1.143 
#    2.571    1.429    0.000    0.000    0.000    0.000 
#    0.000    0.000    0.000    0.000    0.000    0.000 
#
# Total GULP energy -312501.669993 kJ/mol
# GULP energy per Si atom -5580.386964 kJ/mol
# Density = 2.114780 g / cm^3
# Si number density = 21.196043 Si / 1000 Ang^3
#
#
#
# Elastic Constant Matrix: (Units=GPa)
#
#
# Indices 1 2 3 4 5 6 
#
# 1 170.3102 0.4011 46.4923 0.0000 0.0000 0.0000
# 2 0.4011 46.6277 -4.1925 0.0000 0.0000 0.0000
# 3 46.4923 -4.1925 90.9149 0.0000 0.0000 0.0000
# 4 0.0000 0.0000 0.0000 13.1956 0.0000 0.0000
# 5 0.0000 0.0000 0.0000 0.0000 31.0221 0.0000
# 6 0.0000 0.0000 0.0000 0.0000 0.0000 10.6294
#
#
#
# Elastic Compliance Matrix: (Units=1/GPa)
#
#
# Indices 1 2 3 4 5 6 
#
# 1 0.006831 -0.000374 -0.003510 0.000000 0.000000 0.000000
# 2 -0.000374 0.021556 0.001186 0.000000 0.000000 0.000000
# 3 -0.003510 0.001186 0.012849 0.000000 0.000000 0.000000
# 4 0.000000 0.000000 0.000000 0.075783 0.000000 0.000000
# 5 0.000000 0.000000 0.000000 0.000000 0.032235 0.000000
# 6 0.000000 0.000000 0.000000 0.000000 0.000000 0.094079
#
#
# Mechanical properties :
#
#
# Convention : Reuss Voigt Hill
#
# Bulk Modulus (GPa) = 27.90360 43.69493 35.79927
# Shear Modulus (GPa) = 19.18077 28.64619 23.91348
#
# Velocity S-wave (km/s) = 3.01146 3.68025 3.36252
# Velocity P-wave (km/s) = 5.02841 6.22241 5.65700
#
# Compressibility (1/GPa) = 0.03583767
#
# Stress axis : x y z
#
# Youngs Moduli (GPa) = 146.39536 46.39012 77.82624
#
# Poissons Ratio (x) = 0.01737 0.27320
# Poissons Ratio (y) = 0.05481 -0.09226
# Poissons Ratio (z) = 0.51391 -0.05500
#
# Static dielectric constant tensor:
#      x y z
#    x 1.795220 0.000000 0.000000 
#    y 0.000000 1.799020 0.000000 
#    z 0.000000 0.000000 1.726050 
# 
# From -- ./inp_files/27582.got.cif
#   From: 2010.05.17/outbox.cif.g08.bks.cpg/sg62_14_cif.got.tgz:27582.got - 2010.06.03 15:25:27.
