data_PCOD9462965
_publ_section_title
;
Structure prediction by ZEFSAII (Michael W. Deem and Ramdas Pophale) SiO2 
 PCOD9462965
Probable space group: P N M A
;
_chemical_formula_sum "Si O2"
_cell_formula_units_Z 48
_cell_length_a 10.043347
_cell_length_b 12.339281
_cell_length_c 23.068220
_cell_angle_alpha 90.000000
_cell_angle_beta 90.000000
_cell_angle_gamma 90.000000
_cell_volume 2858.791005
_symmetry_space_group_name_H-M "P N M A"
_symmetry_group_IT_number 62
_symmetry_cell_setting 'orthorhombic'
loop_
_space_group_symop_operation_xyz
x,y,z
1/2-x,-y,1/2+z
1/2+x,1/2-y,1/2-z
-x,1/2+y,-z
-x,-y,-z
1/2+x,y,1/2-z
1/2-x,1/2+y,1/2+z
x,1/2-y,z
loop_
_atom_site_type_symbol
_atom_site_label
_atom_site_fract_x
_atom_site_fract_y
_atom_site_fract_z
Si Si1 0.219525 0.379659 0.690059
Si Si2 0.119950 0.493912 0.573645
Si Si3 0.861392 0.626072 0.966865
Si Si4 0.137761 0.121725 0.451667
Si Si5 0.968206 0.620110 0.200816
Si Si6 0.395462 0.506575 0.417044
O O1 0.213273 0.250000 0.680300
O O2 0.172523 0.439941 0.632116
O O3 0.373791 0.405455 0.705323
O O4 0.117973 0.405620 0.742194
O O5 0.216900 0.591401 0.554858
O O6 0.128258 0.408846 0.520174
O O7 0.974381 0.546201 0.577651
O O8 0.891472 0.750000 0.955503
O O9 0.966317 0.549464 0.934658
O O10 0.870512 0.599565 0.035054
O O11 0.119346 0.250000 0.443481
O O12 0.279066 0.080735 0.427336
O O13 0.957877 0.750000 0.191211
O O14 0.907740 0.556784 0.146197
#
# Coordination Sequence:
#
# PCOD9462965 Si02
#       6
#     8   8   8   8   8   8
#     4  10  21  37  58  82 109 142 179 224 274 321
#     4  10  20  36  56  81 111 146 180 221 274 320
#     4  10  19  33  55  81 108 140 180 221 269 324
#     4  10  21  35  55  83 114 145 179 221 270 326
#     4  10  21  37  57  82 110 141 179 224 273 323
#     4  10  20  34  54  83 110 141 176 222 274 317
#
# _framework density 16.790315
#
# number of rings (size 3 to 8) (size 9 to 14) (size 15 to 20)
#    0.000    2.000    1.667    2.000    2.333    0.000 
#    0.000    1.667    0.000    6.000    0.000    0.000 
#    0.000    0.000    0.000    0.000    0.000    0.000 
#
# Total GULP energy -267771.439159 kJ/mol
# GULP energy per Si atom -5578.571649 kJ/mol
# Density = 1.675210 g / cm^3
# Si number density = 16.790315 Si / 1000 Ang^3
#
#
#
# Elastic Constant Matrix: (Units=GPa)
#
#
# Indices 1 2 3 4 5 6 
#
# 1 65.6367 3.6501 25.7537 0.0000 0.0000 0.0000
# 2 3.6501 45.2976 36.1429 0.0000 0.0000 0.0000
# 3 25.7537 36.1429 104.0856 0.0000 0.0000 0.0000
# 4 0.0000 0.0000 0.0000 12.4489 0.0000 0.0000
# 5 0.0000 0.0000 0.0000 0.0000 21.0430 0.0000
# 6 0.0000 0.0000 0.0000 0.0000 0.0000 7.5819
#
#
#
# Elastic Compliance Matrix: (Units=1/GPa)
#
#
# Indices 1 2 3 4 5 6 
#
# 1 0.017121 0.002767 -0.005197 0.000000 0.000000 0.000000
# 2 0.002767 0.030984 -0.011444 0.000000 0.000000 0.000000
# 3 -0.005197 -0.011444 0.014867 0.000000 0.000000 0.000000
# 4 0.000000 0.000000 0.000000 0.080328 0.000000 0.000000
# 5 0.000000 0.000000 0.000000 0.000000 0.047522 0.000000
# 6 0.000000 0.000000 0.000000 0.000000 0.000000 0.131893
#
#
# Mechanical properties :
#
#
# Convention : Reuss Voigt Hill
#
# Bulk Modulus (GPa) = 28.38917 38.45706 33.42312
# Shear Modulus (GPa) = 13.80439 18.17965 15.99202
#
# Velocity S-wave (km/s) = 2.87045 3.29408 3.08954
# Velocity P-wave (km/s) = 5.28496 6.11735 5.71633
#
# Compressibility (1/GPa) = 0.03522469
#
# Stress axis : x y z
#
# Youngs Moduli (GPa) = 58.40915 32.27458 67.26276
#
# Poissons Ratio (x) = -0.08931 0.34956
# Poissons Ratio (y) = -0.16162 0.76973
# Poissons Ratio (z) = 0.30355 0.36934
#
# Static dielectric constant tensor:
#      x y z
#    x 1.568620 0.000000 0.000000 
#    y 0.000000 1.528890 0.000000 
#    z 0.000000 0.000000 1.538760 
# 
# From -- ./inp_files/28782.got.cif
#   From: 2010.05.17/outbox.cif.g08.bks.cpg/sg62_15_cif.got.tgz:28782.got - 2010.06.03 15:25:27.
