data_PCOD9462889
_publ_section_title
;
Structure prediction by ZEFSAII (Michael W. Deem and Ramdas Pophale) SiO2 
 PCOD9462889
Probable space group: P N M A
;
_chemical_formula_sum "Si O2"
_cell_formula_units_Z 64
_cell_length_a 25.165462
_cell_length_b 7.556150
_cell_length_c 14.912088
_cell_angle_alpha 90.000000
_cell_angle_beta 90.000000
_cell_angle_gamma 90.000000
_cell_volume 2835.593266
_symmetry_space_group_name_H-M "P N M A"
_symmetry_group_IT_number 62
_symmetry_cell_setting 'orthorhombic'
loop_
_space_group_symop_operation_xyz
x,y,z
1/2-x,-y,1/2+z
1/2+x,1/2-y,1/2-z
-x,1/2+y,-z
-x,-y,-z
1/2+x,y,1/2-z
1/2-x,1/2+y,1/2+z
x,1/2-y,z
loop_
_atom_site_type_symbol
_atom_site_label
_atom_site_fract_x
_atom_site_fract_y
_atom_site_fract_z
Si Si1 0.806086 0.535834 0.799073
Si Si2 0.830181 0.039123 0.006204
Si Si3 0.938532 0.963293 0.474491
Si Si4 0.591741 0.036158 0.773814
Si Si5 0.294485 0.457009 0.308623
Si Si6 0.388691 0.953180 0.850635
Si Si7 0.522204 0.535226 0.275672
Si Si8 0.442212 0.038461 0.536948
O O1 0.809038 0.750000 0.800715
O O2 0.813114 0.484515 0.903060
O O3 0.750092 0.471306 0.758417
O O4 0.850285 0.470885 0.726622
O O5 0.832067 0.250000 0.020848
O O6 0.890603 0.967423 0.012752
O O7 0.796285 0.967879 0.089905
O O8 0.934330 0.750000 0.474124
O O9 0.921132 0.022953 0.375514
O O10 0.897977 0.032468 0.550960
O O11 0.000000 0.000000 0.500000
O O12 0.594026 0.250000 0.773468
O O13 0.539226 0.982595 0.718183
O O14 0.646854 0.971629 0.733315
O O15 0.280734 0.250000 0.316090
O O16 0.371327 0.750000 0.862716
O O17 0.447893 0.960290 0.809666
O O18 0.523785 0.750000 0.270134
O O19 0.555470 0.473604 0.361125
O O20 0.436861 0.250000 0.540009
O O21 0.500000 0.000000 0.500000
#
# Coordination Sequence:
#
# PCOD9462889 Si02
#       8
#     8   8   8   8   8   8   8   8
#     4  10  22  40  60  84 115 150 193 242 287 336
#     4  10  21  39  62  86 113 150 193 236 285 342
#     4  10  20  34  55  84 117 154 193 233 284 343
#     4  10  21  36  56  84 118 155 193 238 289 344
#     4  10  23  41  60  85 117 151 191 241 289 339
#     4  10  20  34  55  82 110 147 191 233 282 337
#     4  10  19  33  53  80 114 145 183 235 283 335
#     4  10  20  32  51  81 114 147 187 230 282 342
#
# _framework density 22.570232000000001
#
# number of rings (size 3 to 8) (size 9 to 14) (size 15 to 20)
#    0.000    2.000    2.500    0.750    0.000    4.000 
#    0.000    2.500    0.000    0.000    0.000    0.000 
#    0.000    0.000    0.000    0.000    0.000    0.000 
#
# Total GULP energy -357168.224960 kJ/mol
# GULP energy per Si atom -5580.753515 kJ/mol
# Density = 2.251886 g / cm^3
# Si number density = 22.570232 Si / 1000 Ang^3
#
#
#
# Elastic Constant Matrix: (Units=GPa)
#
#
# Indices 1 2 3 4 5 6 
#
# 1 104.8099 -8.5798 39.9590 0.0000 0.0000 0.0000
# 2 -8.5798 49.5121 -3.6817 0.0000 0.0000 0.0000
# 3 39.9590 -3.6817 124.5912 0.0000 0.0000 0.0000
# 4 0.0000 0.0000 0.0000 12.3045 0.0000 0.0000
# 5 0.0000 0.0000 0.0000 0.0000 35.6441 0.0000
# 6 0.0000 0.0000 0.0000 0.0000 0.0000 11.3913
#
#
#
# Elastic Compliance Matrix: (Units=1/GPa)
#
#
# Indices 1 2 3 4 5 6 
#
# 1 0.011003 0.001648 -0.003480 0.000000 0.000000 0.000000
# 2 0.001648 0.020488 0.000077 0.000000 0.000000 0.000000
# 3 -0.003480 0.000077 0.009145 0.000000 0.000000 0.000000
# 4 0.000000 0.000000 0.000000 0.081271 0.000000 0.000000
# 5 0.000000 0.000000 0.000000 0.000000 0.028055 0.000000
# 6 0.000000 0.000000 0.000000 0.000000 0.000000 0.087786
#
#
# Mechanical properties :
#
#
# Convention : Reuss Voigt Hill
#
# Bulk Modulus (GPa) = 26.93596 37.14537 32.04066
# Shear Modulus (GPa) = 19.71347 28.61571 24.16459
#
# Velocity S-wave (km/s) = 2.95859 3.56455 3.27561
# Velocity P-wave (km/s) = 4.86119 5.78228 5.34163
#
# Compressibility (1/GPa) = 0.03712510
#
# Stress axis : x y z
#
# Youngs Moduli (GPa) = 90.88610 48.80825 109.35326
#
# Poissons Ratio (x) = -0.08043 0.38056
# Poissons Ratio (y) = -0.14977 -0.00841
# Poissons Ratio (z) = 0.31630 -0.00375
#
# Static dielectric constant tensor:
#      x y z
#    x 2.587440 0.000000 0.000000 
#    y 0.000000 1.849720 0.000000 
#    z 0.000000 0.000000 1.895630 
# 
# From -- ./inp_files/20999.got.cif
#   From: 2010.05.17/outbox.cif.g08.bks.cpg/sg62_11_cif.got.tgz:20999.got - 2010.06.03 15:25:27.
