data_PCOD9462822
_publ_section_title
;
Structure prediction by ZEFSAII (Michael W. Deem and Ramdas Pophale) SiO2 
 PCOD9462822
Probable space group: P N M A
;
_chemical_formula_sum "Si O2"
_cell_formula_units_Z 64
_cell_length_a 31.290973
_cell_length_b 7.716639
_cell_length_c 14.973690
_cell_angle_alpha 90.000000
_cell_angle_beta 90.000000
_cell_angle_gamma 90.000000
_cell_volume 3615.564296
_symmetry_space_group_name_H-M "P N M A"
_symmetry_group_IT_number 62
_symmetry_cell_setting 'orthorhombic'
loop_
_space_group_symop_operation_xyz
x,y,z
1/2-x,-y,1/2+z
1/2+x,1/2-y,1/2-z
-x,1/2+y,-z
-x,-y,-z
1/2+x,y,1/2-z
1/2-x,1/2+y,1/2+z
x,1/2-y,z
loop_
_atom_site_type_symbol
_atom_site_label
_atom_site_fract_x
_atom_site_fract_y
_atom_site_fract_z
Si Si1 0.454549 0.542203 0.391069
Si Si2 0.826112 0.544918 0.010614
Si Si3 0.636103 0.553578 0.327669
Si Si4 0.272544 0.959870 0.973405
Si Si5 0.779362 0.548680 0.727709
Si Si6 0.303975 0.954757 0.159120
Si Si7 0.630370 0.461922 0.696073
Si Si8 0.550609 0.959910 0.401773
O O1 0.456132 0.750000 0.382203
O O2 0.417933 0.478578 0.323779
O O3 0.441914 0.506050 0.494141
O O4 0.502900 0.476668 0.378592
O O5 0.834558 0.750000 0.998837
O O6 0.776061 0.510362 0.006977
O O7 0.843298 0.491951 0.107095
O O8 0.848303 0.446883 0.930093
O O9 0.633032 0.750000 0.293908
O O10 0.674435 0.466252 0.273791
O O11 0.588538 0.476255 0.337405
O O12 0.276017 0.750000 0.972611
O O13 0.282126 0.023219 0.873145
O O14 0.299122 0.025598 0.058797
O O15 0.767851 0.750000 0.720949
O O16 0.741065 0.470635 0.787261
O O17 0.311916 0.750000 0.150268
O O18 0.342620 0.025968 0.219426
O O19 0.629689 0.250000 0.699932
O O20 0.551123 0.750000 0.396950
#
# Coordination Sequence:
#
# PCOD9462822 Si02
#       8
#     8   8   8   8   8   8   8   8
#     4   9  16  29  46  67  94 121 151 189 227 274
#     4  11  19  28  46  71  95 124 159 191 226 272
#     4  11  21  32  45  66  94 129 161 191 232 276
#     4  10  21  34  47  65  94 124 155 196 235 270
#     4  11  22  33  46  68  91 121 160 196 229 272
#     4  10  19  33  49  67  91 123 153 188 234 279
#     4   9  17  28  46  70  93 122 156 185 224 276
#     4   9  18  29  44  66  93 122 153 188 230 276
#
# _framework density 17.701249000000001
#
# number of rings (size 3 to 8) (size 9 to 14) (size 15 to 20)
#    0.000    2.000    3.750    1.125    0.000    1.000 
#    0.000    0.625    0.000    0.000    0.000    0.875 
#    0.000    0.000    0.000    0.000    0.000    0.000 
#
# Total GULP energy -356841.951897 kJ/mol
# GULP energy per Si atom -5575.655498 kJ/mol
# Density = 1.766096 g / cm^3
# Si number density = 17.701249 Si / 1000 Ang^3
#
#
#
# Elastic Constant Matrix: (Units=GPa)
#
#
# Indices 1 2 3 4 5 6 
#
# 1 90.7256 -8.2833 10.4012 0.0000 0.0000 0.0000
# 2 -8.2833 25.2368 2.2248 0.0000 0.0000 0.0000
# 3 10.4012 2.2248 49.8687 0.0000 0.0000 0.0000
# 4 0.0000 0.0000 0.0000 3.0650 0.0000 0.0000
# 5 0.0000 0.0000 0.0000 0.0000 24.7058 0.0000
# 6 0.0000 0.0000 0.0000 0.0000 0.0000 -5.3976
#
#
#
# Elastic Compliance Matrix: (Units=1/GPa)
#
#
# Indices 1 2 3 4 5 6 
#
# 1 0.011694 0.004069 -0.002621 0.000000 0.000000 0.000000
# 2 0.004069 0.041197 -0.002687 0.000000 0.000000 0.000000
# 3 -0.002621 -0.002687 0.020719 0.000000 0.000000 0.000000
# 4 0.000000 0.000000 0.000000 0.326270 0.000000 0.000000
# 5 0.000000 0.000000 0.000000 0.000000 0.040476 0.000000
# 6 0.000000 0.000000 0.000000 0.000000 0.000000 -0.185269
#
#
# Mechanical properties :
#
#
# Convention : Reuss Voigt Hill
#
# Bulk Modulus (GPa) = 14.05784 19.39070 16.72427
# Shear Modulus (GPa) = 17.77622 15.24053 16.50838
#
# Velocity S-wave (km/s) = 3.17241 2.93744 3.05718
# Velocity P-wave (km/s) = 4.62362 4.74162 4.68299
#
# Compressibility (1/GPa) = 0.07113471
#
# Stress axis : x y z
#
# Youngs Moduli (GPa) = 85.51231 24.27346 48.26469
#
# Poissons Ratio (x) = -0.09878 0.12648
# Poissons Ratio (y) = -0.34798 0.12967
# Poissons Ratio (z) = 0.22409 0.06521
#
# Static dielectric constant tensor:
#      x y z
#    x 1.637380 0.000000 0.000000 
#    y 0.000000 1.644420 0.000000 
#    z 0.000000 0.000000 1.605810 
# 
# From -- ./inp_files/21214.got.cif
#   From: 2010.05.17/outbox.cif.g08.bks.cpg/sg62_11_cif.got.tgz:21214.got - 2010.06.03 15:25:27.
