data_PCOD9462267
_publ_section_title
;
Structure prediction by ZEFSAII (Michael W. Deem and Ramdas Pophale) SiO2 
 PCOD9462267
Probable space group: P N M A
;
_chemical_formula_sum "Si O2"
_cell_formula_units_Z 40
_cell_length_a 14.654423
_cell_length_b 14.227693
_cell_length_c 9.263075
_cell_angle_alpha 90.000000
_cell_angle_beta 90.000000
_cell_angle_gamma 90.000000
_cell_volume 1931.338461
_symmetry_space_group_name_H-M "P N M A"
_symmetry_group_IT_number 62
_symmetry_cell_setting 'orthorhombic'
loop_
_space_group_symop_operation_xyz
x,y,z
1/2-x,-y,1/2+z
1/2+x,1/2-y,1/2-z
-x,1/2+y,-z
-x,-y,-z
1/2+x,y,1/2-z
1/2-x,1/2+y,1/2+z
x,1/2-y,z
loop_
_atom_site_type_symbol
_atom_site_label
_atom_site_fract_x
_atom_site_fract_y
_atom_site_fract_z
Si Si1 0.778200 0.951729 0.619599
Si Si2 0.362770 0.951326 0.193743
Si Si3 0.065013 0.586274 0.303228
Si Si4 0.791613 0.250000 0.180645
Si Si5 0.103970 0.750000 0.097458
Si Si6 0.646347 0.750000 0.006178
Si Si7 0.795327 0.750000 0.235121
O O1 0.805556 0.968154 0.452994
O O2 0.770142 0.841692 0.652213
O O3 0.681850 0.991920 0.675015
O O4 0.854273 0.010530 0.707077
O O5 0.469775 0.965227 0.170686
O O6 0.351323 0.842282 0.233396
O O7 0.060759 0.655607 0.164300
O O8 0.093484 0.658835 0.431530
O O9 0.835263 0.250000 0.338477
O O10 0.877183 0.250000 0.070589
O O11 0.206919 0.750000 0.161698
O O12 0.746562 0.750000 0.080295
#
# Coordination Sequence:
#
# PCOD9462267 Si02
#       7
#     8   8   8   4   4   4   4
#     4  12  23  41  64  98 133 171 225 263 332 390
#     4  12  23  42  73  94 132 177 214 272 329 391
#     4  10  22  43  70  94 129 179 217 260 330 411
#     4  12  24  38  67  93 134 176 209 292 325 359
#     4  10  19  43  68  97 130 167 221 263 324 402
#     4  10  21  41  70  97 128 162 230 267 318 404
#     4  10  18  42  67  87 124 177 212 252 333 395
#
# _framework density 20.711024999999999
#
# number of rings (size 3 to 8) (size 9 to 14) (size 15 to 20)
#    0.000    1.200    6.000    3.000    0.000    0.000 
#    0.000    7.000    8.800    0.000    0.000    0.000 
#    0.000    0.000    0.000    0.000    0.000    0.000 
#
# Total GULP energy -223444.368663 kJ/mol
# GULP energy per Si atom -5586.109217 kJ/mol
# Density = 2.066389 g / cm^3
# Si number density = 20.711025 Si / 1000 Ang^3
#
#
#
# Elastic Constant Matrix: (Units=GPa)
#
#
# Indices 1 2 3 4 5 6 
#
# 1 102.5781 25.0362 30.3023 0.0000 0.0000 0.0000
# 2 25.0362 110.7464 2.8653 0.0000 0.0000 0.0000
# 3 30.3023 2.8653 120.7268 0.0000 0.0000 0.0000
# 4 0.0000 0.0000 0.0000 4.4848 0.0000 0.0000
# 5 0.0000 0.0000 0.0000 0.0000 11.8303 0.0000
# 6 0.0000 0.0000 0.0000 0.0000 0.0000 22.6652
#
#
#
# Elastic Compliance Matrix: (Units=1/GPa)
#
#
# Indices 1 2 3 4 5 6 
#
# 1 0.011157 -0.002451 -0.002742 0.000000 0.000000 0.000000
# 2 -0.002451 0.009574 0.000388 0.000000 0.000000 0.000000
# 3 -0.002742 0.000388 0.008962 0.000000 0.000000 0.000000
# 4 0.000000 0.000000 0.000000 0.222975 0.000000 0.000000
# 5 0.000000 0.000000 0.000000 0.000000 0.084529 0.000000
# 6 0.000000 0.000000 0.000000 0.000000 0.000000 0.044120
#
#
# Mechanical properties :
#
#
# Convention : Reuss Voigt Hill
#
# Bulk Modulus (GPa) = 49.79559 50.05099 49.92329
# Shear Modulus (GPa) = 12.57474 26.18589 19.38031
#
# Velocity S-wave (km/s) = 2.46672 3.55962 3.06232
# Velocity P-wave (km/s) = 5.67522 6.41197 6.05481
#
# Compressibility (1/GPa) = 0.02008210
#
# Stress axis : x y z
#
# Youngs Moduli (GPa) = 89.62954 104.45216 111.57912
#
# Poissons Ratio (x) = 0.25604 0.30598
# Poissons Ratio (y) = 0.21971 -0.04330
# Poissons Ratio (z) = 0.24578 -0.04053
#
# Static dielectric constant tensor:
#      x y z
#    x 1.744400 0.000000 0.000000 
#    y 0.000000 1.759470 0.000000 
#    z 0.000000 0.000000 1.787300 
# 
# From -- ./inp_files/6161.got.cif
#   From: 2010.05.17/outbox.cif.g08.bks.cpg/sg62_4_cif.got.tgz:6161.got - 2010.06.03 15:25:27.
