data_PCOD9462057
_publ_section_title
;
Structure prediction by ZEFSAII (Michael W. Deem and Ramdas Pophale) SiO2 
 PCOD9462057
Probable space group: P N M A
;
_chemical_formula_sum "Si O2"
_cell_formula_units_Z 56
_cell_length_a 5.525850
_cell_length_b 25.208616
_cell_length_c 17.188154
_cell_angle_alpha 90.000000
_cell_angle_beta 90.000000
_cell_angle_gamma 90.000000
_cell_volume 2394.293192
_symmetry_space_group_name_H-M "P N M A"
_symmetry_group_IT_number 62
_symmetry_cell_setting 'orthorhombic'
loop_
_space_group_symop_operation_xyz
x,y,z
1/2-x,-y,1/2+z
1/2+x,1/2-y,1/2-z
-x,1/2+y,-z
-x,-y,-z
1/2+x,y,1/2-z
1/2-x,1/2+y,1/2+z
x,1/2-y,z
loop_
_atom_site_type_symbol
_atom_site_label
_atom_site_fract_x
_atom_site_fract_y
_atom_site_fract_z
Si Si1 0.153831 0.926643 0.818128
Si Si2 0.636529 0.140693 0.436171
Si Si3 0.981756 0.457204 0.795322
Si Si4 0.027906 0.444951 0.457471
Si Si5 0.129576 0.186701 0.704879
Si Si6 0.681794 0.828810 0.785666
Si Si7 0.860501 0.121970 0.927401
O O1 0.376315 0.949720 0.869309
O O2 0.194436 0.891850 0.740256
O O3 0.064862 0.879318 0.875215
O O4 0.992330 0.979303 0.809997
O O5 0.801201 0.175923 0.379020
O O6 0.530544 0.158939 0.518290
O O7 0.782929 0.087798 0.456349
O O8 0.220541 0.446195 0.743755
O O9 0.994981 0.420007 0.871275
O O10 0.212594 0.412324 0.510849
O O11 0.000000 0.500000 0.500000
O O12 0.367842 0.173793 0.757887
O O13 0.133945 0.250000 0.693232
O O14 0.181394 0.156097 0.625453
O O15 0.426978 0.807996 0.754096
#
# Coordination Sequence:
#
# PCOD9462057 Si02
#       7
#     8   8   8   8   8   8   8
#     4  10  21  35  51  74 104 161 213 252 286 340
#     4  10  21  35  52  77 111 157 194 252 304 352
#     4  12  26  37  54  78 107 155 206 256 301 354
#     4  11  22  35  55  78 119 164 209 253 313 364
#     4  10  23  46  75 100 125 161 207 265 333 398
#     4  10  18  33  52  71 100 146 203 246 275 333
#     4  11  25  39  58  88 123 157 203 261 323 388
#
# _framework density 23.388949
#
# number of rings (size 3 to 8) (size 9 to 14) (size 15 to 20)
#    0.000    1.429    1.429    4.286    8.000    2.286 
#    0.000    0.000    0.000    0.000    0.000    0.000 
#    0.000   10.286    0.000    0.000    0.000    0.000 
#
# Total GULP energy -312679.619980 kJ/mol
# GULP energy per Si atom -5583.564642 kJ/mol
# Density = 2.333571 g / cm^3
# Si number density = 23.388949 Si / 1000 Ang^3
#
#
#
# Elastic Constant Matrix: (Units=GPa)
#
#
# Indices 1 2 3 4 5 6 
#
# 1 93.0174 8.2777 17.8424 0.0000 0.0000 0.0000
# 2 8.2777 66.6600 16.7252 0.0000 0.0000 0.0000
# 3 17.8424 16.7252 103.7172 0.0000 0.0000 0.0000
# 4 0.0000 0.0000 0.0000 -0.9943 0.0000 0.0000
# 5 0.0000 0.0000 0.0000 0.0000 32.0926 0.0000
# 6 0.0000 0.0000 0.0000 0.0000 0.0000 -14.8954
#
#
#
# Elastic Compliance Matrix: (Units=1/GPa)
#
#
# Indices 1 2 3 4 5 6 
#
# 1 0.011174 -0.000943 -0.001770 0.000000 0.000000 0.000000
# 2 -0.000943 0.015714 -0.002372 0.000000 0.000000 0.000000
# 3 -0.001770 -0.002372 0.010329 0.000000 0.000000 0.000000
# 4 0.000000 0.000000 0.000000 -1.005736 0.000000 0.000000
# 5 0.000000 0.000000 0.000000 0.000000 0.031160 0.000000
# 6 0.000000 0.000000 0.000000 0.000000 0.000000 -0.067135
#
#
# Mechanical properties :
#
#
# Convention : Reuss Voigt Hill
#
# Bulk Modulus (GPa) = 36.97409 38.78722 37.88066
# Shear Modulus (GPa) = -5.07455 17.94385 6.43465
#
# Velocity S-wave (km/s) = -1.47457 2.77283 1.66046
# Velocity P-wave (km/s) = 3.59771 5.18373 4.46176
#
# Compressibility (1/GPa) = 0.02704596
#
# Stress axis : x y z
#
# Youngs Moduli (GPa) = 89.49197 63.63864 96.81883
#
# Poissons Ratio (x) = 0.06004 0.17138
# Poissons Ratio (y) = 0.08443 0.22962
# Poissons Ratio (z) = 0.15841 0.15093
#
# Static dielectric constant tensor:
#      x y z
#    x 2.084960 0.000000 0.000000 
#    y 0.000000 1.603130 0.000000 
#    z 0.000000 0.000000 2.074370 
# 
# From -- ./inp_files/16278.got.cif
#   From: 2010.05.17/outbox.cif.g08.bks.cpg/sg62_9_cif.got.tgz:16278.got - 2010.06.03 15:25:27.
