data_PCOD9462661
_publ_section_title
;
Structure prediction by ZEFSAII (Michael W. Deem and Ramdas Pophale) SiO2 
 PCOD9462661
Probable space group: P N M A
;
_chemical_formula_sum "Si O2"
_cell_formula_units_Z 64
_cell_length_a 9.855443
_cell_length_b 17.807514
_cell_length_c 17.911020
_cell_angle_alpha 90.000000
_cell_angle_beta 90.000000
_cell_angle_gamma 90.000000
_cell_volume 3143.400832
_symmetry_space_group_name_H-M "P N M A"
_symmetry_group_IT_number 62
_symmetry_cell_setting 'orthorhombic'
loop_
_space_group_symop_operation_xyz
x,y,z
1/2-x,-y,1/2+z
1/2+x,1/2-y,1/2-z
-x,1/2+y,-z
-x,-y,-z
1/2+x,y,1/2-z
1/2-x,1/2+y,1/2+z
x,1/2-y,z
loop_
_atom_site_type_symbol
_atom_site_label
_atom_site_fract_x
_atom_site_fract_y
_atom_site_fract_z
Si Si1 0.876780 0.837226 0.894925
Si Si2 0.870085 0.930733 0.745395
Si Si3 0.437678 0.916614 0.373896
Si Si4 0.015585 0.551215 0.428259
Si Si5 0.876115 0.971989 0.283148
Si Si6 0.787813 0.338202 0.528639
Si Si7 0.871585 0.338860 0.987824
Si Si8 0.762704 0.444357 0.101973
O O1 0.848981 0.750000 0.879776
O O2 0.883954 0.878743 0.817089
O O3 0.759881 0.870642 0.948669
O O4 0.009411 0.839805 0.948211
O O5 0.776906 0.001767 0.769732
O O6 0.780450 0.898546 0.676239
O O7 0.020995 0.956867 0.723523
O O8 0.319832 0.865763 0.410183
O O9 0.569575 0.882736 0.415293
O O10 0.424851 0.917738 0.284191
O O11 0.399358 0.003936 0.394877
O O12 0.065181 0.632686 0.451612
O O13 0.147610 0.508726 0.394313
O O14 0.000000 0.500000 0.500000
O O15 0.900876 0.555889 0.366454
O O16 0.779348 0.250000 0.523854
O O17 0.841083 0.250000 0.974154
O O18 0.761619 0.391380 0.029756
#
# Coordination Sequence:
#
# PCOD9462661 Si02
#       8
#     8   8   8   8   8   8   8   8
#     4   9  17  29  50  75 102 140 179 210 259 328
#     4  10  19  34  51  77 109 136 174 228 271 318
#     4   9  17  32  53  75 101 135 178 226 269 314
#     4  10  20  35  55  76 102 140 181 219 268 330
#     4  10  21  34  54  80 104 136 179 225 272 320
#     4   9  18  34  53  76 105 138 177 224 272 322
#     4  10  19  32  51  78 108 141 181 225 272 329
#     4   9  19  32  50  75 105 138 176 223 276 319
#
# _framework density 20.360112999999998
#
# number of rings (size 3 to 8) (size 9 to 14) (size 15 to 20)
#    0.000    2.500    0.000    4.500    0.000    3.500 
#    0.000    2.500    0.000    1.500    0.000    0.000 
#    0.000    0.000    0.000    0.000    0.000    0.000 
#
# Total GULP energy -356337.235069 kJ/mol
# GULP energy per Si atom -5567.769298 kJ/mol
# Density = 2.031377 g / cm^3
# Si number density = 20.360113 Si / 1000 Ang^3
#
#
#
# Elastic Constant Matrix: (Units=GPa)
#
#
# Indices 1 2 3 4 5 6 
#
# 1 28.4998 0.0076 -10.7538 0.0000 0.0000 0.0000
# 2 0.0076 56.1871 20.9310 0.0000 0.0000 0.0000
# 3 -10.7538 20.9310 82.6171 0.0000 0.0000 0.0000
# 4 0.0000 0.0000 0.0000 26.1643 0.0000 0.0000
# 5 0.0000 0.0000 0.0000 0.0000 27.3912 0.0000
# 6 0.0000 0.0000 0.0000 0.0000 0.0000 18.7150
#
#
#
# Elastic Compliance Matrix: (Units=1/GPa)
#
#
# Indices 1 2 3 4 5 6 
#
# 1 0.037101 -0.001992 0.005334 0.000000 0.000000 0.000000
# 2 -0.001992 0.019759 -0.005265 0.000000 0.000000 0.000000
# 3 0.005334 -0.005265 0.014132 0.000000 0.000000 0.000000
# 4 0.000000 0.000000 0.000000 0.038220 0.000000 0.000000
# 5 0.000000 0.000000 0.000000 0.000000 0.036508 0.000000
# 6 0.000000 0.000000 0.000000 0.000000 0.000000 0.053433
#
#
# Mechanical properties :
#
#
# Convention : Reuss Voigt Hill
#
# Bulk Modulus (GPa) = 14.89293 20.85261 17.87277
# Shear Modulus (GPa) = 22.18448 24.92872 23.55660
#
# Velocity S-wave (km/s) = 3.30450 3.50292 3.40516
# Velocity P-wave (km/s) = 4.67870 5.15992 4.92519
#
# Compressibility (1/GPa) = 0.06714597
#
# Stress axis : x y z
#
# Youngs Moduli (GPa) = 26.95338 50.60888 70.75997
#
# Poissons Ratio (x) = 0.10081 -0.37743
# Poissons Ratio (y) = 0.05369 0.37257
# Poissons Ratio (z) = -0.14377 0.26647
#
# Static dielectric constant tensor:
#      x y z
#    x 1.818690 0.000000 0.000000 
#    y 0.000000 1.724530 0.000000 
#    z 0.000000 0.000000 1.834720 
# 
# From -- ./inp_files/23307.got.cif
#   From: 2010.05.17/outbox.cif.g08.bks.cpg/sg62_12_cif.got.tgz:23307.got - 2010.06.03 15:25:27.
