data_PCOD9462138
_publ_section_title
;
Structure prediction by ZEFSAII (Michael W. Deem and Ramdas Pophale) SiO2 
 PCOD9462138
Probable space group: P N M A
;
_chemical_formula_sum "Si O2"
_cell_formula_units_Z 32
_cell_length_a 8.169779
_cell_length_b 13.292171
_cell_length_c 12.375979
_cell_angle_alpha 90.000000
_cell_angle_beta 90.000000
_cell_angle_gamma 90.000000
_cell_volume 1343.958295
_symmetry_space_group_name_H-M "P N M A"
_symmetry_group_IT_number 62
_symmetry_cell_setting 'orthorhombic'
loop_
_space_group_symop_operation_xyz
x,y,z
1/2-x,-y,1/2+z
1/2+x,1/2-y,1/2-z
-x,1/2+y,-z
-x,-y,-z
1/2+x,y,1/2-z
1/2-x,1/2+y,1/2+z
x,1/2-y,z
loop_
_atom_site_type_symbol
_atom_site_label
_atom_site_fract_x
_atom_site_fract_y
_atom_site_fract_z
Si Si1 0.877713 0.911042 0.963928
Si Si2 0.174936 0.086814 0.604722
Si Si3 0.300687 0.085021 0.830074
Si Si4 0.199177 0.856936 0.871864
O O1 0.813894 0.867148 0.076953
O O2 0.000936 0.855891 0.884267
O O3 0.723749 0.969104 0.913082
O O4 0.000000 0.000000 0.000000
O O5 0.226579 0.139452 0.493816
O O6 0.272804 0.123728 0.709662
O O7 0.985753 0.096291 0.632177
O O8 0.255400 0.964930 0.825889
O O9 0.248997 0.750000 0.820838
#
# Coordination Sequence:
#
# PCOD9462138 Si02
#       4
#     8   8   8   8
#     4   8  16  31  51  73 101 136 168 202 255 316
#     4  10  18  34  57  77 103 144 181 208 254 325
#     4  10  18  34  57  77 103 144 181 208 254 325
#     4  10  20  35  54  81 109 132 171 228 267 298
#
# _framework density 23.810262000000002
#
# number of rings (size 3 to 8) (size 9 to 14) (size 15 to 20)
#    0.000    3.000    0.000    7.500    0.000    0.000 
#    0.000   15.000    0.000    0.000    0.000    0.000 
#    0.000    0.000    0.000    0.000    0.000    0.000 
#
# Total GULP energy -178378.251313 kJ/mol
# GULP energy per Si atom -5574.320354 kJ/mol
# Density = 2.375607 g / cm^3
# Si number density = 23.810262 Si / 1000 Ang^3
#
#
#
# Elastic Constant Matrix: (Units=GPa)
#
#
# Indices 1 2 3 4 5 6 
#
# 1 87.1975 1.1745 -1.7889 0.0000 0.0000 0.0000
# 2 1.1745 97.8787 -17.8208 0.0000 0.0000 0.0000
# 3 -1.7889 -17.8208 81.5326 0.0000 0.0000 0.0000
# 4 0.0000 0.0000 0.0000 -2.6550 0.0000 0.0000
# 5 0.0000 0.0000 0.0000 0.0000 35.5492 0.0000
# 6 0.0000 0.0000 0.0000 0.0000 0.0000 6.6182
#
#
#
# Elastic Compliance Matrix: (Units=1/GPa)
#
#
# Indices 1 2 3 4 5 6 
#
# 1 0.011474 -0.000096 0.000231 0.000000 0.000000 0.000000
# 2 -0.000096 0.010641 0.002324 0.000000 0.000000 0.000000
# 3 0.000231 0.002324 0.012778 0.000000 0.000000 0.000000
# 4 0.000000 0.000000 0.000000 -0.376641 0.000000 0.000000
# 5 0.000000 0.000000 0.000000 0.000000 0.028130 0.000000
# 6 0.000000 0.000000 0.000000 0.000000 0.000000 0.151100
#
#
# Mechanical properties :
#
#
# Convention : Reuss Voigt Hill
#
# Bulk Modulus (GPa) = 25.11866 25.52648 25.32257
# Shear Modulus (GPa) = -32.43255 26.90540 -2.76357
#
# Velocity S-wave (km/s) = -3.69470 3.36518 -1.07851
# Velocity P-wave (km/s) = 2.76201 5.08363 3.01783
#
# Compressibility (1/GPa) = 0.03981104
#
# Stress axis : x y z
#
# Youngs Moduli (GPa) = 87.15171 93.97655 78.25951
#
# Poissons Ratio (x) = 0.00899 -0.01807
# Poissons Ratio (y) = 0.00834 -0.18185
# Poissons Ratio (z) = -0.02012 -0.21838
#
# Static dielectric constant tensor:
#      x y z
#    x 1.897510 0.000000 0.000000 
#    y 0.000000 2.484970 0.000000 
#    z 0.000000 0.000000 1.951310 
# 
# From -- ./inp_files/16744.got.cif
#   From: 2010.05.17/outbox.cif.g08.bks.cpg/sg62_9_cif.got.tgz:16744.got - 2010.06.03 15:25:27.
