data_PCOD9462231
_publ_section_title
;
Structure prediction by ZEFSAII (Michael W. Deem and Ramdas Pophale) SiO2 
 PCOD9462231
Probable space group: P N M A
;
_chemical_formula_sum "Si O2"
_cell_formula_units_Z 48
_cell_length_a 15.100851
_cell_length_b 14.285095
_cell_length_c 11.641370
_cell_angle_alpha 90.000000
_cell_angle_beta 90.000000
_cell_angle_gamma 90.000000
_cell_volume 2511.242473
_symmetry_space_group_name_H-M "P N M A"
_symmetry_group_IT_number 62
_symmetry_cell_setting 'orthorhombic'
loop_
_space_group_symop_operation_xyz
x,y,z
1/2-x,-y,1/2+z
1/2+x,1/2-y,1/2-z
-x,1/2+y,-z
-x,-y,-z
1/2+x,y,1/2-z
1/2-x,1/2+y,1/2+z
x,1/2-y,z
loop_
_atom_site_type_symbol
_atom_site_label
_atom_site_fract_x
_atom_site_fract_y
_atom_site_fract_z
Si Si1 0.029070 0.647130 0.701134
Si Si2 0.811555 0.454220 0.181741
Si Si3 0.819812 0.359411 0.933889
Si Si4 0.523696 0.900225 0.053949
Si Si5 0.618614 0.510177 0.245240
Si Si6 0.859300 0.645904 0.281883
O O1 0.007917 0.750000 0.748667
O O2 0.123229 0.610372 0.744595
O O3 0.033605 0.655157 0.563154
O O4 0.957153 0.568679 0.737462
O O5 0.713128 0.460357 0.233226
O O6 0.850230 0.559916 0.193761
O O7 0.808506 0.410420 0.055367
O O8 0.846433 0.250000 0.945735
O O9 0.884109 0.423449 0.856268
O O10 0.726323 0.359851 0.865385
O O11 0.445051 0.867008 0.137112
O O12 0.606722 0.919903 0.136173
O O13 0.500000 0.000000 0.000000
O O14 0.861233 0.750000 0.230141
#
# Coordination Sequence:
#
# PCOD9462231 Si02
#       6
#     8   8   8   8   8   8
#     4  11  23  39  62  94 124 156 204 254 309 360
#     4  11  22  39  63  87 127 159 200 251 305 357
#     4  10  22  39  62  90 123 168 205 240 301 375
#     4  10  18  37  62  90 113 153 202 261 299 341
#     4  10  23  39  65  89 123 157 209 253 300 356
#     4  10  20  38  63  90 119 159 208 253 305 358
#
# _framework density 19.114045000000001
#
# number of rings (size 3 to 8) (size 9 to 14) (size 15 to 20)
#    0.000    1.667    3.333    3.000    2.333    4.667 
#    0.000    0.833    0.000    0.000    0.000    0.000 
#    0.000    0.000    0.000    0.000    0.000    0.000 
#
# Total GULP energy -267584.835594 kJ/mol
# GULP energy per Si atom -5574.684075 kJ/mol
# Density = 1.907054 g / cm^3
# Si number density = 19.114045 Si / 1000 Ang^3
#
#
#
# Elastic Constant Matrix: (Units=GPa)
#
#
# Indices 1 2 3 4 5 6 
#
# 1 79.5447 30.6685 14.9574 0.0000 0.0000 0.0000
# 2 30.6685 159.7503 53.6230 0.0000 0.0000 0.0000
# 3 14.9574 53.6230 52.7177 0.0000 0.0000 0.0000
# 4 0.0000 0.0000 0.0000 -18.9655 0.0000 0.0000
# 5 0.0000 0.0000 0.0000 0.0000 20.9594 0.0000
# 6 0.0000 0.0000 0.0000 0.0000 0.0000 15.0016
#
#
#
# Elastic Compliance Matrix: (Units=1/GPa)
#
#
# Indices 1 2 3 4 5 6 
#
# 1 0.013693 -0.002011 -0.001839 0.000000 0.000000 0.000000
# 2 -0.002011 0.009801 -0.009398 0.000000 0.000000 0.000000
# 3 -0.001839 -0.009398 0.029050 0.000000 0.000000 0.000000
# 4 0.000000 0.000000 0.000000 -0.052727 0.000000 0.000000
# 5 0.000000 0.000000 0.000000 0.000000 0.047711 0.000000
# 6 0.000000 0.000000 0.000000 0.000000 0.000000 0.066659
#
#
# Mechanical properties :
#
#
# Convention : Reuss Voigt Hill
#
# Bulk Modulus (GPa) = 38.39299 54.50117 46.44708
# Shear Modulus (GPa) = 33.47468 16.25003 24.86235
#
# Velocity S-wave (km/s) = 4.18941 2.91892 3.61049
# Velocity P-wave (km/s) = 6.59783 6.31947 6.46015
#
# Compressibility (1/GPa) = 0.02604642
#
# Stress axis : x y z
#
# Youngs Moduli (GPa) = 73.03073 102.03483 34.42304
#
# Poissons Ratio (x) = 0.20523 0.06331
# Poissons Ratio (y) = 0.14689 0.32351
# Poissons Ratio (z) = 0.13431 0.95894
#
# Static dielectric constant tensor:
#      x y z
#    x 1.646500 0.000000 0.000000 
#    y 0.000000 1.700690 0.000000 
#    z 0.000000 0.000000 1.667730 
# 
# From -- ./inp_files/13254.got.cif
#   From: 2010.05.17/outbox.cif.g08.bks.cpg/sg62_7_cif.got.tgz:13254.got - 2010.06.03 15:25:27.
