data_PCOD9462947
_publ_section_title
;
Structure prediction by ZEFSAII (Michael W. Deem and Ramdas Pophale) SiO2 
 PCOD9462947
Probable space group: P N M A
;
_chemical_formula_sum "Si O2"
_cell_formula_units_Z 48
_cell_length_a 17.930589
_cell_length_b 16.037298
_cell_length_c 7.092428
_cell_angle_alpha 90.000000
_cell_angle_beta 90.000000
_cell_angle_gamma 90.000000
_cell_volume 2039.485823
_symmetry_space_group_name_H-M "P N M A"
_symmetry_group_IT_number 62
_symmetry_cell_setting 'orthorhombic'
loop_
_space_group_symop_operation_xyz
x,y,z
1/2-x,-y,1/2+z
1/2+x,1/2-y,1/2-z
-x,1/2+y,-z
-x,-y,-z
1/2+x,y,1/2-z
1/2-x,1/2+y,1/2+z
x,1/2-y,z
loop_
_atom_site_type_symbol
_atom_site_label
_atom_site_fract_x
_atom_site_fract_y
_atom_site_fract_z
Si Si1 0.564047 0.919446 0.775649
Si Si2 0.990341 0.750000 0.787354
Si Si3 0.944533 0.750000 0.364547
Si Si4 0.811829 0.411692 0.808766
Si Si5 0.268909 0.414334 0.128812
Si Si6 0.276957 0.750000 0.153311
Si Si7 0.479527 0.413735 0.774583
Si Si8 0.818314 0.750000 0.899387
O O1 0.531883 0.837060 0.675808
O O2 0.653477 0.922151 0.758758
O O3 0.525103 0.004934 0.714656
O O4 0.541958 0.917624 0.000781
O O5 0.988716 0.750000 0.559475
O O6 0.906524 0.750000 0.865431
O O7 0.859299 0.750000 0.430087
O O8 0.968776 0.667418 0.254684
O O9 0.777647 0.500630 0.862677
O O10 0.794820 0.402824 0.586068
O O11 0.769460 0.332432 0.894522
O O12 0.900435 0.408858 0.828597
O O13 0.219532 0.334071 0.180209
O O14 0.298178 0.750000 0.377414
#
# Coordination Sequence:
#
# PCOD9462947 Si02
#       8
#     8   4   4   8   8   4   8   4
#     4   9  17  30  50  75  99 125 164 212 251 288
#     4  10  19  33  55  77  97 130 176 216 250 300
#     4  10  19  33  55  77  97 130 176 216 250 300
#     4  10  20  35  54  77 106 138 172 212 260 310
#     4  10  20  35  54  77 106 138 172 212 260 310
#     4  10  21  35  51  75 109 140 164 206 268 316
#     4   9  17  30  50  75  99 125 164 212 251 288
#     4  10  21  35  51  75 109 140 164 206 268 316
#
# _framework density 23.535342
#
# number of rings (size 3 to 8) (size 9 to 14) (size 15 to 20)
#    0.000    2.333    0.000    3.000    0.000    8.000 
#    0.000    1.667    0.000    8.000    0.000    0.000 
#    0.000    0.000    0.000    0.000    0.000    0.000 
#
# Total GULP energy -268622.173929 kJ/mol
# GULP energy per Si atom -5596.295290 kJ/mol
# Density = 2.348177 g / cm^3
# Si number density = 23.535342 Si / 1000 Ang^3
#
#
#
# Elastic Constant Matrix: (Units=GPa)
#
#
# Indices 1 2 3 4 5 6 
#
# 1 169.3166 125.6136 10.7890 0.0000 0.0000 0.0000
# 2 125.6136 257.8022 14.2285 0.0000 0.0000 0.0000
# 3 10.7890 14.2285 71.7789 0.0000 0.0000 0.0000
# 4 0.0000 0.0000 0.0000 3.6584 0.0000 0.0000
# 5 0.0000 0.0000 0.0000 0.0000 30.1553 0.0000
# 6 0.0000 0.0000 0.0000 0.0000 0.0000 58.8349
#
#
#
# Elastic Compliance Matrix: (Units=1/GPa)
#
#
# Indices 1 2 3 4 5 6 
#
# 1 0.009268 -0.004488 -0.000503 0.000000 0.000000 0.000000
# 2 -0.004488 0.006095 -0.000534 0.000000 0.000000 0.000000
# 3 -0.000503 -0.000534 0.014113 0.000000 0.000000 0.000000
# 4 0.000000 0.000000 0.000000 0.273346 0.000000 0.000000
# 5 0.000000 0.000000 0.000000 0.000000 0.033162 0.000000
# 6 0.000000 0.000000 0.000000 0.000000 0.000000 0.016997
#
#
# Mechanical properties :
#
#
# Convention : Reuss Voigt Hill
#
# Bulk Modulus (GPa) = 54.27097 88.90665 71.58881
# Shear Modulus (GPa) = 13.50723 41.74748 27.62736
#
# Velocity S-wave (km/s) = 2.39825 4.21624 3.42989
# Velocity P-wave (km/s) = 5.54781 7.84602 6.79479
#
# Compressibility (1/GPa) = 0.01842606
#
# Stress axis : x y z
#
# Youngs Moduli (GPa) = 107.90221 164.06629 70.85608
#
# Poissons Ratio (x) = 0.73631 0.03567
# Poissons Ratio (y) = 0.48425 0.03781
# Poissons Ratio (z) = 0.05432 0.08755
#
# Static dielectric constant tensor:
#      x y z
#    x 1.812230 0.000000 0.000000 
#    y 0.000000 1.825590 0.000000 
#    z 0.000000 0.000000 1.989950 
# 
# From -- ./inp_files/7705.got.cif
#   From: 2010.05.17/outbox.cif.g08.bks.cpg/sg62_4_cif.got.tgz:7705.got - 2010.06.03 15:25:27.
