data_PCOD9462777
_publ_section_title
;
Structure prediction by ZEFSAII (Michael W. Deem and Ramdas Pophale) SiO2 
 PCOD9462777
Probable space group: P N M A
;
_chemical_formula_sum "Si O2"
_cell_formula_units_Z 64
_cell_length_a 12.292004
_cell_length_b 13.637437
_cell_length_c 21.684527
_cell_angle_alpha 90.000000
_cell_angle_beta 90.000000
_cell_angle_gamma 90.000000
_cell_volume 3635.008273
_symmetry_space_group_name_H-M "P N M A"
_symmetry_group_IT_number 62
_symmetry_cell_setting 'orthorhombic'
loop_
_space_group_symop_operation_xyz
x,y,z
1/2-x,-y,1/2+z
1/2+x,1/2-y,1/2-z
-x,1/2+y,-z
-x,-y,-z
1/2+x,y,1/2-z
1/2-x,1/2+y,1/2+z
x,1/2-y,z
loop_
_atom_site_type_symbol
_atom_site_label
_atom_site_fract_x
_atom_site_fract_y
_atom_site_fract_z
Si Si1 0.735766 0.365672 0.064409
Si Si2 0.824449 0.050755 0.937173
Si Si3 0.730539 0.444365 0.631889
Si Si4 0.073896 0.867352 0.287771
Si Si5 0.262426 0.365692 0.006107
Si Si6 0.007747 0.132601 0.490143
Si Si7 0.495107 0.366752 0.651412
Si Si8 0.113487 0.367767 0.620199
O O1 0.742253 0.250000 0.077781
O O2 0.778781 0.440753 0.115162
O O3 0.609144 0.395693 0.052422
O O4 0.795996 0.388529 0.999493
O O5 0.936034 0.081405 0.905700
O O6 0.727501 0.078583 0.889774
O O7 0.817119 0.937477 0.957002
O O8 0.829277 0.421886 0.677509
O O9 0.751787 0.389539 0.566452
O O10 0.618180 0.402644 0.657313
O O11 0.090181 0.750000 0.296463
O O12 0.066546 0.887728 0.215413
O O13 0.958726 0.891221 0.320455
O O14 0.247262 0.250000 0.016445
O O15 0.385440 0.397513 0.024662
O O16 0.005538 0.250000 0.488142
O O17 0.039832 0.107811 0.560249
O O18 0.493074 0.250000 0.641590
O O19 0.133992 0.250000 0.619189
#
# Coordination Sequence:
#
# PCOD9462777 Si02
#       8
#     8   8   8   8   8   8   8   8
#     4   9  19  34  56  84 115 147 182 224 274 329
#     4  10  21  33  54  80 112 148 181 219 277 328
#     4  11  22  36  58  81 111 146 186 225 277 331
#     4  10  21  35  55  80 106 139 178 229 281 324
#     4  10  19  32  54  84 117 146 181 226 276 330
#     4   8  14  27  48  79 113 137 166 216 266 313
#     4  11  24  39  54  77 112 147 186 228 272 334
#     4   9  16  29  51  77 105 135 172 216 269 320
#
# _framework density 17.606563000000001
#
# number of rings (size 3 to 8) (size 9 to 14) (size 15 to 20)
#    0.000    2.250    1.250    3.000    3.500    3.500 
#    0.000    1.875    0.000    1.500    0.000    0.000 
#    0.000    0.000    0.000    0.000    0.000    0.000 
#
# Total GULP energy -357137.919770 kJ/mol
# GULP energy per Si atom -5580.279996 kJ/mol
# Density = 1.756649 g / cm^3
# Si number density = 17.606563 Si / 1000 Ang^3
#
#
#
# Elastic Constant Matrix: (Units=GPa)
#
#
# Indices 1 2 3 4 5 6 
#
# 1 34.1648 13.7655 16.1294 0.0000 0.0000 0.0000
# 2 13.7655 98.8155 25.7098 0.0000 0.0000 0.0000
# 3 16.1294 25.7098 48.1445 0.0000 0.0000 0.0000
# 4 0.0000 0.0000 0.0000 16.3364 0.0000 0.0000
# 5 0.0000 0.0000 0.0000 0.0000 11.1568 0.0000
# 6 0.0000 0.0000 0.0000 0.0000 0.0000 24.8801
#
#
#
# Elastic Compliance Matrix: (Units=1/GPa)
#
#
# Indices 1 2 3 4 5 6 
#
# 1 0.035151 -0.002128 -0.010640 0.000000 0.000000 0.000000
# 2 -0.002128 0.011882 -0.005632 0.000000 0.000000 0.000000
# 3 -0.010640 -0.005632 0.027343 0.000000 0.000000 0.000000
# 4 0.000000 0.000000 0.000000 0.061213 0.000000 0.000000
# 5 0.000000 0.000000 0.000000 0.000000 0.089632 0.000000
# 6 0.000000 0.000000 0.000000 0.000000 0.000000 0.040193
#
#
# Mechanical properties :
#
#
# Convention : Reuss Voigt Hill
#
# Bulk Modulus (GPa) = 26.61329 32.48156 29.54742
# Shear Modulus (GPa) = 15.88626 18.84265 17.36446
#
# Velocity S-wave (km/s) = 3.00708 3.27495 3.14387
# Velocity P-wave (km/s) = 5.21585 5.72617 5.47695
#
# Compressibility (1/GPa) = 0.03757522
#
# Stress axis : x y z
#
# Youngs Moduli (GPa) = 28.44908 84.16324 36.57271
#
# Poissons Ratio (x) = 0.17914 0.38912
# Poissons Ratio (y) = 0.06055 0.20597
# Poissons Ratio (z) = 0.30269 0.47400
#
# Static dielectric constant tensor:
#      x y z
#    x 1.624300 0.000000 0.000000 
#    y 0.000000 1.606090 0.000000 
#    z 0.000000 0.000000 1.581450 
# 
# From -- ./inp_files/23234.got.cif
#   From: 2010.05.17/outbox.cif.g08.bks.cpg/sg62_12_cif.got.tgz:23234.got - 2010.06.03 15:25:27.
