data_PCOD9462673
_publ_section_title
;
Structure prediction by ZEFSAII (Michael W. Deem and Ramdas Pophale) SiO2 
 PCOD9462673
Probable space group: P N M A
;
_chemical_formula_sum "Si O2"
_cell_formula_units_Z 64
_cell_length_a 25.180766
_cell_length_b 12.882036
_cell_length_c 8.901069
_cell_angle_alpha 90.000000
_cell_angle_beta 90.000000
_cell_angle_gamma 90.000000
_cell_volume 2887.324615
_symmetry_space_group_name_H-M "P N M A"
_symmetry_group_IT_number 62
_symmetry_cell_setting 'orthorhombic'
loop_
_space_group_symop_operation_xyz
x,y,z
1/2-x,-y,1/2+z
1/2+x,1/2-y,1/2-z
-x,1/2+y,-z
-x,-y,-z
1/2+x,y,1/2-z
1/2-x,1/2+y,1/2+z
x,1/2-y,z
loop_
_atom_site_type_symbol
_atom_site_label
_atom_site_fract_x
_atom_site_fract_y
_atom_site_fract_z
Si Si1 0.377050 0.363054 0.708805
Si Si2 0.235674 0.365999 0.079784
Si Si3 0.560838 0.912732 0.599971
Si Si4 0.138056 0.088311 0.289179
Si Si5 0.443335 0.636589 0.526077
Si Si6 0.841997 0.407740 0.281431
Si Si7 0.220848 0.594891 0.010386
Si Si8 0.161127 0.360754 0.610882
O O1 0.386902 0.250000 0.777088
O O2 0.414238 0.376185 0.560481
O O3 0.378745 0.467247 0.805738
O O4 0.317756 0.371422 0.643667
O O5 0.221624 0.250000 0.028546
O O6 0.198557 0.389413 0.228672
O O7 0.300076 0.371186 0.093088
O O8 0.222079 0.469663 0.988922
O O9 0.500604 0.876158 0.605363
O O10 0.598415 0.876429 0.736245
O O11 0.561522 0.038225 0.583834
O O12 0.101849 0.128507 0.153059
O O13 0.130005 0.135171 0.452659
O O14 0.441080 0.750000 0.453907
O O15 0.807937 0.369399 0.138688
O O16 0.845978 0.532326 0.300721
O O17 0.278035 0.633510 0.054953
O O18 0.151569 0.250000 0.687634
#
# Coordination Sequence:
#
# PCOD9462673 Si02
#       8
#     8   8   8   8   8   8   8   8
#     4   9  17  32  55  77 103 138 172 219 276 319
#     4  10  19  32  52  74 103 140 173 218 270 312
#     4   9  20  35  53  85 111 133 180 229 269 325
#     4  10  20  33  51  79 108 136 182 221 257 325
#     4  10  19  34  58  81 107 141 176 225 279 320
#     4  10  21  35  52  76 110 140 178 224 265 321
#     4   9  19  33  48  75 103 131 180 222 261 319
#     4  11  21  34  52  74 106 147 182 216 268 325
#
# _framework density 22.165849999999999
#
# number of rings (size 3 to 8) (size 9 to 14) (size 15 to 20)
#    0.000    2.250    1.250    2.625    0.000    3.500 
#    0.000    3.125    0.000    0.000    0.000    0.000 
#    0.000    0.000    0.000    0.000    0.000    0.000 
#
# Total GULP energy -356628.913119 kJ/mol
# GULP energy per Si atom -5572.326767 kJ/mol
# Density = 2.211540 g / cm^3
# Si number density = 22.165850 Si / 1000 Ang^3
#
#
#
# Elastic Constant Matrix: (Units=GPa)
#
#
# Indices 1 2 3 4 5 6 
#
# 1 97.1110 0.3901 7.8416 0.0000 0.0000 0.0000
# 2 0.3901 195.0127 0.7030 0.0000 0.0000 0.0000
# 3 7.8416 0.7030 16.8033 0.0000 0.0000 0.0000
# 4 0.0000 0.0000 0.0000 -7.1055 0.0000 0.0000
# 5 0.0000 0.0000 0.0000 0.0000 19.3391 0.0000
# 6 0.0000 0.0000 0.0000 0.0000 0.0000 -4.1217
#
#
#
# Elastic Compliance Matrix: (Units=1/GPa)
#
#
# Indices 1 2 3 4 5 6 
#
# 1 0.010701 -0.000003 -0.004994 0.000000 0.000000 0.000000
# 2 -0.000003 0.005129 -0.000213 0.000000 0.000000 0.000000
# 3 -0.004994 -0.000213 0.061851 0.000000 0.000000 0.000000
# 4 0.000000 0.000000 0.000000 -0.140737 0.000000 0.000000
# 5 0.000000 0.000000 0.000000 0.000000 0.051709 0.000000
# 6 0.000000 0.000000 0.000000 0.000000 0.000000 -0.242619
#
#
# Mechanical properties :
#
#
# Convention : Reuss Voigt Hill
#
# Bulk Modulus (GPa) = 14.86752 36.31072 25.58912
# Shear Modulus (GPa) = -22.61148 21.62188 -0.49480
#
# Velocity S-wave (km/s) = -3.19737 3.12662 -0.47298
# Velocity P-wave (km/s) = 2.62849 5.42691 3.35726
#
# Compressibility (1/GPa) = 0.06726072
#
# Stress axis : x y z
#
# Youngs Moduli (GPa) = 93.45154 194.98322 16.16783
#
# Poissons Ratio (x) = 0.00066 0.08074
# Poissons Ratio (y) = 0.00032 0.00344
# Poissons Ratio (z) = 0.46666 0.04152
#
# Static dielectric constant tensor:
#      x y z
#    x 1.797180 0.000000 0.000000 
#    y 0.000000 1.908760 0.000000 
#    z 0.000000 0.000000 1.819550 
# 
# From -- ./inp_files/15568.got.cif
#   From: 2010.05.17/outbox.cif.g08.bks.cpg/sg62_8_cif.got.tgz:15568.got - 2010.06.03 15:25:27.
