data_PCOD9462753
_publ_section_title
;
Structure prediction by ZEFSAII (Michael W. Deem and Ramdas Pophale) SiO2 
 PCOD9462753
Probable space group: P N M A
;
_chemical_formula_sum "Si O2"
_cell_formula_units_Z 56
_cell_length_a 5.405584
_cell_length_b 22.852954
_cell_length_c 23.195719
_cell_angle_alpha 90.000000
_cell_angle_beta 90.000000
_cell_angle_gamma 90.000000
_cell_volume 2865.449803
_symmetry_space_group_name_H-M "P N M A"
_symmetry_group_IT_number 62
_symmetry_cell_setting 'orthorhombic'
loop_
_space_group_symop_operation_xyz
x,y,z
1/2-x,-y,1/2+z
1/2+x,1/2-y,1/2-z
-x,1/2+y,-z
-x,-y,-z
1/2+x,y,1/2-z
1/2-x,1/2+y,1/2+z
x,1/2-y,z
loop_
_atom_site_type_symbol
_atom_site_label
_atom_site_fract_x
_atom_site_fract_y
_atom_site_fract_z
Si Si1 0.051917 0.969346 0.413252
Si Si2 0.085927 0.475105 0.217298
Si Si3 0.368882 0.422703 0.398855
Si Si4 0.881259 0.682383 0.551356
Si Si5 0.760859 0.600836 0.988622
Si Si6 0.442782 0.421873 0.642612
Si Si7 0.092284 0.818216 0.067129
O O1 0.085884 0.942611 0.476557
O O2 0.278105 0.937825 0.377834
O O3 0.778329 0.954237 0.392456
O O4 0.126289 0.036615 0.404130
O O5 0.362059 0.461563 0.238675
O O6 0.077017 0.545021 0.203454
O O7 0.009046 0.440579 0.159180
O O8 0.304299 0.354814 0.409008
O O9 0.535945 0.436128 0.454743
O O10 0.898035 0.750000 0.566341
O O11 0.803649 0.679005 0.482969
O O12 0.129638 0.645214 0.554803
O O13 0.882152 0.645043 0.034531
O O14 0.379965 0.354591 0.626563
O O15 0.037791 0.750000 0.076380
#
# Coordination Sequence:
#
# PCOD9462753 Si02
#       7
#     8   8   8   8   8   8   8
#     4  10  20  34  55  88 124 153 187 230 291 361
#     4  11  24  42  63  83 110 145 197 261 314 347
#     4  10  23  35  57  83 114 153 199 246 301 360
#     4  10  20  34  55  84 121 160 192 226 282 363
#     4  10  19  32  53  87 126 161 188 234 283 364
#     4  10  20  37  58  87 117 153 195 243 296 349
#     4   9  18  34  53  84 124 164 196 221 273 358
#
# _framework density 19.543181000000001
#
# number of rings (size 3 to 8) (size 9 to 14) (size 15 to 20)
#    0.000    2.000    1.429    2.571    6.000    2.286 
#    0.000    0.000    0.000    1.714    0.000    0.000 
#    0.000    0.000    0.000    0.000    0.000    0.000 
#
# Total GULP energy -311867.238360 kJ/mol
# GULP energy per Si atom -5569.057828 kJ/mol
# Density = 1.949870 g / cm^3
# Si number density = 19.543181 Si / 1000 Ang^3
#
#
#
# Elastic Constant Matrix: (Units=GPa)
#
#
# Indices 1 2 3 4 5 6 
#
# 1 44.8563 -5.0298 1.6899 0.0000 0.0000 0.0000
# 2 -5.0298 83.8803 7.8782 0.0000 0.0000 0.0000
# 3 1.6899 7.8782 31.4471 0.0000 0.0000 0.0000
# 4 0.0000 0.0000 0.0000 26.4640 0.0000 0.0000
# 5 0.0000 0.0000 0.0000 0.0000 28.2744 0.0000
# 6 0.0000 0.0000 0.0000 0.0000 0.0000 13.3603
#
#
#
# Elastic Compliance Matrix: (Units=1/GPa)
#
#
# Indices 1 2 3 4 5 6 
#
# 1 0.022521 0.001499 -0.001586 0.000000 0.000000 0.000000
# 2 0.001499 0.012309 -0.003164 0.000000 0.000000 0.000000
# 3 -0.001586 -0.003164 0.032677 0.000000 0.000000 0.000000
# 4 0.000000 0.000000 0.000000 0.037787 0.000000 0.000000
# 5 0.000000 0.000000 0.000000 0.000000 0.035368 0.000000
# 6 0.000000 0.000000 0.000000 0.000000 0.000000 0.074849
#
#
# Mechanical properties :
#
#
# Convention : Reuss Voigt Hill
#
# Bulk Modulus (GPa) = 16.39179 18.80669 17.59924
# Shear Modulus (GPa) = 20.63151 23.99610 22.31380
#
# Velocity S-wave (km/s) = 3.25266 3.50787 3.38267
# Velocity P-wave (km/s) = 4.74469 5.10401 4.92763
#
# Compressibility (1/GPa) = 0.06100617
#
# Stress axis : x y z
#
# Youngs Moduli (GPa) = 44.40248 81.24235 30.60224
#
# Poissons Ratio (x) = -0.12182 0.04853
# Poissons Ratio (y) = -0.06658 0.09683
# Poissons Ratio (z) = 0.07042 0.25707
#
# Static dielectric constant tensor:
#      x y z
#    x 1.779980 0.000000 0.000000 
#    y 0.000000 1.682150 0.000000 
#    z 0.000000 0.000000 1.724270 
# 
# From -- ./inp_files/28378.got.cif
#   From: 2010.05.17/outbox.cif.g08.bks.cpg/sg62_15_cif.got.tgz:28378.got - 2010.06.03 15:25:27.
