data_PCOD9462498
_publ_section_title
;
Structure prediction by ZEFSAII (Michael W. Deem and Ramdas Pophale) SiO2 
 PCOD9462498
Probable space group: P N M A
;
_chemical_formula_sum "Si O2"
_cell_formula_units_Z 40
_cell_length_a 7.999351
_cell_length_b 13.557822
_cell_length_c 22.257107
_cell_angle_alpha 90.000000
_cell_angle_beta 90.000000
_cell_angle_gamma 90.000000
_cell_volume 2413.867319
_symmetry_space_group_name_H-M "P N M A"
_symmetry_group_IT_number 62
_symmetry_cell_setting 'orthorhombic'
loop_
_space_group_symop_operation_xyz
x,y,z
1/2-x,-y,1/2+z
1/2+x,1/2-y,1/2-z
-x,1/2+y,-z
-x,-y,-z
1/2+x,y,1/2-z
1/2-x,1/2+y,1/2+z
x,1/2-y,z
loop_
_atom_site_type_symbol
_atom_site_label
_atom_site_fract_x
_atom_site_fract_y
_atom_site_fract_z
Si Si1 0.653716 0.642024 0.010731
Si Si2 0.356294 0.568932 0.926902
Si Si3 0.381402 0.866552 0.672571
Si Si4 0.993543 0.910651 0.953274
Si Si5 0.012938 0.365522 0.304968
O O1 0.618896 0.750000 0.037897
O O2 0.651674 0.546532 0.054118
O O3 0.513843 0.617758 0.960557
O O4 0.834678 0.647374 0.978913
O O5 0.381485 0.580183 0.855920
O O6 0.186203 0.622254 0.948705
O O7 0.423918 0.750000 0.661678
O O8 0.444869 0.929010 0.616132
O O9 0.457849 0.897071 0.736460
O O10 0.181898 0.873322 0.678786
O O11 0.000000 0.000000 0.000000
O O12 0.061631 0.250000 0.307303
#
# Coordination Sequence:
#
# PCOD9462498 Si02
#       5
#     8   8   8   8   8
#     4  10  20  34  51  74 105 139 176 216 253 304
#     4  10  20  33  51  76 105 138 174 212 260 310
#     4  10  19  31  49  76 106 135 168 210 264 319
#     4  10  20  33  50  73 106 138 174 210 256 308
#     4  10  19  31  50  77 108 137 167 211 264 317
#
# _framework density 16.570919
#
# number of rings (size 3 to 8) (size 9 to 14) (size 15 to 20)
#    0.000    2.000    2.000    2.400    0.000    4.800 
#    0.000    0.000    0.000    0.000    0.000   14.000 
#    0.000    0.000    0.000    0.000    0.000    0.000 
#
# Total GULP energy -222744.385835 kJ/mol
# GULP energy per Si atom -5568.609646 kJ/mol
# Density = 1.653320 g / cm^3
# Si number density = 16.570919 Si / 1000 Ang^3
#
#
#
# Elastic Constant Matrix: (Units=GPa)
#
#
# Indices 1 2 3 4 5 6 
#
# 1 85.6151 33.7809 32.5466 0.0000 0.0000 0.0000
# 2 33.7809 70.7675 41.9914 0.0000 0.0000 0.0000
# 3 32.5466 41.9914 132.5076 0.0000 0.0000 0.0000
# 4 0.0000 0.0000 0.0000 8.2315 0.0000 0.0000
# 5 0.0000 0.0000 0.0000 0.0000 31.3887 0.0000
# 6 0.0000 0.0000 0.0000 0.0000 0.0000 -12.1281
#
#
#
# Elastic Compliance Matrix: (Units=1/GPa)
#
#
# Indices 1 2 3 4 5 6 
#
# 1 0.014698 -0.006003 -0.001708 0.000000 0.000000 0.000000
# 2 -0.006003 0.019855 -0.004818 0.000000 0.000000 0.000000
# 3 -0.001708 -0.004818 0.009493 0.000000 0.000000 0.000000
# 4 0.000000 0.000000 0.000000 0.121484 0.000000 0.000000
# 5 0.000000 0.000000 0.000000 0.000000 0.031859 0.000000
# 6 0.000000 0.000000 0.000000 0.000000 0.000000 -0.082453
#
#
# Mechanical properties :
#
#
# Convention : Reuss Voigt Hill
#
# Bulk Modulus (GPa) = 52.66102 56.16978 54.41540
# Shear Modulus (GPa) = 34.17142 17.53652 25.85397
#
# Velocity S-wave (km/s) = 4.54600 3.25664 3.95422
# Velocity P-wave (km/s) = 7.70733 6.93622 7.33192
#
# Compressibility (1/GPa) = 0.01898938
#
# Stress axis : x y z
#
# Youngs Moduli (GPa) = 68.03708 50.36577 105.34180
#
# Poissons Ratio (x) = 0.30233 0.17991
# Poissons Ratio (y) = 0.40840 0.50749
# Poissons Ratio (z) = 0.11620 0.24264
#
# Static dielectric constant tensor:
#      x y z
#    x 1.598560 0.000000 0.000000 
#    y 0.000000 1.541930 0.000000 
#    z 0.000000 0.000000 1.558360 
# 
# From -- ./inp_files/22079.got.cif
#   From: 2010.05.17/outbox.cif.g08.bks.cpg/sg62_12_cif.got.tgz:22079.got - 2010.06.03 15:25:27.
