data_PCOD9462411
_publ_section_title
;
Structure prediction by ZEFSAII (Michael W. Deem and Ramdas Pophale) SiO2 
 PCOD9462411
Probable space group: P N M A
;
_chemical_formula_sum "Si O2"
_cell_formula_units_Z 64
_cell_length_a 21.079341
_cell_length_b 7.729430
_cell_length_c 20.432348
_cell_angle_alpha 90.000000
_cell_angle_beta 90.000000
_cell_angle_gamma 90.000000
_cell_volume 3329.068832
_symmetry_space_group_name_H-M "P N M A"
_symmetry_group_IT_number 62
_symmetry_cell_setting 'orthorhombic'
loop_
_space_group_symop_operation_xyz
x,y,z
1/2-x,-y,1/2+z
1/2+x,1/2-y,1/2-z
-x,1/2+y,-z
-x,-y,-z
1/2+x,y,1/2-z
1/2-x,1/2+y,1/2+z
x,1/2-y,z
loop_
_atom_site_type_symbol
_atom_site_label
_atom_site_fract_x
_atom_site_fract_y
_atom_site_fract_z
Si Si1 0.685594 0.462581 0.702931
Si Si2 0.929588 0.953264 0.291506
Si Si3 0.307326 0.043445 0.712913
Si Si4 0.730973 0.044391 0.566342
Si Si5 0.250137 0.955791 0.575817
Si Si6 0.879332 0.960293 0.573561
Si Si7 0.933177 0.953771 0.710315
Si Si8 0.895157 0.549848 0.430222
O O1 0.685212 0.250000 0.701850
O O2 0.624049 0.522808 0.742840
O O3 0.748710 0.517416 0.741971
O O4 0.691956 0.524163 0.628158
O O5 0.914391 0.750000 0.299099
O O6 0.925932 0.029684 0.365185
O O7 0.000636 0.969796 0.265914
O O8 0.306977 0.250000 0.715151
O O9 0.292430 0.988441 0.639053
O O10 0.373635 0.983222 0.742600
O O11 0.720083 0.250000 0.565009
O O12 0.719866 0.979926 0.492557
O O13 0.805708 0.013229 0.579233
O O14 0.238632 0.750000 0.570152
O O15 0.180789 0.041246 0.582492
O O16 0.880675 0.750000 0.572664
O O17 0.915556 0.023173 0.637895
O O18 0.904725 0.024848 0.503116
O O19 0.942951 0.750000 0.703983
O O20 0.915367 0.750000 0.434630
#
# Coordination Sequence:
#
# PCOD9462411 Si02
#       8
#     8   8   8   8   8   8   8   8
#     4   9  17  32  55  79 100 130 177 218 253 301
#     4  10  20  35  53  74 101 140 182 218 254 307
#     4  11  20  35  58  78 101 139 180 218 256 310
#     4   9  17  31  52  78 106 134 168 212 259 310
#     4  10  19  30  50  81 111 134 163 213 269 309
#     4   9  18  31  48  72 106 141 173 212 254 302
#     4  11  23  36  49  75 110 141 174 220 270 312
#     4   9  17  32  51  73 103 142 182 211 245 304
#
# _framework density 19.224595999999998
#
# number of rings (size 3 to 8) (size 9 to 14) (size 15 to 20)
#    0.000    2.250    2.500    1.125    0.000    2.000 
#    0.000    0.625    0.000    0.750    0.000    0.000 
#    0.000    0.000    0.000    0.000    0.000    0.000 
#
# Total GULP energy -357069.198196 kJ/mol
# GULP energy per Si atom -5579.206222 kJ/mol
# Density = 1.918084 g / cm^3
# Si number density = 19.224596 Si / 1000 Ang^3
#
#
#
# Elastic Constant Matrix: (Units=GPa)
#
#
# Indices 1 2 3 4 5 6 
#
# 1 71.5282 -17.1756 50.2476 0.0000 0.0000 0.0000
# 2 -17.1756 28.0208 -1.9811 0.0000 0.0000 0.0000
# 3 50.2476 -1.9811 119.8877 0.0000 0.0000 0.0000
# 4 0.0000 0.0000 0.0000 7.6032 0.0000 0.0000
# 5 0.0000 0.0000 0.0000 0.0000 20.2935 0.0000
# 6 0.0000 0.0000 0.0000 0.0000 0.0000 11.6999
#
#
#
# Elastic Compliance Matrix: (Units=1/GPa)
#
#
# Indices 1 2 3 4 5 6 
#
# 1 0.024436 0.014271 -0.010006 0.000000 0.000000 0.000000
# 2 0.014271 0.044064 -0.005253 0.000000 0.000000 0.000000
# 3 -0.010006 -0.005253 0.012448 0.000000 0.000000 0.000000
# 4 0.000000 0.000000 0.000000 0.131524 0.000000 0.000000
# 5 0.000000 0.000000 0.000000 0.000000 0.049277 0.000000
# 6 0.000000 0.000000 0.000000 0.000000 0.000000 0.085471
#
#
# Mechanical properties :
#
#
# Convention : Reuss Voigt Hill
#
# Bulk Modulus (GPa) = 12.66273 31.29096 21.97684
# Shear Modulus (GPa) = 13.31484 20.47570 16.89527
#
# Velocity S-wave (km/s) = 2.63457 3.26709 2.96773
# Velocity P-wave (km/s) = 3.98192 5.52664 4.81661
#
# Compressibility (1/GPa) = 0.07897193
#
# Stress axis : x y z
#
# Youngs Moduli (GPa) = 40.92262 22.69436 80.33374
#
# Poissons Ratio (x) = -0.32387 0.80382
# Poissons Ratio (y) = -0.58401 0.42200
# Poissons Ratio (z) = 0.40947 0.11922
#
# Static dielectric constant tensor:
#      x y z
#    x 1.650740 0.000000 0.000000 
#    y 0.000000 1.709970 0.000000 
#    z 0.000000 0.000000 1.717040 
# 
# From -- ./inp_files/27624.got.cif
#   From: 2010.05.17/outbox.cif.g08.bks.cpg/sg62_14_cif.got.tgz:27624.got - 2010.06.03 15:25:27.
