data_PCOD9462783
_publ_section_title
;
Structure prediction by ZEFSAII (Michael W. Deem and Ramdas Pophale) SiO2 
 PCOD9462783
Probable space group: P N M A
;
_chemical_formula_sum "Si O2"
_cell_formula_units_Z 56
_cell_length_a 20.888755
_cell_length_b 9.368274
_cell_length_c 15.297430
_cell_angle_alpha 90.000000
_cell_angle_beta 90.000000
_cell_angle_gamma 90.000000
_cell_volume 2993.578252
_symmetry_space_group_name_H-M "P N M A"
_symmetry_group_IT_number 62
_symmetry_cell_setting 'orthorhombic'
loop_
_space_group_symop_operation_xyz
x,y,z
1/2-x,-y,1/2+z
1/2+x,1/2-y,1/2-z
-x,1/2+y,-z
-x,-y,-z
1/2+x,y,1/2-z
1/2-x,1/2+y,1/2+z
x,1/2-y,z
loop_
_atom_site_type_symbol
_atom_site_label
_atom_site_fract_x
_atom_site_fract_y
_atom_site_fract_z
Si Si1 0.825228 0.423883 0.816674
Si Si2 0.694737 0.423659 0.500606
Si Si3 0.097586 0.095286 0.493870
Si Si4 0.289001 0.577675 0.862212
Si Si5 0.469653 0.405830 0.114906
Si Si6 0.449795 0.915811 0.443111
Si Si7 0.526942 0.916207 0.271312
O O1 0.816548 0.250000 0.818860
O O2 0.793582 0.496992 0.730892
O O3 0.902118 0.453240 0.806985
O O4 0.800758 0.500073 0.905522
O O5 0.704578 0.250000 0.495602
O O6 0.740266 0.499659 0.571597
O O7 0.622752 0.451826 0.534894
O O8 0.118299 0.250000 0.528933
O O9 0.143358 0.060480 0.413128
O O10 0.026107 0.109388 0.456301
O O11 0.090963 0.980422 0.569878
O O12 0.277676 0.750000 0.852775
O O13 0.452304 0.250000 0.148136
O O14 0.503154 0.496509 0.189295
O O15 0.457896 0.750000 0.463941
O O16 0.472812 0.936566 0.344440
O O17 0.500000 0.000000 0.500000
O O18 0.530270 0.750000 0.247277
#
# Coordination Sequence:
#
# PCOD9462783 Si02
#       7
#     8   8   8   8   8   8   8
#     4  11  22  39  66  93 119 158 204 250 305 369
#     4  11  24  42  64  91 124 161 205 258 311 368
#     4   9  19  35  55  81 115 154 194 244 302 354
#     4  11  23  42  65  89 123 165 210 257 306 370
#     4  10  19  32  54  85 117 151 197 246 297 353
#     4  10  21  38  61  89 120 154 194 248 305 360
#     4  10  20  35  58  87 119 154 194 241 298 362
#
# _framework density 18.706710999999999
#
# number of rings (size 3 to 8) (size 9 to 14) (size 15 to 20)
#    0.000    1.714    2.857    1.714    0.000    3.429 
#    2.571    0.000    0.000    0.000    0.000    0.000 
#    0.000    0.000    0.000    0.000    0.000    0.000 
#
# Total GULP energy -312096.822841 kJ/mol
# GULP energy per Si atom -5573.157551 kJ/mol
# Density = 1.866413 g / cm^3
# Si number density = 18.706711 Si / 1000 Ang^3
#
#
#
# Elastic Constant Matrix: (Units=GPa)
#
#
# Indices 1 2 3 4 5 6 
#
# 1 59.5125 54.7938 45.8415 0.0000 0.0000 0.0000
# 2 54.7938 107.5150 76.6797 0.0000 0.0000 0.0000
# 3 45.8415 76.6797 120.2126 0.0000 0.0000 0.0000
# 4 0.0000 0.0000 0.0000 30.9489 0.0000 0.0000
# 5 0.0000 0.0000 0.0000 0.0000 43.0884 0.0000
# 6 0.0000 0.0000 0.0000 0.0000 0.0000 18.3706
#
#
#
# Elastic Compliance Matrix: (Units=1/GPa)
#
#
# Indices 1 2 3 4 5 6 
#
# 1 0.032373 -0.014116 -0.003341 0.000000 0.000000 0.000000
# 2 -0.014116 0.023219 -0.009428 0.000000 0.000000 0.000000
# 3 -0.003341 -0.009428 0.015606 0.000000 0.000000 0.000000
# 4 0.000000 0.000000 0.000000 0.032311 0.000000 0.000000
# 5 0.000000 0.000000 0.000000 0.000000 0.023208 0.000000
# 6 0.000000 0.000000 0.000000 0.000000 0.000000 0.054435
#
#
# Mechanical properties :
#
#
# Convention : Reuss Voigt Hill
#
# Bulk Modulus (GPa) = 57.37473 71.31891 64.34682
# Shear Modulus (GPa) = 20.77000 25.80993 23.28997
#
# Velocity S-wave (km/s) = 3.33573 3.71848 3.53229
# Velocity P-wave (km/s) = 6.75080 7.52620 7.14902
#
# Compressibility (1/GPa) = 0.01742928
#
# Stress axis : x y z
#
# Youngs Moduli (GPa) = 30.88947 43.06848 64.07672
#
# Poissons Ratio (x) = 0.60795 0.21409
# Poissons Ratio (y) = 0.43603 0.60409
# Poissons Ratio (z) = 0.10321 0.40603
#
# Static dielectric constant tensor:
#      x y z
#    x 1.670030 0.000000 0.000000 
#    y 0.000000 1.681610 0.000000 
#    z 0.000000 0.000000 1.683820 
# 
# From -- ./inp_files/20379.got.cif
#   From: 2010.05.17/outbox.cif.g08.bks.cpg/sg62_11_cif.got.tgz:20379.got - 2010.06.03 15:25:27.
