data_PCOD9462083
_publ_section_title
;
Structure prediction by ZEFSAII (Michael W. Deem and Ramdas Pophale) SiO2 
 PCOD9462083
Probable space group: P N M A
;
_chemical_formula_sum "Si O2"
_cell_formula_units_Z 64
_cell_length_a 29.862186
_cell_length_b 8.805539
_cell_length_c 11.608219
_cell_angle_alpha 90.000000
_cell_angle_beta 90.000000
_cell_angle_gamma 90.000000
_cell_volume 3052.411872
_symmetry_space_group_name_H-M "P N M A"
_symmetry_group_IT_number 62
_symmetry_cell_setting 'orthorhombic'
loop_
_space_group_symop_operation_xyz
x,y,z
1/2-x,-y,1/2+z
1/2+x,1/2-y,1/2-z
-x,1/2+y,-z
-x,-y,-z
1/2+x,y,1/2-z
1/2-x,1/2+y,1/2+z
x,1/2-y,z
loop_
_atom_site_type_symbol
_atom_site_label
_atom_site_fract_x
_atom_site_fract_y
_atom_site_fract_z
Si Si1 0.436811 0.931389 0.054588
Si Si2 0.320957 0.927115 0.542269
Si Si3 0.665841 0.426202 0.194067
Si Si4 0.723143 0.569412 0.995169
Si Si5 0.107054 0.929456 0.893787
Si Si6 0.155244 0.070255 0.671101
Si Si7 0.938904 0.566899 0.700099
Si Si8 0.478528 0.567965 0.296588
O O1 0.444163 0.750000 0.051803
O O2 0.383928 0.954399 0.075810
O O3 0.459932 0.987603 0.171109
O O4 0.450835 0.990569 0.929855
O O5 0.329025 0.750000 0.511844
O O6 0.313798 0.934882 0.678809
O O7 0.274449 0.980517 0.486295
O O8 0.363970 0.020183 0.502928
O O9 0.667206 0.250000 0.153917
O O10 0.693028 0.525099 0.103993
O O11 0.613646 0.466587 0.209719
O O12 0.723782 0.750000 0.978849
O O13 0.700333 0.494269 0.883270
O O14 0.102552 0.750000 0.886236
O O15 0.136469 0.991274 0.785646
O O16 0.057781 0.003470 0.885340
O O17 0.158509 0.250000 0.692326
O O18 0.944242 0.750000 0.705290
O O19 0.970960 0.492256 0.794625
O O20 0.477459 0.750000 0.300999
#
# Coordination Sequence:
#
# PCOD9462083 Si02
#       8
#     8   8   8   8   8   8   8   8
#     4   8  15  29  50  79 116 154 193 234 291 354
#     4  10  24  44  63  87 120 161 205 254 307 364
#     4  10  22  42  65  87 121 165 207 251 309 367
#     4  11  23  38  60  93 125 155 202 253 304 366
#     4  11  23  40  62  89 120 158 206 256 303 359
#     4  10  19  36  60  87 122 162 198 240 303 362
#     4  10  18  33  56  84 116 156 204 253 299 358
#     4  10  20  34  55  85 121 162 199 245 307 370
#
# _framework density 20.967026000000001
#
# number of rings (size 3 to 8) (size 9 to 14) (size 15 to 20)
#    0.000    2.000    1.250    3.375    1.750    2.000 
#    0.000    1.250    0.000    0.000    0.000    0.000 
#    0.000    0.000    0.000    0.000    0.000    0.000 
#
# Total GULP energy -357416.304189 kJ/mol
# GULP energy per Si atom -5584.629753 kJ/mol
# Density = 2.091930 g / cm^3
# Si number density = 20.967026 Si / 1000 Ang^3
#
#
#
# Elastic Constant Matrix: (Units=GPa)
#
#
# Indices 1 2 3 4 5 6 
#
# 1 76.5207 23.0601 -6.8410 0.0000 0.0000 0.0000
# 2 23.0601 57.0104 3.4935 0.0000 0.0000 0.0000
# 3 -6.8410 3.4935 23.5190 0.0000 0.0000 0.0000
# 4 0.0000 0.0000 0.0000 20.5582 0.0000 0.0000
# 5 0.0000 0.0000 0.0000 0.0000 17.1129 0.0000
# 6 0.0000 0.0000 0.0000 0.0000 0.0000 25.4698
#
#
#
# Elastic Compliance Matrix: (Units=1/GPa)
#
#
# Indices 1 2 3 4 5 6 
#
# 1 0.015559 -0.006631 0.005511 0.000000 0.000000 0.000000
# 2 -0.006631 0.020528 -0.004978 0.000000 0.000000 0.000000
# 3 0.005511 -0.004978 0.044861 0.000000 0.000000 0.000000
# 4 0.000000 0.000000 0.000000 0.048642 0.000000 0.000000
# 5 0.000000 0.000000 0.000000 0.000000 0.058435 0.000000
# 6 0.000000 0.000000 0.000000 0.000000 0.000000 0.039262
#
#
# Mechanical properties :
#
#
# Convention : Reuss Voigt Hill
#
# Bulk Modulus (GPa) = 14.54513 21.83059 18.18786
# Shear Modulus (GPa) = 19.05467 21.78402 20.41934
#
# Velocity S-wave (km/s) = 3.01789 3.22680 3.12409
# Velocity P-wave (km/s) = 4.36987 4.93127 4.65903
#
# Compressibility (1/GPa) = 0.06875152
#
# Stress axis : x y z
#
# Youngs Moduli (GPa) = 64.26972 48.71396 22.29095
#
# Poissons Ratio (x) = 0.32304 -0.12284
# Poissons Ratio (y) = 0.42619 0.11097
# Poissons Ratio (z) = -0.35418 0.24250
#
# Static dielectric constant tensor:
#      x y z
#    x 1.785840 0.000000 0.000000 
#    y 0.000000 1.707070 0.000000 
#    z 0.000000 0.000000 1.777700 
# 
# From -- ./inp_files/15879.got.cif
#   From: 2010.05.17/outbox.cif.g08.bks.cpg/sg62_8_cif.got.tgz:15879.got - 2010.06.03 15:25:27.
