data_PCOD9462857
_publ_section_title
;
Structure prediction by ZEFSAII (Michael W. Deem and Ramdas Pophale) SiO2 
 PCOD9462857
Probable space group: P N M A
;
_chemical_formula_sum "Si O2"
_cell_formula_units_Z 64
_cell_length_a 12.278888
_cell_length_b 8.666818
_cell_length_c 30.134727
_cell_angle_alpha 90.000000
_cell_angle_beta 90.000000
_cell_angle_gamma 90.000000
_cell_volume 3206.904124
_symmetry_space_group_name_H-M "P N M A"
_symmetry_group_IT_number 62
_symmetry_cell_setting 'orthorhombic'
loop_
_space_group_symop_operation_xyz
x,y,z
1/2-x,-y,1/2+z
1/2+x,1/2-y,1/2-z
-x,1/2+y,-z
-x,-y,-z
1/2+x,y,1/2-z
1/2-x,1/2+y,1/2+z
x,1/2-y,z
loop_
_atom_site_type_symbol
_atom_site_label
_atom_site_fract_x
_atom_site_fract_y
_atom_site_fract_z
Si Si1 0.735241 0.433165 0.974586
Si Si2 0.472726 0.935514 0.276375
Si Si3 0.472567 0.436465 0.820512
Si Si4 0.459206 0.568409 0.563728
Si Si5 0.358835 0.568970 0.659187
Si Si6 0.726824 0.437678 0.663218
Si Si7 0.637059 0.934822 0.888513
Si Si8 0.804922 0.565581 0.061715
O O1 0.732406 0.250000 0.974350
O O2 0.853598 0.492811 0.958253
O O3 0.652697 0.498137 0.937737
O O4 0.725944 0.495489 0.024558
O O5 0.467563 0.750000 0.275764
O O6 0.471791 0.987951 0.225460
O O7 0.371522 0.994136 0.305783
O O8 0.584762 0.982227 0.300467
O O9 0.479934 0.250000 0.823779
O O10 0.345555 0.478746 0.818893
O O11 0.531234 0.508973 0.862808
O O12 0.463175 0.750000 0.552601
O O13 0.438025 0.553749 0.616498
O O14 0.571447 0.486984 0.551807
O O15 0.349556 0.750000 0.669878
O O16 0.241506 0.513502 0.641435
O O17 0.719788 0.250000 0.662747
O O18 0.717833 0.487417 0.611996
O O19 0.642327 0.750000 0.891402
O O20 0.798144 0.750000 0.059772
#
# Coordination Sequence:
#
# PCOD9462857 Si02
#       8
#     8   8   8   8   8   8   8   8
#     4  11  22  36  57  85 116 152 200 245 300 361
#     4  10  20  35  60  89 117 151 194 241 292 350
#     4  10  22  39  62  87 117 154 199 247 293 347
#     4  10  19  33  52  81 120 156 194 241 294 351
#     4   9  19  34  54  81 116 151 186 236 287 342
#     4   9  20  38  57  87 123 154 195 247 294 345
#     4  10  22  41  60  84 119 154 197 245 297 353
#     4  11  20  34  56  81 118 160 200 246 302 355
#
# _framework density 19.956942000000002
#
# number of rings (size 3 to 8) (size 9 to 14) (size 15 to 20)
#    0.000    2.000    1.250    3.375    1.750    3.000 
#    0.000    2.500    0.000    0.000    0.000    0.000 
#    0.000    0.000    0.000    0.000    0.000    0.000 
#
# Total GULP energy -357416.113250 kJ/mol
# GULP energy per Si atom -5584.626770 kJ/mol
# Density = 1.991152 g / cm^3
# Si number density = 19.956942 Si / 1000 Ang^3
#
#
#
# Elastic Constant Matrix: (Units=GPa)
#
#
# Indices 1 2 3 4 5 6 
#
# 1 36.2798 0.9059 19.0305 0.0000 0.0000 0.0000
# 2 0.9059 48.4074 25.1288 0.0000 0.0000 0.0000
# 3 19.0305 25.1288 100.7646 0.0000 0.0000 0.0000
# 4 0.0000 0.0000 0.0000 22.0184 0.0000 0.0000
# 5 0.0000 0.0000 0.0000 0.0000 12.8892 0.0000
# 6 0.0000 0.0000 0.0000 0.0000 0.0000 17.4279
#
#
#
# Elastic Compliance Matrix: (Units=1/GPa)
#
#
# Indices 1 2 3 4 5 6 
#
# 1 0.030925 0.002818 -0.006543 0.000000 0.000000 0.000000
# 2 0.002818 0.023987 -0.006514 0.000000 0.000000 0.000000
# 3 -0.006543 -0.006514 0.012784 0.000000 0.000000 0.000000
# 4 0.000000 0.000000 0.000000 0.045417 0.000000 0.000000
# 5 0.000000 0.000000 0.000000 0.000000 0.077584 0.000000
# 6 0.000000 0.000000 0.000000 0.000000 0.000000 0.057379
#
#
# Mechanical properties :
#
#
# Convention : Reuss Voigt Hill
#
# Bulk Modulus (GPa) = 21.17848 30.62025 25.89936
# Shear Modulus (GPa) = 17.58738 19.82621 18.70680
#
# Velocity S-wave (km/s) = 2.97183 3.15532 3.06495
# Velocity P-wave (km/s) = 4.73401 5.35268 5.05282
#
# Compressibility (1/GPa) = 0.04721774
#
# Stress axis : x y z
#
# Youngs Moduli (GPa) = 32.33580 41.68960 78.22033
#
# Poissons Ratio (x) = -0.11748 0.51182
# Poissons Ratio (y) = -0.09112 0.50953
# Poissons Ratio (z) = 0.21158 0.27157
#
# Static dielectric constant tensor:
#      x y z
#    x 1.687910 0.000000 0.000000 
#    y 0.000000 1.670600 0.000000 
#    z 0.000000 0.000000 1.726990 
# 
# From -- ./inp_files/32521.got.cif
#   From: 2010.05.17/outbox.cif.g08.bks.cpg/sg62_17_cif.got.tgz:32521.got - 2010.06.03 15:25:27.
