data_PCOD9462124
_publ_section_title
;
Structure prediction by ZEFSAII (Michael W. Deem and Ramdas Pophale) SiO2 
 PCOD9462124
Probable space group: P N M A
;
_chemical_formula_sum "Si O2"
_cell_formula_units_Z 40
_cell_length_a 8.350987
_cell_length_b 11.751592
_cell_length_c 18.829543
_cell_angle_alpha 90.000000
_cell_angle_beta 90.000000
_cell_angle_gamma 90.000000
_cell_volume 1847.882243
_symmetry_space_group_name_H-M "P N M A"
_symmetry_group_IT_number 62
_symmetry_cell_setting 'orthorhombic'
loop_
_space_group_symop_operation_xyz
x,y,z
1/2-x,-y,1/2+z
1/2+x,1/2-y,1/2-z
-x,1/2+y,-z
-x,-y,-z
1/2+x,y,1/2-z
1/2-x,1/2+y,1/2+z
x,1/2-y,z
loop_
_atom_site_type_symbol
_atom_site_label
_atom_site_fract_x
_atom_site_fract_y
_atom_site_fract_z
Si Si1 0.083767 0.250000 0.770565
Si Si2 0.286602 0.032395 0.950607
Si Si3 0.256258 0.616140 0.725957
Si Si4 0.098519 0.750000 0.361855
Si Si5 0.075632 0.616582 0.586813
Si Si6 0.055854 0.009616 0.833963
O O1 0.264330 0.250000 0.800925
O O2 0.013315 0.366489 0.803042
O O3 0.061486 0.250000 0.685568
O O4 0.371552 0.139671 0.910423
O O5 0.401151 0.926223 0.934677
O O6 0.113920 0.019329 0.914881
O O7 0.299113 0.055923 0.034053
O O8 0.263660 0.750000 0.744021
O O9 0.115302 0.595229 0.668700
O O10 0.416038 0.576961 0.685903
O O11 0.212236 0.537996 0.792320
O O12 0.091658 0.750000 0.575692
#
# Coordination Sequence:
#
# PCOD9462124 Si02
#       6
#     4   8   8   4   8   8
#     4  10  20  32  56  82 116 146 184 238 288 348
#     4  10  21  36  60  82 116 152 195 241 288 352
#     4  11  23  38  60  86 118 153 195 243 289 354
#     4  10  18  34  54  84 112 150 188 236 292 342
#     4  10  21  39  59  84 115 155 195 238 292 348
#     4  11  22  38  59  89 117 155 192 245 298 344
#
# _framework density 21.646401000000001
#
# number of rings (size 3 to 8) (size 9 to 14) (size 15 to 20)
#    0.000    1.600    1.000    5.400    0.000    4.000 
#    0.000    0.000    0.000    0.000    0.000    0.000 
#    0.000    0.000    0.000    0.000    0.000    0.000 
#
# Total GULP energy -223531.252471 kJ/mol
# GULP energy per Si atom -5588.281312 kJ/mol
# Density = 2.159713 g / cm^3
# Si number density = 21.646401 Si / 1000 Ang^3
#
#
#
# Elastic Constant Matrix: (Units=GPa)
#
#
# Indices 1 2 3 4 5 6 
#
# 1 23.5960 -4.3087 -11.7116 0.0000 0.0000 0.0000
# 2 -4.3087 48.4570 5.0368 0.0000 0.0000 0.0000
# 3 -11.7116 5.0368 54.1782 0.0000 0.0000 0.0000
# 4 0.0000 0.0000 0.0000 21.1601 0.0000 0.0000
# 5 0.0000 0.0000 0.0000 0.0000 30.5453 0.0000
# 6 0.0000 0.0000 0.0000 0.0000 0.0000 29.6876
#
#
#
# Elastic Compliance Matrix: (Units=1/GPa)
#
#
# Indices 1 2 3 4 5 6 
#
# 1 0.047966 0.003218 0.010069 0.000000 0.000000 0.000000
# 2 0.003218 0.021054 -0.001262 0.000000 0.000000 0.000000
# 3 0.010069 -0.001262 0.020752 0.000000 0.000000 0.000000
# 4 0.000000 0.000000 0.000000 0.047259 0.000000 0.000000
# 5 0.000000 0.000000 0.000000 0.000000 0.032738 0.000000
# 6 0.000000 0.000000 0.000000 0.000000 0.000000 0.033684
#
#
# Mechanical properties :
#
#
# Convention : Reuss Voigt Hill
#
# Bulk Modulus (GPa) = 8.78552 11.58491 10.18522
# Shear Modulus (GPa) = 23.00529 25.42626 24.21578
#
# Velocity S-wave (km/s) = 3.26356 3.43099 3.34832
# Velocity P-wave (km/s) = 4.27418 4.58902 4.43439
#
# Compressibility (1/GPa) = 0.11382366
#
# Stress axis : x y z
#
# Youngs Moduli (GPa) = 20.84827 47.49655 48.18908
#
# Poissons Ratio (x) = -0.15286 -0.48524
# Poissons Ratio (y) = -0.06710 0.06080
# Poissons Ratio (z) = -0.20993 0.05992
#
# Static dielectric constant tensor:
#      x y z
#    x 1.818710 0.000000 0.000000 
#    y 0.000000 1.741440 0.000000 
#    z 0.000000 0.000000 1.796840 
# 
# From -- ./inp_files/21928.got.cif
#   From: 2010.05.17/outbox.cif.g08.bks.cpg/sg62_11_cif.got.tgz:21928.got - 2010.06.03 15:25:27.
