data_PCOD9462856
_publ_section_title
;
Structure prediction by ZEFSAII (Michael W. Deem and Ramdas Pophale) SiO2 
 PCOD9462856
Probable space group: P N M A
;
_chemical_formula_sum "Si O2"
_cell_formula_units_Z 64
_cell_length_a 29.938591
_cell_length_b 7.853826
_cell_length_c 11.374018
_cell_angle_alpha 90.000000
_cell_angle_beta 90.000000
_cell_angle_gamma 90.000000
_cell_volume 2674.401110
_symmetry_space_group_name_H-M "P N M A"
_symmetry_group_IT_number 62
_symmetry_cell_setting 'orthorhombic'
loop_
_space_group_symop_operation_xyz
x,y,z
1/2-x,-y,1/2+z
1/2+x,1/2-y,1/2-z
-x,1/2+y,-z
-x,-y,-z
1/2+x,y,1/2-z
1/2-x,1/2+y,1/2+z
x,1/2-y,z
loop_
_atom_site_type_symbol
_atom_site_label
_atom_site_fract_x
_atom_site_fract_y
_atom_site_fract_z
Si Si1 0.129436 0.542627 0.620638
Si Si2 0.138154 0.955934 0.363102
Si Si3 0.973618 0.045403 0.381618
Si Si4 0.772049 0.552055 0.013037
Si Si5 0.949615 0.060355 0.018293
Si Si6 0.727108 0.954212 0.251232
Si Si7 0.553426 0.050300 0.271924
Si Si8 0.860614 0.457717 0.123344
O O1 0.129676 0.750000 0.622671
O O2 0.150293 0.491396 0.496297
O O3 0.077388 0.486407 0.619847
O O4 0.150961 0.487950 0.743430
O O5 0.135010 0.750000 0.361853
O O6 0.175855 0.009497 0.271260
O O7 0.090057 0.026716 0.328690
O O8 0.972126 0.250000 0.374853
O O9 0.005428 0.987761 0.275014
O O10 0.000000 0.000000 0.500000
O O11 0.760924 0.750000 0.015995
O O12 0.752187 0.475953 0.134763
O O13 0.824877 0.523674 0.030750
O O14 0.757764 0.495680 0.883022
O O15 0.953668 0.250000 0.065468
O O16 0.931175 0.052079 0.885557
O O17 0.910775 0.978281 0.095725
O O18 0.000000 0.000000 0.000000
O O19 0.728332 0.750000 0.244477
O O20 0.550641 0.250000 0.302388
O O21 0.860494 0.250000 0.116794
#
# Coordination Sequence:
#
# PCOD9462856 Si02
#       8
#     8   8   8   8   8   8   8   8
#     4   9  18  34  59  85 114 159 208 252 302 368
#     4  10  20  37  61  86 116 157 207 253 304 375
#     4  10  19  33  52  79 115 154 201 253 303 362
#     4  11  25  44  69 100 131 167 212 265 324 387
#     4  11  23  39  60  87 120 162 210 256 306 370
#     4  10  24  44  66  96 128 162 209 258 312 384
#     4  11  22  35  55  84 120 156 197 252 311 368
#     4  10  22  41  65  90 124 169 213 258 318 383
#
# _framework density 23.930591
#
# number of rings (size 3 to 8) (size 9 to 14) (size 15 to 20)
#    0.000    1.750    1.250    2.625    1.750    8.000 
#    0.000    1.250    0.000    0.000    0.000    0.000 
#    0.000    0.000    0.000    0.000    0.000    0.000 
#
# Total GULP energy -357564.359541 kJ/mol
# GULP energy per Si atom -5586.943118 kJ/mol
# Density = 2.387612 g / cm^3
# Si number density = 23.930591 Si / 1000 Ang^3
#
#
#
# Elastic Constant Matrix: (Units=GPa)
#
#
# Indices 1 2 3 4 5 6 
#
# 1 66.8164 2.4587 32.6892 0.0000 0.0000 0.0000
# 2 2.4587 30.8284 10.1398 0.0000 0.0000 0.0000
# 3 32.6892 10.1398 168.6871 0.0000 0.0000 0.0000
# 4 0.0000 0.0000 0.0000 23.2506 0.0000 0.0000
# 5 0.0000 0.0000 0.0000 0.0000 44.3904 0.0000
# 6 0.0000 0.0000 0.0000 0.0000 0.0000 9.1222
#
#
#
# Elastic Compliance Matrix: (Units=1/GPa)
#
#
# Indices 1 2 3 4 5 6 
#
# 1 0.016536 -0.000270 -0.003188 0.000000 0.000000 0.000000
# 2 -0.000270 0.033096 -0.001937 0.000000 0.000000 0.000000
# 3 -0.003188 -0.001937 0.006662 0.000000 0.000000 0.000000
# 4 0.000000 0.000000 0.000000 0.043010 0.000000 0.000000
# 5 0.000000 0.000000 0.000000 0.000000 0.022527 0.000000
# 6 0.000000 0.000000 0.000000 0.000000 0.000000 0.109623
#
#
# Mechanical properties :
#
#
# Convention : Reuss Voigt Hill
#
# Bulk Modulus (GPa) = 21.97613 39.65635 30.81624
# Shear Modulus (GPa) = 19.42398 30.08892 24.75645
#
# Velocity S-wave (km/s) = 2.85209 3.54975 3.21987
# Velocity P-wave (km/s) = 4.47762 5.77999 5.16998
#
# Compressibility (1/GPa) = 0.04550391
#
# Stress axis : x y z
#
# Youngs Moduli (GPa) = 60.47361 30.21483 150.09592
#
# Poissons Ratio (x) = 0.00816 0.47854
# Poissons Ratio (y) = 0.01634 0.29074
# Poissons Ratio (z) = 0.19280 0.05853
#
# Static dielectric constant tensor:
#      x y z
#    x 1.921260 0.000000 0.000000 
#    y 0.000000 1.886450 0.000000 
#    z 0.000000 0.000000 1.959100 
# 
# From -- ./inp_files/15848.got.cif
#   From: 2010.05.17/outbox.cif.g08.bks.cpg/sg62_8_cif.got.tgz:15848.got - 2010.06.03 15:25:27.
