data_PCOD9462632
_publ_section_title
;
Structure prediction by ZEFSAII (Michael W. Deem and Ramdas Pophale) SiO2 
 PCOD9462632
Probable space group: P N M A
;
_chemical_formula_sum "Si O2"
_cell_formula_units_Z 64
_cell_length_a 20.174969
_cell_length_b 8.015126
_cell_length_c 19.925436
_cell_angle_alpha 90.000000
_cell_angle_beta 90.000000
_cell_angle_gamma 90.000000
_cell_volume 3222.041006
_symmetry_space_group_name_H-M "P N M A"
_symmetry_group_IT_number 62
_symmetry_cell_setting 'orthorhombic'
loop_
_space_group_symop_operation_xyz
x,y,z
1/2-x,-y,1/2+z
1/2+x,1/2-y,1/2-z
-x,1/2+y,-z
-x,-y,-z
1/2+x,y,1/2-z
1/2-x,1/2+y,1/2+z
x,1/2-y,z
loop_
_atom_site_type_symbol
_atom_site_label
_atom_site_fract_x
_atom_site_fract_y
_atom_site_fract_z
Si Si1 0.346154 0.048742 0.544813
Si Si2 0.990236 0.552769 0.741584
Si Si3 0.020783 0.552545 0.109769
Si Si4 0.777906 0.945673 0.374143
Si Si5 0.356820 0.547363 0.251925
Si Si6 0.967274 0.050838 0.596748
Si Si7 0.605334 0.945517 0.966967
Si Si8 0.370895 0.548602 0.400943
O O1 0.347349 0.250000 0.550510
O O2 0.418374 0.982755 0.567011
O O3 0.288883 0.982883 0.593812
O O4 0.333636 0.006455 0.467451
O O5 0.983881 0.750000 0.747226
O O6 0.068159 0.506747 0.735309
O O7 0.955019 0.491861 0.673930
O O8 0.966241 0.472508 0.811084
O O9 0.017289 0.750000 0.096561
O O10 0.947229 0.484192 0.095294
O O11 0.765523 0.750000 0.361701
O O12 0.806663 0.016846 0.304621
O O13 0.836317 0.961555 0.428794
O O14 0.356898 0.750000 0.249878
O O15 0.343126 0.494815 0.328546
O O16 0.975197 0.250000 0.589812
O O17 0.911929 0.998009 0.542663
O O18 0.036577 0.969654 0.573502
O O19 0.622185 0.750000 0.967865
O O20 0.372720 0.750000 0.399980
#
# Coordination Sequence:
#
# PCOD9462632 Si02
#       8
#     8   8   8   8   8   8   8   8
#     4  10  21  36  55  80 107 142 181 218 268 329
#     4  11  20  30  51  82 109 134 175 223 269 315
#     4   9  19  36  55  76 107 142 179 221 272 329
#     4  10  20  35  55  76 106 145 180 217 266 322
#     4   9  18  34  54  76 103 139 176 211 263 322
#     4  10  19  32  50  74 108 143 175 218 268 314
#     4  10  20  32  50  77 104 137 182 223 262 309
#     4   9  18  33  55  79 103 136 177 224 272 316
#
# _framework density 19.863185000000001
#
# number of rings (size 3 to 8) (size 9 to 14) (size 15 to 20)
#    0.000    2.250    1.250    3.000    0.000    4.500 
#    0.000    1.250    0.000    3.000    0.000    0.000 
#    0.000    0.000    0.000    0.000    0.000    0.000 
#
# Total GULP energy -357091.396867 kJ/mol
# GULP energy per Si atom -5579.553076 kJ/mol
# Density = 1.981798 g / cm^3
# Si number density = 19.863185 Si / 1000 Ang^3
#
#
#
# Elastic Constant Matrix: (Units=GPa)
#
#
# Indices 1 2 3 4 5 6 
#
# 1 45.9731 3.3590 39.6818 0.0000 0.0000 0.0000
# 2 3.3590 13.3822 -10.9493 0.0000 0.0000 0.0000
# 3 39.6818 -10.9493 120.1817 0.0000 0.0000 0.0000
# 4 0.0000 0.0000 0.0000 23.7643 0.0000 0.0000
# 5 0.0000 0.0000 0.0000 0.0000 26.1091 0.0000
# 6 0.0000 0.0000 0.0000 0.0000 0.0000 9.5488
#
#
#
# Elastic Compliance Matrix: (Units=1/GPa)
#
#
# Indices 1 2 3 4 5 6 
#
# 1 0.034550 -0.019456 -0.013180 0.000000 0.000000 0.000000
# 2 -0.019456 0.091701 0.014779 0.000000 0.000000 0.000000
# 3 -0.013180 0.014779 0.014019 0.000000 0.000000 0.000000
# 4 0.000000 0.000000 0.000000 0.042080 0.000000 0.000000
# 5 0.000000 0.000000 0.000000 0.000000 0.038301 0.000000
# 6 0.000000 0.000000 0.000000 0.000000 0.000000 0.104725
#
#
# Mechanical properties :
#
#
# Convention : Reuss Voigt Hill
#
# Bulk Modulus (GPa) = 9.56439 27.07999 18.32219
# Shear Modulus (GPa) = 12.62804 21.71414 17.17109
#
# Velocity S-wave (km/s) = 2.52415 3.30992 2.94337
# Velocity P-wave (km/s) = 3.64975 5.31698 4.56021
#
# Compressibility (1/GPa) = 0.10455454
#
# Stress axis : x y z
#
# Youngs Moduli (GPa) = 28.94353 10.90496 71.33135
#
# Poissons Ratio (x) = 0.21217 0.94017
# Poissons Ratio (y) = 0.56313 -1.05418
# Poissons Ratio (z) = 0.38149 -0.16116
#
# Static dielectric constant tensor:
#      x y z
#    x 1.688430 0.000000 0.000000 
#    y 0.000000 1.712840 0.000000 
#    z 0.000000 0.000000 1.727380 
# 
# From -- ./inp_files/27724.got.cif
#   From: 2010.05.17/outbox.cif.g08.bks.cpg/sg62_14_cif.got.tgz:27724.got - 2010.06.03 15:25:27.
