data_PCOD9462663
_publ_section_title
;
Structure prediction by ZEFSAII (Michael W. Deem and Ramdas Pophale) SiO2 
 PCOD9462663
Probable space group: P N M A
;
_chemical_formula_sum "Si O2"
_cell_formula_units_Z 40
_cell_length_a 16.114358
_cell_length_b 8.595775
_cell_length_c 16.313588
_cell_angle_alpha 90.000000
_cell_angle_beta 90.000000
_cell_angle_gamma 90.000000
_cell_volume 2259.683096
_symmetry_space_group_name_H-M "P N M A"
_symmetry_group_IT_number 62
_symmetry_cell_setting 'orthorhombic'
loop_
_space_group_symop_operation_xyz
x,y,z
1/2-x,-y,1/2+z
1/2+x,1/2-y,1/2-z
-x,1/2+y,-z
-x,-y,-z
1/2+x,y,1/2-z
1/2-x,1/2+y,1/2+z
x,1/2-y,z
loop_
_atom_site_type_symbol
_atom_site_label
_atom_site_fract_x
_atom_site_fract_y
_atom_site_fract_z
Si Si1 0.453299 0.561922 0.379313
Si Si2 0.126575 0.564213 0.039546
Si Si3 0.940563 0.938441 0.307179
Si Si4 0.567619 0.937340 0.064177
Si Si5 0.305503 0.063544 0.064730
O O1 0.448839 0.750000 0.382074
O O2 0.391987 0.495407 0.447817
O O3 0.546495 0.515895 0.406713
O O4 0.434998 0.510804 0.286806
O O5 0.129883 0.750000 0.039688
O O6 0.212958 0.498846 0.071964
O O7 0.936257 0.750000 0.308889
O O8 0.029165 0.984960 0.348463
O O9 0.867042 0.002195 0.364500
O O10 0.567471 0.750000 0.063338
O O11 0.654535 0.986464 0.023559
O O12 0.500000 0.000000 0.000000
O O13 0.304989 0.250000 0.067626
#
# Coordination Sequence:
#
# PCOD9462663 Si02
#       5
#     8   8   8   8   8
#     4   9  19  36  56  75  98 135 178 218 261 308
#     4  10  20  35  54  75 103 139 178 214 258 310
#     4   9  17  33  55  77 101 131 173 217 261 308
#     4   8  15  28  48  72  99 132 164 201 249 303
#     4  10  19  32  51  78 110 138 170 210 258 309
#
# _framework density 17.701597
#
# number of rings (size 3 to 8) (size 9 to 14) (size 15 to 20)
#    0.000    2.800    0.000    1.200    0.000    2.400 
#    3.600    0.000    0.000    0.000    0.000    0.000 
#    0.000    0.000    0.000    0.000    0.000    0.000 
#
# Total GULP energy -222749.126978 kJ/mol
# GULP energy per Si atom -5568.728174 kJ/mol
# Density = 1.766131 g / cm^3
# Si number density = 17.701597 Si / 1000 Ang^3
#
#
#
# Elastic Constant Matrix: (Units=GPa)
#
#
# Indices 1 2 3 4 5 6 
#
# 1 90.7211 18.6983 47.6393 0.0000 0.0000 0.0000
# 2 18.6983 14.7544 24.5181 0.0000 0.0000 0.0000
# 3 47.6393 24.5181 126.8085 0.0000 0.0000 0.0000
# 4 0.0000 0.0000 0.0000 22.7039 0.0000 0.0000
# 5 0.0000 0.0000 0.0000 0.0000 12.4049 0.0000
# 6 0.0000 0.0000 0.0000 0.0000 0.0000 23.5692
#
#
#
# Elastic Compliance Matrix: (Units=1/GPa)
#
#
# Indices 1 2 3 4 5 6 
#
# 1 0.015665 -0.014842 -0.003016 0.000000 0.000000 0.000000
# 2 -0.014842 0.113923 -0.016451 0.000000 0.000000 0.000000
# 3 -0.003016 -0.016451 0.012200 0.000000 0.000000 0.000000
# 4 0.000000 0.000000 0.000000 0.044045 0.000000 0.000000
# 5 0.000000 0.000000 0.000000 0.000000 0.080613 0.000000
# 6 0.000000 0.000000 0.000000 0.000000 0.000000 0.042428
#
#
# Mechanical properties :
#
#
# Convention : Reuss Voigt Hill
#
# Bulk Modulus (GPa) = 13.66660 45.99951 29.83306
# Shear Modulus (GPa) = 12.44150 21.16415 16.80283
#
# Velocity S-wave (km/s) = 2.65400 3.46151 3.08429
# Velocity P-wave (km/s) = 4.13871 6.48217 5.43817
#
# Compressibility (1/GPa) = 0.07317107
#
# Stress axis : x y z
#
# Youngs Moduli (GPa) = 63.83549 8.77789 81.97033
#
# Poissons Ratio (x) = 0.13028 0.24718
# Poissons Ratio (y) = 0.94742 1.34849
# Poissons Ratio (z) = 0.19250 0.14441
#
# Static dielectric constant tensor:
#      x y z
#    x 1.602360 0.000000 0.000000 
#    y 0.000000 1.604230 0.000000 
#    z 0.000000 0.000000 1.613180 
# 
# From -- ./inp_files/18632.got.cif
#   From: 2010.05.17/outbox.cif.g08.bks.cpg/sg62_10_cif.got.tgz:18632.got - 2010.06.03 15:25:27.
