data_PCOD9462459
_publ_section_title
;
Structure prediction by ZEFSAII (Michael W. Deem and Ramdas Pophale) SiO2 
 PCOD9462459
Probable space group: P N M A
;
_chemical_formula_sum "Si O2"
_cell_formula_units_Z 64
_cell_length_a 14.897027
_cell_length_b 8.470633
_cell_length_c 31.154017
_cell_angle_alpha 90.000000
_cell_angle_beta 90.000000
_cell_angle_gamma 90.000000
_cell_volume 3931.239685
_symmetry_space_group_name_H-M "P N M A"
_symmetry_group_IT_number 62
_symmetry_cell_setting 'orthorhombic'
loop_
_space_group_symop_operation_xyz
x,y,z
1/2-x,-y,1/2+z
1/2+x,1/2-y,1/2-z
-x,1/2+y,-z
-x,-y,-z
1/2+x,y,1/2-z
1/2-x,1/2+y,1/2+z
x,1/2-y,z
loop_
_atom_site_type_symbol
_atom_site_label
_atom_site_fract_x
_atom_site_fract_y
_atom_site_fract_z
Si Si1 0.106246 0.558630 0.045212
Si Si2 0.226941 0.059702 0.284244
Si Si3 0.148223 0.937854 0.863647
Si Si4 0.980747 0.066221 0.815595
Si Si5 0.103582 0.438675 0.951122
Si Si6 0.301090 0.439676 0.630830
Si Si7 0.523234 0.065727 0.223644
Si Si8 0.334628 0.561534 0.200517
O O1 0.107998 0.750000 0.044111
O O2 0.170260 0.501512 0.083805
O O3 0.001945 0.513129 0.053819
O O4 0.131030 0.493252 0.998600
O O5 0.224855 0.250000 0.280542
O O6 0.275538 0.019610 0.329002
O O7 0.123872 0.002256 0.284164
O O8 0.283591 0.999036 0.243388
O O9 0.133403 0.750000 0.860603
O O10 0.160990 0.984794 0.913022
O O11 0.060089 0.030688 0.848344
O O12 0.983425 0.250000 0.802370
O O13 0.886717 0.034707 0.838497
O O14 0.992806 0.958123 0.774312
O O15 0.107841 0.250000 0.947911
O O16 0.290651 0.250000 0.626290
O O17 0.216285 0.499729 0.657845
O O18 0.521873 0.250000 0.212639
O O19 0.438742 0.984469 0.201342
O O20 0.326647 0.750000 0.201371
#
# Coordination Sequence:
#
# PCOD9462459 Si02
#       8
#     8   8   8   8   8   8   8   8
#     4   9  17  32  49  68  99 133 163 199 244 297
#     4  10  22  36  50  70  99 134 173 210 246 296
#     4  11  21  33  49  72  99 134 172 206 249 297
#     4  11  19  31  49  72 100 133 170 209 245 288
#     4  10  19  31  48  73 101 129 163 203 246 298
#     4   9  18  32  49  72 100 131 168 205 245 293
#     4  11  22  36  49  69 102 137 170 210 253 296
#     4  11  21  33  52  75  99 131 171 211 251 295
#
# _framework density 16.279852000000002
#
# number of rings (size 3 to 8) (size 9 to 14) (size 15 to 20)
#    0.000    1.750    3.750    1.875    0.000    1.500 
#    0.000    1.250    0.000    0.000    0.000    0.875 
#    0.000    0.000    0.000    0.000    0.000    0.000 
#
# Total GULP energy -356977.892795 kJ/mol
# GULP energy per Si atom -5577.779575 kJ/mol
# Density = 1.624280 g / cm^3
# Si number density = 16.279852 Si / 1000 Ang^3
#
#
#
# Elastic Constant Matrix: (Units=GPa)
#
#
# Indices 1 2 3 4 5 6 
#
# 1 54.1405 10.3040 3.4835 0.0000 0.0000 0.0000
# 2 10.3040 19.1698 4.7992 0.0000 0.0000 0.0000
# 3 3.4835 4.7992 60.5442 0.0000 0.0000 0.0000
# 4 0.0000 0.0000 0.0000 17.2117 0.0000 0.0000
# 5 0.0000 0.0000 0.0000 0.0000 13.2749 0.0000
# 6 0.0000 0.0000 0.0000 0.0000 0.0000 15.0971
#
#
#
# Elastic Compliance Matrix: (Units=1/GPa)
#
#
# Indices 1 2 3 4 5 6 
#
# 1 0.020581 -0.010984 -0.000313 0.000000 0.000000 0.000000
# 2 -0.010984 0.059084 -0.004051 0.000000 0.000000 0.000000
# 3 -0.000313 -0.004051 0.016856 0.000000 0.000000 0.000000
# 4 0.000000 0.000000 0.000000 0.058100 0.000000 0.000000
# 5 0.000000 0.000000 0.000000 0.000000 0.075330 0.000000
# 6 0.000000 0.000000 0.000000 0.000000 0.000000 0.066238
#
#
# Mechanical properties :
#
#
# Convention : Reuss Voigt Hill
#
# Bulk Modulus (GPa) = 15.19233 19.00313 17.09773
# Shear Modulus (GPa) = 14.33370 16.80124 15.56747
#
# Velocity S-wave (km/s) = 2.97047 3.21600 3.09567
# Velocity P-wave (km/s) = 4.59534 5.04860 4.82729
#
# Compressibility (1/GPa) = 0.06582270
#
# Stress axis : x y z
#
# Youngs Moduli (GPa) = 48.58820 16.92515 59.32591
#
# Poissons Ratio (x) = 0.18591 0.01860
# Poissons Ratio (y) = 0.53370 0.24036
# Poissons Ratio (z) = 0.01523 0.06857
#
# Static dielectric constant tensor:
#      x y z
#    x 1.553020 0.000000 0.000000 
#    y 0.000000 1.557500 0.000000 
#    z 0.000000 0.000000 1.559600 
# 
# From -- ./inp_files/32688.got.cif
#   From: 2010.05.17/outbox.cif.g08.bks.cpg/sg62_17_cif.got.tgz:32688.got - 2010.06.03 15:25:27.
