data_PCOD9462235
_publ_section_title
;
Structure prediction by ZEFSAII (Michael W. Deem and Ramdas Pophale) SiO2 
 PCOD9462235
Probable space group: P N M A
;
_chemical_formula_sum "Si O2"
_cell_formula_units_Z 64
_cell_length_a 17.160750
_cell_length_b 8.320256
_cell_length_c 22.832935
_cell_angle_alpha 90.000000
_cell_angle_beta 90.000000
_cell_angle_gamma 90.000000
_cell_volume 3260.128316
_symmetry_space_group_name_H-M "P N M A"
_symmetry_group_IT_number 62
_symmetry_cell_setting 'orthorhombic'
loop_
_space_group_symop_operation_xyz
x,y,z
1/2-x,-y,1/2+z
1/2+x,1/2-y,1/2-z
-x,1/2+y,-z
-x,-y,-z
1/2+x,y,1/2-z
1/2-x,1/2+y,1/2+z
x,1/2-y,z
loop_
_atom_site_type_symbol
_atom_site_label
_atom_site_fract_x
_atom_site_fract_y
_atom_site_fract_z
Si Si1 0.911335 0.558478 0.499840
Si Si2 0.499108 0.555788 0.433351
Si Si3 0.823203 0.058231 0.615016
Si Si4 0.853132 0.444576 0.856807
Si Si5 0.090948 0.059245 0.268759
Si Si6 0.587232 0.055282 0.767780
Si Si7 0.321006 0.553547 0.115621
Si Si8 0.149722 0.446175 0.858137
O O1 0.912775 0.750000 0.495964
O O2 0.867623 0.510164 0.559047
O O3 0.864549 0.497121 0.442838
O O4 0.000000 0.500000 0.500000
O O5 0.500000 0.500000 0.500000
O O6 0.499302 0.750000 0.432270
O O7 0.575625 0.500732 0.397882
O O8 0.421271 0.501276 0.399512
O O9 0.821463 0.250000 0.609151
O O10 0.734157 0.998587 0.620418
O O11 0.868094 0.015390 0.674515
O O12 0.853781 0.250000 0.856374
O O13 0.868283 0.501053 0.790823
O O14 0.768815 0.497896 0.879866
O O15 0.095783 0.250000 0.272720
O O16 0.000804 0.006716 0.266801
O O17 0.584278 0.250000 0.767746
O O18 0.632372 0.003576 0.826185
O O19 0.631362 0.004711 0.708522
O O20 0.321042 0.750000 0.115101
O O21 0.150502 0.250000 0.858524
#
# Coordination Sequence:
#
# PCOD9462235 Si02
#       8
#     8   8   8   8   8   8   8   8
#     4  11  23  41  62  91 126 158 201 247 297 357
#     4  10  21  37  60  89 122 159 198 240 293 354
#     4  11  23  40  63  87 117 161 205 247 299 355
#     4  10  20  40  65  87 116 158 202 242 294 359
#     4  12  24  38  58  90 124 154 196 251 307 356
#     4  10  18  37  64  87 115 154 200 245 297 363
#     4   9  20  36  62  91 114 150 199 247 293 350
#     4   9  19  37  61  89 116 152 205 249 287 348
#
# _framework density 19.631129000000001
#
# number of rings (size 3 to 8) (size 9 to 14) (size 15 to 20)
#    0.000    1.750    1.250    3.375    1.750    3.500 
#    0.000    5.625    0.000    0.000    0.000    0.000 
#    0.000    0.000    0.000    0.000    0.000    0.000 
#
# Total GULP energy -357716.112541 kJ/mol
# GULP energy per Si atom -5589.314258 kJ/mol
# Density = 1.958645 g / cm^3
# Si number density = 19.631129 Si / 1000 Ang^3
#
#
#
# Elastic Constant Matrix: (Units=GPa)
#
#
# Indices 1 2 3 4 5 6 
#
# 1 201.9922 18.1814 106.7850 0.0000 0.0000 0.0000
# 2 18.1814 20.6472 9.7867 0.0000 0.0000 0.0000
# 3 106.7850 9.7867 185.3794 0.0000 0.0000 0.0000
# 4 0.0000 0.0000 0.0000 30.7536 0.0000 0.0000
# 5 0.0000 0.0000 0.0000 0.0000 22.0884 0.0000
# 6 0.0000 0.0000 0.0000 0.0000 0.0000 11.5030
#
#
#
# Elastic Compliance Matrix: (Units=1/GPa)
#
#
# Indices 1 2 3 4 5 6 
#
# 1 0.007538 -0.004697 -0.004094 0.000000 0.000000 0.000000
# 2 -0.004697 0.052603 -0.000071 0.000000 0.000000 0.000000
# 3 -0.004094 -0.000071 0.007756 0.000000 0.000000 0.000000
# 4 0.000000 0.000000 0.000000 0.032517 0.000000 0.000000
# 5 0.000000 0.000000 0.000000 0.000000 0.045273 0.000000
# 6 0.000000 0.000000 0.000000 0.000000 0.000000 0.086934
#
#
# Mechanical properties :
#
#
# Convention : Reuss Voigt Hill
#
# Bulk Modulus (GPa) = 19.93142 75.28056 47.60599
# Shear Modulus (GPa) = 18.72174 31.08671 24.90422
#
# Velocity S-wave (km/s) = 3.09151 3.98369 3.56562
# Velocity P-wave (km/s) = 4.78731 7.71949 6.42296
#
# Compressibility (1/GPa) = 0.05017203
#
# Stress axis : x y z
#
# Youngs Moduli (GPa) = 132.66374 19.01040 128.92492
#
# Poissons Ratio (x) = 0.08929 0.52783
# Poissons Ratio (y) = 0.62313 0.00920
# Poissons Ratio (z) = 0.54314 0.00136
#
# Static dielectric constant tensor:
#      x y z
#    x 1.665890 0.000000 0.000000 
#    y 0.000000 1.712670 0.000000 
#    z 0.000000 0.000000 1.649710 
# 
# From -- ./inp_files/27672.got.cif
#   From: 2010.05.17/outbox.cif.g08.bks.cpg/sg62_14_cif.got.tgz:27672.got - 2010.06.03 15:25:27.
