data_PCOD9462306
_publ_section_title
;
Structure prediction by ZEFSAII (Michael W. Deem and Ramdas Pophale) SiO2 
 PCOD9462306
Probable space group: P N M A
;
_chemical_formula_sum "Si O2"
_cell_formula_units_Z 64
_cell_length_a 21.390386
_cell_length_b 9.284952
_cell_length_c 14.919117
_cell_angle_alpha 90.000000
_cell_angle_beta 90.000000
_cell_angle_gamma 90.000000
_cell_volume 2963.066541
_symmetry_space_group_name_H-M "P N M A"
_symmetry_group_IT_number 62
_symmetry_cell_setting 'orthorhombic'
loop_
_space_group_symop_operation_xyz
x,y,z
1/2-x,-y,1/2+z
1/2+x,1/2-y,1/2-z
-x,1/2+y,-z
-x,-y,-z
1/2+x,y,1/2-z
1/2-x,1/2+y,1/2+z
x,1/2-y,z
loop_
_atom_site_type_symbol
_atom_site_label
_atom_site_fract_x
_atom_site_fract_y
_atom_site_fract_z
Si Si1 0.636236 0.585357 0.133367
Si Si2 0.493389 0.899116 0.081537
Si Si3 0.199162 0.076123 0.535342
Si Si4 0.686164 0.923492 0.586996
Si Si5 0.433560 0.075625 0.517284
Si Si6 0.809737 0.414873 0.274299
Si Si7 0.952220 0.095520 0.278319
Si Si8 0.408795 0.918522 0.698301
O O1 0.662746 0.750000 0.141118
O O2 0.561867 0.608160 0.122426
O O3 0.634469 0.485182 0.222651
O O4 0.657846 0.503008 0.042415
O O5 0.468317 0.750000 0.048680
O O6 0.449658 0.963572 0.155425
O O7 0.500000 0.000000 0.000000
O O8 0.188717 0.250000 0.537662
O O9 0.268345 0.047433 0.496217
O O10 0.194254 0.005076 0.634216
O O11 0.685981 0.750000 0.596310
O O12 0.616969 0.969387 0.557596
O O13 0.716536 0.978702 0.680669
O O14 0.439923 0.250000 0.516946
O O15 0.500000 0.000000 0.500000
O O16 0.406164 0.018185 0.611097
O O17 0.787784 0.250000 0.291809
O O18 0.882493 0.401373 0.241922
O O19 0.959783 0.250000 0.327609
O O20 0.015986 0.081485 0.222385
O O21 0.392973 0.750000 0.683368
#
# Coordination Sequence:
#
# PCOD9462306 Si02
#       8
#     8   8   8   8   8   8   8   8
#     4  10  21  37  55  81 117 159 201 243 293 352
#     4  10  19  29  45  71 107 146 186 231 282 335
#     4  11  23  40  61  88 119 156 201 251 302 355
#     4   9  22  43  64  86 118 157 198 243 298 359
#     4  11  22  40  65  93 124 159 199 250 310 373
#     4  10  20  39  63  84 111 154 199 243 295 354
#     4   9  18  32  53  79 110 148 191 234 286 346
#     4  10  20  36  59  90 125 163 205 253 305 362
#
# _framework density 21.599243999999999
#
# number of rings (size 3 to 8) (size 9 to 14) (size 15 to 20)
#    0.000    2.000    0.000    3.375    0.000    8.500 
#    0.000    8.750    0.000    0.000    0.000    0.000 
#    0.000    0.000    0.000    0.000    0.000    0.000 
#
# Total GULP energy -356388.592041 kJ/mol
# GULP energy per Si atom -5568.571751 kJ/mol
# Density = 2.155008 g / cm^3
# Si number density = 21.599244 Si / 1000 Ang^3
#
#
#
# Elastic Constant Matrix: (Units=GPa)
#
#
# Indices 1 2 3 4 5 6 
#
# 1 72.2140 11.8669 33.8261 0.0000 0.0000 0.0000
# 2 11.8669 122.3693 63.1678 0.0000 0.0000 0.0000
# 3 33.8261 63.1678 159.4535 0.0000 0.0000 0.0000
# 4 0.0000 0.0000 0.0000 32.5908 0.0000 0.0000
# 5 0.0000 0.0000 0.0000 0.0000 23.9205 0.0000
# 6 0.0000 0.0000 0.0000 0.0000 0.0000 15.8710
#
#
#
# Elastic Compliance Matrix: (Units=1/GPa)
#
#
# Indices 1 2 3 4 5 6 
#
# 1 0.015381 0.000242 -0.003359 0.000000 0.000000 0.000000
# 2 0.000242 0.010277 -0.004122 0.000000 0.000000 0.000000
# 3 -0.003359 -0.004122 0.008617 0.000000 0.000000 0.000000
# 4 0.000000 0.000000 0.000000 0.030684 0.000000 0.000000
# 5 0.000000 0.000000 0.000000 0.000000 0.041805 0.000000
# 6 0.000000 0.000000 0.000000 0.000000 0.000000 0.063008
#
#
# Mechanical properties :
#
#
# Convention : Reuss Voigt Hill
#
# Bulk Modulus (GPa) = 50.51348 63.52871 57.02109
# Shear Modulus (GPa) = 26.19875 30.82152 28.51013
#
# Velocity S-wave (km/s) = 3.48652 3.78163 3.63707
# Velocity P-wave (km/s) = 6.29644 6.96735 6.64037
#
# Compressibility (1/GPa) = 0.01979669
#
# Stress axis : x y z
#
# Youngs Moduli (GPa) = 65.01408 97.30904 116.04828
#
# Poissons Ratio (x) = -0.02358 0.38980
# Poissons Ratio (y) = -0.01575 0.47841
# Poissons Ratio (z) = 0.21838 0.40115
#
# Static dielectric constant tensor:
#      x y z
#    x 1.868060 0.000000 0.000000 
#    y 0.000000 1.812190 0.000000 
#    z 0.000000 0.000000 1.843290 
# 
# From -- ./inp_files/20918.got.cif
#   From: 2010.05.17/outbox.cif.g08.bks.cpg/sg62_11_cif.got.tgz:20918.got - 2010.06.03 15:25:27.
