data_PCOD9462942
_publ_section_title
;
Structure prediction by ZEFSAII (Michael W. Deem and Ramdas Pophale) SiO2 
 PCOD9462942
Probable space group: P N M A
;
_chemical_formula_sum "Si O2"
_cell_formula_units_Z 64
_cell_length_a 20.861118
_cell_length_b 8.974962
_cell_length_c 19.712186
_cell_angle_alpha 90.000000
_cell_angle_beta 90.000000
_cell_angle_gamma 90.000000
_cell_volume 3690.668061
_symmetry_space_group_name_H-M "P N M A"
_symmetry_group_IT_number 62
_symmetry_cell_setting 'orthorhombic'
loop_
_space_group_symop_operation_xyz
x,y,z
1/2-x,-y,1/2+z
1/2+x,1/2-y,1/2-z
-x,1/2+y,-z
-x,-y,-z
1/2+x,y,1/2-z
1/2-x,1/2+y,1/2+z
x,1/2-y,z
loop_
_atom_site_type_symbol
_atom_site_label
_atom_site_fract_x
_atom_site_fract_y
_atom_site_fract_z
Si Si1 0.860323 0.071316 0.179222
Si Si2 0.688459 0.571170 0.959532
Si Si3 0.190690 0.570691 0.966160
Si Si4 0.359145 0.572586 0.176641
Si Si5 0.011744 0.073034 0.174644
Si Si6 0.942007 0.072119 0.958265
Si Si7 0.510788 0.572231 0.183046
Si Si8 0.559564 0.570973 0.038893
O O1 0.855500 0.250000 0.188462
O O2 0.820122 0.028432 0.112693
O O3 0.935701 0.038928 0.164951
O O4 0.842156 0.990741 0.249075
O O5 0.691041 0.750000 0.955505
O O6 0.678762 0.504017 0.884560
O O7 0.750456 0.508428 0.997459
O O8 0.625747 0.527555 0.003458
O O9 0.199217 0.750000 0.968482
O O10 0.125115 0.535217 0.006081
O O11 0.350084 0.750000 0.174678
O O12 0.435552 0.541902 0.167234
O O13 0.019523 0.250000 0.168456
O O14 0.028345 0.016349 0.249535
O O15 0.052069 0.990003 0.117501
O O16 0.949078 0.250000 0.958953
O O17 0.000000 0.000000 0.000000
O O18 0.516164 0.750000 0.195211
O O19 0.552703 0.530446 0.117904
O O20 0.553825 0.750000 0.034950
O O21 0.500000 0.500000 0.000000
#
# Coordination Sequence:
#
# PCOD9462942 Si02
#       8
#     8   8   8   8   8   8   8   8
#     4   9  18  35  56  80 111 145 186 232 277 330
#     4  11  23  37  56  84 115 150 189 233 280 330
#     4  10  22  40  58  80 113 152 188 227 280 336
#     4  10  19  33  56  83 110 146 188 229 279 335
#     4  10  19  33  54  84 115 145 184 232 283 332
#     4  11  21  36  58  84 112 145 184 229 281 332
#     4   9  18  33  53  81 112 146 187 231 279 333
#     4  10  20  35  56  82 112 143 183 229 278 329
#
# _framework density 17.341035000000002
#
# number of rings (size 3 to 8) (size 9 to 14) (size 15 to 20)
#    0.000    2.000    2.500    1.500    0.000    3.500 
#    0.000    1.250    0.000    4.500    0.000    0.000 
#    0.000    0.000    0.000    0.000    0.000    0.000 
#
# Total GULP energy -357265.273747 kJ/mol
# GULP energy per Si atom -5582.269902 kJ/mol
# Density = 1.730157 g / cm^3
# Si number density = 17.341035 Si / 1000 Ang^3
#
#
#
# Elastic Constant Matrix: (Units=GPa)
#
#
# Indices 1 2 3 4 5 6 
#
# 1 103.4358 54.0119 83.6588 0.0000 0.0000 0.0000
# 2 54.0119 45.5464 62.7849 0.0000 0.0000 0.0000
# 3 83.6588 62.7849 173.0786 0.0000 0.0000 0.0000
# 4 0.0000 0.0000 0.0000 34.3668 0.0000 0.0000
# 5 0.0000 0.0000 0.0000 0.0000 28.7184 0.0000
# 6 0.0000 0.0000 0.0000 0.0000 0.0000 25.2604
#
#
#
# Elastic Compliance Matrix: (Units=1/GPa)
#
#
# Indices 1 2 3 4 5 6 
#
# 1 0.026038 -0.027059 -0.002770 0.000000 0.000000 0.000000
# 2 -0.027059 0.072036 -0.013052 0.000000 0.000000 0.000000
# 3 -0.002770 -0.013052 0.011851 0.000000 0.000000 0.000000
# 4 0.000000 0.000000 0.000000 0.029098 0.000000 0.000000
# 5 0.000000 0.000000 0.000000 0.000000 0.034821 0.000000
# 6 0.000000 0.000000 0.000000 0.000000 0.000000 0.039588
#
#
# Mechanical properties :
#
#
# Convention : Reuss Voigt Hill
#
# Bulk Modulus (GPa) = 41.38535 80.33020 60.85778
# Shear Modulus (GPa) = 16.27349 25.77614 21.02481
#
# Velocity S-wave (km/s) = 3.06672 3.85960 3.48578
# Velocity P-wave (km/s) = 6.03797 8.14164 7.16740
#
# Compressibility (1/GPa) = 0.02416314
#
# Stress axis : x y z
#
# Youngs Moduli (GPa) = 38.40594 13.88186 84.37970
#
# Poissons Ratio (x) = 0.37563 0.23370
# Poissons Ratio (y) = 1.03923 1.10134
# Poissons Ratio (z) = 0.10637 0.18119
#
# Static dielectric constant tensor:
#      x y z
#    x 1.563700 0.000000 0.000000 
#    y 0.000000 1.578380 0.000000 
#    z 0.000000 0.000000 1.589160 
# 
# From -- ./inp_files/24819.got.cif
#   From: 2010.05.17/outbox.cif.g08.bks.cpg/sg62_13_cif.got.tgz:24819.got - 2010.06.03 15:25:27.
