data_PCOD9462611
_publ_section_title
;
Structure prediction by ZEFSAII (Michael W. Deem and Ramdas Pophale) SiO2 
 PCOD9462611
Probable space group: P N M A
;
_chemical_formula_sum "Si O2"
_cell_formula_units_Z 48
_cell_length_a 9.931847
_cell_length_b 10.458381
_cell_length_c 25.647585
_cell_angle_alpha 90.000000
_cell_angle_beta 90.000000
_cell_angle_gamma 90.000000
_cell_volume 2664.041326
_symmetry_space_group_name_H-M "P N M A"
_symmetry_group_IT_number 62
_symmetry_cell_setting 'orthorhombic'
loop_
_space_group_symop_operation_xyz
x,y,z
1/2-x,-y,1/2+z
1/2+x,1/2-y,1/2-z
-x,1/2+y,-z
-x,-y,-z
1/2+x,y,1/2-z
1/2-x,1/2+y,1/2+z
x,1/2-y,z
loop_
_atom_site_type_symbol
_atom_site_label
_atom_site_fract_x
_atom_site_fract_y
_atom_site_fract_z
Si Si1 0.739939 0.895848 0.872707
Si Si2 0.255738 0.750000 0.316080
Si Si3 0.495834 0.405829 0.049235
Si Si4 0.962663 0.029489 0.289450
Si Si5 0.976696 0.750000 0.268781
Si Si6 0.010402 0.898476 0.829439
Si Si7 0.295386 0.974227 0.862374
O O1 0.766000 0.750000 0.888684
O O2 0.635876 0.943627 0.916230
O O3 0.884322 0.957337 0.860675
O O4 0.656707 0.898637 0.818546
O O5 0.139973 0.750000 0.270707
O O6 0.398455 0.750000 0.286191
O O7 0.232061 0.875985 0.350578
O O8 0.493551 0.250000 0.039557
O O9 0.623534 0.439309 0.085823
O O10 0.500000 0.500000 0.000000
O O11 0.938185 0.878896 0.298865
O O12 0.103847 0.068442 0.315677
O O13 0.969815 0.043751 0.227807
O O14 0.978993 0.750000 0.820166
O O15 0.150566 0.910087 0.859233
#
# Coordination Sequence:
#
# PCOD9462611 Si02
#       7
#     8   4   8   8   4   8   8
#     4   9  20  36  54  82 111 143 184 228 273 325
#     4  10  20  34  52  78 118 152 192 220 270 322
#     4  10  22  42  66  84 107 138 184 238 291 344
#     4  10  19  32  49  77 113 153 186 216 257 318
#     4  10  20  30  46  74 110 156 184 220 254 312
#     4  11  20  31  52  80 113 148 181 220 267 324
#     4  10  21  35  55  80 112 145 187 227 275 326
#
# _framework density 18.017737
#
# number of rings (size 3 to 8) (size 9 to 14) (size 15 to 20)
#    0.000    2.000    1.667    2.000    3.500    3.333 
#    1.500    0.833    0.000    0.000    0.000    0.000 
#    0.000    0.000    0.000    0.000    0.000    0.000 
#
# Total GULP energy -267360.425991 kJ/mol
# GULP energy per Si atom -5570.008875 kJ/mol
# Density = 1.797673 g / cm^3
# Si number density = 18.017737 Si / 1000 Ang^3
#
#
#
# Elastic Constant Matrix: (Units=GPa)
#
#
# Indices 1 2 3 4 5 6 
#
# 1 126.5819 17.9421 58.7608 0.0000 0.0000 0.0000
# 2 17.9421 66.6841 25.7487 0.0000 0.0000 0.0000
# 3 58.7608 25.7487 109.0746 0.0000 0.0000 0.0000
# 4 0.0000 0.0000 0.0000 44.8105 0.0000 0.0000
# 5 0.0000 0.0000 0.0000 0.0000 3.8319 0.0000
# 6 0.0000 0.0000 0.0000 0.0000 0.0000 10.3959
#
#
#
# Elastic Compliance Matrix: (Units=1/GPa)
#
#
# Indices 1 2 3 4 5 6 
#
# 1 0.010565 -0.000710 -0.005524 0.000000 0.000000 0.000000
# 2 -0.000710 0.016548 -0.003524 0.000000 0.000000 0.000000
# 3 -0.005524 -0.003524 0.012976 0.000000 0.000000 0.000000
# 4 0.000000 0.000000 0.000000 0.022316 0.000000 0.000000
# 5 0.000000 0.000000 0.000000 0.000000 0.260970 0.000000
# 6 0.000000 0.000000 0.000000 0.000000 0.000000 0.096192
#
#
# Mechanical properties :
#
#
# Convention : Reuss Voigt Hill
#
# Bulk Modulus (GPa) = 48.60714 56.36043 52.48378
# Shear Modulus (GPa) = 11.21229 25.13358 18.17294
#
# Velocity S-wave (km/s) = 2.49728 3.73894 3.17931
# Velocity P-wave (km/s) = 5.94569 7.07022 6.53219
#
# Compressibility (1/GPa) = 0.02057311
#
# Stress axis : x y z
#
# Youngs Moduli (GPa) = 94.65272 60.43121 77.06614
#
# Poissons Ratio (x) = 0.04288 0.42572
# Poissons Ratio (y) = 0.06717 0.27159
# Poissons Ratio (z) = 0.52287 0.21296
#
# Static dielectric constant tensor:
#      x y z
#    x 1.658470 0.000000 0.000000 
#    y 0.000000 1.690620 0.000000 
#    z 0.000000 0.000000 1.592240 
# 
# From -- ./inp_files/28826.got.cif
#   From: 2010.05.17/outbox.cif.g08.bks.cpg/sg62_15_cif.got.tgz:28826.got - 2010.06.03 15:25:27.
