data_PCOD9462017
_publ_section_title
;
Structure prediction by ZEFSAII (Michael W. Deem and Ramdas Pophale) SiO2 
 PCOD9462017
Probable space group: P N M A
;
_chemical_formula_sum "Si O2"
_cell_formula_units_Z 64
_cell_length_a 23.175785
_cell_length_b 11.358978
_cell_length_c 11.862804
_cell_angle_alpha 90.000000
_cell_angle_beta 90.000000
_cell_angle_gamma 90.000000
_cell_volume 3122.921493
_symmetry_space_group_name_H-M "P N M A"
_symmetry_group_IT_number 62
_symmetry_cell_setting 'orthorhombic'
loop_
_space_group_symop_operation_xyz
x,y,z
1/2-x,-y,1/2+z
1/2+x,1/2-y,1/2-z
-x,1/2+y,-z
-x,-y,-z
1/2+x,y,1/2-z
1/2-x,1/2+y,1/2+z
x,1/2-y,z
loop_
_atom_site_type_symbol
_atom_site_label
_atom_site_fract_x
_atom_site_fract_y
_atom_site_fract_z
Si Si1 0.814810 0.529938 0.423239
Si Si2 0.981250 0.617134 0.070623
Si Si3 0.503129 0.468172 0.820549
Si Si4 0.692117 0.613108 0.344334
Si Si5 0.426736 0.880223 0.965198
Si Si6 0.761608 0.111985 0.610170
Si Si7 0.889808 0.382955 0.257409
Si Si8 0.638198 0.490250 0.546273
O O1 0.756882 0.600912 0.395918
O O2 0.861753 0.603092 0.492270
O O3 0.796435 0.419335 0.498792
O O4 0.847004 0.476083 0.315800
O O5 0.998580 0.750000 0.033861
O O6 0.000384 0.598746 0.201384
O O7 0.911599 0.606037 0.062109
O O8 0.000000 0.500000 0.000000
O O9 0.445593 0.521953 0.874713
O O10 0.546733 0.576492 0.794858
O O11 0.533612 0.396951 0.922503
O O12 0.674489 0.750000 0.344950
O O13 0.702225 0.568265 0.217671
O O14 0.649657 0.535289 0.420092
O O15 0.435524 0.750000 0.919063
O O16 0.753713 0.250000 0.626684
O O17 0.699237 0.054734 0.593104
O O18 0.877807 0.250000 0.290681
O O19 0.882164 0.401699 0.124423
#
# Coordination Sequence:
#
# PCOD9462017 Si02
#       8
#     8   8   8   8   8   8   8   8
#     4  10  20  33  51  82 114 148 194 237 291 356
#     4  11  25  44  66  91 121 160 207 253 304 365
#     4   9  21  37  57  87 116 152 200 243 297 362
#     4  10  20  35  56  83 115 153 197 241 290 351
#     4  10  19  35  59  85 118 153 190 245 301 354
#     4  10  20  36  57  79 110 148 186 233 286 346
#     4  10  18  32  54  81 113 152 194 247 299 352
#     4  10  21  38  59  85 114 150 197 242 294 352
#
# _framework density 20.49363
#
# number of rings (size 3 to 8) (size 9 to 14) (size 15 to 20)
#    0.000    2.000    1.250    2.250    0.000    4.000 
#    0.000    3.125    0.000    0.000    0.000    0.000 
#    0.000    0.000    0.000    0.000    0.000    0.000 
#
# Total GULP energy -356987.030101 kJ/mol
# GULP energy per Si atom -5577.922345 kJ/mol
# Density = 2.044699 g / cm^3
# Si number density = 20.493630 Si / 1000 Ang^3
#
#
#
# Elastic Constant Matrix: (Units=GPa)
#
#
# Indices 1 2 3 4 5 6 
#
# 1 30.9050 0.8887 1.1546 0.0000 0.0000 0.0000
# 2 0.8887 79.4221 8.7075 0.0000 0.0000 0.0000
# 3 1.1546 8.7075 70.7813 0.0000 0.0000 0.0000
# 4 0.0000 0.0000 0.0000 16.6563 0.0000 0.0000
# 5 0.0000 0.0000 0.0000 0.0000 24.7718 0.0000
# 6 0.0000 0.0000 0.0000 0.0000 0.0000 9.5191
#
#
#
# Elastic Compliance Matrix: (Units=1/GPa)
#
#
# Indices 1 2 3 4 5 6 
#
# 1 0.032384 -0.000309 -0.000490 0.000000 0.000000 0.000000
# 2 -0.000309 0.012766 -0.001565 0.000000 0.000000 0.000000
# 3 -0.000490 -0.001565 0.014329 0.000000 0.000000 0.000000
# 4 0.000000 0.000000 0.000000 0.060037 0.000000 0.000000
# 5 0.000000 0.000000 0.000000 0.000000 0.040368 0.000000
# 6 0.000000 0.000000 0.000000 0.000000 0.000000 0.105051
#
#
# Mechanical properties :
#
#
# Convention : Reuss Voigt Hill
#
# Bulk Modulus (GPa) = 18.26475 22.51224 20.38850
# Shear Modulus (GPa) = 17.36624 21.54663 19.45644
#
# Velocity S-wave (km/s) = 2.91417 3.24602 3.08456
# Velocity P-wave (km/s) = 4.50055 5.00577 4.75986
#
# Compressibility (1/GPa) = 0.05475028
#
# Stress axis : x y z
#
# Youngs Moduli (GPa) = 30.87908 78.33288 69.79042
#
# Poissons Ratio (x) = 0.02418 0.03422
# Poissons Ratio (y) = 0.00953 0.10925
# Poissons Ratio (z) = 0.01514 0.12263
#
# Static dielectric constant tensor:
#      x y z
#    x 1.737110 0.000000 0.000000 
#    y 0.000000 1.705410 0.000000 
#    z 0.000000 0.000000 1.746590 
# 
# From -- ./inp_files/15327.got.cif
#   From: 2010.05.17/outbox.cif.g08.bks.cpg/sg62_8_cif.got.tgz:15327.got - 2010.06.03 15:25:27.
