data_PCOD9462912
_publ_section_title
;
Structure prediction by ZEFSAII (Michael W. Deem and Ramdas Pophale) SiO2 
 PCOD9462912
Probable space group: P N M A
;
_chemical_formula_sum "Si O2"
_cell_formula_units_Z 64
_cell_length_a 28.653343
_cell_length_b 7.755172
_cell_length_c 12.936808
_cell_angle_alpha 90.000000
_cell_angle_beta 90.000000
_cell_angle_gamma 90.000000
_cell_volume 2874.708848
_symmetry_space_group_name_H-M "P N M A"
_symmetry_group_IT_number 62
_symmetry_cell_setting 'orthorhombic'
loop_
_space_group_symop_operation_xyz
x,y,z
1/2-x,-y,1/2+z
1/2+x,1/2-y,1/2-z
-x,1/2+y,-z
-x,-y,-z
1/2+x,y,1/2-z
1/2-x,1/2+y,1/2+z
x,1/2-y,z
loop_
_atom_site_type_symbol
_atom_site_label
_atom_site_fract_x
_atom_site_fract_y
_atom_site_fract_z
Si Si1 0.059666 0.447265 0.096480
Si Si2 0.212352 0.043594 0.354296
Si Si3 0.811912 0.045785 0.084926
Si Si4 0.082442 0.452112 0.875202
Si Si5 0.663459 0.952440 0.357332
Si Si6 0.956624 0.449937 0.679358
Si Si7 0.623276 0.049137 0.034036
Si Si8 0.557271 0.462535 0.852382
O O1 0.043554 0.250000 0.094287
O O2 0.114837 0.451562 0.124139
O O3 0.037428 0.535389 0.196628
O O4 0.058548 0.524701 0.980244
O O5 0.215462 0.250000 0.370950
O O6 0.264799 0.975226 0.364700
O O7 0.173367 0.973855 0.434262
O O8 0.191299 0.011985 0.241831
O O9 0.816421 0.250000 0.107601
O O10 0.861591 0.966425 0.114225
O O11 0.807041 0.026921 0.961536
O O12 0.070250 0.250000 0.875719
O O13 0.069446 0.522513 0.763273
O O14 0.651411 0.750000 0.345720
O O15 0.950606 0.250000 0.654219
O O16 0.911046 0.539736 0.633283
O O17 0.004036 0.516891 0.627634
O O18 0.631119 0.250000 0.009921
O O19 0.594080 0.976362 0.937757
O O20 0.557435 0.250000 0.853012
#
# Coordination Sequence:
#
# PCOD9462912 Si02
#       8
#     8   8   8   8   8   8   8   8
#     4  10  19  33  55  80 107 141 182 226 271 324
#     4  10  20  34  54  79 108 141 179 222 271 329
#     4   9  20  36  53  79 111 142 177 222 279 327
#     4   9  19  37  58  79 107 145 187 226 270 331
#     4  10  19  33  54  78 106 139 178 225 270 319
#     4  11  21  34  55  82 111 142 182 233 277 322
#     4  10  20  36  57  78 107 147 186 223 271 331
#     4   9  20  37  56  80 111 146 183 226 278 329
#
# _framework density 22.263124000000001
#
# number of rings (size 3 to 8) (size 9 to 14) (size 15 to 20)
#    0.000    2.250    1.250    1.500    0.000    3.000 
#    0.000    5.000    0.000    0.000    0.000    0.000 
#    0.000    0.000    0.000    0.000    0.000    0.000 
#
# Total GULP energy -357317.158609 kJ/mol
# GULP energy per Si atom -5583.080603 kJ/mol
# Density = 2.221245 g / cm^3
# Si number density = 22.263124 Si / 1000 Ang^3
#
#
#
# Elastic Constant Matrix: (Units=GPa)
#
#
# Indices 1 2 3 4 5 6 
#
# 1 69.0232 -0.1840 12.2509 0.0000 0.0000 0.0000
# 2 -0.1840 37.4453 -3.1777 0.0000 0.0000 0.0000
# 3 12.2509 -3.1777 85.0169 0.0000 0.0000 0.0000
# 4 0.0000 0.0000 0.0000 9.4714 0.0000 0.0000
# 5 0.0000 0.0000 0.0000 0.0000 20.3976 0.0000
# 6 0.0000 0.0000 0.0000 0.0000 0.0000 11.6887
#
#
#
# Elastic Compliance Matrix: (Units=1/GPa)
#
#
# Indices 1 2 3 4 5 6 
#
# 1 0.014869 -0.000109 -0.002147 0.000000 0.000000 0.000000
# 2 -0.000109 0.026791 0.001017 0.000000 0.000000 0.000000
# 3 -0.002147 0.001017 0.012110 0.000000 0.000000 0.000000
# 4 0.000000 0.000000 0.000000 0.105581 0.000000 0.000000
# 5 0.000000 0.000000 0.000000 0.000000 0.049025 0.000000
# 6 0.000000 0.000000 0.000000 0.000000 0.000000 0.085553
#
#
# Mechanical properties :
#
#
# Convention : Reuss Voigt Hill
#
# Bulk Modulus (GPa) = 19.49606 23.25154 21.37380
# Shear Modulus (GPa) = 15.94877 20.48461 18.21669
#
# Velocity S-wave (km/s) = 2.67942 3.03663 2.86360
# Velocity P-wave (km/s) = 4.28352 4.77090 4.53376
#
# Compressibility (1/GPa) = 0.05129241
#
# Stress axis : x y z
#
# Youngs Moduli (GPa) = 67.25585 37.32544 82.57829
#
# Poissons Ratio (x) = 0.00407 0.17727
# Poissons Ratio (y) = 0.00734 -0.08399
# Poissons Ratio (z) = 0.14437 -0.03796
#
# Static dielectric constant tensor:
#      x y z
#    x 1.826580 0.000000 0.000000 
#    y 0.000000 1.820030 0.000000 
#    z 0.000000 0.000000 1.833590 
# 
# From -- ./inp_files/15763.got.cif
#   From: 2010.05.17/outbox.cif.g08.bks.cpg/sg62_8_cif.got.tgz:15763.got - 2010.06.03 15:25:27.
