data_PCOD9462349
_publ_section_title
;
Structure prediction by ZEFSAII (Michael W. Deem and Ramdas Pophale) SiO2 
 PCOD9462349
Probable space group: P N M A
;
_chemical_formula_sum "Si O2"
_cell_formula_units_Z 64
_cell_length_a 19.677215
_cell_length_b 8.820078
_cell_length_c 23.910861
_cell_angle_alpha 90.000000
_cell_angle_beta 90.000000
_cell_angle_gamma 90.000000
_cell_volume 4149.839226
_symmetry_space_group_name_H-M "P N M A"
_symmetry_group_IT_number 62
_symmetry_cell_setting 'orthorhombic'
loop_
_space_group_symop_operation_xyz
x,y,z
1/2-x,-y,1/2+z
1/2+x,1/2-y,1/2-z
-x,1/2+y,-z
-x,-y,-z
1/2+x,y,1/2-z
1/2-x,1/2+y,1/2+z
x,1/2-y,z
loop_
_atom_site_type_symbol
_atom_site_label
_atom_site_fract_x
_atom_site_fract_y
_atom_site_fract_z
Si Si1 0.277317 0.432527 0.168205
Si Si2 0.495163 0.432319 0.751948
Si Si3 0.497001 0.067120 0.882065
Si Si4 0.352265 0.432933 0.936340
Si Si5 0.156970 0.931991 0.233097
Si Si6 0.134183 0.568531 0.777108
Si Si7 0.766705 0.931877 0.659779
Si Si8 0.632082 0.567032 0.935449
O O1 0.269526 0.250000 0.169637
O O2 0.206192 0.507730 0.184581
O O3 0.330161 0.473440 0.217924
O O4 0.310557 0.477782 0.109539
O O5 0.497949 0.250000 0.751590
O O6 0.498644 0.481509 0.817137
O O7 0.421738 0.477882 0.728067
O O8 0.560501 0.495463 0.720280
O O9 0.501350 0.250000 0.883474
O O10 0.425322 0.023995 0.909920
O O11 0.560432 0.999205 0.915157
O O12 0.346715 0.250000 0.932833
O O13 0.294091 0.506528 0.898603
O O14 0.351164 0.478051 0.001233
O O15 0.160366 0.750000 0.236112
O O16 0.186592 0.998880 0.290973
O O17 0.127069 0.750000 0.777573
O O18 0.189295 0.525613 0.824198
O O19 0.771675 0.750000 0.662207
O O20 0.627039 0.750000 0.933993
#
# Coordination Sequence:
#
# PCOD9462349 Si02
#       8
#     8   8   8   8   8   8   8   8
#     4   9  18  32  46  68  95 122 159 197 232 278
#     4  10  19  30  46  70  96 124 156 192 232 281
#     4  10  19  31  44  66  99 129 165 199 225 272
#     4  10  20  34  49  67  95 131 165 198 235 275
#     4  10  19  32  49  69  95 124 156 195 239 284
#     4   9  18  31  47  67  93 122 155 193 236 283
#     4  10  20  33  48  69  94 122 159 200 236 278
#     4  10  20  33  49  68  95 130 166 200 233 274
#
# _framework density 15.422283
#
# number of rings (size 3 to 8) (size 9 to 14) (size 15 to 20)
#    0.000    2.250    2.500    1.875    0.000    5.000 
#    0.000    0.000    0.000    0.000    0.000    0.875 
#    0.000    0.000    0.000    0.000    0.000    0.000 
#
# Total GULP energy -356950.836432 kJ/mol
# GULP energy per Si atom -5577.356819 kJ/mol
# Density = 1.538718 g / cm^3
# Si number density = 15.422283 Si / 1000 Ang^3
#
#
#
# Elastic Constant Matrix: (Units=GPa)
#
#
# Indices 1 2 3 4 5 6 
#
# 1 130.0431 31.5015 53.1658 0.0000 0.0000 0.0000
# 2 31.5015 16.3325 20.2670 0.0000 0.0000 0.0000
# 3 53.1658 20.2670 79.8104 0.0000 0.0000 0.0000
# 4 0.0000 0.0000 0.0000 19.4324 0.0000 0.0000
# 5 0.0000 0.0000 0.0000 0.0000 20.6858 0.0000
# 6 0.0000 0.0000 0.0000 0.0000 0.0000 32.0704
#
#
#
# Elastic Compliance Matrix: (Units=1/GPa)
#
#
# Indices 1 2 3 4 5 6 
#
# 1 0.015230 -0.024509 -0.003922 0.000000 0.000000 0.000000
# 2 -0.024509 0.128838 -0.016391 0.000000 0.000000 0.000000
# 3 -0.003922 -0.016391 0.019304 0.000000 0.000000 0.000000
# 4 0.000000 0.000000 0.000000 0.051460 0.000000 0.000000
# 5 0.000000 0.000000 0.000000 0.000000 0.048342 0.000000
# 6 0.000000 0.000000 0.000000 0.000000 0.000000 0.031181
#
#
# Mechanical properties :
#
#
# Convention : Reuss Voigt Hill
#
# Bulk Modulus (GPa) = 13.56290 48.45052 31.00671
# Shear Modulus (GPa) = 12.23762 22.52118 17.37940
#
# Velocity S-wave (km/s) = 2.81997 3.82553 3.36058
# Velocity P-wave (km/s) = 4.40641 7.14122 5.93353
#
# Compressibility (1/GPa) = 0.07373052
#
# Stress axis : x y z
#
# Youngs Moduli (GPa) = 65.65970 7.76167 51.80148
#
# Poissons Ratio (x) = 0.19023 0.20316
# Poissons Ratio (y) = 1.60923 0.84907
# Poissons Ratio (z) = 0.25750 0.12722
#
# Static dielectric constant tensor:
#      x y z
#    x 1.506060 0.000000 0.000000 
#    y 0.000000 1.519350 0.000000 
#    z 0.000000 0.000000 1.502730 
# 
# From -- ./inp_files/30044.got.cif
#   From: 2010.05.17/outbox.cif.g08.bks.cpg/sg62_16_cif.got.tgz:30044.got - 2010.06.03 15:25:27.
