data_PCOD9462582
_publ_section_title
;
Structure prediction by ZEFSAII (Michael W. Deem and Ramdas Pophale) SiO2 
 PCOD9462582
Probable space group: P N M A
;
_chemical_formula_sum "Si O2"
_cell_formula_units_Z 64
_cell_length_a 11.865433
_cell_length_b 8.806875
_cell_length_c 34.202086
_cell_angle_alpha 90.000000
_cell_angle_beta 90.000000
_cell_angle_gamma 90.000000
_cell_volume 3574.028557
_symmetry_space_group_name_H-M "P N M A"
_symmetry_group_IT_number 62
_symmetry_cell_setting 'orthorhombic'
loop_
_space_group_symop_operation_xyz
x,y,z
1/2-x,-y,1/2+z
1/2+x,1/2-y,1/2-z
-x,1/2+y,-z
-x,-y,-z
1/2+x,y,1/2-z
1/2-x,1/2+y,1/2+z
x,1/2-y,z
loop_
_atom_site_type_symbol
_atom_site_label
_atom_site_fract_x
_atom_site_fract_y
_atom_site_fract_z
Si Si1 0.477607 0.933460 0.641377
Si Si2 0.580526 0.566955 0.945242
Si Si3 0.843162 0.430872 0.531668
Si Si4 0.722569 0.565322 0.869944
Si Si5 0.399706 0.930625 0.284489
Si Si6 0.326678 0.430960 0.831528
Si Si7 0.941044 0.432284 0.300504
Si Si8 0.301240 0.068462 0.404797
O O1 0.477770 0.750000 0.644819
O O2 0.352241 0.984502 0.630286
O O3 0.573238 0.974226 0.609554
O O4 0.517636 0.001963 0.682557
O O5 0.565966 0.750000 0.943360
O O6 0.457828 0.492501 0.948498
O O7 0.650860 0.515855 0.907601
O O8 0.645170 0.531701 0.985732
O O9 0.838640 0.250000 0.535646
O O10 0.738118 0.504267 0.553797
O O11 0.723685 0.750000 0.871172
O O12 0.657932 0.520984 0.830425
O O13 0.415464 0.750000 0.282062
O O14 0.273251 0.960346 0.300294
O O15 0.419968 0.004366 0.242608
O O16 0.339460 0.250000 0.835704
O O17 0.441950 0.505016 0.817441
O O18 0.282777 0.501078 0.872069
O O19 0.945227 0.250000 0.299361
O O20 0.292433 0.250000 0.404693
#
# Coordination Sequence:
#
# PCOD9462582 Si02
#       8
#     8   8   8   8   8   8   8   8
#     4   9  19  37  58  78 102 139 184 225 269 320
#     4   9  18  34  55  80 111 144 179 223 274 324
#     4  10  19  31  53  82 112 144 178 222 273 324
#     4   9  19  36  56  79 105 137 178 224 270 319
#     4  10  22  38  54  76 107 140 176 221 272 322
#     4  10  21  37  55  77 107 138 175 224 271 319
#     4  11  22  34  55  82 107 138 177 222 271 328
#     4  10  19  33  55  79 105 140 181 224 267 319
#
# _framework density 17.906963999999999
#
# number of rings (size 3 to 8) (size 9 to 14) (size 15 to 20)
#    0.000    2.250    0.000    2.625    1.750    3.500 
#    0.000    2.500    0.000    0.000    0.000    0.000 
#    0.000    0.000    0.000    0.000    0.000    0.000 
#
# Total GULP energy -357300.203228 kJ/mol
# GULP energy per Si atom -5582.815675 kJ/mol
# Density = 1.786621 g / cm^3
# Si number density = 17.906964 Si / 1000 Ang^3
#
#
#
# Elastic Constant Matrix: (Units=GPa)
#
#
# Indices 1 2 3 4 5 6 
#
# 1 77.0621 21.5433 47.2023 0.0000 0.0000 0.0000
# 2 21.5433 27.8421 21.0844 0.0000 0.0000 0.0000
# 3 47.2023 21.0844 87.5424 0.0000 0.0000 0.0000
# 4 0.0000 0.0000 0.0000 27.9455 0.0000 0.0000
# 5 0.0000 0.0000 0.0000 0.0000 16.5178 0.0000
# 6 0.0000 0.0000 0.0000 0.0000 0.0000 21.4247
#
#
#
# Elastic Compliance Matrix: (Units=1/GPa)
#
#
# Indices 1 2 3 4 5 6 
#
# 1 0.021248 -0.009497 -0.009169 0.000000 0.000000 0.000000
# 2 -0.009497 0.048174 -0.006482 0.000000 0.000000 0.000000
# 3 -0.009169 -0.006482 0.017928 0.000000 0.000000 0.000000
# 4 0.000000 0.000000 0.000000 0.035784 0.000000 0.000000
# 5 0.000000 0.000000 0.000000 0.000000 0.060541 0.000000
# 6 0.000000 0.000000 0.000000 0.000000 0.000000 0.046675
#
#
# Mechanical properties :
#
#
# Convention : Reuss Voigt Hill
#
# Bulk Modulus (GPa) = 26.98798 41.34517 34.16657
# Shear Modulus (GPa) = 17.06497 20.01873 18.54185
#
# Velocity S-wave (km/s) = 3.09039 3.34717 3.22134
# Velocity P-wave (km/s) = 5.27616 6.17066 5.74086
#
# Compressibility (1/GPa) = 0.03705354
#
# Stress axis : x y z
#
# Youngs Moduli (GPa) = 47.06323 20.75809 55.77797
#
# Poissons Ratio (x) = 0.19714 0.51145
# Poissons Ratio (y) = 0.44697 0.36154
# Poissons Ratio (z) = 0.43154 0.13455
#
# Static dielectric constant tensor:
#      x y z
#    x 1.598680 0.000000 0.000000 
#    y 0.000000 1.599020 0.000000 
#    z 0.000000 0.000000 1.600740 
# 
# From -- ./inp_files/32570.got.cif
#   From: 2010.05.17/outbox.cif.g08.bks.cpg/sg62_17_cif.got.tgz:32570.got - 2010.06.03 15:25:27.
