data_PCOD9462933
_publ_section_title
;
Structure prediction by ZEFSAII (Michael W. Deem and Ramdas Pophale) SiO2 
 PCOD9462933
Probable space group: P N M A
;
_chemical_formula_sum "Si O2"
_cell_formula_units_Z 48
_cell_length_a 15.400396
_cell_length_b 8.764037
_cell_length_c 20.359755
_cell_angle_alpha 90.000000
_cell_angle_beta 90.000000
_cell_angle_gamma 90.000000
_cell_volume 2747.948810
_symmetry_space_group_name_H-M "P N M A"
_symmetry_group_IT_number 62
_symmetry_cell_setting 'orthorhombic'
loop_
_space_group_symop_operation_xyz
x,y,z
1/2-x,-y,1/2+z
1/2+x,1/2-y,1/2-z
-x,1/2+y,-z
-x,-y,-z
1/2+x,y,1/2-z
1/2-x,1/2+y,1/2+z
x,1/2-y,z
loop_
_atom_site_type_symbol
_atom_site_label
_atom_site_fract_x
_atom_site_fract_y
_atom_site_fract_z
Si Si1 0.061220 0.933623 0.943469
Si Si2 0.580281 0.433013 0.961011
Si Si3 0.492794 0.565528 0.699284
Si Si4 0.384417 0.567071 0.189013
Si Si5 0.199873 0.432984 0.165214
Si Si6 0.726279 0.934064 0.478801
O O1 0.053897 0.750000 0.945059
O O2 0.031579 0.983351 0.871387
O O3 0.159302 0.974896 0.963961
O O4 0.000000 0.000000 0.000000
O O5 0.574812 0.250000 0.963298
O O6 0.584200 0.478501 0.884308
O O7 0.673970 0.478506 0.990623
O O8 0.500000 0.500000 0.000000
O O9 0.498244 0.750000 0.703077
O O10 0.549559 0.494717 0.756996
O O11 0.390804 0.523611 0.699631
O O12 0.380146 0.750000 0.191171
O O13 0.287053 0.501539 0.196641
O O14 0.205801 0.250000 0.164745
O O15 0.197149 0.492052 0.090013
O O16 0.724143 0.750000 0.470121
#
# Coordination Sequence:
#
# PCOD9462933 Si02
#       6
#     8   8   8   8   8   8
#     4  10  19  33  54  82 114 142 178 223 269 326
#     4   9  19  36  56  79 104 138 181 222 270 321
#     4  10  21  36  55  82 113 145 183 228 276 325
#     4  10  22  39  57  79 110 146 186 226 272 331
#     4  10  19  34  57  81 107 141 182 224 270 328
#     4   9  18  33  54  79 109 142 176 218 270 326
#
# _framework density 17.467573999999999
#
# number of rings (size 3 to 8) (size 9 to 14) (size 15 to 20)
#    0.000    2.333    1.667    2.000    0.000    5.333 
#    3.000    0.000    0.000    0.000    0.000    0.000 
#    0.000    0.000    0.000    0.000    0.000    0.000 
#
# Total GULP energy -267742.732341 kJ/mol
# GULP energy per Si atom -5577.973590 kJ/mol
# Density = 1.742782 g / cm^3
# Si number density = 17.467574 Si / 1000 Ang^3
#
#
#
# Elastic Constant Matrix: (Units=GPa)
#
#
# Indices 1 2 3 4 5 6 
#
# 1 196.9872 48.5028 102.5904 0.0000 0.0000 0.0000
# 2 48.5028 23.0565 29.9331 0.0000 0.0000 0.0000
# 3 102.5904 29.9331 93.1907 0.0000 0.0000 0.0000
# 4 0.0000 0.0000 0.0000 29.0010 0.0000 0.0000
# 5 0.0000 0.0000 0.0000 0.0000 36.2978 0.0000
# 6 0.0000 0.0000 0.0000 0.0000 0.0000 27.6014
#
#
#
# Elastic Compliance Matrix: (Units=1/GPa)
#
#
# Indices 1 2 3 4 5 6 
#
# 1 0.015138 -0.017513 -0.011040 0.000000 0.000000 0.000000
# 2 -0.017513 0.094654 -0.011124 0.000000 0.000000 0.000000
# 3 -0.011040 -0.011124 0.026457 0.000000 0.000000 0.000000
# 4 0.000000 0.000000 0.000000 0.034482 0.000000 0.000000
# 5 0.000000 0.000000 0.000000 0.000000 0.027550 0.000000
# 6 0.000000 0.000000 0.000000 0.000000 0.000000 0.036230
#
#
# Mechanical properties :
#
#
# Convention : Reuss Voigt Hill
#
# Bulk Modulus (GPa) = 17.57589 75.03186 46.30387
# Shear Modulus (GPa) = 15.02275 27.39392 21.20833
#
# Velocity S-wave (km/s) = 2.93582 3.96444 3.48825
# Velocity P-wave (km/s) = 4.64499 8.00024 6.54140
#
# Compressibility (1/GPa) = 0.05689614
#
# Stress axis : x y z
#
# Youngs Moduli (GPa) = 66.05917 10.56479 37.79716
#
# Poissons Ratio (x) = 0.18502 0.41727
# Poissons Ratio (y) = 1.15687 0.42046
# Poissons Ratio (z) = 0.72928 0.11752
#
# Static dielectric constant tensor:
#      x y z
#    x 1.603840 0.000000 0.000000 
#    y 0.000000 1.589320 0.000000 
#    z 0.000000 0.000000 1.566070 
# 
# From -- ./inp_files/23738.got.cif
#   From: 2010.05.17/outbox.cif.g08.bks.cpg/sg62_12_cif.got.tgz:23738.got - 2010.06.03 15:25:27.
