data_PCOD9462758
_publ_section_title
;
Structure prediction by ZEFSAII (Michael W. Deem and Ramdas Pophale) SiO2 
 PCOD9462758
Probable space group: P N M A
;
_chemical_formula_sum "Si O2"
_cell_formula_units_Z 64
_cell_length_a 13.452200
_cell_length_b 8.274918
_cell_length_c 29.389522
_cell_angle_alpha 90.000000
_cell_angle_beta 90.000000
_cell_angle_gamma 90.000000
_cell_volume 3271.519679
_symmetry_space_group_name_H-M "P N M A"
_symmetry_group_IT_number 62
_symmetry_cell_setting 'orthorhombic'
loop_
_space_group_symop_operation_xyz
x,y,z
1/2-x,-y,1/2+z
1/2+x,1/2-y,1/2-z
-x,1/2+y,-z
-x,-y,-z
1/2+x,y,1/2-z
1/2-x,1/2+y,1/2+z
x,1/2-y,z
loop_
_atom_site_type_symbol
_atom_site_label
_atom_site_fract_x
_atom_site_fract_y
_atom_site_fract_z
Si Si1 0.789867 0.446433 0.118455
Si Si2 0.722186 0.560495 0.383550
Si Si3 0.520052 0.053113 0.255264
Si Si4 0.890741 0.942823 0.555320
Si Si5 0.351687 0.435028 0.196681
Si Si6 0.888852 0.442766 0.452048
Si Si7 0.998044 0.057038 0.858516
Si Si8 0.278932 0.936668 0.784133
O O1 0.791902 0.250000 0.118236
O O2 0.705390 0.503363 0.083068
O O3 0.904445 0.500032 0.114117
O O4 0.753873 0.507110 0.168121
O O5 0.714980 0.750000 0.393485
O O6 0.782078 0.533032 0.336629
O O7 0.794056 0.483872 0.421343
O O8 0.609400 0.495877 0.377096
O O9 0.515593 0.250000 0.257532
O O10 0.459930 0.003275 0.209740
O O11 0.629907 0.992220 0.243679
O O12 0.491816 0.994589 0.305567
O O13 0.890796 0.750000 0.561985
O O14 0.003344 0.999013 0.568074
O O15 0.879204 0.981563 0.502057
O O16 0.355353 0.250000 0.179110
O O17 0.307974 0.431376 0.247580
O O18 0.894931 0.250000 0.457136
O O19 0.994875 0.250000 0.859839
O O20 0.307234 0.750000 0.794310
#
# Coordination Sequence:
#
# PCOD9462758 Si02
#       8
#     8   8   8   8   8   8   8   8
#     4  10  20  37  60  85 112 148 190 230 279 337
#     4  11  24  39  55  80 117 154 192 236 284 332
#     4  10  19  33  53  76 109 150 191 236 280 332
#     4   9  20  39  65  92 118 143 175 228 288 341
#     4  10  19  32  54  80 108 147 194 235 275 330
#     4  10  21  39  65  91 116 145 182 226 279 344
#     4  11  23  37  53  77 114 155 193 237 282 327
#     4   9  17  30  52  80 108 143 188 231 270 323
#
# _framework density 19.562774999999998
#
# number of rings (size 3 to 8) (size 9 to 14) (size 15 to 20)
#    0.000    2.000    2.500    1.125    1.750    3.000 
#    0.000    1.250    0.000    0.000    0.000    0.000 
#    0.000    0.000    0.000    0.000    0.000    0.000 
#
# Total GULP energy -356540.057380 kJ/mol
# GULP energy per Si atom -5570.938397 kJ/mol
# Density = 1.951825 g / cm^3
# Si number density = 19.562775 Si / 1000 Ang^3
#
#
#
# Elastic Constant Matrix: (Units=GPa)
#
#
# Indices 1 2 3 4 5 6 
#
# 1 66.6272 -0.0227 19.0232 0.0000 0.0000 0.0000
# 2 -0.0227 5.4517 -9.0604 0.0000 0.0000 0.0000
# 3 19.0232 -9.0604 43.6921 0.0000 0.0000 0.0000
# 4 0.0000 0.0000 0.0000 13.8278 0.0000 0.0000
# 5 0.0000 0.0000 0.0000 0.0000 33.5057 0.0000
# 6 0.0000 0.0000 0.0000 0.0000 0.0000 18.5418
#
#
#
# Elastic Compliance Matrix: (Units=1/GPa)
#
#
# Indices 1 2 3 4 5 6 
#
# 1 0.018505 -0.020314 -0.012269 0.000000 0.000000 0.000000
# 2 -0.020314 0.302186 0.071509 0.000000 0.000000 0.000000
# 3 -0.012269 0.071509 0.043058 0.000000 0.000000 0.000000
# 4 0.000000 0.000000 0.000000 0.072318 0.000000 0.000000
# 5 0.000000 0.000000 0.000000 0.000000 0.029846 0.000000
# 6 0.000000 0.000000 0.000000 0.000000 0.000000 0.053932
#
#
# Mechanical properties :
#
#
# Convention : Reuss Voigt Hill
#
# Bulk Modulus (GPa) = 2.26449 15.07234 8.66841
# Shear Modulus (GPa) = 8.48615 20.23045 14.35830
#
# Velocity S-wave (km/s) = 2.08502 3.21928 2.71211
# Velocity P-wave (km/s) = 2.63752 4.64108 3.77466
#
# Compressibility (1/GPa) = 0.44160038
#
# Stress axis : x y z
#
# Youngs Moduli (GPa) = 54.03915 3.30922 23.22438
#
# Poissons Ratio (x) = 0.06722 0.28495
# Poissons Ratio (y) = 1.09775 -1.66075
# Poissons Ratio (z) = 0.66303 -0.23664
#
# Static dielectric constant tensor:
#      x y z
#    x 1.748690 0.000000 0.000000 
#    y 0.000000 1.693750 0.000000 
#    z 0.000000 0.000000 1.666100 
# 
# From -- ./inp_files/32567.got.cif
#   From: 2010.05.17/outbox.cif.g08.bks.cpg/sg62_17_cif.got.tgz:32567.got - 2010.06.03 15:25:27.
