data_PCOD9462721
_publ_section_title
;
Structure prediction by ZEFSAII (Michael W. Deem and Ramdas Pophale) SiO2 
 PCOD9462721
Probable space group: P N M A
;
_chemical_formula_sum "Si O2"
_cell_formula_units_Z 48
_cell_length_a 19.623024
_cell_length_b 7.503404
_cell_length_c 14.997871
_cell_angle_alpha 90.000000
_cell_angle_beta 90.000000
_cell_angle_gamma 90.000000
_cell_volume 2208.278679
_symmetry_space_group_name_H-M "P N M A"
_symmetry_group_IT_number 62
_symmetry_cell_setting 'orthorhombic'
loop_
_space_group_symop_operation_xyz
x,y,z
1/2-x,-y,1/2+z
1/2+x,1/2-y,1/2-z
-x,1/2+y,-z
-x,-y,-z
1/2+x,y,1/2-z
1/2-x,1/2+y,1/2+z
x,1/2-y,z
loop_
_atom_site_type_symbol
_atom_site_label
_atom_site_fract_x
_atom_site_fract_y
_atom_site_fract_z
Si Si1 0.935654 0.534431 0.138926
Si Si2 0.409981 0.966050 0.159710
Si Si3 0.941399 0.045794 0.620089
Si Si4 0.320934 0.457552 0.998746
Si Si5 0.331255 0.531000 0.513682
Si Si6 0.086987 0.456537 0.180050
O O1 0.938304 0.750000 0.137562
O O2 0.908979 0.480040 0.236923
O O3 0.013229 0.469487 0.132452
O O4 0.885555 0.475436 0.060962
O O5 0.410628 0.750000 0.157960
O O6 0.482284 0.031579 0.118834
O O7 0.348353 0.030359 0.099398
O O8 0.948779 0.250000 0.589458
O O9 0.881210 0.962083 0.561903
O O10 0.920072 0.046456 0.723976
O O11 0.315187 0.250000 0.972210
O O12 0.244935 0.531261 0.992412
O O13 0.331328 0.750000 0.515012
O O14 0.357494 0.473267 0.610818
O O15 0.101481 0.250000 0.198455
#
# Coordination Sequence:
#
# PCOD9462721 Si02
#       6
#     8   8   8   8   8   8
#     4   9  18  35  55  73  99 133 167 203 244 296
#     4   9  18  32  51  76 100 125 163 210 251 283
#     4   9  19  35  54  74  97 131 171 204 242 296
#     4  10  20  34  52  73 100 136 170 199 242 300
#     4   9  19  34  51  74 104 134 163 201 249 295
#     4  10  19  32  53  78 101 127 163 209 253 288
#
# _framework density 21.736386
#
# number of rings (size 3 to 8) (size 9 to 14) (size 15 to 20)
#    0.000    2.667    0.000    2.500    0.000    4.667 
#    0.000    5.000    0.000    0.000    0.000    0.000 
#    0.000    0.000    0.000    0.000    0.000    0.000 
#
# Total GULP energy -268009.281276 kJ/mol
# GULP energy per Si atom -5583.526693 kJ/mol
# Density = 2.168691 g / cm^3
# Si number density = 21.736386 Si / 1000 Ang^3
#
#
#
# Elastic Constant Matrix: (Units=GPa)
#
#
# Indices 1 2 3 4 5 6 
#
# 1 64.4119 -6.5149 26.6917 0.0000 0.0000 0.0000
# 2 -6.5149 59.1836 -4.2630 0.0000 0.0000 0.0000
# 3 26.6917 -4.2630 50.9488 0.0000 0.0000 0.0000
# 4 0.0000 0.0000 0.0000 21.5829 0.0000 0.0000
# 5 0.0000 0.0000 0.0000 0.0000 13.8247 0.0000
# 6 0.0000 0.0000 0.0000 0.0000 0.0000 10.4782
#
#
#
# Elastic Compliance Matrix: (Units=1/GPa)
#
#
# Indices 1 2 3 4 5 6 
#
# 1 0.019953 0.001452 -0.010332 0.000000 0.000000 0.000000
# 2 0.001452 0.017105 0.000670 0.000000 0.000000 0.000000
# 3 -0.010332 0.000670 0.025096 0.000000 0.000000 0.000000
# 4 0.000000 0.000000 0.000000 0.046333 0.000000 0.000000
# 5 0.000000 0.000000 0.000000 0.000000 0.072334 0.000000
# 6 0.000000 0.000000 0.000000 0.000000 0.000000 0.095436
#
#
# Mechanical properties :
#
#
# Convention : Reuss Voigt Hill
#
# Bulk Modulus (GPa) = 21.86462 22.93021 22.39742
# Shear Modulus (GPa) = 16.23789 19.75253 17.99521
#
# Velocity S-wave (km/s) = 2.73616 3.01779 2.88042
# Velocity P-wave (km/s) = 4.47917 4.76601 4.62481
#
# Compressibility (1/GPa) = 0.04573598
#
# Stress axis : x y z
#
# Youngs Moduli (GPa) = 50.11669 58.46335 39.84622
#
# Poissons Ratio (x) = -0.08490 0.41169
# Poissons Ratio (y) = -0.07278 -0.02671
# Poissons Ratio (z) = 0.51780 -0.03919
#
# Static dielectric constant tensor:
#      x y z
#    x 1.776340 0.000000 0.000000 
#    y 0.000000 1.764640 0.000000 
#    z 0.000000 0.000000 1.770890 
# 
# From -- ./inp_files/19535.got.cif
#   From: 2010.05.17/outbox.cif.g08.bks.cpg/sg62_10_cif.got.tgz:19535.got - 2010.06.03 15:25:27.
