data_PCOD9462941
_publ_section_title
;
Structure prediction by ZEFSAII (Michael W. Deem and Ramdas Pophale) SiO2 
 PCOD9462941
Probable space group: P N M A
;
_chemical_formula_sum "Si O2"
_cell_formula_units_Z 64
_cell_length_a 15.464465
_cell_length_b 7.687127
_cell_length_c 24.398942
_cell_angle_alpha 90.000000
_cell_angle_beta 90.000000
_cell_angle_gamma 90.000000
_cell_volume 2900.480505
_symmetry_space_group_name_H-M "P N M A"
_symmetry_group_IT_number 62
_symmetry_cell_setting 'orthorhombic'
loop_
_space_group_symop_operation_xyz
x,y,z
1/2-x,-y,1/2+z
1/2+x,1/2-y,1/2-z
-x,1/2+y,-z
-x,-y,-z
1/2+x,y,1/2-z
1/2-x,1/2+y,1/2+z
x,1/2-y,z
loop_
_atom_site_type_symbol
_atom_site_label
_atom_site_fract_x
_atom_site_fract_y
_atom_site_fract_z
Si Si1 0.925717 0.460831 0.248333
Si Si2 0.273101 0.963477 0.754954
Si Si3 0.265615 0.946472 0.031094
Si Si4 0.826060 0.953948 0.864492
Si Si5 0.514157 0.959581 0.627658
Si Si6 0.570042 0.036817 0.166217
Si Si7 0.421239 0.959470 0.959543
Si Si8 0.593998 0.445989 0.521987
O O1 0.922181 0.250000 0.252945
O O2 0.826722 0.520618 0.242247
O O3 0.971878 0.500446 0.190993
O O4 0.985997 0.520620 0.298606
O O5 0.272404 0.750000 0.755987
O O6 0.305168 0.024419 0.695265
O O7 0.342051 0.015576 0.801523
O O8 0.293348 0.750000 0.042380
O O9 0.247904 0.027533 0.090397
O O10 0.336115 0.027855 0.990845
O O11 0.174255 0.946913 0.999840
O O12 0.841237 0.750000 0.855831
O O13 0.917482 0.022192 0.886835
O O14 0.521269 0.750000 0.620316
O O15 0.583756 0.040863 0.587212
O O16 0.568988 0.250000 0.166556
O O17 0.568491 0.977609 0.103030
O O18 0.413343 0.750000 0.954772
O O19 0.500000 0.000000 0.000000
O O20 0.500000 0.500000 0.500000
O O21 0.610719 0.250000 0.503333
#
# Coordination Sequence:
#
# PCOD9462941 Si02
#       8
#     8   8   8   8   8   8   8   8
#     4   9  17  29  52  82 112 147 185 238 294 342
#     4   9  17  29  51  84 114 144 187 241 295 343
#     4  11  24  40  58  85 118 159 202 244 296 353
#     4  10  19  33  56  85 115 150 194 244 294 350
#     4  10  19  33  54  83 118 151 187 234 290 350
#     4   9  17  33  53  82 116 144 189 243 290 341
#     4  10  24  42  63  87 117 159 204 252 297 342
#     4  12  24  38  57  84 118 156 194 238 289 353
#
# _framework density 22.06531
#
# number of rings (size 3 to 8) (size 9 to 14) (size 15 to 20)
#    0.000    2.000    2.500    1.500    3.500    1.000 
#    0.000    0.000    0.000    2.250    0.000    0.000 
#    0.000    0.000    0.000    0.000    0.000    0.000 
#
# Total GULP energy -357299.478250 kJ/mol
# GULP energy per Si atom -5582.804348 kJ/mol
# Density = 2.201509 g / cm^3
# Si number density = 22.065310 Si / 1000 Ang^3
#
#
#
# Elastic Constant Matrix: (Units=GPa)
#
#
# Indices 1 2 3 4 5 6 
#
# 1 141.2060 -5.5040 80.8529 0.0000 0.0000 0.0000
# 2 -5.5040 37.5182 -4.4759 0.0000 0.0000 0.0000
# 3 80.8529 -4.4759 175.0778 0.0000 0.0000 0.0000
# 4 0.0000 0.0000 0.0000 14.6767 0.0000 0.0000
# 5 0.0000 0.0000 0.0000 0.0000 30.8290 0.0000
# 6 0.0000 0.0000 0.0000 0.0000 0.0000 6.9391
#
#
#
# Elastic Compliance Matrix: (Units=1/GPa)
#
#
# Indices 1 2 3 4 5 6 
#
# 1 0.009657 0.000887 -0.004437 0.000000 0.000000 0.000000
# 2 0.000887 0.026817 0.000276 0.000000 0.000000 0.000000
# 3 -0.004437 0.000276 0.007768 0.000000 0.000000 0.000000
# 4 0.000000 0.000000 0.000000 0.068135 0.000000 0.000000
# 5 0.000000 0.000000 0.000000 0.000000 0.032437 0.000000
# 6 0.000000 0.000000 0.000000 0.000000 0.000000 0.144112
#
#
# Mechanical properties :
#
#
# Convention : Reuss Voigt Hill
#
# Bulk Modulus (GPa) = 26.52948 55.06090 40.79519
# Shear Modulus (GPa) = 16.23175 29.35089 22.79132
#
# Velocity S-wave (km/s) = 2.71518 3.65112 3.21737
# Velocity P-wave (km/s) = 4.67748 6.54080 5.68599
#
# Compressibility (1/GPa) = 0.03769392
#
# Stress axis : x y z
#
# Youngs Moduli (GPa) = 103.55149 37.29004 128.73546
#
# Poissons Ratio (x) = -0.03309 0.57120
# Poissons Ratio (y) = -0.09189 -0.03550
# Poissons Ratio (z) = 0.45946 -0.01028
#
# Static dielectric constant tensor:
#      x y z
#    x 1.829710 0.000000 0.000000 
#    y 0.000000 1.839420 0.000000 
#    z 0.000000 0.000000 1.814550 
# 
# From -- ./inp_files/29915.got.cif
#   From: 2010.05.17/outbox.cif.g08.bks.cpg/sg62_15_cif.got.tgz:29915.got - 2010.06.03 15:25:27.
