data_PCOD9462742
_publ_section_title
;
Structure prediction by ZEFSAII (Michael W. Deem and Ramdas Pophale) SiO2 
 PCOD9462742
Probable space group: P N M A
;
_chemical_formula_sum "Si O2"
_cell_formula_units_Z 56
_cell_length_a 21.586047
_cell_length_b 7.429020
_cell_length_c 15.024159
_cell_angle_alpha 90.000000
_cell_angle_beta 90.000000
_cell_angle_gamma 90.000000
_cell_volume 2409.321837
_symmetry_space_group_name_H-M "P N M A"
_symmetry_group_IT_number 62
_symmetry_cell_setting 'orthorhombic'
loop_
_space_group_symop_operation_xyz
x,y,z
1/2-x,-y,1/2+z
1/2+x,1/2-y,1/2-z
-x,1/2+y,-z
-x,-y,-z
1/2+x,y,1/2-z
1/2-x,1/2+y,1/2+z
x,1/2-y,z
loop_
_atom_site_type_symbol
_atom_site_label
_atom_site_fract_x
_atom_site_fract_y
_atom_site_fract_z
Si Si1 0.159705 0.537891 0.899409
Si Si2 0.479303 0.035019 0.398685
Si Si3 0.212078 0.539144 0.081099
Si Si4 0.080321 0.044451 0.402254
Si Si5 0.402547 0.968974 0.709810
Si Si6 0.320231 0.533072 0.205157
Si Si7 0.936757 0.969331 0.401290
O O1 0.151484 0.750000 0.918074
O O2 0.090183 0.462257 0.888156
O O3 0.193630 0.519520 0.805872
O O4 0.195131 0.461700 0.984733
O O5 0.477385 0.250000 0.385439
O O6 0.532030 0.967239 0.331425
O O7 0.500000 0.000000 0.500000
O O8 0.226764 0.750000 0.067820
O O9 0.151783 0.523895 0.143361
O O10 0.269791 0.463144 0.135554
O O11 0.102828 0.250000 0.407341
O O12 0.106869 0.965370 0.311017
O O13 0.088293 0.969472 0.501599
O O14 0.005764 0.041430 0.388748
O O15 0.403786 0.750000 0.712494
O O16 0.319983 0.750000 0.202409
O O17 0.388525 0.474842 0.173988
O O18 0.941213 0.750000 0.403284
#
# Coordination Sequence:
#
# PCOD9462742 Si02
#       7
#     8   8   8   8   8   8   8
#     4  10  21  38  59  82 109 144 184 225 274 329
#     4  10  19  32  53  82 111 142 178 221 275 328
#     4  10  22  39  56  77 108 143 182 224 266 320
#     4   9  18  33  55  81 109 138 174 221 268 320
#     4  10  20  33  53  82 112 141 179 224 271 325
#     4  10  22  38  56  79 108 144 185 226 268 322
#     4   9  18  34  54  78 107 141 178 218 269 319
#
# _framework density 23.243054999999998
#
# number of rings (size 3 to 8) (size 9 to 14) (size 15 to 20)
#    0.000    2.286    1.429    0.857    0.000    5.143 
#    0.000    2.857    0.000    0.000    0.000    0.000 
#    0.000    0.000    0.000    0.000    0.000    0.000 
#
# Total GULP energy -312890.737800 kJ/mol
# GULP energy per Si atom -5587.334604 kJ/mol
# Density = 2.319015 g / cm^3
# Si number density = 23.243055 Si / 1000 Ang^3
#
#
#
# Elastic Constant Matrix: (Units=GPa)
#
#
# Indices 1 2 3 4 5 6 
#
# 1 44.3875 -10.9895 17.4770 0.0000 0.0000 0.0000
# 2 -10.9895 72.2970 -18.4051 0.0000 0.0000 0.0000
# 3 17.4770 -18.4051 146.0598 0.0000 0.0000 0.0000
# 4 0.0000 0.0000 0.0000 8.7244 0.0000 0.0000
# 5 0.0000 0.0000 0.0000 0.0000 22.6805 0.0000
# 6 0.0000 0.0000 0.0000 0.0000 0.0000 2.3623
#
#
#
# Elastic Compliance Matrix: (Units=1/GPa)
#
#
# Indices 1 2 3 4 5 6 
#
# 1 0.024276 0.003048 -0.002521 0.000000 0.000000 0.000000
# 2 0.003048 0.014673 0.001484 0.000000 0.000000 0.000000
# 3 -0.002521 0.001484 0.007335 0.000000 0.000000 0.000000
# 4 0.000000 0.000000 0.000000 0.114621 0.000000 0.000000
# 5 0.000000 0.000000 0.000000 0.000000 0.044091 0.000000
# 6 0.000000 0.000000 0.000000 0.000000 0.000000 0.423314
#
#
# Mechanical properties :
#
#
# Convention : Reuss Voigt Hill
#
# Bulk Modulus (GPa) = 19.87753 26.54546 23.21149
# Shear Modulus (GPa) = 7.79965 25.06424 16.43194
#
# Velocity S-wave (km/s) = 1.83384 3.28739 2.66176
# Velocity P-wave (km/s) = 3.61311 5.08477 4.41075
#
# Compressibility (1/GPa) = 0.05030807
#
# Stress axis : x y z
#
# Youngs Moduli (GPa) = 41.19282 68.15221 136.32979
#
# Poissons Ratio (x) = -0.20775 0.34364
# Poissons Ratio (y) = -0.12557 -0.20234
# Poissons Ratio (z) = 0.10383 -0.10115
#
# Static dielectric constant tensor:
#      x y z
#    x 1.835790 0.000000 0.000000 
#    y 0.000000 1.891210 0.000000 
#    z 0.000000 0.000000 1.869530 
# 
# From -- ./inp_files/20411.got.cif
#   From: 2010.05.17/outbox.cif.g08.bks.cpg/sg62_11_cif.got.tgz:20411.got - 2010.06.03 15:25:27.
