data_PCOD9462682
_publ_section_title
;
Structure prediction by ZEFSAII (Michael W. Deem and Ramdas Pophale) SiO2 
 PCOD9462682
Probable space group: P N M A
;
_chemical_formula_sum "Si O2"
_cell_formula_units_Z 56
_cell_length_a 18.480408
_cell_length_b 8.046232
_cell_length_c 19.563258
_cell_angle_alpha 90.000000
_cell_angle_beta 90.000000
_cell_angle_gamma 90.000000
_cell_volume 2909.010495
_symmetry_space_group_name_H-M "P N M A"
_symmetry_group_IT_number 62
_symmetry_cell_setting 'orthorhombic'
loop_
_space_group_symop_operation_xyz
x,y,z
1/2-x,-y,1/2+z
1/2+x,1/2-y,1/2-z
-x,1/2+y,-z
-x,-y,-z
1/2+x,y,1/2-z
1/2-x,1/2+y,1/2+z
x,1/2-y,z
loop_
_atom_site_type_symbol
_atom_site_label
_atom_site_fract_x
_atom_site_fract_y
_atom_site_fract_z
Si Si1 0.191494 0.954138 0.110289
Si Si2 0.471164 0.448434 0.573552
Si Si3 0.160266 0.941655 0.255098
Si Si4 0.498104 0.553175 0.716828
Si Si5 0.896382 0.446292 0.607642
Si Si6 0.832090 0.557154 0.466560
Si Si7 0.443621 0.443909 0.142819
O O1 0.192626 0.750000 0.112043
O O2 0.112248 0.004733 0.083913
O O3 0.200724 0.014006 0.188947
O O4 0.255984 0.009539 0.061595
O O5 0.500000 0.500000 0.500000
O O6 0.472434 0.250000 0.578667
O O7 0.515946 0.519143 0.638109
O O8 0.183250 0.750000 0.260587
O O9 0.156539 0.011720 0.331786
O O10 0.075906 0.953952 0.232131
O O11 0.483193 0.750000 0.725518
O O12 0.553428 0.506678 0.777123
O O13 0.908055 0.250000 0.620129
O O14 0.863311 0.469511 0.533288
O O15 0.974372 0.532020 0.615465
O O16 0.822796 0.750000 0.484671
O O17 0.889073 0.542384 0.404791
O O18 0.424479 0.250000 0.137922
#
# Coordination Sequence:
#
# PCOD9462682 Si02
#       7
#     8   8   8   8   8   8   8
#     4   8  17  34  53  72  97 131 167 205 253 305
#     4  10  19  34  56  79 103 131 168 212 256 301
#     4   8  15  31  53  71  90 122 163 204 246 295
#     4   9  17  30  50  75 100 125 158 202 249 296
#     4  10  19  32  52  76 101 130 169 214 254 296
#     4  11  21  33  50  72 103 139 170 203 250 305
#     4  10  20  34  51  73 102 134 171 212 252 298
#
# _framework density 19.250532
#
# number of rings (size 3 to 8) (size 9 to 14) (size 15 to 20)
#    0.000    2.571    0.000    3.429    0.000    2.286 
#    0.000    8.571    0.000    3.429    0.000    0.000 
#    0.000    0.000    0.000    0.000    0.000    0.000 
#
# Total GULP energy -312056.675840 kJ/mol
# GULP energy per Si atom -5572.440640 kJ/mol
# Density = 1.920672 g / cm^3
# Si number density = 19.250532 Si / 1000 Ang^3
#
#
#
# Elastic Constant Matrix: (Units=GPa)
#
#
# Indices 1 2 3 4 5 6 
#
# 1 46.7033 -2.3854 44.4634 0.0000 0.0000 0.0000
# 2 -2.3854 28.6817 2.2225 0.0000 0.0000 0.0000
# 3 44.4634 2.2225 156.7029 0.0000 0.0000 0.0000
# 4 0.0000 0.0000 0.0000 17.0507 0.0000 0.0000
# 5 0.0000 0.0000 0.0000 0.0000 7.9740 0.0000
# 6 0.0000 0.0000 0.0000 0.0000 0.0000 8.7019
#
#
#
# Elastic Compliance Matrix: (Units=1/GPa)
#
#
# Indices 1 2 3 4 5 6 
#
# 1 0.029612 0.003117 -0.008447 0.000000 0.000000 0.000000
# 2 0.003117 0.035232 -0.001384 0.000000 0.000000 0.000000
# 3 -0.008447 -0.001384 0.008798 0.000000 0.000000 0.000000
# 4 0.000000 0.000000 0.000000 0.058649 0.000000 0.000000
# 5 0.000000 0.000000 0.000000 0.000000 0.125408 0.000000
# 6 0.000000 0.000000 0.000000 0.000000 0.000000 0.114917
#
#
# Mechanical properties :
#
#
# Convention : Reuss Voigt Hill
#
# Bulk Modulus (GPa) = 16.60703 35.63207 26.11955
# Shear Modulus (GPa) = 12.31180 19.26447 15.78814
#
# Velocity S-wave (km/s) = 2.53169 3.16685 2.86692
# Velocity P-wave (km/s) = 4.14626 5.64994 4.95546
#
# Compressibility (1/GPa) = 0.06021545
#
# Stress axis : x y z
#
# Youngs Moduli (GPa) = 33.76957 28.38328 113.66495
#
# Poissons Ratio (x) = -0.08848 0.96008
# Poissons Ratio (y) = -0.10527 0.15734
# Poissons Ratio (z) = 0.28524 0.03929
#
# Static dielectric constant tensor:
#      x y z
#    x 1.646730 0.000000 0.000000 
#    y 0.000000 1.694140 0.000000 
#    z 0.000000 0.000000 1.717140 
# 
# From -- ./inp_files/24577.got.cif
#   From: 2010.05.17/outbox.cif.g08.bks.cpg/sg62_13_cif.got.tgz:24577.got - 2010.06.03 15:25:27.
