data_PCOD9462876
_publ_section_title
;
Structure prediction by ZEFSAII (Michael W. Deem and Ramdas Pophale) SiO2 
 PCOD9462876
Probable space group: P N M A
;
_chemical_formula_sum "Si O2"
_cell_formula_units_Z 64
_cell_length_a 29.781708
_cell_length_b 7.404700
_cell_length_c 12.686227
_cell_angle_alpha 90.000000
_cell_angle_beta 90.000000
_cell_angle_gamma 90.000000
_cell_volume 2797.625302
_symmetry_space_group_name_H-M "P N M A"
_symmetry_group_IT_number 62
_symmetry_cell_setting 'orthorhombic'
loop_
_space_group_symop_operation_xyz
x,y,z
1/2-x,-y,1/2+z
1/2+x,1/2-y,1/2-z
-x,1/2+y,-z
-x,-y,-z
1/2+x,y,1/2-z
1/2-x,1/2+y,1/2+z
x,1/2-y,z
loop_
_atom_site_type_symbol
_atom_site_label
_atom_site_fract_x
_atom_site_fract_y
_atom_site_fract_z
Si Si1 0.981730 0.965537 0.383207
Si Si2 0.565354 0.529146 0.252194
Si Si3 0.368952 0.468725 0.368556
Si Si4 0.701870 0.460663 0.998801
Si Si5 0.663601 0.967872 0.218688
Si Si6 0.447679 0.035143 0.511948
Si Si7 0.800762 0.470855 0.947337
Si Si8 0.880851 0.541750 0.369374
O O1 0.979500 0.750000 0.365139
O O2 0.931121 0.038238 0.371979
O O3 0.019834 0.034740 0.303149
O O4 0.000000 0.000000 0.500000
O O5 0.564450 0.750000 0.251112
O O6 0.612071 0.474043 0.198619
O O7 0.567212 0.469036 0.373406
O O8 0.368308 0.250000 0.362278
O O9 0.416677 0.531078 0.417063
O O10 0.331727 0.524613 0.453952
O O11 0.363687 0.536862 0.250532
O O12 0.702976 0.250000 0.967828
O O13 0.749858 0.534501 0.963435
O O14 0.657590 0.540469 0.943386
O O15 0.695160 0.472173 0.123883
O O16 0.663990 0.750000 0.219494
O O17 0.679489 0.027359 0.334447
O O18 0.440868 0.250000 0.513982
O O19 0.500000 0.000000 0.500000
O O20 0.801417 0.250000 0.947574
O O21 0.886422 0.750000 0.403798
#
# Coordination Sequence:
#
# PCOD9462876 Si02
#       8
#     8   8   8   8   8   8   8   8
#     4  10  20  34  53  77 108 146 183 222 269 323
#     4   9  17  32  54  76 102 138 179 221 265 317
#     4  10  20  36  58  81 108 144 188 231 268 324
#     4  10  22  38  56  80 114 148 178 227 288 334
#     4  10  19  36  61  83 104 140 191 232 267 326
#     4  10  19  33  53  78 107 140 178 220 270 323
#     4   9  19  37  58  80 108 145 183 227 283 331
#     4  10  22  38  55  81 118 152 179 221 286 340
#
# _framework density 22.876543999999999
#
# number of rings (size 3 to 8) (size 9 to 14) (size 15 to 20)
#    0.000    2.250    1.250    1.500    1.750    2.500 
#    0.000    2.500    0.000    0.000    0.000    0.000 
#    0.000    0.000    0.000    0.000    0.000    0.000 
#
# Total GULP energy -357688.376576 kJ/mol
# GULP energy per Si atom -5588.880884 kJ/mol
# Density = 2.282448 g / cm^3
# Si number density = 22.876544 Si / 1000 Ang^3
#
#
#
# Elastic Constant Matrix: (Units=GPa)
#
#
# Indices 1 2 3 4 5 6 
#
# 1 164.5393 2.4792 44.8554 0.0000 0.0000 0.0000
# 2 2.4792 75.0415 -15.4228 0.0000 0.0000 0.0000
# 3 44.8554 -15.4228 101.7855 0.0000 0.0000 0.0000
# 4 0.0000 0.0000 0.0000 16.9773 0.0000 0.0000
# 5 0.0000 0.0000 0.0000 0.0000 39.8144 0.0000
# 6 0.0000 0.0000 0.0000 0.0000 0.0000 2.7486
#
#
#
# Elastic Compliance Matrix: (Units=1/GPa)
#
#
# Indices 1 2 3 4 5 6 
#
# 1 0.006964 -0.000889 -0.003204 0.000000 0.000000 0.000000
# 2 -0.000889 0.013868 0.002493 0.000000 0.000000 0.000000
# 3 -0.003204 0.002493 0.011614 0.000000 0.000000 0.000000
# 4 0.000000 0.000000 0.000000 0.058902 0.000000 0.000000
# 5 0.000000 0.000000 0.000000 0.000000 0.025117 0.000000
# 6 0.000000 0.000000 0.000000 0.000000 0.000000 0.363824
#
#
# Mechanical properties :
#
#
# Convention : Reuss Voigt Hill
#
# Bulk Modulus (GPa) = 34.19119 45.02108 39.60614
# Shear Modulus (GPa) = 10.13711 32.53835 21.33773
#
# Velocity S-wave (km/s) = 2.10733 3.77549 3.05738
# Velocity P-wave (km/s) = 4.57160 6.22322 5.46022
#
# Compressibility (1/GPa) = 0.02924730
#
# Stress axis : x y z
#
# Youngs Moduli (GPa) = 143.58875 72.11024 86.10206
#
# Poissons Ratio (x) = 0.06407 0.27585
# Poissons Ratio (y) = 0.12758 -0.21464
# Poissons Ratio (z) = 0.46002 -0.17976
#
# Static dielectric constant tensor:
#      x y z
#    x 1.943070 0.000000 0.000000 
#    y 0.000000 1.917420 0.000000 
#    z 0.000000 0.000000 1.803450 
# 
# From -- ./inp_files/15917.got.cif
#   From: 2010.05.17/outbox.cif.g08.bks.cpg/sg62_8_cif.got.tgz:15917.got - 2010.06.03 15:25:27.
