data_PCOD9462323
_publ_section_title
;
Structure prediction by ZEFSAII (Michael W. Deem and Ramdas Pophale) SiO2 
 PCOD9462323
Probable space group: P N M A
;
_chemical_formula_sum "Si O2"
_cell_formula_units_Z 52
_cell_length_a 5.458006
_cell_length_b 13.600636
_cell_length_c 30.544507
_cell_angle_alpha 90.000000
_cell_angle_beta 90.000000
_cell_angle_gamma 90.000000
_cell_volume 2267.390623
_symmetry_space_group_name_H-M "P N M A"
_symmetry_group_IT_number 62
_symmetry_cell_setting 'orthorhombic'
loop_
_space_group_symop_operation_xyz
x,y,z
1/2-x,-y,1/2+z
1/2+x,1/2-y,1/2-z
-x,1/2+y,-z
-x,-y,-z
1/2+x,y,1/2-z
1/2-x,1/2+y,1/2+z
x,1/2-y,z
loop_
_atom_site_type_symbol
_atom_site_label
_atom_site_fract_x
_atom_site_fract_y
_atom_site_fract_z
Si Si1 0.669993 0.250000 0.222522
Si Si2 0.748577 0.053034 0.639205
Si Si3 0.795020 0.562280 0.047456
Si Si4 0.578394 0.935915 0.805512
Si Si5 0.794562 0.436408 0.454101
Si Si6 0.949520 0.640518 0.870707
Si Si7 0.906747 0.599023 0.233749
O O1 0.928446 0.250000 0.246405
O O2 0.628632 0.352283 0.197351
O O3 0.741140 0.114145 0.594641
O O4 0.634635 0.948952 0.624609
O O5 0.600531 0.090114 0.681522
O O6 0.007891 0.022062 0.660117
O O7 0.567004 0.483037 0.047272
O O8 0.073428 0.518634 0.045994
O O9 0.748020 0.615469 0.001100
O O10 0.807470 0.879525 0.825433
O O11 0.607284 0.993523 0.759924
O O12 0.740210 0.372231 0.411197
O O13 0.051588 0.750000 0.871860
O O14 0.654303 0.645416 0.249329
#
# Coordination Sequence:
#
# PCOD9462323 Si02
#       7
#     4   8   8   8   8   8   8
#     4  12  26  34  42  52  76 116 154 182 210 238
#     4  10  20  32  44  61  79 110 146 179 218 252
#     4   9  17  31  53  60  81  98 137 184 213 260
#     4  11  21  30  41  57  81 112 145 180 208 248
#     4   9  18  33  45  68  78 103 133 179 224 252
#     4  11  21  31  43  62  87 114 142 181 215 258
#     4  10  19  30  41  55  80 106 139 177 204 242
#
# _framework density 22.933851000000001
#
# number of rings (size 3 to 8) (size 9 to 14) (size 15 to 20)
#    0.000    1.846    3.846    1.846    3.231    0.000 
#    0.000    0.000    0.000    0.000    0.000    0.000 
#    0.000    0.000    0.000    0.000    0.000    6.154 
#
# Total GULP energy -289802.371071 kJ/mol
# GULP energy per Si atom -5573.122521 kJ/mol
# Density = 2.288165 g / cm^3
# Si number density = 22.933851 Si / 1000 Ang^3
#
#
#
# Elastic Constant Matrix: (Units=GPa)
#
#
# Indices 1 2 3 4 5 6 
#
# 1 127.9495 8.8618 21.1834 0.0000 0.0000 0.0000
# 2 8.8618 51.1580 11.0897 0.0000 0.0000 0.0000
# 3 21.1834 11.0897 165.1379 0.0000 0.0000 0.0000
# 4 0.0000 0.0000 0.0000 1.3105 0.0000 0.0000
# 5 0.0000 0.0000 0.0000 0.0000 43.7119 0.0000
# 6 0.0000 0.0000 0.0000 0.0000 0.0000 -47.1123
#
#
#
# Elastic Compliance Matrix: (Units=1/GPa)
#
#
# Indices 1 2 3 4 5 6 
#
# 1 0.008056 -0.001189 -0.000954 0.000000 0.000000 0.000000
# 2 -0.001189 0.020011 -0.001191 0.000000 0.000000 0.000000
# 3 -0.000954 -0.001191 0.006258 0.000000 0.000000 0.000000
# 4 0.000000 0.000000 0.000000 0.763093 0.000000 0.000000
# 5 0.000000 0.000000 0.000000 0.000000 0.022877 0.000000
# 6 0.000000 0.000000 0.000000 0.000000 0.000000 -0.021226
#
#
# Mechanical properties :
#
#
# Convention : Reuss Voigt Hill
#
# Bulk Modulus (GPa) = 36.15618 47.39057 41.77338
# Shear Modulus (GPa) = 6.13530 19.78939 12.96235
#
# Velocity S-wave (km/s) = 1.63738 2.94069 2.37999
# Velocity P-wave (km/s) = 4.40163 5.67795 5.08003
#
# Compressibility (1/GPa) = 0.02765779
#
# Stress axis : x y z
#
# Youngs Moduli (GPa) = 124.13443 49.97140 159.79886
#
# Poissons Ratio (x) = 0.05940 0.15237
# Poissons Ratio (y) = 0.14757 0.19038
# Poissons Ratio (z) = 0.11837 0.05953
#
# Static dielectric constant tensor:
#      x y z
#    x 1.921760 0.000000 0.000000 
#    y 0.000000 1.833380 0.000000 
#    z 0.000000 0.000000 1.984860 
# 
# From -- ./inp_files/31730.got.cif
#   From: 2010.05.17/outbox.cif.g08.bks.cpg/sg62_16_cif.got.tgz:31730.got - 2010.06.03 15:25:27.
