data_PCOD9462647
_publ_section_title
;
Structure prediction by ZEFSAII (Michael W. Deem and Ramdas Pophale) SiO2 
 PCOD9462647
Probable space group: P N M A
;
_chemical_formula_sum "Si O2"
_cell_formula_units_Z 64
_cell_length_a 23.828639
_cell_length_b 8.585438
_cell_length_c 19.614336
_cell_angle_alpha 90.000000
_cell_angle_beta 90.000000
_cell_angle_gamma 90.000000
_cell_volume 4012.687183
_symmetry_space_group_name_H-M "P N M A"
_symmetry_group_IT_number 62
_symmetry_cell_setting 'orthorhombic'
loop_
_space_group_symop_operation_xyz
x,y,z
1/2-x,-y,1/2+z
1/2+x,1/2-y,1/2-z
-x,1/2+y,-z
-x,-y,-z
1/2+x,y,1/2-z
1/2-x,1/2+y,1/2+z
x,1/2-y,z
loop_
_atom_site_type_symbol
_atom_site_label
_atom_site_fract_x
_atom_site_fract_y
_atom_site_fract_z
Si Si1 0.768609 0.562347 0.662882
Si Si2 0.934920 0.064332 0.874639
Si Si3 0.279139 0.063991 0.127373
Si Si4 0.173756 0.564658 0.210686
Si Si5 0.942604 0.436552 0.148305
Si Si6 0.655775 0.560948 0.743285
Si Si7 0.741759 0.563996 0.511167
Si Si8 0.115873 0.065353 0.986801
O O1 0.772973 0.750000 0.668485
O O2 0.814602 0.486446 0.711927
O O3 0.707835 0.516471 0.694228
O O4 0.768914 0.519539 0.583615
O O5 0.934173 0.250000 0.885541
O O6 0.887219 0.025902 0.818941
O O7 0.917317 0.983498 0.945275
O O8 0.996258 0.011366 0.852063
O O9 0.281941 0.250000 0.119749
O O10 0.327329 0.011603 0.180516
O O11 0.220796 0.020462 0.164983
O O12 0.277933 0.985442 0.053893
O O13 0.182170 0.750000 0.203865
O O14 0.947881 0.250000 0.151563
O O15 0.902212 0.491258 0.209906
O O16 0.911149 0.481368 0.078352
O O17 0.654959 0.750000 0.743548
O O18 0.733448 0.750000 0.511139
O O19 0.680519 0.486187 0.505571
O O20 0.112515 0.250000 0.977303
#
# Coordination Sequence:
#
# PCOD9462647 Si02
#       8
#     8   8   8   8   8   8   8   8
#     4   9  18  33  52  71  99 130 162 203 251 302
#     4  11  23  37  50  70 101 135 170 211 250 290
#     4  10  19  32  51  74 100 130 166 204 247 301
#     4  10  20  33  50  71  99 131 166 208 250 292
#     4  11  21  36  54  71  97 135 174 209 247 295
#     4   8  16  32  50  70  96 129 162 202 249 290
#     4  11  20  33  51  75 104 136 165 204 254 298
#     4  12  23  34  49  72 100 136 175 209 242 293
#
# _framework density 15.949412000000001
#
# number of rings (size 3 to 8) (size 9 to 14) (size 15 to 20)
#    0.000    1.750    2.500    4.125    0.000    2.500 
#    0.000    1.875    0.000    0.000    0.000    0.875 
#    0.000    0.000    0.000    0.000    0.000    0.000 
#
# Total GULP energy -357228.330685 kJ/mol
# GULP energy per Si atom -5581.692667 kJ/mol
# Density = 1.591311 g / cm^3
# Si number density = 15.949412 Si / 1000 Ang^3
#
#
#
# Elastic Constant Matrix: (Units=GPa)
#
#
# Indices 1 2 3 4 5 6 
#
# 1 33.6364 -7.2364 6.4513 0.0000 0.0000 0.0000
# 2 -7.2364 21.3645 -3.4183 0.0000 0.0000 0.0000
# 3 6.4513 -3.4183 72.2433 0.0000 0.0000 0.0000
# 4 0.0000 0.0000 0.0000 26.3386 0.0000 0.0000
# 5 0.0000 0.0000 0.0000 0.0000 16.3002 0.0000
# 6 0.0000 0.0000 0.0000 0.0000 0.0000 22.5370
#
#
#
# Elastic Compliance Matrix: (Units=1/GPa)
#
#
# Indices 1 2 3 4 5 6 
#
# 1 0.032473 0.010615 -0.002398 0.000000 0.000000 0.000000
# 2 0.010615 0.050634 0.001448 0.000000 0.000000 0.000000
# 3 -0.002398 0.001448 0.014125 0.000000 0.000000 0.000000
# 4 0.000000 0.000000 0.000000 0.037967 0.000000 0.000000
# 5 0.000000 0.000000 0.000000 0.000000 0.061349 0.000000
# 6 0.000000 0.000000 0.000000 0.000000 0.000000 0.044371
#
#
# Mechanical properties :
#
#
# Convention : Reuss Voigt Hill
#
# Bulk Modulus (GPa) = 8.57905 13.20418 10.89162
# Shear Modulus (GPa) = 19.19811 21.79833 20.49822
#
# Velocity S-wave (km/s) = 3.47318 3.70092 3.58886
# Velocity P-wave (km/s) = 4.63407 5.15356 4.90070
#
# Compressibility (1/GPa) = 0.11656299
#
# Stress axis : x y z
#
# Youngs Moduli (GPa) = 30.79452 19.74970 70.79788
#
# Poissons Ratio (x) = -0.20965 0.16974
# Poissons Ratio (y) = -0.32690 -0.10250
# Poissons Ratio (z) = 0.07383 -0.02859
#
# Static dielectric constant tensor:
#      x y z
#    x 1.512410 0.000000 0.000000 
#    y 0.000000 1.538490 0.000000 
#    z 0.000000 0.000000 1.542130 
# 
# From -- ./inp_files/24937.got.cif
#   From: 2010.05.17/outbox.cif.g08.bks.cpg/sg62_13_cif.got.tgz:24937.got - 2010.06.03 15:25:27.
