data_PCOD9462039
_publ_section_title
;
Structure prediction by ZEFSAII (Michael W. Deem and Ramdas Pophale) SiO2 
 PCOD9462039
Probable space group: P N M A
;
_chemical_formula_sum "Si O2"
_cell_formula_units_Z 64
_cell_length_a 22.016462
_cell_length_b 16.650287
_cell_length_c 9.583104
_cell_angle_alpha 90.000000
_cell_angle_beta 90.000000
_cell_angle_gamma 90.000000
_cell_volume 3512.978203
_symmetry_space_group_name_H-M "P N M A"
_symmetry_group_IT_number 62
_symmetry_cell_setting 'orthorhombic'
loop_
_space_group_symop_operation_xyz
x,y,z
1/2-x,-y,1/2+z
1/2+x,1/2-y,1/2-z
-x,1/2+y,-z
-x,-y,-z
1/2+x,y,1/2-z
1/2-x,1/2+y,1/2+z
x,1/2-y,z
loop_
_atom_site_type_symbol
_atom_site_label
_atom_site_fract_x
_atom_site_fract_y
_atom_site_fract_z
Si Si1 0.850679 0.161852 0.006371
Si Si2 0.367399 0.068949 0.233828
Si Si3 0.166666 0.425949 0.946833
Si Si4 0.888783 0.475257 0.815938
Si Si5 0.898690 0.660937 0.273737
Si Si6 0.484835 0.509295 0.162782
Si Si7 0.696204 0.527651 0.058320
Si Si8 0.710348 0.158323 0.997987
O O1 0.873701 0.250000 0.977578
O O2 0.890579 0.096592 0.927328
O O3 0.849616 0.144973 0.172700
O O4 0.781013 0.155204 0.953284
O O5 0.348696 0.996604 0.336480
O O6 0.438966 0.061033 0.208180
O O7 0.335760 0.052128 0.086552
O O8 0.130512 0.352673 0.879014
O O9 0.239273 0.427447 0.944895
O O10 0.141106 0.451925 0.096806
O O11 0.844860 0.449991 0.689704
O O12 0.954137 0.493145 0.752310
O O13 0.924988 0.750000 0.287179
O O14 0.947378 0.592018 0.310708
O O15 0.840816 0.655248 0.378200
O O16 0.500000 0.500000 0.000000
O O17 0.703144 0.429771 0.069881
O O18 0.703729 0.250000 0.062257
#
# Coordination Sequence:
#
# PCOD9462039 Si02
#       8
#     8   8   8   8   8   8   8   8
#     4  10  22  38  55  86 119 149 190 244 306 355
#     4  10  20  35  59  80 118 154 190 239 293 347
#     4  10  20  33  57  89 113 148 196 247 291 351
#     4  11  22  34  61  85 113 152 200 245 289 349
#     4  10  21  38  58  84 120 162 195 243 302 353
#     4  11  21  39  58  85 114 152 205 248 282 355
#     4  12  18  36  60  89 116 153 197 243 290 360
#     4  10  18  32  57  85 119 152 186 235 297 354
#
# _framework density 18.218160999999998
#
# number of rings (size 3 to 8) (size 9 to 14) (size 15 to 20)
#    0.000    1.500    6.250    1.500    0.000    5.000 
#    0.000    2.500    0.000    1.500    0.000    0.000 
#    0.000    0.000    0.000    0.000    0.000    0.000 
#
# Total GULP energy -356384.259258 kJ/mol
# GULP energy per Si atom -5568.504051 kJ/mol
# Density = 1.817670 g / cm^3
# Si number density = 18.218161 Si / 1000 Ang^3
#
#
#
# Elastic Constant Matrix: (Units=GPa)
#
#
# Indices 1 2 3 4 5 6 
#
# 1 120.6106 4.1459 43.2984 0.0000 0.0000 0.0000
# 2 4.1459 39.8257 0.6181 0.0000 0.0000 0.0000
# 3 43.2984 0.6181 90.9792 0.0000 0.0000 0.0000
# 4 0.0000 0.0000 0.0000 -5.3865 0.0000 0.0000
# 5 0.0000 0.0000 0.0000 0.0000 11.0218 0.0000
# 6 0.0000 0.0000 0.0000 0.0000 0.0000 16.9910
#
#
#
# Elastic Compliance Matrix: (Units=1/GPa)
#
#
# Indices 1 2 3 4 5 6 
#
# 1 0.010037 -0.000971 -0.004770 0.000000 0.000000 0.000000
# 2 -0.000971 0.025206 0.000291 0.000000 0.000000 0.000000
# 3 -0.004770 0.000291 0.013260 0.000000 0.000000 0.000000
# 4 0.000000 0.000000 0.000000 -0.185650 0.000000 0.000000
# 5 0.000000 0.000000 0.000000 0.000000 0.090729 0.000000
# 6 0.000000 0.000000 0.000000 0.000000 0.000000 0.058855
#
#
# Mechanical properties :
#
#
# Convention : Reuss Voigt Hill
#
# Bulk Modulus (GPa) = 26.59414 38.61558 32.60486
# Shear Modulus (GPa) = 139.38836 18.08213 78.73524
#
# Velocity S-wave (km/s) = 8.75653 3.15387 6.58117
# Velocity P-wave (km/s) = 10.81041 5.87407 8.69970
#
# Compressibility (1/GPa) = 0.03760227
#
# Stress axis : x y z
#
# Youngs Moduli (GPa) = 99.63166 39.67318 75.41626
#
# Poissons Ratio (x) = 0.03852 0.35975
# Poissons Ratio (y) = 0.09673 -0.02193
# Poissons Ratio (z) = 0.47526 -0.01154
#
# Static dielectric constant tensor:
#      x y z
#    x 1.626620 0.000000 0.000000 
#    y 0.000000 1.692480 0.000000 
#    z 0.000000 0.000000 1.641720 
# 
# From -- ./inp_files/8893.got.cif
#   From: 2010.05.17/outbox.cif.g08.bks.cpg/sg62_5_cif.got.tgz:8893.got - 2010.06.03 15:25:27.
