data_PCOD9462004
_publ_section_title
;
Structure prediction by ZEFSAII (Michael W. Deem and Ramdas Pophale) SiO2 
 PCOD9462004
Probable space group: P N M A
;
_chemical_formula_sum "Si O2"
_cell_formula_units_Z 64
_cell_length_a 14.916368
_cell_length_b 18.961743
_cell_length_c 12.356221
_cell_angle_alpha 90.000000
_cell_angle_beta 90.000000
_cell_angle_gamma 90.000000
_cell_volume 3494.837706
_symmetry_space_group_name_H-M "P N M A"
_symmetry_group_IT_number 62
_symmetry_cell_setting 'orthorhombic'
loop_
_space_group_symop_operation_xyz
x,y,z
1/2-x,-y,1/2+z
1/2+x,1/2-y,1/2-z
-x,1/2+y,-z
-x,-y,-z
1/2+x,y,1/2-z
1/2-x,1/2+y,1/2+z
x,1/2-y,z
loop_
_atom_site_type_symbol
_atom_site_label
_atom_site_fract_x
_atom_site_fract_y
_atom_site_fract_z
Si Si1 0.508582 0.667106 0.122697
Si Si2 0.693123 0.507769 0.818167
Si Si3 0.797451 0.100408 0.955179
Si Si4 0.876629 0.541489 0.718926
Si Si5 0.969619 0.415688 0.840081
Si Si6 0.367431 0.667266 0.930751
Si Si7 0.642432 0.463267 0.586019
Si Si8 0.836050 0.424815 0.537149
O O1 0.511125 0.750000 0.142963
O O2 0.495753 0.625526 0.234543
O O3 0.431694 0.653199 0.033849
O O4 0.601877 0.638991 0.072680
O O5 0.730325 0.435684 0.869754
O O6 0.781595 0.549199 0.779075
O O7 0.641124 0.487503 0.711051
O O8 0.647077 0.550842 0.914157
O O9 0.883500 0.126193 0.887917
O O10 0.734410 0.147066 0.032117
O O11 0.839156 0.034445 0.020484
O O12 0.936574 0.493357 0.798479
O O13 0.899755 0.616506 0.666766
O O14 0.861372 0.490390 0.615223
O O15 0.047734 0.425626 0.927997
O O16 0.372460 0.750000 0.904575
O O17 0.729723 0.416069 0.558842
#
# Coordination Sequence:
#
# PCOD9462004 Si02
#       8
#     8   8   8   8   8   8   8   8
#     4  10  23  37  52  81 112 146 187 223 278 338
#     4   9  15  29  54  76 106 138 175 221 271 330
#     4  10  19  35  51  81 115 138 180 231 277 322
#     4   9  18  33  50  83 104 141 185 227 274 322
#     4  10  21  32  59  80 110 146 183 231 276 325
#     4  11  21  36  54  75 114 148 179 229 280 330
#     4  10  18  32  53  87 107 136 182 227 274 329
#     4   9  18  33  56  76 114 138 175 236 270 321
#
# _framework density 18.312723999999999
#
# number of rings (size 3 to 8) (size 9 to 14) (size 15 to 20)
#    0.000    2.250    3.750    1.875    1.750    1.500 
#    0.000    2.500    0.000    0.750    0.000    4.375 
#    0.000    0.000    0.000    0.000    0.000    0.000 
#
# Total GULP energy -356556.084864 kJ/mol
# GULP energy per Si atom -5571.188826 kJ/mol
# Density = 1.827104 g / cm^3
# Si number density = 18.312724 Si / 1000 Ang^3
#
#
#
# Elastic Constant Matrix: (Units=GPa)
#
#
# Indices 1 2 3 4 5 6 
#
# 1 71.3754 33.3257 1.6197 0.0000 0.0000 0.0000
# 2 33.3257 54.5803 8.5289 0.0000 0.0000 0.0000
# 3 1.6197 8.5289 55.0451 0.0000 0.0000 0.0000
# 4 0.0000 0.0000 0.0000 15.3505 0.0000 0.0000
# 5 0.0000 0.0000 0.0000 0.0000 20.6878 0.0000
# 6 0.0000 0.0000 0.0000 0.0000 0.0000 17.7461
#
#
#
# Elastic Compliance Matrix: (Units=1/GPa)
#
#
# Indices 1 2 3 4 5 6 
#
# 1 0.019690 -0.012228 0.001315 0.000000 0.000000 0.000000
# 2 -0.012228 0.026370 -0.003726 0.000000 0.000000 0.000000
# 3 0.001315 -0.003726 0.018706 0.000000 0.000000 0.000000
# 4 0.000000 0.000000 0.000000 0.065144 0.000000 0.000000
# 5 0.000000 0.000000 0.000000 0.000000 0.048338 0.000000
# 6 0.000000 0.000000 0.000000 0.000000 0.000000 0.056351
#
#
# Mechanical properties :
#
#
# Convention : Reuss Voigt Hill
#
# Bulk Modulus (GPa) = 28.17841 29.77214 28.97528
# Shear Modulus (GPa) = 18.13539 19.92533 19.03036
#
# Velocity S-wave (km/s) = 3.15034 3.30215 3.22714
# Velocity P-wave (km/s) = 5.35291 5.55265 5.45369
#
# Compressibility (1/GPa) = 0.03548816
#
# Stress axis : x y z
#
# Youngs Moduli (GPa) = 50.78777 37.92203 53.46007
#
# Poissons Ratio (x) = 0.46370 -0.07031
# Poissons Ratio (y) = 0.62102 0.19919
# Poissons Ratio (z) = -0.06680 0.14130
#
# Static dielectric constant tensor:
#      x y z
#    x 1.695690 0.000000 0.000000 
#    y 0.000000 1.600860 0.000000 
#    z 0.000000 0.000000 1.664230 
# 
# From -- ./inp_files/13573.got.cif
#   From: 2010.05.17/outbox.cif.g08.bks.cpg/sg62_7_cif.got.tgz:13573.got - 2010.06.03 15:25:27.
