data_PCOD9462696
_publ_section_title
;
Structure prediction by ZEFSAII (Michael W. Deem and Ramdas Pophale) SiO2 
 PCOD9462696
Probable space group: P N M A
;
_chemical_formula_sum "Si O2"
_cell_formula_units_Z 56
_cell_length_a 20.192854
_cell_length_b 8.386909
_cell_length_c 17.988619
_cell_angle_alpha 90.000000
_cell_angle_beta 90.000000
_cell_angle_gamma 90.000000
_cell_volume 3046.473885
_symmetry_space_group_name_H-M "P N M A"
_symmetry_group_IT_number 62
_symmetry_cell_setting 'orthorhombic'
loop_
_space_group_symop_operation_xyz
x,y,z
1/2-x,-y,1/2+z
1/2+x,1/2-y,1/2-z
-x,1/2+y,-z
-x,-y,-z
1/2+x,y,1/2-z
1/2-x,1/2+y,1/2+z
x,1/2-y,z
loop_
_atom_site_type_symbol
_atom_site_label
_atom_site_fract_x
_atom_site_fract_y
_atom_site_fract_z
Si Si1 0.188955 0.057306 0.072490
Si Si2 0.569641 0.440314 0.532868
Si Si3 0.113708 0.558840 0.210894
Si Si4 0.534291 0.559170 0.688883
Si Si5 0.905086 0.442419 0.621913
Si Si6 0.835469 0.445093 0.471753
Si Si7 0.447677 0.442586 0.143553
O O1 0.188872 0.250000 0.071015
O O2 0.261436 0.002130 0.047534
O O3 0.168901 0.003328 0.154832
O O4 0.131153 0.000630 0.016546
O O5 0.500000 0.500000 0.500000
O O6 0.569154 0.250000 0.528970
O O7 0.573121 0.491994 0.618541
O O8 0.112358 0.750000 0.208893
O O9 0.120648 0.506094 0.296762
O O10 0.042179 0.495652 0.184035
O O11 0.535883 0.750000 0.685773
O O12 0.559230 0.506199 0.770311
O O13 0.905331 0.250000 0.621387
O O14 0.861478 0.497419 0.552473
O O15 0.980939 0.498639 0.615510
O O16 0.835184 0.250000 0.471876
O O17 0.888440 0.496214 0.409519
O O18 0.448795 0.250000 0.142958
#
# Coordination Sequence:
#
# PCOD9462696 Si02
#       7
#     8   8   8   8   8   8   8
#     4  10  21  36  54  73 101 143 180 210 258 319
#     4  11  21  33  53  78 102 136 178 221 261 308
#     4  10  19  32  52  78 105 133 169 216 264 307
#     4  10  19  32  52  79 106 133 170 214 262 312
#     4   9  18  33  56  81 105 135 173 217 263 311
#     4   9  18  36  56  76 105 141 178 213 260 320
#     4   9  18  33  56  81 105 136 174 217 261 310
#
# _framework density 18.381907000000002
#
# number of rings (size 3 to 8) (size 9 to 14) (size 15 to 20)
#    0.000    2.286    1.429    1.714    0.000    1.714 
#    2.571    1.429    0.000    0.000    0.000    0.000 
#    0.000    0.000    0.000    0.000    0.000    0.000 
#
# Total GULP energy -312503.851761 kJ/mol
# GULP energy per Si atom -5580.425924 kJ/mol
# Density = 1.834007 g / cm^3
# Si number density = 18.381907 Si / 1000 Ang^3
#
#
#
# Elastic Constant Matrix: (Units=GPa)
#
#
# Indices 1 2 3 4 5 6 
#
# 1 150.3801 17.3122 112.6265 0.0000 0.0000 0.0000
# 2 17.3122 13.0485 17.4568 0.0000 0.0000 0.0000
# 3 112.6265 17.4568 154.7132 0.0000 0.0000 0.0000
# 4 0.0000 0.0000 0.0000 20.3146 0.0000 0.0000
# 5 0.0000 0.0000 0.0000 0.0000 22.0295 0.0000
# 6 0.0000 0.0000 0.0000 0.0000 0.0000 18.8773
#
#
#
# Elastic Compliance Matrix: (Units=1/GPa)
#
#
# Indices 1 2 3 4 5 6 
#
# 1 0.015043 -0.006251 -0.010245 0.000000 0.000000 0.000000
# 2 -0.006251 0.092860 -0.005927 0.000000 0.000000 0.000000
# 3 -0.010245 -0.005927 0.014591 0.000000 0.000000 0.000000
# 4 0.000000 0.000000 0.000000 0.049226 0.000000 0.000000
# 5 0.000000 0.000000 0.000000 0.000000 0.045394 0.000000
# 6 0.000000 0.000000 0.000000 0.000000 0.000000 0.052974
#
#
# Mechanical properties :
#
#
# Convention : Reuss Voigt Hill
#
# Bulk Modulus (GPa) = 12.87888 68.10364 40.49126
# Shear Modulus (GPa) = 14.67069 23.62736 19.14903
#
# Velocity S-wave (km/s) = 2.82814 3.58908 3.23109
# Velocity P-wave (km/s) = 4.20547 7.36920 5.99963
#
# Compressibility (1/GPa) = 0.07764651
#
# Stress axis : x y z
#
# Youngs Moduli (GPa) = 66.47802 10.76885 68.53774
#
# Poissons Ratio (x) = 0.06732 0.70218
# Poissons Ratio (y) = 0.41558 0.40622
# Poissons Ratio (z) = 0.68108 0.06383
#
# Static dielectric constant tensor:
#      x y z
#    x 1.588990 0.000000 0.000000 
#    y 0.000000 1.634160 0.000000 
#    z 0.000000 0.000000 1.653180 
# 
# From -- ./inp_files/24573.got.cif
#   From: 2010.05.17/outbox.cif.g08.bks.cpg/sg62_13_cif.got.tgz:24573.got - 2010.06.03 15:25:27.
