data_PCOD9462542
_publ_section_title
;
Structure prediction by ZEFSAII (Michael W. Deem and Ramdas Pophale) SiO2 
 PCOD9462542
Probable space group: P N M A
;
_chemical_formula_sum "Si O2"
_cell_formula_units_Z 48
_cell_length_a 19.379008
_cell_length_b 13.901892
_cell_length_c 9.722438
_cell_angle_alpha 90.000000
_cell_angle_beta 90.000000
_cell_angle_gamma 90.000000
_cell_volume 2619.272207
_symmetry_space_group_name_H-M "P N M A"
_symmetry_group_IT_number 62
_symmetry_cell_setting 'orthorhombic'
loop_
_space_group_symop_operation_xyz
x,y,z
1/2-x,-y,1/2+z
1/2+x,1/2-y,1/2-z
-x,1/2+y,-z
-x,-y,-z
1/2+x,y,1/2-z
1/2-x,1/2+y,1/2+z
x,1/2-y,z
loop_
_atom_site_type_symbol
_atom_site_label
_atom_site_fract_x
_atom_site_fract_y
_atom_site_fract_z
Si Si1 0.421146 0.137581 0.249819
Si Si2 0.732456 0.636676 0.281293
Si Si3 0.880123 0.862410 0.165571
Si Si4 0.628693 0.537322 0.476411
Si Si5 0.983062 0.462401 0.737282
Si Si6 0.123936 0.863171 0.452886
O O1 0.437944 0.250000 0.258716
O O2 0.385172 0.101539 0.388860
O O3 0.488116 0.070513 0.228945
O O4 0.373072 0.121988 0.115923
O O5 0.721592 0.750000 0.314047
O O6 0.813091 0.620086 0.259766
O O7 0.696181 0.572103 0.396058
O O8 0.692329 0.618206 0.136896
O O9 0.883221 0.750000 0.132649
O O10 0.949443 0.897023 0.240628
O O11 0.870634 0.928752 0.031680
O O12 0.565260 0.549059 0.371070
O O13 0.936936 0.427619 0.610599
O O14 0.106655 0.750000 0.430882
#
# Coordination Sequence:
#
# PCOD9462542 Si02
#       6
#     8   8   8   8   8   8
#     4  10  19  31  51  78 103 130 172 222 262 303
#     4   9  19  36  55  75 102 138 174 208 256 316
#     4  10  20  33  53  80 107 137 177 222 263 309
#     4  10  21  35  54  78 104 138 175 215 264 316
#     4  10  20  34  52  76 106 140 174 211 264 322
#     4   9  18  33  53  75 102 137 173 210 258 318
#
# _framework density 18.325702
#
# number of rings (size 3 to 8) (size 9 to 14) (size 15 to 20)
#    0.000    2.333    0.000    3.500    0.000    6.667 
#    0.000    0.000    0.000    3.000    0.000    7.000 
#    0.000    0.000    0.000    0.000    0.000    0.000 
#
# Total GULP energy -267829.171613 kJ/mol
# GULP energy per Si atom -5579.774409 kJ/mol
# Density = 1.828399 g / cm^3
# Si number density = 18.325702 Si / 1000 Ang^3
#
#
#
# Elastic Constant Matrix: (Units=GPa)
#
#
# Indices 1 2 3 4 5 6 
#
# 1 83.8873 41.7671 11.2439 0.0000 0.0000 0.0000
# 2 41.7671 97.3404 35.9619 0.0000 0.0000 0.0000
# 3 11.2439 35.9619 80.7525 0.0000 0.0000 0.0000
# 4 0.0000 0.0000 0.0000 23.4770 0.0000 0.0000
# 5 0.0000 0.0000 0.0000 0.0000 8.0930 0.0000
# 6 0.0000 0.0000 0.0000 0.0000 0.0000 22.3525
#
#
#
# Elastic Compliance Matrix: (Units=1/GPa)
#
#
# Indices 1 2 3 4 5 6 
#
# 1 0.015219 -0.006879 0.000944 0.000000 0.000000 0.000000
# 2 -0.006879 0.015406 -0.005903 0.000000 0.000000 0.000000
# 3 0.000944 -0.005903 0.014881 0.000000 0.000000 0.000000
# 4 0.000000 0.000000 0.000000 0.042595 0.000000 0.000000
# 5 0.000000 0.000000 0.000000 0.000000 0.123564 0.000000
# 6 0.000000 0.000000 0.000000 0.000000 0.000000 0.044738
#
#
# Mechanical properties :
#
#
# Convention : Reuss Voigt Hill
#
# Bulk Modulus (GPa) = 45.80744 48.88064 47.34404
# Shear Modulus (GPa) = 17.40009 22.31832 19.85920
#
# Velocity S-wave (km/s) = 3.08472 3.49358 3.29550
# Velocity P-wave (km/s) = 6.14312 6.55780 6.35384
#
# Compressibility (1/GPa) = 0.02183052
#
# Stress axis : x y z
#
# Youngs Moduli (GPa) = 65.70592 64.91069 67.20084
#
# Poissons Ratio (x) = 0.44654 -0.06347
# Poissons Ratio (y) = 0.45201 0.39668
# Poissons Ratio (z) = -0.06206 0.38316
#
# Static dielectric constant tensor:
#      x y z
#    x 1.618400 0.000000 0.000000 
#    y 0.000000 1.633320 0.000000 
#    z 0.000000 0.000000 1.629290 
# 
# From -- ./inp_files/7631.got.cif
#   From: 2010.05.17/outbox.cif.g08.bks.cpg/sg62_4_cif.got.tgz:7631.got - 2010.06.03 15:25:27.
