data_PCOD9462901
_publ_section_title
;
Structure prediction by ZEFSAII (Michael W. Deem and Ramdas Pophale) SiO2 
 PCOD9462901
Probable space group: P N M A
;
_chemical_formula_sum "Si O2"
_cell_formula_units_Z 64
_cell_length_a 23.959633
_cell_length_b 8.711004
_cell_length_c 19.473247
_cell_angle_alpha 90.000000
_cell_angle_beta 90.000000
_cell_angle_gamma 90.000000
_cell_volume 4064.309264
_symmetry_space_group_name_H-M "P N M A"
_symmetry_group_IT_number 62
_symmetry_cell_setting 'orthorhombic'
loop_
_space_group_symop_operation_xyz
x,y,z
1/2-x,-y,1/2+z
1/2+x,1/2-y,1/2-z
-x,1/2+y,-z
-x,-y,-z
1/2+x,y,1/2-z
1/2-x,1/2+y,1/2+z
x,1/2-y,z
loop_
_atom_site_type_symbol
_atom_site_label
_atom_site_fract_x
_atom_site_fract_y
_atom_site_fract_z
Si Si1 0.563276 0.063368 0.639240
Si Si2 0.165394 0.065606 0.769104
Si Si3 0.064592 0.934645 0.143741
Si Si4 0.881753 0.565147 0.994947
Si Si5 0.270369 0.067181 0.144640
Si Si6 0.339325 0.566305 0.734248
Si Si7 0.743199 0.567733 0.498510
Si Si8 0.224874 0.933020 0.359633
O O1 0.564134 0.250000 0.639709
O O2 0.607531 0.013685 0.696888
O O3 0.499737 0.014974 0.650624
O O4 0.586012 0.017537 0.564272
O O5 0.164135 0.250000 0.759261
O O6 0.215229 0.033709 0.823428
O O7 0.182773 0.986505 0.698314
O O8 0.066742 0.750000 0.143821
O O9 0.104175 0.998866 0.203380
O O10 0.088904 0.995749 0.071821
O O11 0.882086 0.750000 0.990235
O O12 0.818065 0.509406 0.998869
O O13 0.271953 0.250000 0.135510
O O14 0.211058 0.027538 0.181079
O O15 0.272584 0.985194 0.071596
O O16 0.342227 0.750000 0.738690
O O17 0.321044 0.496695 0.807009
O O18 0.736978 0.750000 0.499625
O O19 0.774936 0.510595 0.566275
O O20 0.220058 0.750000 0.366329
#
# Coordination Sequence:
#
# PCOD9462901 Si02
#       8
#     8   8   8   8   8   8   8   8
#     4   9  19  34  51  71 100 136 173 210 250 297
#     4   9  17  33  52  71  97 131 167 206 253 299
#     4  11  21  33  50  73 100 136 177 211 248 295
#     4  11  20  34  49  68 101 139 176 213 250 289
#     4  10  20  33  50  72 100 130 165 209 255 298
#     4  10  20  34  50  71 101 133 169 211 252 294
#     4  12  22  32  50  76 103 134 170 205 251 308
#     4  10  19  33  54  74  99 130 165 208 257 304
#
# _framework density 15.746833000000001
#
# number of rings (size 3 to 8) (size 9 to 14) (size 15 to 20)
#    0.000    1.750    2.500    3.375    0.000    1.500 
#    0.000    3.125    0.000    0.000    0.000    0.875 
#    0.000    0.000    0.000    0.000    0.000    0.000 
#
# Total GULP energy -357351.739743 kJ/mol
# GULP energy per Si atom -5583.620933 kJ/mol
# Density = 1.571099 g / cm^3
# Si number density = 15.746833 Si / 1000 Ang^3
#
#
#
# Elastic Constant Matrix: (Units=GPa)
#
#
# Indices 1 2 3 4 5 6 
#
# 1 92.3608 20.9556 57.5414 0.0000 0.0000 0.0000
# 2 20.9556 45.4514 36.1155 0.0000 0.0000 0.0000
# 3 57.5414 36.1155 115.1854 0.0000 0.0000 0.0000
# 4 0.0000 0.0000 0.0000 26.3173 0.0000 0.0000
# 5 0.0000 0.0000 0.0000 0.0000 18.7691 0.0000
# 6 0.0000 0.0000 0.0000 0.0000 0.0000 18.5097
#
#
#
# Elastic Compliance Matrix: (Units=1/GPa)
#
#
# Indices 1 2 3 4 5 6 
#
# 1 0.015781 -0.001347 -0.007461 0.000000 0.000000 0.000000
# 2 -0.001347 0.029417 -0.008550 0.000000 0.000000 0.000000
# 3 -0.007461 -0.008550 0.015090 0.000000 0.000000 0.000000
# 4 0.000000 0.000000 0.000000 0.037998 0.000000 0.000000
# 5 0.000000 0.000000 0.000000 0.000000 0.053279 0.000000
# 6 0.000000 0.000000 0.000000 0.000000 0.000000 0.054026
#
#
# Mechanical properties :
#
#
# Convention : Reuss Voigt Hill
#
# Bulk Modulus (GPa) = 39.10822 53.58030 46.34426
# Shear Modulus (GPa) = 20.09394 21.94490 21.01942
#
# Velocity S-wave (km/s) = 3.57608 3.73715 3.65750
# Velocity P-wave (km/s) = 6.47616 7.26097 6.87977
#
# Compressibility (1/GPa) = 0.02557007
#
# Stress axis : x y z
#
# Youngs Moduli (GPa) = 63.36693 33.99417 66.27014
#
# Poissons Ratio (x) = 0.04580 0.49444
# Poissons Ratio (y) = 0.08538 0.56663
# Poissons Ratio (z) = 0.47278 0.29066
#
# Static dielectric constant tensor:
#      x y z
#    x 1.510050 0.000000 0.000000 
#    y 0.000000 1.526210 0.000000 
#    z 0.000000 0.000000 1.513020 
# 
# From -- ./inp_files/24945.got.cif
#   From: 2010.05.17/outbox.cif.g08.bks.cpg/sg62_13_cif.got.tgz:24945.got - 2010.06.03 15:25:27.
