data_PCOD9462084
_publ_section_title
;
Structure prediction by ZEFSAII (Michael W. Deem and Ramdas Pophale) SiO2 
 PCOD9462084
Probable space group: P N M A
;
_chemical_formula_sum "Si O2"
_cell_formula_units_Z 56
_cell_length_a 15.255225
_cell_length_b 7.488731
_cell_length_c 21.827996
_cell_angle_alpha 90.000000
_cell_angle_beta 90.000000
_cell_angle_gamma 90.000000
_cell_volume 2493.679952
_symmetry_space_group_name_H-M "P N M A"
_symmetry_group_IT_number 62
_symmetry_cell_setting 'orthorhombic'
loop_
_space_group_symop_operation_xyz
x,y,z
1/2-x,-y,1/2+z
1/2+x,1/2-y,1/2-z
-x,1/2+y,-z
-x,-y,-z
1/2+x,y,1/2-z
1/2-x,1/2+y,1/2+z
x,1/2-y,z
loop_
_atom_site_type_symbol
_atom_site_label
_atom_site_fract_x
_atom_site_fract_y
_atom_site_fract_z
Si Si1 0.440285 0.461732 0.820308
Si Si2 0.186946 0.532064 0.214990
Si Si3 0.411856 0.467960 0.590830
Si Si4 0.912643 0.538776 0.537842
Si Si5 0.605446 0.466062 0.617883
Si Si6 0.274894 0.042341 0.491333
Si Si7 0.381244 0.531657 0.240013
O O1 0.443106 0.250000 0.809060
O O2 0.363295 0.529591 0.776072
O O3 0.423297 0.485591 0.891656
O O4 0.534765 0.531184 0.798198
O O5 0.188936 0.750000 0.215294
O O6 0.131542 0.480730 0.155472
O O7 0.287509 0.472687 0.214295
O O8 0.415114 0.250000 0.588981
O O9 0.512746 0.527071 0.589306
O O10 0.348451 0.533743 0.536909
O O11 0.901484 0.750000 0.537997
O O12 0.822648 0.463026 0.509117
O O13 0.000000 0.500000 0.500000
O O14 0.607805 0.250000 0.616859
O O15 0.685430 0.531055 0.576684
O O16 0.610224 0.520290 0.688779
O O17 0.267138 0.250000 0.509599
O O18 0.381269 0.750000 0.238805
#
# Coordination Sequence:
#
# PCOD9462084 Si02
#       7
#     8   8   8   8   8   8   8
#     4  10  19  35  59  86 111 141 184 233 282 331
#     4   9  16  28  51  82 112 142 182 228 269 321
#     4   9  17  31  52  80 112 144 185 231 270 323
#     4  11  25  42  59  81 111 149 193 236 281 337
#     4  10  18  33  56  86 115 141 182 232 275 327
#     4  10  22  37  55  80 111 152 190 226 282 340
#     4   9  17  28  51  83 110 140 180 222 272 330
#
# _framework density 22.456772999999998
#
# number of rings (size 3 to 8) (size 9 to 14) (size 15 to 20)
#    0.000    2.286    1.429    1.714    2.000    2.286 
#    0.000    0.714    0.000    1.714    0.000    0.000 
#    0.000    0.000    0.000    0.000    0.000    0.000 
#
# Total GULP energy -312944.875338 kJ/mol
# GULP energy per Si atom -5588.301345 kJ/mol
# Density = 2.240566 g / cm^3
# Si number density = 22.456773 Si / 1000 Ang^3
#
#
#
# Elastic Constant Matrix: (Units=GPa)
#
#
# Indices 1 2 3 4 5 6 
#
# 1 137.5086 3.2058 1.6754 0.0000 0.0000 0.0000
# 2 3.2058 55.1074 -11.6713 0.0000 0.0000 0.0000
# 3 1.6754 -11.6713 43.2070 0.0000 0.0000 0.0000
# 4 0.0000 0.0000 0.0000 12.2067 0.0000 0.0000
# 5 0.0000 0.0000 0.0000 0.0000 24.9103 0.0000
# 6 0.0000 0.0000 0.0000 0.0000 0.0000 1.1185
#
#
#
# Elastic Compliance Matrix: (Units=1/GPa)
#
#
# Indices 1 2 3 4 5 6 
#
# 1 0.007289 -0.000513 -0.000421 0.000000 0.000000 0.000000
# 2 -0.000513 0.019284 0.005229 0.000000 0.000000 0.000000
# 3 -0.000421 0.005229 0.024573 0.000000 0.000000 0.000000
# 4 0.000000 0.000000 0.000000 0.081922 0.000000 0.000000
# 5 0.000000 0.000000 0.000000 0.000000 0.040144 0.000000
# 6 0.000000 0.000000 0.000000 0.000000 0.000000 0.894069
#
#
# Mechanical properties :
#
#
# Convention : Reuss Voigt Hill
#
# Bulk Modulus (GPa) = 16.74062 24.69364 20.71713
# Shear Modulus (GPa) = 4.63562 23.82130 14.22846
#
# Velocity S-wave (km/s) = 1.43831 3.26047 2.51986
# Velocity P-wave (km/s) = 3.19829 5.01938 4.20852
#
# Compressibility (1/GPa) = 0.05973493
#
# Stress axis : x y z
#
# Youngs Moduli (GPa) = 137.18601 51.85729 40.69475
#
# Poissons Ratio (x) = 0.02662 0.01715
# Poissons Ratio (y) = 0.07041 -0.21279
# Poissons Ratio (z) = 0.05780 -0.27116
#
# Static dielectric constant tensor:
#      x y z
#    x 1.822880 0.000000 0.000000 
#    y 0.000000 1.869630 0.000000 
#    z 0.000000 0.000000 1.766200 
# 
# From -- ./inp_files/27246.got.cif
#   From: 2010.05.17/outbox.cif.g08.bks.cpg/sg62_14_cif.got.tgz:27246.got - 2010.06.03 15:25:27.
