data_PCOD9462226
_publ_section_title
;
Structure prediction by ZEFSAII (Michael W. Deem and Ramdas Pophale) SiO2 
 PCOD9462226
Probable space group: P N M A
;
_chemical_formula_sum "Si O2"
_cell_formula_units_Z 44
_cell_length_a 15.477697
_cell_length_b 15.000566
_cell_length_c 10.177475
_cell_angle_alpha 90.000000
_cell_angle_beta 90.000000
_cell_angle_gamma 90.000000
_cell_volume 2362.947273
_symmetry_space_group_name_H-M "P N M A"
_symmetry_group_IT_number 62
_symmetry_cell_setting 'orthorhombic'
loop_
_space_group_symop_operation_xyz
x,y,z
1/2-x,-y,1/2+z
1/2+x,1/2-y,1/2-z
-x,1/2+y,-z
-x,-y,-z
1/2+x,y,1/2-z
1/2-x,1/2+y,1/2+z
x,1/2-y,z
loop_
_atom_site_type_symbol
_atom_site_label
_atom_site_fract_x
_atom_site_fract_y
_atom_site_fract_z
Si Si1 0.068961 0.421090 0.646709
Si Si2 0.682751 0.750000 0.076959
Si Si3 0.953126 0.750000 0.700394
Si Si4 0.142232 0.750000 0.108043
Si Si5 0.337986 0.750000 0.064256
Si Si6 0.429594 0.110560 0.080521
Si Si7 0.877945 0.750000 0.980835
Si Si8 0.005372 0.903771 0.071177
O O1 0.133987 0.338365 0.643402
O O2 0.109426 0.518725 0.632441
O O3 0.011329 0.420489 0.775653
O O4 0.005434 0.408075 0.523964
O O5 0.657157 0.750000 0.231928
O O6 0.639331 0.667326 0.000370
O O7 0.783882 0.750000 0.045167
O O8 0.893879 0.750000 0.569687
O O9 0.889628 0.750000 0.823341
O O10 0.019736 0.833340 0.692141
O O11 0.236352 0.750000 0.043667
O O12 0.089419 0.838899 0.064928
O O13 0.928589 0.838663 0.024871
O O14 0.000000 0.000000 0.000000
#
# Coordination Sequence:
#
# PCOD9462226 Si02
#       8
#     8   4   4   4   4   8   4   8
#     4  10  18  37  59  90 112 152 205 235 296 357
#     4  11  20  39  62  92 117 154 198 253 300 349
#     4   9  19  40  54  84 121 152 200 243 303 353
#     4  11  22  41  61  87 119 153 205 241 298 362
#     4  10  21  37  63  84 119 159 194 258 294 345
#     4   9  19  34  66  85 113 157 196 249 290 354
#     4  11  24  39  58  89 124 160 199 251 299 357
#     4  11  23  39  61  85 124 162 195 245 300 359
#
# _framework density 18.620812999999998
#
# number of rings (size 3 to 8) (size 9 to 14) (size 15 to 20)
#    0.000    1.818    1.818    3.818    0.000    1.455 
#    9.818    0.000    0.000    0.000    0.000    0.000 
#    0.000    0.000    0.000    0.000    0.000    0.000 
#
# Total GULP energy -245226.134799 kJ/mol
# GULP energy per Si atom -5573.321245 kJ/mol
# Density = 1.857843 g / cm^3
# Si number density = 18.620813 Si / 1000 Ang^3
#
#
#
# Elastic Constant Matrix: (Units=GPa)
#
#
# Indices 1 2 3 4 5 6 
#
# 1 108.1260 59.9279 -7.7517 0.0000 0.0000 0.0000
# 2 59.9279 173.6844 17.6525 0.0000 0.0000 0.0000
# 3 -7.7517 17.6525 16.5985 0.0000 0.0000 0.0000
# 4 0.0000 0.0000 0.0000 14.8781 0.0000 0.0000
# 5 0.0000 0.0000 0.0000 0.0000 22.5226 0.0000
# 6 0.0000 0.0000 0.0000 0.0000 0.0000 1.7928
#
#
#
# Elastic Compliance Matrix: (Units=1/GPa)
#
#
# Indices 1 2 3 4 5 6 
#
# 1 0.013422 -0.005907 0.012550 0.000000 0.000000 0.000000
# 2 -0.005907 0.009055 -0.012388 0.000000 0.000000 0.000000
# 3 0.012550 -0.012388 0.079282 0.000000 0.000000 0.000000
# 4 0.000000 0.000000 0.000000 0.067213 0.000000 0.000000
# 5 0.000000 0.000000 0.000000 0.000000 0.044400 0.000000
# 6 0.000000 0.000000 0.000000 0.000000 0.000000 0.557781
#
#
# Mechanical properties :
#
#
# Convention : Reuss Voigt Hill
#
# Bulk Modulus (GPa) = 11.07804 48.67403 29.87604
# Shear Modulus (GPa) = 6.15209 23.07738 14.61473
#
# Velocity S-wave (km/s) = 1.81963 3.52423 2.80457
# Velocity P-wave (km/s) = 3.22132 6.53886 5.15430
#
# Compressibility (1/GPa) = 0.09026867
#
# Stress axis : x y z
#
# Youngs Moduli (GPa) = 74.50545 110.44085 12.61324
#
# Poissons Ratio (x) = 0.65233 -0.15829
# Poissons Ratio (y) = 0.44007 0.15625
# Poissons Ratio (z) = -0.93502 1.36814
#
# Static dielectric constant tensor:
#      x y z
#    x 1.602110 0.000000 0.000000 
#    y 0.000000 1.698100 0.000000 
#    z 0.000000 0.000000 1.665380 
# 
# From -- ./inp_files/13233.got.cif
#   From: 2010.05.17/outbox.cif.g08.bks.cpg/sg62_7_cif.got.tgz:13233.got - 2010.06.03 15:25:27.
