data_PCOD9462477
_publ_section_title
;
Structure prediction by ZEFSAII (Michael W. Deem and Ramdas Pophale) SiO2 
 PCOD9462477
Probable space group: P N M A
;
_chemical_formula_sum "Si O2"
_cell_formula_units_Z 64
_cell_length_a 19.723595
_cell_length_b 8.763252
_cell_length_c 23.844442
_cell_angle_alpha 90.000000
_cell_angle_beta 90.000000
_cell_angle_gamma 90.000000
_cell_volume 4121.340914
_symmetry_space_group_name_H-M "P N M A"
_symmetry_group_IT_number 62
_symmetry_cell_setting 'orthorhombic'
loop_
_space_group_symop_operation_xyz
x,y,z
1/2-x,-y,1/2+z
1/2+x,1/2-y,1/2-z
-x,1/2+y,-z
-x,-y,-z
1/2+x,y,1/2-z
1/2-x,1/2+y,1/2+z
x,1/2-y,z
loop_
_atom_site_type_symbol
_atom_site_label
_atom_site_fract_x
_atom_site_fract_y
_atom_site_fract_z
Si Si1 0.726895 0.933713 0.664976
Si Si2 0.850313 0.567220 0.271961
Si Si3 0.864738 0.933491 0.937686
Si Si4 0.000177 0.066624 0.752579
Si Si5 0.859000 0.932973 0.726196
Si Si6 0.862508 0.433237 0.060494
Si Si7 0.771283 0.933301 0.835306
Si Si8 0.498477 0.566150 0.384121
O O1 0.722269 0.750000 0.671729
O O2 0.804492 0.977043 0.678568
O O3 0.696946 0.973069 0.604553
O O4 0.680804 0.007865 0.713291
O O5 0.848413 0.750000 0.271837
O O6 0.800847 0.505060 0.320084
O O7 0.928537 0.516778 0.274308
O O8 0.870822 0.750000 0.938104
O O9 0.805258 0.975910 0.894022
O O10 0.934494 0.003975 0.914298
O O11 0.851783 0.995071 0.999686
O O12 0.998006 0.250000 0.751225
O O13 0.000084 0.021424 0.818409
O O14 0.933008 0.003610 0.723611
O O15 0.865377 0.750000 0.726243
O O16 0.823101 0.977886 0.785139
O O17 0.866726 0.250000 0.056134
O O18 0.932331 0.496690 0.086506
O O19 0.764840 0.750000 0.832922
O O20 0.496177 0.750000 0.387711
#
# Coordination Sequence:
#
# PCOD9462477 Si02
#       8
#     8   8   8   8   8   8   8   8
#     4   9  19  34  49  69  96 126 162 201 241 288
#     4  10  19  31  49  72  98 125 158 199 242 286
#     4  11  22  36  51  69  97 131 170 207 242 285
#     4  10  20  31  46  73 102 128 158 196 239 287
#     4   9  17  31  50  70  93 124 160 195 238 289
#     4  11  22  35  51  70  96 132 171 205 243 286
#     4   9  19  34  49  69  95 126 162 200 242 289
#     4  11  21  34  48  68 101 134 170 203 235 284
#
# _framework density 15.528926999999999
#
# number of rings (size 3 to 8) (size 9 to 14) (size 15 to 20)
#    0.000    2.000    2.500    2.625    0.000    5.000 
#    0.000    0.000    0.000    0.000    0.000    0.875 
#    0.000    0.000    0.000    0.000    0.000    0.000 
#
# Total GULP energy -357087.052288 kJ/mol
# GULP energy per Si atom -5579.485192 kJ/mol
# Density = 1.549358 g / cm^3
# Si number density = 15.528927 Si / 1000 Ang^3
#
#
#
# Elastic Constant Matrix: (Units=GPa)
#
#
# Indices 1 2 3 4 5 6 
#
# 1 158.3871 37.7485 76.6249 0.0000 0.0000 0.0000
# 2 37.7485 28.9537 32.4122 0.0000 0.0000 0.0000
# 3 76.6249 32.4122 98.1326 0.0000 0.0000 0.0000
# 4 0.0000 0.0000 0.0000 21.6660 0.0000 0.0000
# 5 0.0000 0.0000 0.0000 0.0000 19.2817 0.0000
# 6 0.0000 0.0000 0.0000 0.0000 0.0000 45.7413
#
#
#
# Elastic Compliance Matrix: (Units=1/GPa)
#
#
# Indices 1 2 3 4 5 6 
#
# 1 0.011102 -0.007568 -0.006169 0.000000 0.000000 0.000000
# 2 -0.007568 0.059959 -0.013894 0.000000 0.000000 0.000000
# 3 -0.006169 -0.013894 0.019596 0.000000 0.000000 0.000000
# 4 0.000000 0.000000 0.000000 0.046155 0.000000 0.000000
# 5 0.000000 0.000000 0.000000 0.000000 0.051863 0.000000
# 6 0.000000 0.000000 0.000000 0.000000 0.000000 0.021862
#
#
# Mechanical properties :
#
#
# Convention : Reuss Voigt Hill
#
# Bulk Modulus (GPa) = 28.25325 64.33830 46.29577
# Shear Modulus (GPa) = 18.01165 26.58365 22.29765
#
# Velocity S-wave (km/s) = 3.40939 4.14197 3.79341
# Velocity P-wave (km/s) = 5.80793 8.02470 7.00456
#
# Compressibility (1/GPa) = 0.03539416
#
# Stress axis : x y z
#
# Youngs Moduli (GPa) = 90.07546 16.67808 51.03007
#
# Poissons Ratio (x) = 0.12622 0.31480
# Poissons Ratio (y) = 0.68172 0.70903
# Poissons Ratio (z) = 0.55567 0.23173
#
# Static dielectric constant tensor:
#      x y z
#    x 1.514390 0.000000 0.000000 
#    y 0.000000 1.535510 0.000000 
#    z 0.000000 0.000000 1.502380 
# 
# From -- ./inp_files/27746.got.cif
#   From: 2010.05.17/outbox.cif.g08.bks.cpg/sg62_14_cif.got.tgz:27746.got - 2010.06.03 15:25:27.
