data_PCOD9462795
_publ_section_title
;
Structure prediction by ZEFSAII (Michael W. Deem and Ramdas Pophale) SiO2 
 PCOD9462795
Probable space group: P N M A
;
_chemical_formula_sum "Si O2"
_cell_formula_units_Z 48
_cell_length_a 16.851147
_cell_length_b 11.308622
_cell_length_c 13.143818
_cell_angle_alpha 90.000000
_cell_angle_beta 90.000000
_cell_angle_gamma 90.000000
_cell_volume 2504.728698
_symmetry_space_group_name_H-M "P N M A"
_symmetry_group_IT_number 62
_symmetry_cell_setting 'orthorhombic'
loop_
_space_group_symop_operation_xyz
x,y,z
1/2-x,-y,1/2+z
1/2+x,1/2-y,1/2-z
-x,1/2+y,-z
-x,-y,-z
1/2+x,y,1/2-z
1/2-x,1/2+y,1/2+z
x,1/2-y,z
loop_
_atom_site_type_symbol
_atom_site_label
_atom_site_fract_x
_atom_site_fract_y
_atom_site_fract_z
Si Si1 0.251672 0.042576 0.925621
Si Si2 0.710592 0.620709 0.858335
Si Si3 0.992767 0.022919 0.829211
Si Si4 0.850909 0.619830 0.262394
Si Si5 0.102985 0.885512 0.985045
Si Si6 0.861306 0.886617 0.710894
O O1 0.182004 0.960503 0.970487
O O2 0.319891 0.960638 0.878397
O O3 0.280989 0.117690 0.020553
O O4 0.209859 0.111931 0.833058
O O5 0.676480 0.750000 0.826472
O O6 0.666237 0.500444 0.825154
O O7 0.796390 0.613411 0.802882
O O8 0.939895 0.951598 0.749433
O O9 0.039935 0.931861 0.902148
O O10 0.059892 0.104505 0.779467
O O11 0.934980 0.094258 0.904466
O O12 0.841180 0.750000 0.311187
O O13 0.120865 0.750000 0.967246
O O14 0.875540 0.750000 0.683698
#
# Coordination Sequence:
#
# PCOD9462795 Si02
#       6
#     8   8   8   8   8   8
#     4  10  20  37  58  87 114 152 194 241 295 342
#     4  10  21  39  60  84 118 156 195 238 294 352
#     4  10  20  35  53  84 117 154 190 238 297 342
#     4  10  22  38  59  87 120 153 193 241 293 348
#     4  10  19  32  55  84 115 150 195 242 290 344
#     4  10  20  35  57  86 120 155 195 240 289 350
#
# _framework density 19.163751999999999
#
# number of rings (size 3 to 8) (size 9 to 14) (size 15 to 20)
#    0.000    2.000    1.667    2.000    0.000    6.000 
#    0.000    3.333    0.000    0.000    0.000    0.000 
#    0.000    0.000    0.000    0.000    0.000    0.000 
#
# Total GULP energy -267813.251697 kJ/mol
# GULP energy per Si atom -5579.442744 kJ/mol
# Density = 1.912013 g / cm^3
# Si number density = 19.163752 Si / 1000 Ang^3
#
#
#
# Elastic Constant Matrix: (Units=GPa)
#
#
# Indices 1 2 3 4 5 6 
#
# 1 46.4075 38.7758 11.2509 0.0000 0.0000 0.0000
# 2 38.7758 146.7291 31.8865 0.0000 0.0000 0.0000
# 3 11.2509 31.8865 61.9072 0.0000 0.0000 0.0000
# 4 0.0000 0.0000 0.0000 8.6795 0.0000 0.0000
# 5 0.0000 0.0000 0.0000 0.0000 25.7209 0.0000
# 6 0.0000 0.0000 0.0000 0.0000 0.0000 -5.9154
#
#
#
# Elastic Compliance Matrix: (Units=1/GPa)
#
#
# Indices 1 2 3 4 5 6 
#
# 1 0.027766 -0.007028 -0.001426 0.000000 0.000000 0.000000
# 2 -0.007028 0.009453 -0.003592 0.000000 0.000000 0.000000
# 3 -0.001426 -0.003592 0.018262 0.000000 0.000000 0.000000
# 4 0.000000 0.000000 0.000000 0.115215 0.000000 0.000000
# 5 0.000000 0.000000 0.000000 0.000000 0.038879 0.000000
# 6 0.000000 0.000000 0.000000 0.000000 0.000000 -0.169049
#
#
# Mechanical properties :
#
#
# Convention : Reuss Voigt Hill
#
# Bulk Modulus (GPa) = 31.85745 46.54114 39.19929
# Shear Modulus (GPa) = 66.59481 17.23902 41.91691
#
# Velocity S-wave (km/s) = 5.90134 3.00253 4.68193
# Velocity P-wave (km/s) = 7.94320 6.02984 7.05171
#
# Compressibility (1/GPa) = 0.03138984
#
# Stress axis : x y z
#
# Youngs Moduli (GPa) = 36.01517 105.78619 54.75716
#
# Poissons Ratio (x) = 0.74344 0.07810
# Poissons Ratio (y) = 0.25310 0.19668
# Poissons Ratio (z) = 0.05137 0.37996
#
# Static dielectric constant tensor:
#      x y z
#    x 1.647930 0.000000 0.000000 
#    y 0.000000 1.693920 0.000000 
#    z 0.000000 0.000000 1.671170 
# 
# From -- ./inp_files/14118.got.cif
#   From: 2010.05.17/outbox.cif.g08.bks.cpg/sg62_8_cif.got.tgz:14118.got - 2010.06.03 15:25:27.
