data_PCOD9462964
_publ_section_title
;
Structure prediction by ZEFSAII (Michael W. Deem and Ramdas Pophale) SiO2 
 PCOD9462964
Probable space group: P N M A
;
_chemical_formula_sum "Si O2"
_cell_formula_units_Z 48
_cell_length_a 12.229222
_cell_length_b 14.582463
_cell_length_c 10.991165
_cell_angle_alpha 90.000000
_cell_angle_beta 90.000000
_cell_angle_gamma 90.000000
_cell_volume 1960.078386
_symmetry_space_group_name_H-M "P N M A"
_symmetry_group_IT_number 62
_symmetry_cell_setting 'orthorhombic'
loop_
_space_group_symop_operation_xyz
x,y,z
1/2-x,-y,1/2+z
1/2+x,1/2-y,1/2-z
-x,1/2+y,-z
-x,-y,-z
1/2+x,y,1/2-z
1/2-x,1/2+y,1/2+z
x,1/2-y,z
loop_
_atom_site_type_symbol
_atom_site_label
_atom_site_fract_x
_atom_site_fract_y
_atom_site_fract_z
Si Si1 0.785518 0.151552 0.143059
Si Si2 0.344939 0.458000 0.139485
Si Si3 0.515286 0.360179 0.491393
Si Si4 0.623285 0.854425 0.106816
Si Si5 0.363450 0.654713 0.069389
Si Si6 0.452240 0.490471 0.703974
O O1 0.808676 0.250000 0.201646
O O2 0.779561 0.080781 0.248762
O O3 0.887483 0.136021 0.052045
O O4 0.674432 0.154963 0.069496
O O5 0.314805 0.561966 0.116839
O O6 0.468921 0.463074 0.193851
O O7 0.332432 0.400277 0.016623
O O8 0.544235 0.250000 0.495827
O O9 0.518670 0.415080 0.619511
O O10 0.574009 0.426866 0.391675
O O11 0.663387 0.750000 0.126100
O O12 0.492573 0.847565 0.083841
O O13 0.628460 0.924918 0.218946
O O14 0.321249 0.750000 0.124348
#
# Coordination Sequence:
#
# PCOD9462964 Si02
#       6
#     8   8   8   8   8   8
#     4   9  18  34  54  75 103 138 174 212 262 317
#     4  10  19  34  53  80 103 139 174 220 262 314
#     4   9  17  30  50  76 105 140 176 214 258 313
#     4  10  19  33  55  81 108 135 175 223 266 313
#     4   9  18  33  51  76 105 138 172 212 263 311
#     4   9  17  30  49  76 106 133 174 217 260 305
#
# _framework density 24.488817000000001
#
# number of rings (size 3 to 8) (size 9 to 14) (size 15 to 20)
#    0.000    2.667    0.000    3.000    0.000    1.333 
#    6.000    0.833    0.000    1.000    0.000    0.000 
#    0.000    0.000    0.000    0.000    0.000    0.000 
#
# Total GULP energy -267913.403559 kJ/mol
# GULP energy per Si atom -5581.529241 kJ/mol
# Density = 2.443308 g / cm^3
# Si number density = 24.488817 Si / 1000 Ang^3
#
#
#
# Elastic Constant Matrix: (Units=GPa)
#
#
# Indices 1 2 3 4 5 6 
#
# 1 40.6902 35.9011 24.6612 0.0000 0.0000 0.0000
# 2 35.9011 178.1789 52.5699 0.0000 0.0000 0.0000
# 3 24.6612 52.5699 87.7599 0.0000 0.0000 0.0000
# 4 0.0000 0.0000 0.0000 1.4059 0.0000 0.0000
# 5 0.0000 0.0000 0.0000 0.0000 32.3947 0.0000
# 6 0.0000 0.0000 0.0000 0.0000 0.0000 4.1059
#
#
#
# Elastic Compliance Matrix: (Units=1/GPa)
#
#
# Indices 1 2 3 4 5 6 
#
# 1 0.032555 -0.004689 -0.006339 0.000000 0.000000 0.000000
# 2 -0.004689 0.007493 -0.003171 0.000000 0.000000 0.000000
# 3 -0.006339 -0.003171 0.015075 0.000000 0.000000 0.000000
# 4 0.000000 0.000000 0.000000 0.711270 0.000000 0.000000
# 5 0.000000 0.000000 0.000000 0.000000 0.030869 0.000000
# 6 0.000000 0.000000 0.000000 0.000000 0.000000 0.243551
#
#
# Mechanical properties :
#
#
# Convention : Reuss Voigt Hill
#
# Bulk Modulus (GPa) = 37.41797 59.21038 48.31417
# Shear Modulus (GPa) = 4.63770 20.48110 12.55940
#
# Velocity S-wave (km/s) = 1.37765 2.89510 2.26710
# Velocity P-wave (km/s) = 4.22414 5.95034 5.15993
#
# Compressibility (1/GPa) = 0.02672513
#
# Stress axis : x y z
#
# Youngs Moduli (GPa) = 30.71689 133.46533 66.33351
#
# Poissons Ratio (x) = 0.62584 0.42051
# Poissons Ratio (y) = 0.14404 0.21031
# Poissons Ratio (z) = 0.19473 0.42315
#
# Static dielectric constant tensor:
#      x y z
#    x 1.976340 0.000000 0.000000 
#    y 0.000000 2.021400 0.000000 
#    z 0.000000 0.000000 1.907350 
# 
# From -- ./inp_files/14191.got.cif
#   From: 2010.05.17/outbox.cif.g08.bks.cpg/sg62_8_cif.got.tgz:14191.got - 2010.06.03 15:25:27.
