data_PCOD9462508
_publ_section_title
;
Structure prediction by ZEFSAII (Michael W. Deem and Ramdas Pophale) SiO2 
 PCOD9462508
Probable space group: P N M A
;
_chemical_formula_sum "Si O2"
_cell_formula_units_Z 56
_cell_length_a 14.290741
_cell_length_b 8.177103
_cell_length_c 21.083720
_cell_angle_alpha 90.000000
_cell_angle_beta 90.000000
_cell_angle_gamma 90.000000
_cell_volume 2463.777340
_symmetry_space_group_name_H-M "P N M A"
_symmetry_group_IT_number 62
_symmetry_cell_setting 'orthorhombic'
loop_
_space_group_symop_operation_xyz
x,y,z
1/2-x,-y,1/2+z
1/2+x,1/2-y,1/2-z
-x,1/2+y,-z
-x,-y,-z
1/2+x,y,1/2-z
1/2-x,1/2+y,1/2+z
x,1/2-y,z
loop_
_atom_site_type_symbol
_atom_site_label
_atom_site_fract_x
_atom_site_fract_y
_atom_site_fract_z
Si Si1 0.977226 0.565082 0.568507
Si Si2 0.654691 0.936250 0.169094
Si Si3 0.846946 0.065114 0.338283
Si Si4 0.495822 0.056681 0.596656
Si Si5 0.794902 0.443761 0.938877
Si Si6 0.700264 0.052702 0.573568
Si Si7 0.003707 0.944620 0.761305
O O1 0.937320 0.750000 0.567193
O O2 0.910296 0.444163 0.606510
O O3 0.000000 0.500000 0.500000
O O4 0.072212 0.573439 0.608604
O O5 0.799951 0.750000 0.079000
O O6 0.749262 0.007480 0.138167
O O7 0.591663 0.026507 0.221101
O O8 0.816963 0.250000 0.322137
O O9 0.905050 0.995016 0.278565
O O10 0.762685 0.979141 0.374714
O O11 0.495528 0.250000 0.582412
O O12 0.399435 0.985099 0.570100
O O13 0.594048 0.987796 0.572053
O O14 0.496048 0.032242 0.672026
O O15 0.798730 0.250000 0.945855
O O16 0.754672 0.510581 0.005429
O O17 0.830736 0.250000 0.690586
O O18 0.014307 0.750000 0.769344
#
# Coordination Sequence:
#
# PCOD9462508 Si02
#       7
#     8   8   8   8   8   8   8
#     4  10  19  31  49  77 112 149 187 230 282 340
#     4  10  20  35  57  84 113 148 187 232 285 341
#     4   9  20  37  55  79 114 150 186 229 281 340
#     4  10  23  42  60  82 115 154 194 238 285 338
#     4  11  23  37  59  89 116 148 193 239 286 337
#     4  10  22  40  61  84 115 154 192 234 288 340
#     4  10  22  40  61  87 116 151 192 234 284 342
#
# _framework density 22.729327000000001
#
# number of rings (size 3 to 8) (size 9 to 14) (size 15 to 20)
#    0.000    2.000    0.000    3.857    0.000   10.857 
#    0.000    4.286    0.000    0.000    0.000    0.000 
#    0.000    0.000    0.000    0.000    0.000    0.000 
#
# Total GULP energy -312603.876093 kJ/mol
# GULP energy per Si atom -5582.212073 kJ/mol
# Density = 2.267759 g / cm^3
# Si number density = 22.729327 Si / 1000 Ang^3
#
#
#
# Elastic Constant Matrix: (Units=GPa)
#
#
# Indices 1 2 3 4 5 6 
#
# 1 80.9404 1.2252 6.8642 0.0000 0.0000 0.0000
# 2 1.2252 28.0860 -18.9607 0.0000 0.0000 0.0000
# 3 6.8642 -18.9607 79.3112 0.0000 0.0000 0.0000
# 4 0.0000 0.0000 0.0000 9.7254 0.0000 0.0000
# 5 0.0000 0.0000 0.0000 0.0000 27.9286 0.0000
# 6 0.0000 0.0000 0.0000 0.0000 0.0000 16.2222
#
#
#
# Elastic Compliance Matrix: (Units=1/GPa)
#
#
# Indices 1 2 3 4 5 6 
#
# 1 0.012500 -0.001521 -0.001446 0.000000 0.000000 0.000000
# 2 -0.001521 0.042642 0.010326 0.000000 0.000000 0.000000
# 3 -0.001446 0.010326 0.015202 0.000000 0.000000 0.000000
# 4 0.000000 0.000000 0.000000 0.102824 0.000000 0.000000
# 5 0.000000 0.000000 0.000000 0.000000 0.035806 0.000000
# 6 0.000000 0.000000 0.000000 0.000000 0.000000 0.061644
#
#
# Mechanical properties :
#
#
# Convention : Reuss Voigt Hill
#
# Bulk Modulus (GPa) = 11.75592 18.51056 15.13324
# Shear Modulus (GPa) = 17.58988 24.05581 20.82285
#
# Velocity S-wave (km/s) = 2.78490 3.25677 3.03003
# Velocity P-wave (km/s) = 3.94008 4.72268 4.34902
#
# Compressibility (1/GPa) = 0.08506353
#
# Stress axis : x y z
#
# Youngs Moduli (GPa) = 79.99750 23.45089 65.77969
#
# Poissons Ratio (x) = 0.03567 0.09509
# Poissons Ratio (y) = 0.12169 -0.67924
# Poissons Ratio (z) = 0.11564 -0.24215
#
# Static dielectric constant tensor:
#      x y z
#    x 1.933510 0.000000 0.000000 
#    y 0.000000 1.818380 0.000000 
#    z 0.000000 0.000000 1.824810 
# 
# From -- ./inp_files/27262.got.cif
#   From: 2010.05.17/outbox.cif.g08.bks.cpg/sg62_14_cif.got.tgz:27262.got - 2010.06.03 15:25:27.
