data_PCOD9462044
_publ_section_title
;
Structure prediction by ZEFSAII (Michael W. Deem and Ramdas Pophale) SiO2 
 PCOD9462044
Probable space group: P N M A
;
_chemical_formula_sum "Si O2"
_cell_formula_units_Z 44
_cell_length_a 13.570580
_cell_length_b 12.339101
_cell_length_c 10.562457
_cell_angle_alpha 90.000000
_cell_angle_beta 90.000000
_cell_angle_gamma 90.000000
_cell_volume 1768.670298
_symmetry_space_group_name_H-M "P N M A"
_symmetry_group_IT_number 62
_symmetry_cell_setting 'orthorhombic'
loop_
_space_group_symop_operation_xyz
x,y,z
1/2-x,-y,1/2+z
1/2+x,1/2-y,1/2-z
-x,1/2+y,-z
-x,-y,-z
1/2+x,y,1/2-z
1/2-x,1/2+y,1/2+z
x,1/2-y,z
loop_
_atom_site_type_symbol
_atom_site_label
_atom_site_fract_x
_atom_site_fract_y
_atom_site_fract_z
Si Si1 0.929337 0.750000 0.885932
Si Si2 0.837615 0.986204 0.548999
Si Si3 0.359170 0.750000 0.897695
Si Si4 0.525982 0.620305 0.209620
Si Si5 0.865176 0.250000 0.193659
Si Si6 0.637997 0.491272 0.432776
Si Si7 0.849194 0.480019 0.217861
O O1 0.913100 0.750000 0.735617
O O2 0.882947 0.637272 0.929209
O O3 0.045641 0.750000 0.904882
O O4 0.919076 0.073819 0.584700
O O5 0.758307 0.999443 0.436219
O O6 0.763862 0.991919 0.672702
O O7 0.880393 0.865370 0.541613
O O8 0.240697 0.750000 0.874899
O O9 0.528604 0.750000 0.216454
O O10 0.584011 0.563509 0.327893
O O11 0.415550 0.572506 0.220980
O O12 0.869516 0.360623 0.272409
O O13 0.606661 0.528625 0.572830
#
# Coordination Sequence:
#
# PCOD9462044 Si02
#       7
#     4   8   4   8   4   8   8
#     4  12  20  34  60  82 117 141 186 237 273 326
#     4   9  22  37  51  84 113 147 180 228 275 335
#     4  10  18  36  56  79 112 151 182 221 279 331
#     4  12  23  35  56  84 114 149 182 227 286 327
#     4  10  18  32  58  81 109 144 184 222 280 323
#     4  10  23  34  56  85 117 139 185 231 283 323
#     4   9  21  34  55  83 113 140 181 229 275 327
#
# _framework density 24.877445999999999
#
# number of rings (size 3 to 8) (size 9 to 14) (size 15 to 20)
#    1.091    0.727    3.636    0.545    5.091    0.727 
#    0.000    0.000    0.000    1.091    0.000    0.000 
#    0.000    0.000    0.000    0.000    0.000    0.000 
#
# Total GULP energy -245726.084803 kJ/mol
# GULP energy per Si atom -5584.683746 kJ/mol
# Density = 2.482082 g / cm^3
# Si number density = 24.877446 Si / 1000 Ang^3
#
#
#
# Elastic Constant Matrix: (Units=GPa)
#
#
# Indices 1 2 3 4 5 6 
#
# 1 129.9512 78.4513 20.2328 0.0000 0.0000 0.0000
# 2 78.4513 243.3592 23.2054 0.0000 0.0000 0.0000
# 3 20.2328 23.2054 64.5204 0.0000 0.0000 0.0000
# 4 0.0000 0.0000 0.0000 19.3586 0.0000 0.0000
# 5 0.0000 0.0000 0.0000 0.0000 42.4819 0.0000
# 6 0.0000 0.0000 0.0000 0.0000 0.0000 38.6511
#
#
#
# Elastic Compliance Matrix: (Units=1/GPa)
#
#
# Indices 1 2 3 4 5 6 
#
# 1 0.009799 -0.002968 -0.002005 0.000000 0.000000 0.000000
# 2 -0.002968 0.005154 -0.000923 0.000000 0.000000 0.000000
# 3 -0.002005 -0.000923 0.016460 0.000000 0.000000 0.000000
# 4 0.000000 0.000000 0.000000 0.051657 0.000000 0.000000
# 5 0.000000 0.000000 0.000000 0.000000 0.023539 0.000000
# 6 0.000000 0.000000 0.000000 0.000000 0.000000 0.025872
#
#
# Mechanical properties :
#
#
# Convention : Reuss Voigt Hill
#
# Bulk Modulus (GPa) = 50.96748 75.73443 63.35095
# Shear Modulus (GPa) = 33.15345 41.16106 37.15726
#
# Velocity S-wave (km/s) = 3.65454 4.07203 3.86892
# Velocity P-wave (km/s) = 6.19188 7.25381 6.74378
#
# Compressibility (1/GPa) = 0.01962036
#
# Stress axis : x y z
#
# Youngs Moduli (GPa) = 102.05112 194.02995 60.75395
#
# Poissons Ratio (x) = 0.57581 0.12184
# Poissons Ratio (y) = 0.30285 0.05608
# Poissons Ratio (z) = 0.20466 0.17909
#
# Static dielectric constant tensor:
#      x y z
#    x 2.050020 0.000000 0.000000 
#    y 0.000000 1.952440 0.000000 
#    z 0.000000 0.000000 2.121730 
# 
# From -- ./inp_files/18856.got.cif
#   From: 2010.05.17/outbox.cif.g08.bks.cpg/sg62_10_cif.got.tgz:18856.got - 2010.06.03 15:25:27.
