data_PCOD9462143
_publ_section_title
;
Structure prediction by ZEFSAII (Michael W. Deem and Ramdas Pophale) SiO2 
 PCOD9462143
Probable space group: P N M A
;
_chemical_formula_sum "Si O2"
_cell_formula_units_Z 64
_cell_length_a 15.594806
_cell_length_b 8.444220
_cell_length_c 25.451067
_cell_angle_alpha 90.000000
_cell_angle_beta 90.000000
_cell_angle_gamma 90.000000
_cell_volume 3351.548515
_symmetry_space_group_name_H-M "P N M A"
_symmetry_group_IT_number 62
_symmetry_cell_setting 'orthorhombic'
loop_
_space_group_symop_operation_xyz
x,y,z
1/2-x,-y,1/2+z
1/2+x,1/2-y,1/2-z
-x,1/2+y,-z
-x,-y,-z
1/2+x,y,1/2-z
1/2-x,1/2+y,1/2+z
x,1/2-y,z
loop_
_atom_site_type_symbol
_atom_site_label
_atom_site_fract_x
_atom_site_fract_y
_atom_site_fract_z
Si Si1 0.676493 0.561779 0.147447
Si Si2 0.320079 0.940756 0.435099
Si Si3 0.696941 0.559160 0.859998
Si Si4 0.496368 0.056683 0.609604
Si Si5 0.280311 0.438363 0.259083
Si Si6 0.824584 0.061152 0.947823
Si Si7 0.996759 0.437385 0.339839
Si Si8 0.467153 0.937681 0.274823
O O1 0.685268 0.750000 0.153365
O O2 0.743609 0.505712 0.103220
O O3 0.703734 0.482028 0.202304
O O4 0.578707 0.519956 0.134928
O O5 0.321051 0.750000 0.433166
O O6 0.412673 0.996891 0.413946
O O7 0.307831 0.992541 0.494782
O O8 0.699880 0.750000 0.864389
O O9 0.732405 0.516801 0.801905
O O10 0.752135 0.485340 0.906094
O O11 0.596837 0.510254 0.860161
O O12 0.497005 0.250000 0.609523
O O13 0.415917 0.002860 0.575274
O O14 0.490348 0.008888 0.670665
O O15 0.297113 0.250000 0.260523
O O16 0.365344 0.528211 0.279198
O O17 0.829080 0.250000 0.951888
O O18 0.003340 0.250000 0.347385
O O19 0.996996 0.475046 0.277595
O O20 0.481046 0.750000 0.268138
#
# Coordination Sequence:
#
# PCOD9462143 Si02
#       8
#     8   8   8   8   8   8   8   8
#     4  11  22  37  61  88 115 156 200 241 296 357
#     4  10  21  41  61  81 117 157 196 239 293 355
#     4   9  21  41  59  80 116 158 193 236 296 351
#     4   9  19  36  56  84 119 154 191 235 284 344
#     4  10  20  35  56  85 120 154 192 241 294 347
#     4  11  23  37  59  88 115 150 200 249 291 343
#     4  10  22  39  58  85 121 155 194 246 300 353
#     4  10  18  34  57  84 119 157 195 232 284 352
#
# _framework density 19.095652000000001
#
# number of rings (size 3 to 8) (size 9 to 14) (size 15 to 20)
#    0.000    2.000    1.250    3.000    1.750    4.000 
#    0.000    3.125    0.000    0.000    0.000    0.000 
#    0.000    0.000    0.000    0.000    0.000    0.000 
#
# Total GULP energy -357452.557227 kJ/mol
# GULP energy per Si atom -5585.196207 kJ/mol
# Density = 1.905219 g / cm^3
# Si number density = 19.095652 Si / 1000 Ang^3
#
#
#
# Elastic Constant Matrix: (Units=GPa)
#
#
# Indices 1 2 3 4 5 6 
#
# 1 114.7251 13.9061 77.9087 0.0000 0.0000 0.0000
# 2 13.9061 18.0519 6.6648 0.0000 0.0000 0.0000
# 3 77.9087 6.6648 87.3522 0.0000 0.0000 0.0000
# 4 0.0000 0.0000 0.0000 24.0041 0.0000 0.0000
# 5 0.0000 0.0000 0.0000 0.0000 21.0513 0.0000
# 6 0.0000 0.0000 0.0000 0.0000 0.0000 25.6228
#
#
#
# Elastic Compliance Matrix: (Units=1/GPa)
#
#
# Indices 1 2 3 4 5 6 
#
# 1 0.024024 -0.010903 -0.020595 0.000000 0.000000 0.000000
# 2 -0.010903 0.061950 0.004997 0.000000 0.000000 0.000000
# 3 -0.020595 0.004997 0.029435 0.000000 0.000000 0.000000
# 4 0.000000 0.000000 0.000000 0.041660 0.000000 0.000000
# 5 0.000000 0.000000 0.000000 0.000000 0.047503 0.000000
# 6 0.000000 0.000000 0.000000 0.000000 0.000000 0.039028
#
#
# Mechanical properties :
#
#
# Convention : Reuss Voigt Hill
#
# Bulk Modulus (GPa) = 16.02355 46.34314 31.18334
# Shear Modulus (GPa) = 15.75296 22.24564 18.99930
#
# Velocity S-wave (km/s) = 2.87531 3.41685 3.15771
# Velocity P-wave (km/s) = 4.40825 6.31570 5.44613
#
# Compressibility (1/GPa) = 0.06240815
#
# Stress axis : x y z
#
# Youngs Moduli (GPa) = 41.62572 16.14216 33.97346
#
# Poissons Ratio (x) = 0.17599 0.69967
# Poissons Ratio (y) = 0.45383 -0.16978
# Poissons Ratio (z) = 0.85726 -0.08067
#
# Static dielectric constant tensor:
#      x y z
#    x 1.673390 0.000000 0.000000 
#    y 0.000000 1.649010 0.000000 
#    z 0.000000 0.000000 1.637850 
# 
# From -- ./inp_files/29753.got.cif
#   From: 2010.05.17/outbox.cif.g08.bks.cpg/sg62_15_cif.got.tgz:29753.got - 2010.06.03 15:25:27.
