data_PCOD9462760
_publ_section_title
;
Structure prediction by ZEFSAII (Michael W. Deem and Ramdas Pophale) SiO2 
 PCOD9462760
Probable space group: P N M A
;
_chemical_formula_sum "Si O2"
_cell_formula_units_Z 64
_cell_length_a 20.545441
_cell_length_b 7.484571
_cell_length_c 19.298973
_cell_angle_alpha 90.000000
_cell_angle_beta 90.000000
_cell_angle_gamma 90.000000
_cell_volume 2967.676644
_symmetry_space_group_name_H-M "P N M A"
_symmetry_group_IT_number 62
_symmetry_cell_setting 'orthorhombic'
loop_
_space_group_symop_operation_xyz
x,y,z
1/2-x,-y,1/2+z
1/2+x,1/2-y,1/2-z
-x,1/2+y,-z
-x,-y,-z
1/2+x,y,1/2-z
1/2-x,1/2+y,1/2+z
x,1/2-y,z
loop_
_atom_site_type_symbol
_atom_site_label
_atom_site_fract_x
_atom_site_fract_y
_atom_site_fract_z
Si Si1 0.056419 0.536263 0.054730
Si Si2 0.909008 0.956390 0.299782
Si Si3 0.344612 0.031793 0.792485
Si Si4 0.026579 0.969206 0.210195
Si Si5 0.702026 0.965372 0.464603
Si Si6 0.323689 0.038942 0.947814
Si Si7 0.062838 0.537576 0.546720
Si Si8 0.263148 0.968636 0.181612
O O1 0.062339 0.750000 0.060792
O O2 0.037975 0.471184 0.131536
O O3 0.127724 0.469913 0.031762
O O4 0.000000 0.500000 0.000000
O O5 0.899668 0.750000 0.279592
O O6 0.836601 0.033424 0.306579
O O7 0.959692 0.033240 0.244767
O O8 0.940587 0.960763 0.376221
O O9 0.344102 0.250000 0.793386
O O10 0.412322 0.977322 0.757523
O O11 0.336420 0.967591 0.871019
O O12 0.285372 0.977553 0.742821
O O13 0.025697 0.750000 0.210502
O O14 0.700812 0.750000 0.462917
O O15 0.734408 0.026726 0.392343
O O16 0.750208 0.016306 0.526365
O O17 0.337437 0.250000 0.944311
O O18 0.373705 0.967092 0.005611
O O19 0.068855 0.750000 0.555587
O O20 0.000000 0.500000 0.500000
O O21 0.263987 0.750000 0.179576
#
# Coordination Sequence:
#
# PCOD9462760 Si02
#       8
#     8   8   8   8   8   8   8   8
#     4  10  21  37  59  85 112 148 189 231 278 330
#     4  10  19  32  54  81 104 136 182 230 274 323
#     4   9  16  30  52  78 105 136 179 227 270 318
#     4   9  17  32  54  79 108 141 185 232 273 323
#     4  10  19  35  57  79 108 147 184 221 274 337
#     4  10  21  34  54  84 112 138 178 233 280 318
#     4  11  22  35  51  77 112 149 183 221 273 330
#     4   9  16  29  52  77 101 136 178 219 266 322
#
# _framework density 21.565693
#
# number of rings (size 3 to 8) (size 9 to 14) (size 15 to 20)
#    0.000    2.250    2.500    1.125    0.000    4.000 
#    0.000    3.125    0.000    2.250    0.000    0.000 
#    0.000    0.000    0.000    0.000    0.000    0.000 
#
# Total GULP energy -357592.247528 kJ/mol
# GULP energy per Si atom -5587.378868 kJ/mol
# Density = 2.151661 g / cm^3
# Si number density = 21.565693 Si / 1000 Ang^3
#
#
#
# Elastic Constant Matrix: (Units=GPa)
#
#
# Indices 1 2 3 4 5 6 
#
# 1 166.5445 -5.6387 64.4518 0.0000 0.0000 0.0000
# 2 -5.6387 59.2498 -3.1545 0.0000 0.0000 0.0000
# 3 64.4518 -3.1545 130.3611 0.0000 0.0000 0.0000
# 4 0.0000 0.0000 0.0000 4.4787 0.0000 0.0000
# 5 0.0000 0.0000 0.0000 0.0000 43.7144 0.0000
# 6 0.0000 0.0000 0.0000 0.0000 0.0000 9.1279
#
#
#
# Elastic Compliance Matrix: (Units=1/GPa)
#
#
# Indices 1 2 3 4 5 6 
#
# 1 0.007441 0.000513 -0.003666 0.000000 0.000000 0.000000
# 2 0.000513 0.016935 0.000156 0.000000 0.000000 0.000000
# 3 -0.003666 0.000156 0.009487 0.000000 0.000000 0.000000
# 4 0.000000 0.000000 0.000000 0.223277 0.000000 0.000000
# 5 0.000000 0.000000 0.000000 0.000000 0.022876 0.000000
# 6 0.000000 0.000000 0.000000 0.000000 0.000000 0.109554
#
#
# Mechanical properties :
#
#
# Convention : Reuss Voigt Hill
#
# Bulk Modulus (GPa) = 35.88282 51.94140 43.91211
# Shear Modulus (GPa) = 12.35013 31.49733 21.92373
#
# Velocity S-wave (km/s) = 2.39566 3.82583 3.19188
# Velocity P-wave (km/s) = 4.93226 6.60708 5.83012
#
# Compressibility (1/GPa) = 0.02786849
#
# Stress axis : x y z
#
# Youngs Moduli (GPa) = 134.39769 59.04995 105.40258
#
# Poissons Ratio (x) = -0.03029 0.38644
# Poissons Ratio (y) = -0.06893 -0.01646
# Poissons Ratio (z) = 0.49274 -0.00922
#
# Static dielectric constant tensor:
#      x y z
#    x 1.772650 0.000000 0.000000 
#    y 0.000000 1.844930 0.000000 
#    z 0.000000 0.000000 1.744750 
# 
# From -- ./inp_files/24718.got.cif
#   From: 2010.05.17/outbox.cif.g08.bks.cpg/sg62_13_cif.got.tgz:24718.got - 2010.06.03 15:25:27.
