data_PCOD9462325
_publ_section_title
;
Structure prediction by ZEFSAII (Michael W. Deem and Ramdas Pophale) SiO2 
 PCOD9462325
Probable space group: P N M A
;
_chemical_formula_sum "Si O2"
_cell_formula_units_Z 64
_cell_length_a 29.796150
_cell_length_b 8.785688
_cell_length_c 14.344019
_cell_angle_alpha 90.000000
_cell_angle_beta 90.000000
_cell_angle_gamma 90.000000
_cell_volume 3754.972668
_symmetry_space_group_name_H-M "P N M A"
_symmetry_group_IT_number 62
_symmetry_cell_setting 'orthorhombic'
loop_
_space_group_symop_operation_xyz
x,y,z
1/2-x,-y,1/2+z
1/2+x,1/2-y,1/2-z
-x,1/2+y,-z
-x,-y,-z
1/2+x,y,1/2-z
1/2-x,1/2+y,1/2+z
x,1/2-y,z
loop_
_atom_site_type_symbol
_atom_site_label
_atom_site_fract_x
_atom_site_fract_y
_atom_site_fract_z
Si Si1 0.740976 0.567102 0.153649
Si Si2 0.102453 0.427435 0.266446
Si Si3 0.414644 0.931848 0.153665
Si Si4 0.820635 0.067680 0.831473
Si Si5 0.738797 0.066581 0.953261
Si Si6 0.321247 0.564816 0.222361
Si Si7 0.511059 0.428566 0.154831
Si Si8 0.912993 0.429123 0.545010
O O1 0.740852 0.750000 0.145412
O O2 0.707103 0.528157 0.237460
O O3 0.729345 0.496995 0.054751
O O4 0.790090 0.517000 0.191504
O O5 0.112332 0.250000 0.279510
O O6 0.131121 0.492568 0.182101
O O7 0.048230 0.443144 0.262632
O O8 0.113655 0.516299 0.362977
O O9 0.419641 0.750000 0.158270
O O10 0.372988 0.981555 0.218056
O O11 0.461962 0.010495 0.175335
O O12 0.401976 0.979775 0.048052
O O13 0.825289 0.250000 0.834479
O O14 0.788420 0.020812 0.916370
O O15 0.737511 0.250000 0.955584
O O16 0.703874 0.016908 0.873128
O O17 0.320567 0.750000 0.221856
O O18 0.509365 0.250000 0.128722
O O19 0.536020 0.525688 0.074394
O O20 0.908427 0.250000 0.530691
#
# Coordination Sequence:
#
# PCOD9462325 Si02
#       8
#     8   8   8   8   8   8   8   8
#     4   9  18  34  51  70  96 126 159 199 237 282
#     4   9  19  31  45  65  92 122 156 193 234 277
#     4  11  19  29  46  66  90 128 166 196 233 285
#     4   9  18  32  49  70  98 126 158 196 239 284
#     4   9  18  33  51  71  96 128 157 195 244 285
#     4   8  18  34  49  68  98 129 160 194 238 287
#     4   9  19  32  43  63  93 127 160 198 238 279
#     4  10  19  30  43  62  92 125 157 194 234 277
#
# _framework density 17.044066000000001
#
# number of rings (size 3 to 8) (size 9 to 14) (size 15 to 20)
#    0.750    2.000    0.000    3.750    1.750    1.000 
#    0.000    3.750    0.000    0.000    0.000    0.875 
#    0.000    0.000    0.000    0.000    0.000    0.000 
#
# Total GULP energy -356277.298836 kJ/mol
# GULP energy per Si atom -5566.832794 kJ/mol
# Density = 1.700527 g / cm^3
# Si number density = 17.044066 Si / 1000 Ang^3
#
#
#
# Elastic Constant Matrix: (Units=GPa)
#
#
# Indices 1 2 3 4 5 6 
#
# 1 34.4616 -0.3335 -7.5638 0.0000 0.0000 0.0000
# 2 -0.3335 26.7359 2.9835 0.0000 0.0000 0.0000
# 3 -7.5638 2.9835 27.6559 0.0000 0.0000 0.0000
# 4 0.0000 0.0000 0.0000 15.9897 0.0000 0.0000
# 5 0.0000 0.0000 0.0000 0.0000 22.4864 0.0000
# 6 0.0000 0.0000 0.0000 0.0000 0.0000 -0.1282
#
#
#
# Elastic Compliance Matrix: (Units=1/GPa)
#
#
# Indices 1 2 3 4 5 6 
#
# 1 0.030879 -0.000564 0.008506 0.000000 0.000000 0.000000
# 2 -0.000564 0.037869 -0.004240 0.000000 0.000000 0.000000
# 3 0.008506 -0.004240 0.038942 0.000000 0.000000 0.000000
# 4 0.000000 0.000000 0.000000 0.062540 0.000000 0.000000
# 5 0.000000 0.000000 0.000000 0.000000 0.044471 0.000000
# 6 0.000000 0.000000 0.000000 0.000000 0.000000 -7.800676
#
#
# Mechanical properties :
#
#
# Convention : Reuss Voigt Hill
#
# Bulk Modulus (GPa) = 8.68839 8.78065 8.73452
# Shear Modulus (GPa) = -0.66181 13.92073 6.62946
#
# Velocity S-wave (km/s) = -0.62381 2.86098 1.97435
# Velocity P-wave (km/s) = 2.14239 4.00956 3.21453
#
# Compressibility (1/GPa) = 0.11509606
#
# Stress axis : x y z
#
# Youngs Moduli (GPa) = 32.38411 26.40685 25.67894
#
# Poissons Ratio (x) = 0.01489 -0.21843
# Poissons Ratio (y) = 0.01827 0.10887
# Poissons Ratio (z) = -0.27547 0.11195
#
# Static dielectric constant tensor:
#      x y z
#    x 1.629070 0.000000 0.000000 
#    y 0.000000 1.568230 0.000000 
#    z 0.000000 0.000000 1.559710 
# 
# From -- ./inp_files/21249.got.cif
#   From: 2010.05.17/outbox.cif.g08.bks.cpg/sg62_11_cif.got.tgz:21249.got - 2010.06.03 15:25:27.
