data_PCOD9462617
_publ_section_title
;
Structure prediction by ZEFSAII (Michael W. Deem and Ramdas Pophale) SiO2 
 PCOD9462617
Probable space group: P N M A
;
_chemical_formula_sum "Si O2"
_cell_formula_units_Z 64
_cell_length_a 28.020613
_cell_length_b 15.584442
_cell_length_c 8.539759
_cell_angle_alpha 90.000000
_cell_angle_beta 90.000000
_cell_angle_gamma 90.000000
_cell_volume 3729.189937
_symmetry_space_group_name_H-M "P N M A"
_symmetry_group_IT_number 62
_symmetry_cell_setting 'orthorhombic'
loop_
_space_group_symop_operation_xyz
x,y,z
1/2-x,-y,1/2+z
1/2+x,1/2-y,1/2-z
-x,1/2+y,-z
-x,-y,-z
1/2+x,y,1/2-z
1/2-x,1/2+y,1/2+z
x,1/2-y,z
loop_
_atom_site_type_symbol
_atom_site_label
_atom_site_fract_x
_atom_site_fract_y
_atom_site_fract_z
Si Si1 0.934158 0.847609 0.404968
Si Si2 0.681487 0.153308 0.591102
Si Si3 0.845889 0.918439 0.596168
Si Si4 0.906343 0.916545 0.896700
Si Si5 0.742744 0.346837 0.277820
Si Si6 0.823032 0.012735 0.299602
Si Si7 0.429015 0.488037 0.311761
Si Si8 0.994642 0.653230 0.715713
O O1 0.935689 0.750000 0.344902
O O2 0.883478 0.864108 0.492260
O O3 0.939474 0.921899 0.277133
O O4 0.974155 0.857701 0.539759
O O5 0.682151 0.250000 0.655557
O O6 0.630656 0.135229 0.506367
O O7 0.720110 0.146997 0.451975
O O8 0.688829 0.078130 0.716043
O O9 0.875576 0.948658 0.748283
O O10 0.801115 0.865598 0.660583
O O11 0.827545 0.993792 0.484091
O O12 0.948786 0.859897 0.827456
O O13 0.927951 0.991313 0.004083
O O14 0.760282 0.250000 0.254607
O O15 0.783664 0.417130 0.260615
O O16 0.875466 0.037900 0.238295
O O17 0.466612 0.417417 0.259475
O O18 0.013002 0.750000 0.731738
#
# Coordination Sequence:
#
# PCOD9462617 Si02
#       8
#     8   8   8   8   8   8   8   8
#     4   9  18  32  51  75  99 123 156 200 247 286
#     4   9  18  32  50  72  95 119 154 200 245 283
#     4   9  18  32  51  73  96 122 156 200 246 283
#     4   9  18  32  50  71  94 123 159 202 247 282
#     4  10  19  32  50  71  97 127 157 191 233 285
#     4  10  20  32  49  71  97 128 158 192 234 284
#     4  10  20  32  49  72  99 130 161 196 236 284
#     4  10  19  32  50  71  98 130 162 197 236 283
#
# _framework density 17.161902999999999
#
# number of rings (size 3 to 8) (size 9 to 14) (size 15 to 20)
#    0.000    2.500    0.000    2.250    0.000    9.000 
#    0.000    0.000    0.000    0.750    0.000    0.000 
#    0.000    0.000    0.000    0.000    0.000    0.000 
#
# Total GULP energy -356933.552381 kJ/mol
# GULP energy per Si atom -5577.086756 kJ/mol
# Density = 1.712284 g / cm^3
# Si number density = 17.161903 Si / 1000 Ang^3
#
#
#
# Elastic Constant Matrix: (Units=GPa)
#
#
# Indices 1 2 3 4 5 6 
#
# 1 51.5374 52.2980 12.6064 0.0000 0.0000 0.0000
# 2 52.2980 103.4583 41.8530 0.0000 0.0000 0.0000
# 3 12.6064 41.8530 65.3706 0.0000 0.0000 0.0000
# 4 0.0000 0.0000 0.0000 14.2829 0.0000 0.0000
# 5 0.0000 0.0000 0.0000 0.0000 11.6026 0.0000
# 6 0.0000 0.0000 0.0000 0.0000 0.0000 15.5960
#
#
#
# Elastic Compliance Matrix: (Units=1/GPa)
#
#
# Indices 1 2 3 4 5 6 
#
# 1 0.042388 -0.024454 0.007482 0.000000 0.000000 0.000000
# 2 -0.024454 0.027152 -0.012668 0.000000 0.000000 0.000000
# 3 0.007482 -0.012668 0.021965 0.000000 0.000000 0.000000
# 4 0.000000 0.000000 0.000000 0.070014 0.000000 0.000000
# 5 0.000000 0.000000 0.000000 0.000000 0.086187 0.000000
# 6 0.000000 0.000000 0.000000 0.000000 0.000000 0.064119
#
#
# Mechanical properties :
#
#
# Convention : Reuss Voigt Hill
#
# Bulk Modulus (GPa) = 31.03139 48.20903 39.62021
# Shear Modulus (GPa) = 13.09428 15.87023 14.48226
#
# Velocity S-wave (km/s) = 2.76522 3.04425 2.90808
# Velocity P-wave (km/s) = 5.32128 6.36461 5.86619
#
# Compressibility (1/GPa) = 0.03222543
#
# Stress axis : x y z
#
# Youngs Moduli (GPa) = 23.59159 36.82993 45.52687
#
# Poissons Ratio (x) = 0.90064 -0.34064
# Poissons Ratio (y) = 0.57691 0.57673
# Poissons Ratio (z) = -0.17651 0.46656
#
# Static dielectric constant tensor:
#      x y z
#    x 1.576380 0.000000 0.000000 
#    y 0.000000 1.560120 0.000000 
#    z 0.000000 0.000000 1.608770 
# 
# From -- ./inp_files/10525.got.cif
#   From: 2010.05.17/outbox.cif.g08.bks.cpg/sg62_6_cif.got.tgz:10525.got - 2010.06.03 15:25:27.
