data_PCOD9462688
_publ_section_title
;
Structure prediction by ZEFSAII (Michael W. Deem and Ramdas Pophale) SiO2 
 PCOD9462688
Probable space group: P N M A
;
_chemical_formula_sum "Si O2"
_cell_formula_units_Z 64
_cell_length_a 15.925539
_cell_length_b 7.888440
_cell_length_c 24.791636
_cell_angle_alpha 90.000000
_cell_angle_beta 90.000000
_cell_angle_gamma 90.000000
_cell_volume 3114.515190
_symmetry_space_group_name_H-M "P N M A"
_symmetry_group_IT_number 62
_symmetry_cell_setting 'orthorhombic'
loop_
_space_group_symop_operation_xyz
x,y,z
1/2-x,-y,1/2+z
1/2+x,1/2-y,1/2-z
-x,1/2+y,-z
-x,-y,-z
1/2+x,y,1/2-z
1/2-x,1/2+y,1/2+z
x,1/2-y,z
loop_
_atom_site_type_symbol
_atom_site_label
_atom_site_fract_x
_atom_site_fract_y
_atom_site_fract_z
Si Si1 0.692792 0.053127 0.803316
Si Si2 0.621638 0.051070 0.543478
Si Si3 0.123866 0.958444 0.190800
Si Si4 0.040732 0.454236 0.396656
Si Si5 0.803208 0.948295 0.534465
Si Si6 0.489202 0.546716 0.222746
Si Si7 0.060965 0.955902 0.074294
Si Si8 0.644409 0.947766 0.919297
O O1 0.694798 0.250000 0.786918
O O2 0.784317 0.980428 0.790604
O O3 0.606364 0.977934 0.779715
O O4 0.682616 0.044594 0.868324
O O5 0.629038 0.250000 0.554017
O O6 0.536760 0.989049 0.572492
O O7 0.710279 0.969921 0.557943
O O8 0.604166 0.022198 0.479892
O O9 0.125072 0.750000 0.191387
O O10 0.049304 0.015931 0.229896
O O11 0.105166 0.009169 0.129339
O O12 0.044966 0.250000 0.396189
O O13 0.122902 0.518304 0.427520
O O14 0.031158 0.512402 0.335164
O O15 0.953007 0.503211 0.425372
O O16 0.819145 0.750000 0.526065
O O17 0.808730 0.029602 0.475390
O O18 0.482855 0.750000 0.228646
O O19 0.062461 0.750000 0.071335
O O20 0.644674 0.750000 0.904240
#
# Coordination Sequence:
#
# PCOD9462688 Si02
#       8
#     8   8   8   8   8   8   8   8
#     4   9  17  31  52  76 102 134 169 207 258 310
#     4  10  20  33  50  77 107 136 170 212 258 304
#     4   9  17  32  53  77 100 130 173 214 253 299
#     4   9  20  36  51  70 102 138 167 206 261 311
#     4  11  21  33  50  73 103 140 172 202 251 315
#     4   9  18  33  52  75 101 131 170 216 256 300
#     4   9  18  34  54  74 103 139 171 213 262 308
#     4  10  19  32  52  77 103 129 168 218 257 302
#
# _framework density 20.548943999999999
#
# number of rings (size 3 to 8) (size 9 to 14) (size 15 to 20)
#    0.000    2.500    0.000    2.250    0.000    3.000 
#    2.250    1.250    0.000    0.000    0.000    0.000 
#    0.000    0.000    0.000    0.000    0.000    0.000 
#
# Total GULP energy -357136.668972 kJ/mol
# GULP energy per Si atom -5580.260453 kJ/mol
# Density = 2.050217 g / cm^3
# Si number density = 20.548944 Si / 1000 Ang^3
#
#
#
# Elastic Constant Matrix: (Units=GPa)
#
#
# Indices 1 2 3 4 5 6 
#
# 1 147.7845 0.7736 39.0812 0.0000 0.0000 0.0000
# 2 0.7736 22.8398 -6.4661 0.0000 0.0000 0.0000
# 3 39.0812 -6.4661 25.2378 0.0000 0.0000 0.0000
# 4 0.0000 0.0000 0.0000 17.0920 0.0000 0.0000
# 5 0.0000 0.0000 0.0000 0.0000 15.5538 0.0000
# 6 0.0000 0.0000 0.0000 0.0000 0.0000 18.6639
#
#
#
# Elastic Compliance Matrix: (Units=1/GPa)
#
#
# Indices 1 2 3 4 5 6 
#
# 1 0.012229 -0.006227 -0.020532 0.000000 0.000000 0.000000
# 2 -0.006227 0.050378 0.022549 0.000000 0.000000 0.000000
# 3 -0.020532 0.022549 0.077194 0.000000 0.000000 0.000000
# 4 0.000000 0.000000 0.000000 0.058507 0.000000 0.000000
# 5 0.000000 0.000000 0.000000 0.000000 0.064293 0.000000
# 6 0.000000 0.000000 0.000000 0.000000 0.000000 0.053579
#
#
# Mechanical properties :
#
#
# Convention : Reuss Voigt Hill
#
# Bulk Modulus (GPa) = 7.61137 29.18216 18.39677
# Shear Modulus (GPa) = 13.57247 21.09350 17.33299
#
# Velocity S-wave (km/s) = 2.57280 3.20738 2.90745
# Velocity P-wave (km/s) = 3.54087 5.28664 4.49924
#
# Compressibility (1/GPa) = 0.13138241
#
# Stress axis : x y z
#
# Youngs Moduli (GPa) = 81.77432 19.84998 12.95435
#
# Poissons Ratio (x) = 0.12360 0.26598
# Poissons Ratio (y) = 0.50919 -0.29211
# Poissons Ratio (z) = 1.67897 -0.44761
#
# Static dielectric constant tensor:
#      x y z
#    x 1.770100 0.000000 0.000000 
#    y 0.000000 1.737160 0.000000 
#    z 0.000000 0.000000 1.681970 
# 
# From -- ./inp_files/29945.got.cif
#   From: 2010.05.17/outbox.cif.g08.bks.cpg/sg62_15_cif.got.tgz:29945.got - 2010.06.03 15:25:27.
