data_PCOD9462577
_publ_section_title
;
Structure prediction by ZEFSAII (Michael W. Deem and Ramdas Pophale) SiO2 
 PCOD9462577
Probable space group: P N M A
;
_chemical_formula_sum "Si O2"
_cell_formula_units_Z 56
_cell_length_a 14.506463
_cell_length_b 9.973743
_cell_length_c 18.494076
_cell_angle_alpha 90.000000
_cell_angle_beta 90.000000
_cell_angle_gamma 90.000000
_cell_volume 2675.791969
_symmetry_space_group_name_H-M "P N M A"
_symmetry_group_IT_number 62
_symmetry_cell_setting 'orthorhombic'
loop_
_space_group_symop_operation_xyz
x,y,z
1/2-x,-y,1/2+z
1/2+x,1/2-y,1/2-z
-x,1/2+y,-z
-x,-y,-z
1/2+x,y,1/2-z
1/2-x,1/2+y,1/2+z
x,1/2-y,z
loop_
_atom_site_type_symbol
_atom_site_label
_atom_site_fract_x
_atom_site_fract_y
_atom_site_fract_z
Si Si1 0.314691 0.591826 0.419631
Si Si2 0.424784 0.889068 0.998760
Si Si3 0.482999 0.096957 0.223559
Si Si4 0.520856 0.600573 0.603966
Si Si5 0.831606 0.596742 0.346316
Si Si6 0.821927 0.901556 0.652868
Si Si7 0.304033 0.596210 0.585695
O O1 0.322790 0.750000 0.404343
O O2 0.412106 0.515437 0.422524
O O3 0.256131 0.513697 0.357852
O O4 0.273964 0.579649 0.501487
O O5 0.478769 0.750000 0.996778
O O6 0.363404 0.894019 0.927849
O O7 0.366860 0.892001 0.071345
O O8 0.500000 0.000000 0.000000
O O9 0.465580 0.250000 0.195759
O O10 0.474768 0.100573 0.309355
O O11 0.588980 0.064912 0.201540
O O12 0.410287 0.989312 0.193814
O O13 0.550105 0.750000 0.577918
O O14 0.414209 0.581466 0.585007
O O15 0.818998 0.750000 0.318997
O O16 0.740867 0.506211 0.357451
O O17 0.788202 0.750000 0.672216
O O18 0.282503 0.750000 0.607047
#
# Coordination Sequence:
#
# PCOD9462577 Si02
#       7
#     8   8   8   8   8   8   8
#     4  11  23  38  61  91 119 150 192 248 304 346
#     4  10  19  31  52  83 118 153 188 234 290 344
#     4  10  22  40  61  85 116 157 198 237 285 349
#     4  10  23  43  63  82 111 155 203 245 288 345
#     4  11  22  35  57  90 123 154 189 237 298 352
#     4  10  20  36  58  86 119 154 195 238 286 350
#     4  10  22  40  62  88 117 153 200 247 291 346
#
# _framework density 20.928384000000001
#
# number of rings (size 3 to 8) (size 9 to 14) (size 15 to 20)
#    0.000    1.714    2.857    1.286    0.000    4.571 
#    0.000    2.857    0.000    0.000    0.000    0.000 
#    0.000    0.000    0.000    0.000    0.000    0.000 
#
# Total GULP energy -312506.052266 kJ/mol
# GULP energy per Si atom -5580.465219 kJ/mol
# Density = 2.088075 g / cm^3
# Si number density = 20.928384 Si / 1000 Ang^3
#
#
#
# Elastic Constant Matrix: (Units=GPa)
#
#
# Indices 1 2 3 4 5 6 
#
# 1 70.9984 84.0446 -0.0635 0.0000 0.0000 0.0000
# 2 84.0446 182.9932 12.2931 0.0000 0.0000 0.0000
# 3 -0.0635 12.2931 35.4701 0.0000 0.0000 0.0000
# 4 0.0000 0.0000 0.0000 10.8253 0.0000 0.0000
# 5 0.0000 0.0000 0.0000 0.0000 19.1189 0.0000
# 6 0.0000 0.0000 0.0000 0.0000 0.0000 21.7646
#
#
#
# Elastic Compliance Matrix: (Units=1/GPa)
#
#
# Indices 1 2 3 4 5 6 
#
# 1 0.031789 -0.014952 0.005239 0.000000 0.000000 0.000000
# 2 -0.014952 0.012627 -0.004403 0.000000 0.000000 0.000000
# 3 0.005239 -0.004403 0.029728 0.000000 0.000000 0.000000
# 4 0.000000 0.000000 0.000000 0.092376 0.000000 0.000000
# 5 0.000000 0.000000 0.000000 0.000000 0.052304 0.000000
# 6 0.000000 0.000000 0.000000 0.000000 0.000000 0.045946
#
#
# Mechanical properties :
#
#
# Convention : Reuss Voigt Hill
#
# Bulk Modulus (GPa) = 21.78069 53.55669 37.66869
# Shear Modulus (GPa) = 16.21757 23.22092 19.71924
#
# Velocity S-wave (km/s) = 2.78674 3.33459 3.07290
# Velocity P-wave (km/s) = 4.55899 6.36176 5.53427
#
# Compressibility (1/GPa) = 0.04591224
#
# Stress axis : x y z
#
# Youngs Moduli (GPa) = 31.45766 79.19224 33.63814
#
# Poissons Ratio (x) = 1.18407 -0.17623
# Poissons Ratio (y) = 0.47035 0.14811
# Poissons Ratio (z) = -0.16480 0.34870
#
# Static dielectric constant tensor:
#      x y z
#    x 1.746940 0.000000 0.000000 
#    y 0.000000 1.782860 0.000000 
#    z 0.000000 0.000000 1.756390 
# 
# From -- ./inp_files/27170.got.cif
#   From: 2010.05.17/outbox.cif.g08.bks.cpg/sg62_14_cif.got.tgz:27170.got - 2010.06.03 15:25:27.
