data_PCOD9462113
_publ_section_title
;
Structure prediction by ZEFSAII (Michael W. Deem and Ramdas Pophale) SiO2 
 PCOD9462113
Probable space group: P N M A
;
_chemical_formula_sum "Si O2"
_cell_formula_units_Z 56
_cell_length_a 9.596977
_cell_length_b 17.346656
_cell_length_c 17.276969
_cell_angle_alpha 90.000000
_cell_angle_beta 90.000000
_cell_angle_gamma 90.000000
_cell_volume 2876.191339
_symmetry_space_group_name_H-M "P N M A"
_symmetry_group_IT_number 62
_symmetry_cell_setting 'orthorhombic'
loop_
_space_group_symop_operation_xyz
x,y,z
1/2-x,-y,1/2+z
1/2+x,1/2-y,1/2-z
-x,1/2+y,-z
-x,-y,-z
1/2+x,y,1/2-z
1/2-x,1/2+y,1/2+z
x,1/2-y,z
loop_
_atom_site_type_symbol
_atom_site_label
_atom_site_fract_x
_atom_site_fract_y
_atom_site_fract_z
Si Si1 0.542869 0.608662 0.063236
Si Si2 0.928569 0.560987 0.197319
Si Si3 0.199142 0.435420 0.041084
Si Si4 0.567787 0.960390 0.849495
Si Si5 0.370977 0.839902 0.915757
Si Si6 0.103809 0.935706 0.937040
Si Si7 0.849986 0.339499 0.724477
O O1 0.492973 0.523521 0.089463
O O2 0.563199 0.653648 0.143787
O O3 0.690837 0.601779 0.018580
O O4 0.435816 0.643974 0.001490
O O5 0.934484 0.500652 0.267669
O O6 0.917612 0.507620 0.121890
O O7 0.792145 0.614007 0.208257
O O8 0.062121 0.616204 0.209312
O O9 0.278304 0.439009 0.122277
O O10 0.046538 0.399020 0.046573
O O11 0.167101 0.521971 0.012062
O O12 0.470182 0.886742 0.857666
O O13 0.371561 0.750000 0.901120
O O14 0.218299 0.876221 0.909059
O O15 0.825748 0.250000 0.742763
#
# Coordination Sequence:
#
# PCOD9462113 Si02
#       7
#     8   8   8   8   8   8   8
#     4  10  18  38  60  85 112 158 197 236 283 362
#     4  11  22  38  60  84 117 160 200 234 286 361
#     4  10  18  33  61  82 113 148 202 239 278 335
#     4  10  19  37  61  84 110 157 207 238 279 357
#     4  11  21  37  60  88 115 146 197 257 299 335
#     4  11  20  35  58  87 115 155 197 241 291 350
#     4  11  22  37  56  86 122 153 189 240 294 347
#
# _framework density 19.470192999999998
#
# number of rings (size 3 to 8) (size 9 to 14) (size 15 to 20)
#    0.000    1.429    4.286    3.429    0.000    0.000 
#    0.000    4.286    0.000    0.000    0.000    0.000 
#    0.000    0.000    0.000    0.000    0.000    0.000 
#
# Total GULP energy -312696.002483 kJ/mol
# GULP energy per Si atom -5583.857187 kJ/mol
# Density = 1.942588 g / cm^3
# Si number density = 19.470193 Si / 1000 Ang^3
#
#
#
# Elastic Constant Matrix: (Units=GPa)
#
#
# Indices 1 2 3 4 5 6 
#
# 1 108.2026 32.9480 14.8657 0.0000 0.0000 0.0000
# 2 32.9480 112.9073 27.5685 0.0000 0.0000 0.0000
# 3 14.8657 27.5685 40.1615 0.0000 0.0000 0.0000
# 4 0.0000 0.0000 0.0000 12.0443 0.0000 0.0000
# 5 0.0000 0.0000 0.0000 0.0000 11.3992 0.0000
# 6 0.0000 0.0000 0.0000 0.0000 0.0000 15.3983
#
#
#
# Elastic Compliance Matrix: (Units=1/GPa)
#
#
# Indices 1 2 3 4 5 6 
#
# 1 0.010288 -0.002490 -0.002099 0.000000 0.000000 0.000000
# 2 -0.002490 0.011243 -0.006796 0.000000 0.000000 0.000000
# 3 -0.002099 -0.006796 0.030341 0.000000 0.000000 0.000000
# 4 0.000000 0.000000 0.000000 0.083026 0.000000 0.000000
# 5 0.000000 0.000000 0.000000 0.000000 0.087726 0.000000
# 6 0.000000 0.000000 0.000000 0.000000 0.000000 0.064942
#
#
# Mechanical properties :
#
#
# Convention : Reuss Voigt Hill
#
# Bulk Modulus (GPa) = 34.36077 45.78178 40.07128
# Shear Modulus (GPa) = 15.62317 20.16098 17.89208
#
# Velocity S-wave (km/s) = 2.83577 3.22138 3.03470
# Velocity P-wave (km/s) = 5.32994 6.11565 5.73627
#
# Compressibility (1/GPa) = 0.02910295
#
# Stress axis : x y z
#
# Youngs Moduli (GPa) = 97.19626 88.94639 32.95825
#
# Poissons Ratio (x) = 0.22146 0.06918
# Poissons Ratio (y) = 0.24200 0.22398
# Poissons Ratio (z) = 0.20403 0.60447
#
# Static dielectric constant tensor:
#      x y z
#    x 1.716980 0.000000 0.000000 
#    y 0.000000 1.655250 0.000000 
#    z 0.000000 0.000000 1.712020 
# 
# From -- ./inp_files/26116.got.cif
#   From: 2010.05.17/outbox.cif.g08.bks.cpg/sg62_14_cif.got.tgz:26116.got - 2010.06.03 15:25:27.
