data_PCOD9462409
_publ_section_title
;
Structure prediction by ZEFSAII (Michael W. Deem and Ramdas Pophale) SiO2 
 PCOD9462409
Probable space group: P N M A
;
_chemical_formula_sum "Si O2"
_cell_formula_units_Z 64
_cell_length_a 20.946043
_cell_length_b 7.568700
_cell_length_c 20.444053
_cell_angle_alpha 90.000000
_cell_angle_beta 90.000000
_cell_angle_gamma 90.000000
_cell_volume 3241.083952
_symmetry_space_group_name_H-M "P N M A"
_symmetry_group_IT_number 62
_symmetry_cell_setting 'orthorhombic'
loop_
_space_group_symop_operation_xyz
x,y,z
1/2-x,-y,1/2+z
1/2+x,1/2-y,1/2-z
-x,1/2+y,-z
-x,-y,-z
1/2+x,y,1/2-z
1/2-x,1/2+y,1/2+z
x,1/2-y,z
loop_
_atom_site_type_symbol
_atom_site_label
_atom_site_fract_x
_atom_site_fract_y
_atom_site_fract_z
Si Si1 0.082362 0.457844 0.545272
Si Si2 0.084373 0.458165 0.935106
Si Si3 0.275780 0.460458 0.069434
Si Si4 0.451802 0.452846 0.901248
Si Si5 0.274352 0.533353 0.427629
Si Si6 0.830733 0.039716 0.824463
Si Si7 0.667953 0.532797 0.176634
Si Si8 0.444843 0.464965 0.585687
O O1 0.070233 0.250000 0.534248
O O2 0.151389 0.478883 0.576685
O O3 0.080288 0.543350 0.473380
O O4 0.022514 0.529178 0.587180
O O5 0.085132 0.250000 0.920097
O O6 0.153380 0.529058 0.914871
O O7 0.017790 0.528868 0.906244
O O8 0.078160 0.479615 0.013504
O O9 0.277000 0.250000 0.065516
O O10 0.229298 0.510245 0.128320
O O11 0.248329 0.525843 0.999698
O O12 0.461268 0.250000 0.880556
O O13 0.400160 0.529792 0.851730
O O14 0.275218 0.750000 0.428687
O O15 0.223955 0.478211 0.372772
O O16 0.839412 0.250000 0.818784
O O17 0.822083 0.973368 0.750885
O O18 0.894024 0.971332 0.861184
O O19 0.667603 0.750000 0.174921
O O20 0.445513 0.250000 0.585963
#
# Coordination Sequence:
#
# PCOD9462409 Si02
#       8
#     8   8   8   8   8   8   8   8
#     4  10  19  30  50  80 107 130 168 220 262 299
#     4   9  16  28  47  71  95 121 161 201 238 293
#     4  11  20  33  53  74 101 136 174 215 258 311
#     4   9  17  32  52  75 104 137 172 208 255 313
#     4   9  16  28  50  74  93 127 172 206 241 297
#     4  10  20  33  50  74 104 134 168 214 262 305
#     4   9  17  32  52  73 101 136 171 206 250 308
#     4   9  17  28  44  70  99 122 151 200 254 294
#
# _framework density 19.746479999999998
#
# number of rings (size 3 to 8) (size 9 to 14) (size 15 to 20)
#    0.000    2.500    2.500    0.750    0.000    0.500 
#    0.000    1.875    0.000    6.000    0.000    3.500 
#    0.000    0.000    0.000    0.000    0.000    0.000 
#
# Total GULP energy -356985.399774 kJ/mol
# GULP energy per Si atom -5577.896871 kJ/mol
# Density = 1.970154 g / cm^3
# Si number density = 19.746480 Si / 1000 Ang^3
#
#
#
# Elastic Constant Matrix: (Units=GPa)
#
#
# Indices 1 2 3 4 5 6 
#
# 1 187.8032 -6.5672 95.5770 0.0000 0.0000 0.0000
# 2 -6.5672 41.0900 -3.3339 0.0000 0.0000 0.0000
# 3 95.5770 -3.3339 119.6828 0.0000 0.0000 0.0000
# 4 0.0000 0.0000 0.0000 13.4251 0.0000 0.0000
# 5 0.0000 0.0000 0.0000 0.0000 25.5127 0.0000
# 6 0.0000 0.0000 0.0000 0.0000 0.0000 6.1418
#
#
#
# Elastic Compliance Matrix: (Units=1/GPa)
#
#
# Indices 1 2 3 4 5 6 
#
# 1 0.009001 0.000857 -0.007164 0.000000 0.000000 0.000000
# 2 0.000857 0.024474 -0.000003 0.000000 0.000000 0.000000
# 3 -0.007164 -0.000003 0.014076 0.000000 0.000000 0.000000
# 4 0.000000 0.000000 0.000000 0.074487 0.000000 0.000000
# 5 0.000000 0.000000 0.000000 0.000000 0.039196 0.000000
# 6 0.000000 0.000000 0.000000 0.000000 0.000000 0.162819
#
#
# Mechanical properties :
#
#
# Convention : Reuss Voigt Hill
#
# Bulk Modulus (GPa) = 28.62743 57.76977 43.19860
# Shear Modulus (GPa) = 14.35480 26.54259 20.44870
#
# Velocity S-wave (km/s) = 2.69914 3.67027 3.22151
# Velocity P-wave (km/s) = 4.92369 6.87607 5.98010
#
# Compressibility (1/GPa) = 0.03493154
#
# Stress axis : x y z
#
# Youngs Moduli (GPa) = 111.10483 40.86039 71.04167
#
# Poissons Ratio (x) = -0.03503 0.50893
# Poissons Ratio (y) = -0.09525 0.00020
# Poissons Ratio (z) = 0.79593 0.00012
#
# Static dielectric constant tensor:
#      x y z
#    x 1.725870 0.000000 0.000000 
#    y 0.000000 1.751010 0.000000 
#    z 0.000000 0.000000 1.661640 
# 
# From -- ./inp_files/27880.got.cif
#   From: 2010.05.17/outbox.cif.g08.bks.cpg/sg62_14_cif.got.tgz:27880.got - 2010.06.03 15:25:27.
