data_PCOD9462095
_publ_section_title
;
Structure prediction by ZEFSAII (Michael W. Deem and Ramdas Pophale) SiO2 
 PCOD9462095
Probable space group: P N M A
;
_chemical_formula_sum "Si O2"
_cell_formula_units_Z 64
_cell_length_a 15.423345
_cell_length_b 34.042281
_cell_length_c 6.953328
_cell_angle_alpha 90.000000
_cell_angle_beta 90.000000
_cell_angle_gamma 90.000000
_cell_volume 3650.815971
_symmetry_space_group_name_H-M "P N M A"
_symmetry_group_IT_number 62
_symmetry_cell_setting 'orthorhombic'
loop_
_space_group_symop_operation_xyz
x,y,z
1/2-x,-y,1/2+z
1/2+x,1/2-y,1/2-z
-x,1/2+y,-z
-x,-y,-z
1/2+x,y,1/2-z
1/2-x,1/2+y,1/2+z
x,1/2-y,z
loop_
_atom_site_type_symbol
_atom_site_label
_atom_site_fract_x
_atom_site_fract_y
_atom_site_fract_z
Si Si1 0.626999 0.421238 0.615106
Si Si2 0.183814 0.661872 0.092129
Si Si3 0.619313 0.645573 0.814699
Si Si4 0.176386 0.586571 0.356509
Si Si5 0.623492 0.156703 0.873103
Si Si6 0.439870 0.606022 0.789584
Si Si7 0.447534 0.203558 0.861731
Si Si8 0.999271 0.457970 0.600630
O O1 0.613811 0.379636 0.725509
O O2 0.605458 0.412728 0.393953
O O3 0.727981 0.431726 0.642507
O O4 0.562497 0.452111 0.716366
O O5 0.280960 0.674186 0.150146
O O6 0.170270 0.618529 0.185193
O O7 0.111126 0.689752 0.182594
O O8 0.175390 0.658820 0.864424
O O9 0.529633 0.627383 0.733970
O O10 0.663345 0.612585 0.949768
O O11 0.594136 0.681214 0.955388
O O12 0.097531 0.556159 0.345300
O O13 0.000000 0.500000 0.500000
O O14 0.544332 0.186194 0.842908
O O15 0.614933 0.137299 0.085636
O O16 0.465773 0.572577 0.941589
O O17 0.448026 0.250000 0.882905
#
# Coordination Sequence:
#
# PCOD9462095 Si02
#       8
#     8   8   8   8   8   8   8   8
#     4  10  18  34  57  78  98 134 178 214 255 307
#     4  10  18  33  58  78  95 136 179 217 256 305
#     4   9  17  32  54  76  99 130 173 218 257 301
#     4   9  19  34  54  79 102 130 175 223 254 299
#     4   9  19  33  54  79 102 129 176 223 253 297
#     4   9  17  32  55  77  99 133 170 215 262 303
#     4  10  21  34  47  74 112 138 163 208 262 314
#     4  10  21  36  49  74 113 137 165 211 260 315
#
# _framework density 17.530327
#
# number of rings (size 3 to 8) (size 9 to 14) (size 15 to 20)
#    0.000    2.500    0.000    4.500    0.000    1.500 
#    2.250    0.000    0.000    0.000    0.000    0.000 
#    0.000    0.000    0.000    0.000    0.000    0.000 
#
# Total GULP energy -356910.877589 kJ/mol
# GULP energy per Si atom -5576.732462 kJ/mol
# Density = 1.749043 g / cm^3
# Si number density = 17.530327 Si / 1000 Ang^3
#
#
#
# Elastic Constant Matrix: (Units=GPa)
#
#
# Indices 1 2 3 4 5 6 
#
# 1 119.5773 52.0915 30.7269 0.0000 0.0000 0.0000
# 2 52.0915 62.6173 -2.1977 0.0000 0.0000 0.0000
# 3 30.7269 -2.1977 50.8317 0.0000 0.0000 0.0000
# 4 0.0000 0.0000 0.0000 4.5740 0.0000 0.0000
# 5 0.0000 0.0000 0.0000 0.0000 19.6234 0.0000
# 6 0.0000 0.0000 0.0000 0.0000 0.0000 9.6157
#
#
#
# Elastic Compliance Matrix: (Units=1/GPa)
#
#
# Indices 1 2 3 4 5 6 
#
# 1 0.018063 -0.015434 -0.011586 0.000000 0.000000 0.000000
# 2 -0.015434 0.029181 0.010591 0.000000 0.000000 0.000000
# 3 -0.011586 0.010591 0.027134 0.000000 0.000000 0.000000
# 4 0.000000 0.000000 0.000000 0.218626 0.000000 0.000000
# 5 0.000000 0.000000 0.000000 0.000000 0.050959 0.000000
# 6 0.000000 0.000000 0.000000 0.000000 0.000000 0.103997
#
#
# Mechanical properties :
#
#
# Convention : Reuss Voigt Hill
#
# Bulk Modulus (GPa) = 24.08427 43.80754 33.94590
# Shear Modulus (GPa) = 10.10797 16.92301 13.51549
#
# Velocity S-wave (km/s) = 2.40385 3.11039 2.77966
# Velocity P-wave (km/s) = 4.63391 6.15980 5.45052
#
# Compressibility (1/GPa) = 0.04152088
#
# Stress axis : x y z
#
# Youngs Moduli (GPa) = 55.36070 34.26891 36.85371
#
# Poissons Ratio (x) = 0.52889 0.42700
# Poissons Ratio (y) = 0.85441 -0.39032
# Poissons Ratio (z) = 0.64142 -0.36294
#
# Static dielectric constant tensor:
#      x y z
#    x 1.619300 0.000000 0.000000 
#    y 0.000000 1.559710 0.000000 
#    z 0.000000 0.000000 1.591650 
# 
# From -- ./inp_files/1884.got.cif
#   From: 2010.05.17/outbox.cif.g08.bks.cpg/sg62_1_cif.got.tgz:1884.got - 2010.06.03 15:25:27.
