data_PCOD9462204
_publ_section_title
;
Structure prediction by ZEFSAII (Michael W. Deem and Ramdas Pophale) SiO2 
 PCOD9462204
Probable space group: P N M A
;
_chemical_formula_sum "Si O2"
_cell_formula_units_Z 48
_cell_length_a 15.207847
_cell_length_b 16.503387
_cell_length_c 8.227722
_cell_angle_alpha 90.000000
_cell_angle_beta 90.000000
_cell_angle_gamma 90.000000
_cell_volume 2065.001768
_symmetry_space_group_name_H-M "P N M A"
_symmetry_group_IT_number 62
_symmetry_cell_setting 'orthorhombic'
loop_
_space_group_symop_operation_xyz
x,y,z
1/2-x,-y,1/2+z
1/2+x,1/2-y,1/2-z
-x,1/2+y,-z
-x,-y,-z
1/2+x,y,1/2-z
1/2-x,1/2+y,1/2+z
x,1/2-y,z
loop_
_atom_site_type_symbol
_atom_site_label
_atom_site_fract_x
_atom_site_fract_y
_atom_site_fract_z
Si Si1 0.549757 0.250000 0.598802
Si Si2 0.197797 0.250000 0.171958
Si Si3 0.892162 0.589333 0.126391
Si Si4 0.080625 0.750000 0.793948
Si Si5 0.581843 0.922626 0.797636
Si Si6 0.817067 0.082430 0.626409
Si Si7 0.887970 0.586391 0.747271
Si Si8 0.124938 0.750000 0.455338
O O1 0.638431 0.250000 0.489761
O O2 0.557437 0.332836 0.697803
O O3 0.479234 0.250000 0.455381
O O4 0.171722 0.167740 0.268474
O O5 0.293562 0.250000 0.088737
O O6 0.914924 0.588002 0.936178
O O7 0.919537 0.505248 0.200873
O O8 0.786763 0.596060 0.141599
O O9 0.113276 0.656529 0.801736
O O10 0.051118 0.750000 0.598624
O O11 0.479823 0.909639 0.849717
O O12 0.650207 0.933872 0.943158
O O13 0.864522 0.169639 0.652603
O O14 0.842336 0.000063 0.718338
#
# Coordination Sequence:
#
# PCOD9462204 Si02
#       8
#     4   4   8   4   8   8   8   4
#     4  10  18  36  56  82 108 152 193 234 284 349
#     4  10  18  38  59  83 111 158 197 232 282 349
#     4  11  21  37  60  84 114 153 199 236 295 350
#     4  10  20  34  61  84 110 148 206 236 274 348
#     4  11  22  38  58  89 117 153 194 247 292 349
#     4  11  22  37  58  86 118 153 194 242 295 349
#     4  11  21  37  60  88 115 153 200 242 290 346
#     4  10  20  38  58  83 117 162 194 234 292 362
#
# _framework density 23.244533000000001
#
# number of rings (size 3 to 8) (size 9 to 14) (size 15 to 20)
#    0.000    1.333    6.667    2.000    2.333    0.000 
#    0.000    2.500    0.000    0.000    0.000    0.000 
#    0.000    0.000    0.000    0.000    0.000    0.000 
#
# Total GULP energy -267368.874922 kJ/mol
# GULP energy per Si atom -5570.184894 kJ/mol
# Density = 2.319163 g / cm^3
# Si number density = 23.244533 Si / 1000 Ang^3
#
#
#
# Elastic Constant Matrix: (Units=GPa)
#
#
# Indices 1 2 3 4 5 6 
#
# 1 82.5337 27.8328 6.0965 0.0000 0.0000 0.0000
# 2 27.8328 255.0251 33.8011 0.0000 0.0000 0.0000
# 3 6.0965 33.8011 7.3692 0.0000 0.0000 0.0000
# 4 0.0000 0.0000 0.0000 37.3390 0.0000 0.0000
# 5 0.0000 0.0000 0.0000 0.0000 5.3297 0.0000
# 6 0.0000 0.0000 0.0000 0.0000 0.0000 34.8092
#
#
#
# Elastic Compliance Matrix: (Units=1/GPa)
#
#
# Indices 1 2 3 4 5 6 
#
# 1 0.012905 0.000017 -0.010754 0.000000 0.000000 0.000000
# 2 0.000017 0.010001 -0.045889 0.000000 0.000000 0.000000
# 3 -0.010754 -0.045889 0.355081 0.000000 0.000000 0.000000
# 4 0.000000 0.000000 0.000000 0.026782 0.000000 0.000000
# 5 0.000000 0.000000 0.000000 0.000000 0.187626 0.000000
# 6 0.000000 0.000000 0.000000 0.000000 0.000000 0.028728
#
#
# Mechanical properties :
#
#
# Convention : Reuss Voigt Hill
#
# Bulk Modulus (GPa) = 3.77735 53.37651 28.57693
# Shear Modulus (GPa) = 6.07815 33.97544 20.02680
#
# Velocity S-wave (km/s) = 1.61881 3.82730 2.93844
# Velocity P-wave (km/s) = 2.26333 6.52257 4.88193
#
# Compressibility (1/GPa) = 0.26473599
#
# Stress axis : x y z
#
# Youngs Moduli (GPa) = 77.48992 99.98553 2.81626
#
# Poissons Ratio (x) = -0.00169 0.03028
# Poissons Ratio (y) = -0.00131 0.12923
# Poissons Ratio (z) = 0.83329 4.58822
#
# Static dielectric constant tensor:
#      x y z
#    x 2.015280 0.000000 0.000000 
#    y 0.000000 1.932700 0.000000 
#    z 0.000000 0.000000 1.878640 
# 
# From -- ./inp_files/7879.got.cif
#   From: 2010.05.17/outbox.cif.g08.bks.cpg/sg62_4_cif.got.tgz:7879.got - 2010.06.03 15:25:27.
