data_PCOD9462035
_publ_section_title
;
Structure prediction by ZEFSAII (Michael W. Deem and Ramdas Pophale) SiO2 
 PCOD9462035
Probable space group: P N M A
;
_chemical_formula_sum "Si O2"
_cell_formula_units_Z 40
_cell_length_a 7.490895
_cell_length_b 14.513798
_cell_length_c 14.635533
_cell_angle_alpha 90.000000
_cell_angle_beta 90.000000
_cell_angle_gamma 90.000000
_cell_volume 1591.194714
_symmetry_space_group_name_H-M "P N M A"
_symmetry_group_IT_number 62
_symmetry_cell_setting 'orthorhombic'
loop_
_space_group_symop_operation_xyz
x,y,z
1/2-x,-y,1/2+z
1/2+x,1/2-y,1/2-z
-x,1/2+y,-z
-x,-y,-z
1/2+x,y,1/2-z
1/2-x,1/2+y,1/2+z
x,1/2-y,z
loop_
_atom_site_type_symbol
_atom_site_label
_atom_site_fract_x
_atom_site_fract_y
_atom_site_fract_z
Si Si1 0.575217 0.850500 0.595762
Si Si2 0.283532 0.000584 0.020953
Si Si3 0.601296 0.352404 0.234173
Si Si4 0.426605 0.950503 0.199385
Si Si5 0.763361 0.857181 0.124562
O O1 0.586642 0.750000 0.551386
O O2 0.394773 0.856203 0.655530
O O3 0.708697 0.852255 0.683993
O O4 0.662616 0.927284 0.533319
O O5 0.219141 0.096446 0.975203
O O6 0.500000 0.000000 0.000000
O O7 0.271078 0.967912 0.125650
O O8 0.528774 0.250000 0.207203
O O9 0.519450 0.449566 0.202958
O O10 0.559682 0.875151 0.156526
O O11 0.368511 0.914607 0.298057
O O12 0.807915 0.750000 0.125258
#
# Coordination Sequence:
#
# PCOD9462035 Si02
#       5
#     8   8   8   8   8
#     4  10  19  33  56  83 112 143 187 235 290 347
#     4  10  20  35  58  87 112 150 197 243 284 344
#     4  10  18  32  57  83 111 146 182 235 294 345
#     4  11  21  40  61  87 116 157 198 247 295 354
#     4  11  23  39  61  88 123 163 201 241 296 356
#
# _framework density 25.138345000000001
#
# number of rings (size 3 to 8) (size 9 to 14) (size 15 to 20)
#    0.000    1.600    6.000    0.600    0.000    4.800 
#    0.000    1.000    0.000    0.000    0.000    0.000 
#    0.000    0.000    0.000    0.000    0.000    0.000 
#
# Total GULP energy -223316.724903 kJ/mol
# GULP energy per Si atom -5582.918123 kJ/mol
# Density = 2.508113 g / cm^3
# Si number density = 25.138345 Si / 1000 Ang^3
#
#
#
# Elastic Constant Matrix: (Units=GPa)
#
#
# Indices 1 2 3 4 5 6 
#
# 1 52.5099 27.1125 22.2045 0.0000 0.0000 0.0000
# 2 27.1125 167.8977 24.6969 0.0000 0.0000 0.0000
# 3 22.2045 24.6969 123.3761 0.0000 0.0000 0.0000
# 4 0.0000 0.0000 0.0000 26.3572 0.0000 0.0000
# 5 0.0000 0.0000 0.0000 0.0000 33.7242 0.0000
# 6 0.0000 0.0000 0.0000 0.0000 0.0000 43.6924
#
#
#
# Elastic Compliance Matrix: (Units=1/GPa)
#
#
# Indices 1 2 3 4 5 6 
#
# 1 0.022046 -0.003067 -0.003354 0.000000 0.000000 0.000000
# 2 -0.003067 0.006563 -0.000762 0.000000 0.000000 0.000000
# 3 -0.003354 -0.000762 0.008861 0.000000 0.000000 0.000000
# 4 0.000000 0.000000 0.000000 0.037940 0.000000 0.000000
# 5 0.000000 0.000000 0.000000 0.000000 0.029652 0.000000
# 6 0.000000 0.000000 0.000000 0.000000 0.000000 0.022887
#
#
# Mechanical properties :
#
#
# Convention : Reuss Voigt Hill
#
# Bulk Modulus (GPa) = 43.27941 54.64573 48.96257
# Shear Modulus (GPa) = 33.32961 38.73940 36.03451
#
# Velocity S-wave (km/s) = 3.64517 3.92988 3.79020
# Velocity P-wave (km/s) = 5.91356 6.50977 6.21881
#
# Compressibility (1/GPa) = 0.02310568
#
# Stress axis : x y z
#
# Youngs Moduli (GPa) = 45.36043 152.36259 112.84893
#
# Poissons Ratio (x) = 0.46724 0.37847
# Poissons Ratio (y) = 0.13910 0.08598
# Poissons Ratio (z) = 0.15213 0.11608
#
# Static dielectric constant tensor:
#      x y z
#    x 2.358530 0.000000 0.000000 
#    y 0.000000 1.961300 0.000000 
#    z 0.000000 0.000000 2.096820 
# 
# From -- ./inp_files/16655.got.cif
#   From: 2010.05.17/outbox.cif.g08.bks.cpg/sg62_9_cif.got.tgz:16655.got - 2010.06.03 15:25:27.
