data_PCOD9462767
_publ_section_title
;
Structure prediction by ZEFSAII (Michael W. Deem and Ramdas Pophale) SiO2 
 PCOD9462767
Probable space group: P N M A
;
_chemical_formula_sum "Si O2"
_cell_formula_units_Z 64
_cell_length_a 22.491308
_cell_length_b 9.027976
_cell_length_c 17.348840
_cell_angle_alpha 90.000000
_cell_angle_beta 90.000000
_cell_angle_gamma 90.000000
_cell_volume 3522.699117
_symmetry_space_group_name_H-M "P N M A"
_symmetry_group_IT_number 62
_symmetry_cell_setting 'orthorhombic'
loop_
_space_group_symop_operation_xyz
x,y,z
1/2-x,-y,1/2+z
1/2+x,1/2-y,1/2-z
-x,1/2+y,-z
-x,-y,-z
1/2+x,y,1/2-z
1/2-x,1/2+y,1/2+z
x,1/2-y,z
loop_
_atom_site_type_symbol
_atom_site_label
_atom_site_fract_x
_atom_site_fract_y
_atom_site_fract_z
Si Si1 0.057347 0.425225 0.902457
Si Si2 0.929278 0.924935 0.920352
Si Si3 0.847929 0.427074 0.208836
Si Si4 0.530300 0.572574 0.150082
Si Si5 0.891768 0.571239 0.359507
Si Si6 0.215103 0.427568 0.334705
Si Si7 0.375348 0.073370 0.719469
Si Si8 0.122370 0.072210 0.463929
O O1 0.051507 0.250000 0.887286
O O2 0.099820 0.499896 0.840714
O O3 0.992527 0.498659 0.903067
O O4 0.082752 0.446281 0.988951
O O5 0.933416 0.750000 0.905819
O O6 0.882519 0.998925 0.863249
O O7 0.854460 0.250000 0.210256
O O8 0.852962 0.492102 0.294691
O O9 0.784429 0.463655 0.170444
O O10 0.533015 0.750000 0.140329
O O11 0.461288 0.530632 0.152914
O O12 0.566580 0.535844 0.227982
O O13 0.566252 0.498484 0.080117
O O14 0.886744 0.750000 0.351636
O O15 0.874859 0.529123 0.446805
O O16 0.208879 0.250000 0.324454
O O17 0.179849 0.509902 0.267006
O O18 0.180810 0.466696 0.413875
O O19 0.372000 0.250000 0.712792
O O20 0.115393 0.250000 0.461601
#
# Coordination Sequence:
#
# PCOD9462767 Si02
#       8
#     8   8   8   8   8   8   8   8
#     4  10  21  37  57  81 112 145 181 229 280 334
#     4  10  20  35  57  85 115 145 181 226 278 332
#     4  11  23  38  56  77 107 147 188 233 282 327
#     4   9  18  31  50  80 114 142 169 214 268 322
#     4  10  20  34  54  81 112 140 175 222 273 331
#     4   9  20  39  56  73 106 145 187 232 274 324
#     4  10  19  32  54  82 110 145 186 226 272 323
#     4   9  18  34  56  79 105 142 179 219 269 322
#
# _framework density 18.167887
#
# number of rings (size 3 to 8) (size 9 to 14) (size 15 to 20)
#    0.000    2.250    0.000    2.625    0.000    5.000 
#    2.250    0.000    0.000    0.000    0.000    0.000 
#    0.000    0.000    0.000    0.000    0.000    0.000 
#
# Total GULP energy -357308.820990 kJ/mol
# GULP energy per Si atom -5582.950328 kJ/mol
# Density = 1.812654 g / cm^3
# Si number density = 18.167887 Si / 1000 Ang^3
#
#
#
# Elastic Constant Matrix: (Units=GPa)
#
#
# Indices 1 2 3 4 5 6 
#
# 1 41.3876 12.7309 17.4959 0.0000 0.0000 0.0000
# 2 12.7309 30.5058 32.0208 0.0000 0.0000 0.0000
# 3 17.4959 32.0208 67.5184 0.0000 0.0000 0.0000
# 4 0.0000 0.0000 0.0000 29.9699 0.0000 0.0000
# 5 0.0000 0.0000 0.0000 0.0000 12.4981 0.0000
# 6 0.0000 0.0000 0.0000 0.0000 0.0000 23.3804
#
#
#
# Elastic Compliance Matrix: (Units=1/GPa)
#
#
# Indices 1 2 3 4 5 6 
#
# 1 0.028113 -0.008135 -0.003427 0.000000 0.000000 0.000000
# 2 -0.008135 0.067629 -0.029965 0.000000 0.000000 0.000000
# 3 -0.003427 -0.029965 0.029910 0.000000 0.000000 0.000000
# 4 0.000000 0.000000 0.000000 0.033367 0.000000 0.000000
# 5 0.000000 0.000000 0.000000 0.000000 0.080012 0.000000
# 6 0.000000 0.000000 0.000000 0.000000 0.000000 0.042771
#
#
# Mechanical properties :
#
#
# Convention : Reuss Voigt Hill
#
# Bulk Modulus (GPa) = 23.47569 29.32300 26.39935
# Shear Modulus (GPa) = 13.19071 18.31396 15.75234
#
# Velocity S-wave (km/s) = 2.69745 3.17841 2.94775
# Velocity P-wave (km/s) = 4.75933 5.44470 5.11351
#
# Compressibility (1/GPa) = 0.04259726
#
# Stress axis : x y z
#
# Youngs Moduli (GPa) = 35.57095 14.78659 33.43403
#
# Poissons Ratio (x) = 0.12030 0.11456
# Poissons Ratio (y) = 0.28939 1.00185
# Poissons Ratio (z) = 0.12189 0.44308
#
# Static dielectric constant tensor:
#      x y z
#    x 1.601080 0.000000 0.000000 
#    y 0.000000 1.600820 0.000000 
#    z 0.000000 0.000000 1.625500 
# 
# From -- ./inp_files/20824.got.cif
#   From: 2010.05.17/outbox.cif.g08.bks.cpg/sg62_11_cif.got.tgz:20824.got - 2010.06.03 15:25:27.
