data_PCOD9462426
_publ_section_title
;
Structure prediction by ZEFSAII (Michael W. Deem and Ramdas Pophale) SiO2 
 PCOD9462426
Probable space group: P N M A
;
_chemical_formula_sum "Si O2"
_cell_formula_units_Z 64
_cell_length_a 31.722427
_cell_length_b 7.538746
_cell_length_c 14.905736
_cell_angle_alpha 90.000000
_cell_angle_beta 90.000000
_cell_angle_gamma 90.000000
_cell_volume 3564.666812
_symmetry_space_group_name_H-M "P N M A"
_symmetry_group_IT_number 62
_symmetry_cell_setting 'orthorhombic'
loop_
_space_group_symop_operation_xyz
x,y,z
1/2-x,-y,1/2+z
1/2+x,1/2-y,1/2-z
-x,1/2+y,-z
-x,-y,-z
1/2+x,y,1/2-z
1/2-x,1/2+y,1/2+z
x,1/2-y,z
loop_
_atom_site_type_symbol
_atom_site_label
_atom_site_fract_x
_atom_site_fract_y
_atom_site_fract_z
Si Si1 0.631325 0.966975 0.818214
Si Si2 0.789641 0.961439 0.793984
Si Si3 0.329560 0.046019 0.993639
Si Si4 0.868723 0.549308 0.689291
Si Si5 0.954265 0.461395 0.391439
Si Si6 0.950999 0.964806 0.600217
Si Si7 0.767505 0.462221 0.996207
Si Si8 0.204963 0.533239 0.810254
O O1 0.631024 0.750000 0.815914
O O2 0.582972 0.027541 0.826966
O O3 0.662361 0.025959 0.739299
O O4 0.652881 0.019946 0.911986
O O5 0.790336 0.750000 0.776683
O O6 0.833178 0.034925 0.752847
O O7 0.747096 0.026246 0.743729
O O8 0.786500 0.989934 0.900026
O O9 0.343312 0.250000 0.982705
O O10 0.346381 0.944258 0.907860
O O11 0.279386 0.038597 0.997935
O O12 0.876410 0.750000 0.722429
O O13 0.914331 0.468634 0.666199
O O14 0.956579 0.250000 0.379072
O O15 0.942134 0.491447 0.495853
O O16 0.001752 0.530860 0.379286
O O17 0.950790 0.750000 0.605275
O O18 0.763715 0.250000 0.999935
O O19 0.791829 0.519924 0.085948
O O20 0.205125 0.750000 0.806849
#
# Coordination Sequence:
#
# PCOD9462426 Si02
#       8
#     8   8   8   8   8   8   8   8
#     4   9  16  27  44  64  86 118 151 179 215 263
#     4  10  19  33  48  63  89 123 154 183 224 270
#     4  11  19  28  46  68  92 122 156 186 219 265
#     4  10  19  31  45  64  93 127 154 183 226 269
#     4   9  16  27  43  65  90 116 148 184 221 268
#     4   9  17  27  42  65  92 118 146 182 225 269
#     4  11  21  33  47  66  91 118 153 193 229 263
#     4   9  17  30  46  63  86 117 148 181 223 265
#
# _framework density 17.953990999999998
#
# number of rings (size 3 to 8) (size 9 to 14) (size 15 to 20)
#    0.000    2.250    3.750    0.750    0.000    0.500 
#    0.000    0.000    0.000    0.000    0.000    0.875 
#    0.000    0.000    0.000    0.000    0.000    0.000 
#
# Total GULP energy -356913.966297 kJ/mol
# GULP energy per Si atom -5576.780723 kJ/mol
# Density = 1.791313 g / cm^3
# Si number density = 17.953991 Si / 1000 Ang^3
#
#
#
# Elastic Constant Matrix: (Units=GPa)
#
#
# Indices 1 2 3 4 5 6 
#
# 1 154.5952 -0.1398 61.4590 0.0000 0.0000 0.0000
# 2 -0.1398 45.7747 -8.0958 0.0000 0.0000 0.0000
# 3 61.4590 -8.0958 87.4717 0.0000 0.0000 0.0000
# 4 0.0000 0.0000 0.0000 294.1938 0.0000 0.0000
# 5 0.0000 0.0000 0.0000 0.0000 25.6234 0.0000
# 6 0.0000 0.0000 0.0000 0.0000 0.0000 4.5109
#
#
#
# Elastic Compliance Matrix: (Units=1/GPa)
#
#
# Indices 1 2 3 4 5 6 
#
# 1 0.009031 -0.001113 -0.006448 0.000000 0.000000 0.000000
# 2 -0.001113 0.022347 0.002850 0.000000 0.000000 0.000000
# 3 -0.006448 0.002850 0.016227 0.000000 0.000000 0.000000
# 4 0.000000 0.000000 0.000000 0.003399 0.000000 0.000000
# 5 0.000000 0.000000 0.000000 0.000000 0.039027 0.000000
# 6 0.000000 0.000000 0.000000 0.000000 0.000000 0.221686
#
#
# Mechanical properties :
#
#
# Convention : Reuss Voigt Hill
#
# Bulk Modulus (GPa) = 26.18995 43.80980 34.99988
# Shear Modulus (GPa) = 14.97604 80.50682 47.74143
#
# Velocity S-wave (km/s) = 2.89127 6.70358 5.16224
# Velocity P-wave (km/s) = 5.07591 9.18539 7.42079
#
# Compressibility (1/GPa) = 0.03818258
#
# Stress axis : x y z
#
# Youngs Moduli (GPa) = 110.72943 44.74910 61.62658
#
# Poissons Ratio (x) = 0.04980 0.39739
# Poissons Ratio (y) = 0.12323 -0.17565
# Poissons Ratio (z) = 0.71402 -0.12754
#
# Static dielectric constant tensor:
#      x y z
#    x 1.657130 0.000000 0.000000 
#    y 0.000000 1.682400 0.000000 
#    z 0.000000 0.000000 1.584230 
# 
# From -- ./inp_files/21216.got.cif
#   From: 2010.05.17/outbox.cif.g08.bks.cpg/sg62_11_cif.got.tgz:21216.got - 2010.06.03 15:25:27.
