data_PCOD9462923
_publ_section_title
;
Structure prediction by ZEFSAII (Michael W. Deem and Ramdas Pophale) SiO2 
 PCOD9462923
Probable space group: P N M A
;
_chemical_formula_sum "Si O2"
_cell_formula_units_Z 40
_cell_length_a 11.137636
_cell_length_b 15.404005
_cell_length_c 9.588494
_cell_angle_alpha 90.000000
_cell_angle_beta 90.000000
_cell_angle_gamma 90.000000
_cell_volume 1645.042308
_symmetry_space_group_name_H-M "P N M A"
_symmetry_group_IT_number 62
_symmetry_cell_setting 'orthorhombic'
loop_
_space_group_symop_operation_xyz
x,y,z
1/2-x,-y,1/2+z
1/2+x,1/2-y,1/2-z
-x,1/2+y,-z
-x,-y,-z
1/2+x,y,1/2-z
1/2-x,1/2+y,1/2+z
x,1/2-y,z
loop_
_atom_site_type_symbol
_atom_site_label
_atom_site_fract_x
_atom_site_fract_y
_atom_site_fract_z
Si Si1 0.593062 0.922041 0.484559
Si Si2 0.640203 0.466959 0.960754
Si Si3 0.772515 0.848277 0.683523
Si Si4 0.299263 0.152926 0.004658
Si Si5 0.585853 0.346208 0.716002
O O1 0.717136 0.958535 0.422948
O O2 0.640861 0.879264 0.627976
O O3 0.529133 0.854194 0.383754
O O4 0.500000 0.000000 0.500000
O O5 0.617782 0.568071 0.986352
O O6 0.580119 0.420227 0.831088
O O7 0.637864 0.412784 0.104595
O O8 0.792458 0.750000 0.634333
O O9 0.773015 0.848280 0.849159
O O10 0.353890 0.250000 0.992853
O O11 0.203971 0.141860 0.880055
O O12 0.593217 0.250000 0.778494
#
# Coordination Sequence:
#
# PCOD9462923 Si02
#       5
#     8   8   8   8   8
#     4  10  19  35  58  83 114 150 191 227 283 344
#     4  10  20  35  57  81 114 149 190 235 284 340
#     4   9  19  34  57  80 111 148 184 228 279 341
#     4  10  19  33  54  80 109 147 190 232 280 337
#     4  11  21  34  59  88 114 148 192 239 289 341
#
# _framework density 24.315484000000001
#
# number of rings (size 3 to 8) (size 9 to 14) (size 15 to 20)
#    1.200    0.800    2.000    3.600    0.000    0.000 
#    0.000    0.000    4.400    3.600    0.000    0.000 
#    0.000    0.000    0.000    0.000    0.000    0.000 
#
# Total GULP energy -223544.285383 kJ/mol
# GULP energy per Si atom -5588.607135 kJ/mol
# Density = 2.426014 g / cm^3
# Si number density = 24.315484 Si / 1000 Ang^3
#
#
#
# Elastic Constant Matrix: (Units=GPa)
#
#
# Indices 1 2 3 4 5 6 
#
# 1 59.6712 16.0468 36.0585 0.0000 0.0000 0.0000
# 2 16.0468 206.1303 62.4805 0.0000 0.0000 0.0000
# 3 36.0585 62.4805 111.8971 0.0000 0.0000 0.0000
# 4 0.0000 0.0000 0.0000 18.3966 0.0000 0.0000
# 5 0.0000 0.0000 0.0000 0.0000 29.0698 0.0000
# 6 0.0000 0.0000 0.0000 0.0000 0.0000 11.8020
#
#
#
# Elastic Compliance Matrix: (Units=1/GPa)
#
#
# Indices 1 2 3 4 5 6 
#
# 1 0.020853 0.000498 -0.006998 0.000000 0.000000 0.000000
# 2 0.000498 0.005852 -0.003428 0.000000 0.000000 0.000000
# 3 -0.006998 -0.003428 0.013106 0.000000 0.000000 0.000000
# 4 0.000000 0.000000 0.000000 0.054358 0.000000 0.000000
# 5 0.000000 0.000000 0.000000 0.000000 0.034400 0.000000
# 6 0.000000 0.000000 0.000000 0.000000 0.000000 0.084731
#
#
# Mechanical properties :
#
#
# Convention : Reuss Voigt Hill
#
# Bulk Modulus (GPa) = 50.11285 67.43003 58.77144
# Shear Modulus (GPa) = 20.85008 29.39454 25.12231
#
# Velocity S-wave (km/s) = 2.93146 3.48067 3.21780
# Velocity P-wave (km/s) = 5.66675 6.62910 6.16673
#
# Compressibility (1/GPa) = 0.01995496
#
# Stress axis : x y z
#
# Youngs Moduli (GPa) = 47.95385 170.89516 76.30209
#
# Poissons Ratio (x) = -0.08506 0.53395
# Poissons Ratio (y) = -0.02387 0.26154
# Poissons Ratio (z) = 0.33558 0.58579
#
# Static dielectric constant tensor:
#      x y z
#    x 1.952170 0.000000 0.000000 
#    y 0.000000 1.971340 0.000000 
#    z 0.000000 0.000000 1.884690 
# 
# From -- ./inp_files/13081.got.cif
#   From: 2010.05.17/outbox.cif.g08.bks.cpg/sg62_7_cif.got.tgz:13081.got - 2010.06.03 15:25:27.
