data_PCOD9462225
_publ_section_title
;
Structure prediction by ZEFSAII (Michael W. Deem and Ramdas Pophale) SiO2 
 PCOD9462225
Probable space group: P N M A
;
_chemical_formula_sum "Si O2"
_cell_formula_units_Z 36
_cell_length_a 12.736248
_cell_length_b 19.433380
_cell_length_c 5.955143
_cell_angle_alpha 90.000000
_cell_angle_beta 90.000000
_cell_angle_gamma 90.000000
_cell_volume 1473.947601
_symmetry_space_group_name_H-M "P N M A"
_symmetry_group_IT_number 62
_symmetry_cell_setting 'orthorhombic'
loop_
_space_group_symop_operation_xyz
x,y,z
1/2-x,-y,1/2+z
1/2+x,1/2-y,1/2-z
-x,1/2+y,-z
-x,-y,-z
1/2+x,y,1/2-z
1/2-x,1/2+y,1/2+z
x,1/2-y,z
loop_
_atom_site_type_symbol
_atom_site_label
_atom_site_fract_x
_atom_site_fract_y
_atom_site_fract_z
Si Si1 0.287606 0.750000 0.865359
Si Si2 0.534820 0.103531 0.442290
Si Si3 0.911198 0.019417 0.677899
Si Si4 0.156389 0.865151 0.603763
Si Si5 0.850597 0.250000 0.757539
Si Si6 0.949686 0.750000 0.962018
O O1 0.236362 0.819117 0.754501
O O2 0.408930 0.750000 0.794608
O O3 0.262525 0.750000 0.126075
O O4 0.470590 0.065871 0.637713
O O5 0.445499 0.123689 0.260229
O O6 0.585528 0.173665 0.537394
O O7 0.612618 0.050791 0.314334
O O8 0.826870 0.062462 0.531978
O O9 0.000000 0.000000 0.500000
O O10 0.132005 0.814696 0.398006
O O11 0.930078 0.250000 0.965160
#
# Coordination Sequence:
#
# PCOD9462225 Si02
#       6
#     4   8   8   8   4   4
#     4  11  23  35  57  89 121 161 213 263 323 388
#     4  10  19  36  61  89 116 159 206 261 316 391
#     4   9  18  32  62  89 114 157 207 250 324 387
#     4  10  18  37  59  81 117 160 206 255 323 377
#     4  11  20  39  60  86 120 164 205 270 326 381
#     4  12  21  38  61  85 127 159 216 267 325 383
#
# _framework density 24.424204
#
# number of rings (size 3 to 8) (size 9 to 14) (size 15 to 20)
#    0.000    1.778    4.444    0.667    0.000    0.000 
#    8.000    0.000   19.556    0.000    0.000    0.000 
#    0.000    0.000    0.000    0.000    0.000    0.000 
#
# Total GULP energy -200576.031627 kJ/mol
# GULP energy per Si atom -5571.556434 kJ/mol
# Density = 2.436861 g / cm^3
# Si number density = 24.424204 Si / 1000 Ang^3
#
#
#
# Elastic Constant Matrix: (Units=GPa)
#
#
# Indices 1 2 3 4 5 6 
#
# 1 58.9050 14.4159 50.7414 0.0000 0.0000 0.0000
# 2 14.4159 180.7501 47.7053 0.0000 0.0000 0.0000
# 3 50.7414 47.7053 140.1821 0.0000 0.0000 0.0000
# 4 0.0000 0.0000 0.0000 60.1163 0.0000 0.0000
# 5 0.0000 0.0000 0.0000 0.0000 27.8835 0.0000
# 6 0.0000 0.0000 0.0000 0.0000 0.0000 12.6040
#
#
#
# Elastic Compliance Matrix: (Units=1/GPa)
#
#
# Indices 1 2 3 4 5 6 
#
# 1 0.024698 0.000428 -0.009086 0.000000 0.000000 0.000000
# 2 0.000428 0.006086 -0.002226 0.000000 0.000000 0.000000
# 3 -0.009086 -0.002226 0.011180 0.000000 0.000000 0.000000
# 4 0.000000 0.000000 0.000000 0.016634 0.000000 0.000000
# 5 0.000000 0.000000 0.000000 0.000000 0.035863 0.000000
# 6 0.000000 0.000000 0.000000 0.000000 0.000000 0.079340
#
#
# Mechanical properties :
#
#
# Convention : Reuss Voigt Hill
#
# Bulk Modulus (GPa) = 49.51284 67.28471 58.39877
# Shear Modulus (GPa) = 24.71566 37.91907 31.31736
#
# Velocity S-wave (km/s) = 3.18454 3.94448 3.58470
# Velocity P-wave (km/s) = 5.81702 6.95366 6.41058
#
# Compressibility (1/GPa) = 0.02019678
#
# Stress axis : x y z
#
# Youngs Moduli (GPa) = 40.48881 164.31493 89.44682
#
# Poissons Ratio (x) = -0.07035 0.81268
# Poissons Ratio (y) = -0.01733 0.19911
# Poissons Ratio (z) = 0.36787 0.36577
#
# Static dielectric constant tensor:
#      x y z
#    x 1.997270 0.000000 0.000000 
#    y 0.000000 2.063570 0.000000 
#    z 0.000000 0.000000 1.888700 
# 
# From -- ./inp_files/1004.got.cif
#   From: 2010.05.17/outbox.cif.g08.bks.cpg/sg62_1_cif.got.tgz:1004.got - 2010.06.03 15:25:27.
