data_PCOD9462006
_publ_section_title
;
Structure prediction by ZEFSAII (Michael W. Deem and Ramdas Pophale) SiO2 
 PCOD9462006
Probable space group: P N M A
;
_chemical_formula_sum "Si O2"
_cell_formula_units_Z 64
_cell_length_a 21.050096
_cell_length_b 7.518909
_cell_length_c 20.325100
_cell_angle_alpha 90.000000
_cell_angle_beta 90.000000
_cell_angle_gamma 90.000000
_cell_volume 3216.929923
_symmetry_space_group_name_H-M "P N M A"
_symmetry_group_IT_number 62
_symmetry_cell_setting 'orthorhombic'
loop_
_space_group_symop_operation_xyz
x,y,z
1/2-x,-y,1/2+z
1/2+x,1/2-y,1/2-z
-x,1/2+y,-z
-x,-y,-z
1/2+x,y,1/2-z
1/2-x,1/2+y,1/2+z
x,1/2-y,z
loop_
_atom_site_type_symbol
_atom_site_label
_atom_site_fract_x
_atom_site_fract_y
_atom_site_fract_z
Si Si1 0.085246 0.458966 0.563692
Si Si2 0.085870 0.545150 0.933528
Si Si3 0.273895 0.531570 0.068552
Si Si4 0.446914 0.466240 0.912766
Si Si5 0.274797 0.464002 0.425114
Si Si6 0.830876 0.036775 0.827213
Si Si7 0.665594 0.537390 0.179208
Si Si8 0.446155 0.537882 0.580747
O O1 0.086435 0.250000 0.579581
O O2 0.154305 0.530699 0.582158
O O3 0.077394 0.478303 0.484909
O O4 0.019593 0.530850 0.593876
O O5 0.086187 0.750000 0.911250
O O6 0.153720 0.466024 0.913968
O O7 0.018176 0.468551 0.910541
O O8 0.082062 0.540411 0.013156
O O9 0.274401 0.750000 0.067920
O O10 0.223562 0.471585 0.123033
O O11 0.252058 0.474010 0.995671
O O12 0.447735 0.250000 0.912600
O O13 0.397295 0.529561 0.858305
O O14 0.279465 0.250000 0.430239
O O15 0.225872 0.504868 0.367323
O O16 0.823543 0.250000 0.824880
O O17 0.826433 0.967474 0.753004
O O18 0.898898 0.998828 0.859880
O O19 0.657904 0.750000 0.184348
O O20 0.449854 0.750000 0.570152
#
# Coordination Sequence:
#
# PCOD9462006 Si02
#       8
#     8   8   8   8   8   8   8   8
#     4   9  16  28  48  71  92 118 159 201 240 288
#     4   9  18  33  52  75 103 132 165 209 263 308
#     4   9  16  29  51  73  91 126 172 205 240 297
#     4   9  17  29  45  69  98 122 152 199 249 290
#     4  10  18  32  54  75  98 132 171 210 251 302
#     4  10  20  36  52  69 103 142 172 203 255 315
#     4  10  21  34  49  73 105 138 167 208 259 304
#     4  10  19  31  51  78 102 128 168 215 254 299
#
# _framework density 19.894743999999999
#
# number of rings (size 3 to 8) (size 9 to 14) (size 15 to 20)
#    0.000    2.500    2.500    0.375    0.000    1.500 
#    0.000    1.875    0.000    3.000    0.000    0.000 
#    0.000    0.000    0.000    0.000    0.000    0.000 
#
# Total GULP energy -357024.395249 kJ/mol
# GULP energy per Si atom -5578.506176 kJ/mol
# Density = 1.984946 g / cm^3
# Si number density = 19.894744 Si / 1000 Ang^3
#
#
#
# Elastic Constant Matrix: (Units=GPa)
#
#
# Indices 1 2 3 4 5 6 
#
# 1 207.2347 -2.3065 104.6759 0.0000 0.0000 0.0000
# 2 -2.3065 50.1154 -6.7469 0.0000 0.0000 0.0000
# 3 104.6759 -6.7469 124.7044 0.0000 0.0000 0.0000
# 4 0.0000 0.0000 0.0000 13.5974 0.0000 0.0000
# 5 0.0000 0.0000 0.0000 0.0000 23.1507 0.0000
# 6 0.0000 0.0000 0.0000 0.0000 0.0000 6.9605
#
#
#
# Elastic Compliance Matrix: (Units=1/GPa)
#
#
# Indices 1 2 3 4 5 6 
#
# 1 0.008393 -0.000566 -0.007076 0.000000 0.000000 0.000000
# 2 -0.000566 0.020139 0.001565 0.000000 0.000000 0.000000
# 3 -0.007076 0.001565 0.014043 0.000000 0.000000 0.000000
# 4 0.000000 0.000000 0.000000 0.073544 0.000000 0.000000
# 5 0.000000 0.000000 0.000000 0.000000 0.043195 0.000000
# 6 0.000000 0.000000 0.000000 0.000000 0.000000 0.143668
#
#
# Mechanical properties :
#
#
# Convention : Reuss Voigt Hill
#
# Bulk Modulus (GPa) = 32.87272 63.69994 48.28633
# Shear Modulus (GPa) = 15.37155 27.83717 21.60436
#
# Velocity S-wave (km/s) = 2.78266 3.74468 3.29892
# Velocity P-wave (km/s) = 5.18493 7.12634 6.23170
#
# Compressibility (1/GPa) = 0.03042036
#
# Stress axis : x y z
#
# Youngs Moduli (GPa) = 119.14401 49.65597 71.20967
#
# Poissons Ratio (x) = 0.02812 0.50387
# Poissons Ratio (y) = 0.06747 -0.11144
# Poissons Ratio (z) = 0.84304 -0.07771
#
# Static dielectric constant tensor:
#      x y z
#    x 1.734030 0.000000 0.000000 
#    y 0.000000 1.751180 0.000000 
#    z 0.000000 0.000000 1.652870 
# 
# From -- ./inp_files/27878.got.cif
#   From: 2010.05.17/outbox.cif.g08.bks.cpg/sg62_14_cif.got.tgz:27878.got - 2010.06.03 15:25:27.
