data_PCOD9462535
_publ_section_title
;
Structure prediction by ZEFSAII (Michael W. Deem and Ramdas Pophale) SiO2 
 PCOD9462535
Probable space group: P N M A
;
_chemical_formula_sum "Si O2"
_cell_formula_units_Z 64
_cell_length_a 21.934325
_cell_length_b 13.069434
_cell_length_c 12.483775
_cell_angle_alpha 90.000000
_cell_angle_beta 90.000000
_cell_angle_gamma 90.000000
_cell_volume 3578.713954
_symmetry_space_group_name_H-M "P N M A"
_symmetry_group_IT_number 62
_symmetry_cell_setting 'orthorhombic'
loop_
_space_group_symop_operation_xyz
x,y,z
1/2-x,-y,1/2+z
1/2+x,1/2-y,1/2-z
-x,1/2+y,-z
-x,-y,-z
1/2+x,y,1/2-z
1/2-x,1/2+y,1/2+z
x,1/2-y,z
loop_
_atom_site_type_symbol
_atom_site_label
_atom_site_fract_x
_atom_site_fract_y
_atom_site_fract_z
Si Si1 0.940353 0.627951 0.841854
Si Si2 0.422088 0.007368 0.084323
Si Si3 0.960369 0.371717 0.979221
Si Si4 0.949433 0.871441 0.209958
Si Si5 0.181295 0.629365 0.706068
Si Si6 0.196234 0.369033 0.077852
Si Si7 0.352779 0.492684 0.415685
Si Si8 0.458420 0.872176 0.903459
O O1 0.947734 0.750000 0.840315
O O2 0.989067 0.594871 0.931765
O O3 0.870564 0.609980 0.873200
O O4 0.952416 0.595599 0.720565
O O5 0.363428 0.066410 0.127977
O O6 0.473962 0.092192 0.062142
O O7 0.446524 0.932575 0.178947
O O8 0.414109 0.936541 0.980353
O O9 0.951382 0.250000 0.992448
O O10 0.989503 0.385385 0.861425
O O11 0.897948 0.427949 0.008048
O O12 0.940945 0.750000 0.225251
O O13 0.895004 0.919779 0.138845
O O14 0.165365 0.750000 0.706950
O O15 0.249836 0.618662 0.662591
O O16 0.171665 0.580831 0.822775
O O17 0.197116 0.250000 0.042022
O O18 0.199457 0.449033 0.981024
O O19 0.450258 0.750000 0.912875
#
# Coordination Sequence:
#
# PCOD9462535 Si02
#       8
#     8   8   8   8   8   8   8   8
#     4   9  17  31  52  79 108 140 177 220 274 326
#     4  10  21  34  54  79 107 150 188 222 281 332
#     4  10  19  31  53  86 116 140 171 227 292 343
#     4  10  19  31  50  80 114 137 171 224 282 341
#     4  10  22  39  56  78 108 146 191 231 269 323
#     4  10  21  36  55  78 106 142 183 226 269 322
#     4  11  20  32  57  82 107 141 181 224 281 335
#     4  10  20  34  53  79 111 143 183 232 274 326
#
# _framework density 17.883519
#
# number of rings (size 3 to 8) (size 9 to 14) (size 15 to 20)
#    0.000    2.000    1.250    3.375    1.750    2.000 
#    0.000    0.000    0.000    8.250    0.000    0.000 
#    0.000    0.000    0.000    0.000    0.000    0.000 
#
# Total GULP energy -357027.662675 kJ/mol
# GULP energy per Si atom -5578.557229 kJ/mol
# Density = 1.784282 g / cm^3
# Si number density = 17.883519 Si / 1000 Ang^3
#
#
#
# Elastic Constant Matrix: (Units=GPa)
#
#
# Indices 1 2 3 4 5 6 
#
# 1 56.6142 41.5949 28.9581 0.0000 0.0000 0.0000
# 2 41.5949 114.3224 41.9729 0.0000 0.0000 0.0000
# 3 28.9581 41.9729 87.0055 0.0000 0.0000 0.0000
# 4 0.0000 0.0000 0.0000 32.1056 0.0000 0.0000
# 5 0.0000 0.0000 0.0000 0.0000 20.8051 0.0000
# 6 0.0000 0.0000 0.0000 0.0000 0.0000 25.7499
#
#
#
# Elastic Compliance Matrix: (Units=1/GPa)
#
#
# Indices 1 2 3 4 5 6 
#
# 1 0.025731 -0.007556 -0.004919 0.000000 0.000000 0.000000
# 2 -0.007556 0.012849 -0.003684 0.000000 0.000000 0.000000
# 3 -0.004919 -0.003684 0.014908 0.000000 0.000000 0.000000
# 4 0.000000 0.000000 0.000000 0.031147 0.000000 0.000000
# 5 0.000000 0.000000 0.000000 0.000000 0.048065 0.000000
# 6 0.000000 0.000000 0.000000 0.000000 0.000000 0.038835
#
#
# Mechanical properties :
#
#
# Convention : Reuss Voigt Hill
#
# Bulk Modulus (GPa) = 47.23574 53.66603 50.45089
# Shear Modulus (GPa) = 23.70698 25.42653 24.56676
#
# Velocity S-wave (km/s) = 3.64487 3.77475 3.71038
# Velocity P-wave (km/s) = 6.64709 7.00515 6.82847
#
# Compressibility (1/GPa) = 0.02117041
#
# Stress axis : x y z
#
# Youngs Moduli (GPa) = 38.86391 77.82863 67.07932
#
# Poissons Ratio (x) = 0.58807 0.32996
# Poissons Ratio (y) = 0.29365 0.24709
# Poissons Ratio (z) = 0.19117 0.28669
#
# Static dielectric constant tensor:
#      x y z
#    x 1.589160 0.000000 0.000000 
#    y 0.000000 1.633590 0.000000 
#    z 0.000000 0.000000 1.638020 
# 
# From -- ./inp_files/15307.got.cif
#   From: 2010.05.17/outbox.cif.g08.bks.cpg/sg62_8_cif.got.tgz:15307.got - 2010.06.03 15:25:27.
