data_PCOD9462073
_publ_section_title
;
Structure prediction by ZEFSAII (Michael W. Deem and Ramdas Pophale) SiO2 
 PCOD9462073
Probable space group: P N M A
;
_chemical_formula_sum "Si O2"
_cell_formula_units_Z 52
_cell_length_a 19.209746
_cell_length_b 18.422685
_cell_length_c 6.911102
_cell_angle_alpha 90.000000
_cell_angle_beta 90.000000
_cell_angle_gamma 90.000000
_cell_volume 2445.805130
_symmetry_space_group_name_H-M "P N M A"
_symmetry_group_IT_number 62
_symmetry_cell_setting 'orthorhombic'
loop_
_space_group_symop_operation_xyz
x,y,z
1/2-x,-y,1/2+z
1/2+x,1/2-y,1/2-z
-x,1/2+y,-z
-x,-y,-z
1/2+x,y,1/2-z
1/2-x,1/2+y,1/2+z
x,1/2-y,z
loop_
_atom_site_type_symbol
_atom_site_label
_atom_site_fract_x
_atom_site_fract_y
_atom_site_fract_z
Si Si1 0.287661 0.750000 0.078908
Si Si2 0.645795 0.750000 0.657167
Si Si3 0.687204 0.750000 0.109262
Si Si4 0.274400 0.499727 0.266146
Si Si5 0.035453 0.480711 0.295277
Si Si6 0.601140 0.588111 0.677894
Si Si7 0.169568 0.401692 0.415641
Si Si8 0.641146 0.594758 0.134253
O O1 0.212955 0.750000 0.976414
O O2 0.324436 0.678023 0.001215
O O3 0.265958 0.750000 0.305679
O O4 0.606337 0.673117 0.623596
O O5 0.676432 0.750000 0.877690
O O6 0.649760 0.677987 0.183949
O O7 0.337368 0.466395 0.394848
O O8 0.226146 0.426501 0.253326
O O9 0.216488 0.557715 0.335687
O O10 0.311162 0.544321 0.093943
O O11 0.093958 0.420169 0.335516
O O12 0.081407 0.552173 0.248640
O O13 0.000000 0.500000 0.500000
O O14 0.974048 0.449248 0.164269
O O15 0.620100 0.590633 0.908890
#
# Coordination Sequence:
#
# PCOD9462073 Si02
#       8
#     4   4   4   8   8   8   8   8
#     4  12  22  35  57  93 121 145 195 254 292 341
#     4  10  22  35  55  89 113 155 194 238 305 347
#     4  10  20  34  54  82 120 150 191 242 301 348
#     4  11  17  32  53  80 107 141 184 232 281 336
#     4   9  17  33  54  80 108 145 195 234 278 353
#     4  10  18  33  55  79 108 149 190 234 283 354
#     4  11  22  33  57  86 114 146 192 244 290 343
#     4   9  18  30  51  79 107 143 186 235 287 333
#
# _framework density 21.260894
#
# number of rings (size 3 to 8) (size 9 to 14) (size 15 to 20)
#    0.000    1.846    7.692    0.000    0.000    0.615 
#    0.000    0.769    0.000    8.308    0.000    6.462 
#    0.000    0.000    0.000    0.000    0.000    0.000 
#
# Total GULP energy -289651.949720 kJ/mol
# GULP energy per Si atom -5570.229802 kJ/mol
# Density = 2.121250 g / cm^3
# Si number density = 21.260894 Si / 1000 Ang^3
#
#
#
# Elastic Constant Matrix: (Units=GPa)
#
#
# Indices 1 2 3 4 5 6 
#
# 1 136.0008 50.2138 8.5121 0.0000 0.0000 0.0000
# 2 50.2138 186.9158 6.8673 0.0000 0.0000 0.0000
# 3 8.5121 6.8673 57.7892 0.0000 0.0000 0.0000
# 4 0.0000 0.0000 0.0000 19.9934 0.0000 0.0000
# 5 0.0000 0.0000 0.0000 0.0000 29.0045 0.0000
# 6 0.0000 0.0000 0.0000 0.0000 0.0000 21.4885
#
#
#
# Elastic Compliance Matrix: (Units=1/GPa)
#
#
# Indices 1 2 3 4 5 6 
#
# 1 0.008214 -0.002172 -0.000952 0.000000 0.000000 0.000000
# 2 -0.002172 0.005948 -0.000387 0.000000 0.000000 0.000000
# 3 -0.000952 -0.000387 0.017490 0.000000 0.000000 0.000000
# 4 0.000000 0.000000 0.000000 0.050016 0.000000 0.000000
# 5 0.000000 0.000000 0.000000 0.000000 0.034477 0.000000
# 6 0.000000 0.000000 0.000000 0.000000 0.000000 0.046536
#
#
# Mechanical properties :
#
#
# Convention : Reuss Voigt Hill
#
# Bulk Modulus (GPa) = 40.59858 56.87693 48.73775
# Shear Modulus (GPa) = 28.10344 35.10480 31.60412
#
# Velocity S-wave (km/s) = 3.63965 4.06784 3.85969
# Velocity P-wave (km/s) = 6.06627 6.99092 6.54495
#
# Compressibility (1/GPa) = 0.02463141
#
# Stress axis : x y z
#
# Youngs Moduli (GPa) = 121.73859 168.13374 57.17407
#
# Poissons Ratio (x) = 0.36515 0.05442
# Poissons Ratio (y) = 0.26439 0.02212
# Poissons Ratio (z) = 0.11588 0.06505
#
# Static dielectric constant tensor:
#      x y z
#    x 1.770480 0.000000 0.000000 
#    y 0.000000 1.778740 0.000000 
#    z 0.000000 0.000000 1.971600 
# 
# From -- ./inp_files/7943.got.cif
#   From: 2010.05.17/outbox.cif.g08.bks.cpg/sg62_4_cif.got.tgz:7943.got - 2010.06.03 15:25:27.
