data_PCOD9462108
_publ_section_title
;
Structure prediction by ZEFSAII (Michael W. Deem and Ramdas Pophale) SiO2 
 PCOD9462108
Probable space group: P N M A
;
_chemical_formula_sum "Si O2"
_cell_formula_units_Z 60
_cell_length_a 18.612300
_cell_length_b 9.452913
_cell_length_c 14.711120
_cell_angle_alpha 90.000000
_cell_angle_beta 90.000000
_cell_angle_gamma 90.000000
_cell_volume 2588.281111
_symmetry_space_group_name_H-M "P N M A"
_symmetry_group_IT_number 62
_symmetry_cell_setting 'orthorhombic'
loop_
_space_group_symop_operation_xyz
x,y,z
1/2-x,-y,1/2+z
1/2+x,1/2-y,1/2-z
-x,1/2+y,-z
-x,-y,-z
1/2+x,y,1/2-z
1/2-x,1/2+y,1/2+z
x,1/2-y,z
loop_
_atom_site_type_symbol
_atom_site_label
_atom_site_fract_x
_atom_site_fract_y
_atom_site_fract_z
Si Si1 0.026459 0.250000 0.031858
Si Si2 0.009154 0.535517 0.129956
Si Si3 0.070505 0.914345 0.720187
Si Si4 0.206936 0.082167 0.949124
Si Si5 0.833755 0.088576 0.880520
Si Si6 0.726705 0.416550 0.216077
Si Si7 0.423570 0.594097 0.893090
Si Si8 0.137175 0.587236 0.544067
O O1 0.028023 0.373696 0.108749
O O2 0.015533 0.128548 0.953777
O O3 0.085985 0.595897 0.160579
O O4 0.942887 0.521837 0.198526
O O5 0.084904 0.750000 0.747699
O O6 0.128664 0.965365 0.646797
O O7 0.994333 0.917733 0.667020
O O8 0.184679 0.250000 0.944092
O O9 0.284369 0.079470 0.000079
O O10 0.160752 0.989683 0.020967
O O11 0.221056 0.001690 0.853686
O O12 0.807454 0.250000 0.893249
O O13 0.786519 0.996747 0.811019
O O14 0.746557 0.250000 0.227618
O O15 0.648311 0.418219 0.167694
O O16 0.422069 0.750000 0.934888
O O17 0.416261 0.485094 0.974198
O O18 0.116704 0.750000 0.551276
#
# Coordination Sequence:
#
# PCOD9462108 Si02
#       8
#     4   8   8   8   8   8   8   8
#     4  10  24  42  62  86 124 152 196 260 326 362
#     4  11  22  42  65  92 120 162 207 266 319 377
#     4  10  18  33  59  87 119 158 202 239 301 378
#     4  10  22  40  62  89 128 169 210 268 323 377
#     4  12  24  40  67  95 123 164 222 263 319 385
#     4  10  20  37  63  93 123 159 207 264 313 377
#     4   9  17  30  52  87 120 154 191 240 294 357
#     4   9  19  35  54  83 124 163 192 237 306 361
#
# _framework density 23.181407
#
# number of rings (size 3 to 8) (size 9 to 14) (size 15 to 20)
#    0.000    1.867    2.667    1.600    1.867    1.067 
#    2.400    2.667    2.933    0.000    0.000    0.000 
#    0.000    0.000    0.000    0.000    0.000    0.000 
#
# Total GULP energy -334223.232616 kJ/mol
# GULP energy per Si atom -5570.387210 kJ/mol
# Density = 2.312865 g / cm^3
# Si number density = 23.181407 Si / 1000 Ang^3
#
#
#
# Elastic Constant Matrix: (Units=GPa)
#
#
# Indices 1 2 3 4 5 6 
#
# 1 91.7479 15.1636 11.5700 0.0000 0.0000 0.0000
# 2 15.1636 151.0819 49.5954 0.0000 0.0000 0.0000
# 3 11.5700 49.5954 71.2436 0.0000 0.0000 0.0000
# 4 0.0000 0.0000 0.0000 40.0407 0.0000 0.0000
# 5 0.0000 0.0000 0.0000 0.0000 25.7107 0.0000
# 6 0.0000 0.0000 0.0000 0.0000 0.0000 10.8967
#
#
#
# Elastic Compliance Matrix: (Units=1/GPa)
#
#
# Indices 1 2 3 4 5 6 
#
# 1 0.011181 -0.000682 -0.001341 0.000000 0.000000 0.000000
# 2 -0.000682 0.008621 -0.005891 0.000000 0.000000 0.000000
# 3 -0.001341 -0.005891 0.018355 0.000000 0.000000 0.000000
# 4 0.000000 0.000000 0.000000 0.024975 0.000000 0.000000
# 5 0.000000 0.000000 0.000000 0.000000 0.038894 0.000000
# 6 0.000000 0.000000 0.000000 0.000000 0.000000 0.091771
#
#
# Mechanical properties :
#
#
# Convention : Reuss Voigt Hill
#
# Bulk Modulus (GPa) = 44.78346 51.85905 48.32126
# Shear Modulus (GPa) = 23.03428 31.17924 27.10676
#
# Velocity S-wave (km/s) = 3.15565 3.67142 3.42326
# Velocity P-wave (km/s) = 5.71298 6.35547 6.04277
#
# Compressibility (1/GPa) = 0.02232967
#
# Stress axis : x y z
#
# Youngs Moduli (GPa) = 89.43528 115.99418 54.48135
#
# Poissons Ratio (x) = 0.07911 0.07306
# Poissons Ratio (y) = 0.06099 0.32094
# Poissons Ratio (z) = 0.11994 0.68329
#
# Static dielectric constant tensor:
#      x y z
#    x 1.961510 0.000000 0.000000 
#    y 0.000000 1.801780 0.000000 
#    z 0.000000 0.000000 1.881890 
# 
# From -- ./inp_files/20706.got.cif
#   From: 2010.05.17/outbox.cif.g08.bks.cpg/sg62_11_cif.got.tgz:20706.got - 2010.06.03 15:25:27.
