data_PCOD9462381
_publ_section_title
;
Structure prediction by ZEFSAII (Michael W. Deem and Ramdas Pophale) SiO2 
 PCOD9462381
Probable space group: P N M A
;
_chemical_formula_sum "Si O2"
_cell_formula_units_Z 64
_cell_length_a 30.858086
_cell_length_b 8.758583
_cell_length_c 14.655073
_cell_angle_alpha 90.000000
_cell_angle_beta 90.000000
_cell_angle_gamma 90.000000
_cell_volume 3960.872120
_symmetry_space_group_name_H-M "P N M A"
_symmetry_group_IT_number 62
_symmetry_cell_setting 'orthorhombic'
loop_
_space_group_symop_operation_xyz
x,y,z
1/2-x,-y,1/2+z
1/2+x,1/2-y,1/2-z
-x,1/2+y,-z
-x,-y,-z
1/2+x,y,1/2-z
1/2-x,1/2+y,1/2+z
x,1/2-y,z
loop_
_atom_site_type_symbol
_atom_site_label
_atom_site_fract_x
_atom_site_fract_y
_atom_site_fract_z
Si Si1 0.449510 0.431721 0.394710
Si Si2 0.815594 0.427698 0.979240
Si Si3 0.636408 0.431794 0.311035
Si Si4 0.275637 0.070631 0.032368
Si Si5 0.800398 0.568564 0.652162
Si Si6 0.280375 0.931262 0.233291
Si Si7 0.636103 0.069645 0.644104
Si Si8 0.547527 0.067478 0.402931
O O1 0.443626 0.250000 0.388156
O O2 0.412770 0.516967 0.336705
O O3 0.445235 0.483337 0.500737
O O4 0.499177 0.470126 0.369093
O O5 0.803871 0.250000 0.983637
O O6 0.773779 0.531757 0.994578
O O7 0.849588 0.472150 0.056548
O O8 0.835764 0.471255 0.882486
O O9 0.643107 0.250000 0.329855
O O10 0.656699 0.461405 0.212246
O O11 0.586242 0.465507 0.332495
O O12 0.281807 0.250000 0.042074
O O13 0.302488 0.006314 0.947240
O O14 0.282041 0.991445 0.130046
O O15 0.795099 0.750000 0.641946
O O16 0.758721 0.508031 0.709467
O O17 0.272433 0.750000 0.233299
O O18 0.326799 0.959423 0.281093
O O19 0.636611 0.250000 0.622545
O O20 0.548393 0.250000 0.421618
#
# Coordination Sequence:
#
# PCOD9462381 Si02
#       8
#     8   8   8   8   8   8   8   8
#     4  10  19  30  48  75 103 135 172 210 253 306
#     4  12  22  31  50  75 103 136 177 217 252 299
#     4  10  20  34  52  74 103 139 174 209 256 306
#     4  12  24  38  53  72 104 140 175 216 262 304
#     4  11  22  35  54  77 103 136 176 215 256 305
#     4  11  23  37  54  75 102 136 177 218 259 305
#     4  11  22  35  51  72 103 140 174 212 261 308
#     4   9  18  32  49  71 104 138 169 208 256 308
#
# _framework density 16.158059000000002
#
# number of rings (size 3 to 8) (size 9 to 14) (size 15 to 20)
#    0.000    1.250    3.750    3.750    0.000    2.500 
#    0.000    0.000    0.000    0.000    0.000    0.875 
#    0.000    0.000    0.000    0.000    0.000    0.000 
#
# Total GULP energy -357280.170448 kJ/mol
# GULP energy per Si atom -5582.502663 kJ/mol
# Density = 1.612128 g / cm^3
# Si number density = 16.158059 Si / 1000 Ang^3
#
#
#
# Elastic Constant Matrix: (Units=GPa)
#
#
# Indices 1 2 3 4 5 6 
#
# 1 72.5303 14.9629 2.8647 0.0000 0.0000 0.0000
# 2 14.9629 43.4297 11.5219 0.0000 0.0000 0.0000
# 3 2.8647 11.5219 45.0802 0.0000 0.0000 0.0000
# 4 0.0000 0.0000 0.0000 17.4485 0.0000 0.0000
# 5 0.0000 0.0000 0.0000 0.0000 19.6993 0.0000
# 6 0.0000 0.0000 0.0000 0.0000 0.0000 22.1775
#
#
#
# Elastic Compliance Matrix: (Units=1/GPa)
#
#
# Indices 1 2 3 4 5 6 
#
# 1 0.014849 -0.005219 0.000390 0.000000 0.000000 0.000000
# 2 -0.005219 0.026535 -0.006450 0.000000 0.000000 0.000000
# 3 0.000390 -0.006450 0.023807 0.000000 0.000000 0.000000
# 4 0.000000 0.000000 0.000000 0.057312 0.000000 0.000000
# 5 0.000000 0.000000 0.000000 0.000000 0.050763 0.000000
# 6 0.000000 0.000000 0.000000 0.000000 0.000000 0.045091
#
#
# Mechanical properties :
#
#
# Convention : Reuss Voigt Hill
#
# Bulk Modulus (GPa) = 23.45674 24.41548 23.93611
# Shear Modulus (GPa) = 19.59821 20.64443 20.12132
#
# Velocity S-wave (km/s) = 3.48646 3.57831 3.53268
# Velocity P-wave (km/s) = 5.54579 5.67588 5.61121
#
# Compressibility (1/GPa) = 0.04263168
#
# Stress axis : x y z
#
# Youngs Moduli (GPa) = 67.34600 37.68571 42.00529
#
# Poissons Ratio (x) = 0.19670 -0.01640
# Poissons Ratio (y) = 0.35151 0.27095
# Poissons Ratio (z) = -0.02629 0.24309
#
# Static dielectric constant tensor:
#      x y z
#    x 1.576040 0.000000 0.000000 
#    y 0.000000 1.543340 0.000000 
#    z 0.000000 0.000000 1.528520 
# 
# From -- ./inp_files/21269.got.cif
#   From: 2010.05.17/outbox.cif.g08.bks.cpg/sg62_11_cif.got.tgz:21269.got - 2010.06.03 15:25:27.
