data_PCOD9462727
_publ_section_title
;
Structure prediction by ZEFSAII (Michael W. Deem and Ramdas Pophale) SiO2 
 PCOD9462727
Probable space group: P N M A
;
_chemical_formula_sum "Si O2"
_cell_formula_units_Z 56
_cell_length_a 11.979297
_cell_length_b 12.709073
_cell_length_c 21.095504
_cell_angle_alpha 90.000000
_cell_angle_beta 90.000000
_cell_angle_gamma 90.000000
_cell_volume 3211.701040
_symmetry_space_group_name_H-M "P N M A"
_symmetry_group_IT_number 62
_symmetry_cell_setting 'orthorhombic'
loop_
_space_group_symop_operation_xyz
x,y,z
1/2-x,-y,1/2+z
1/2+x,1/2-y,1/2-z
-x,1/2+y,-z
-x,-y,-z
1/2+x,y,1/2-z
1/2-x,1/2+y,1/2+z
x,1/2-y,z
loop_
_atom_site_type_symbol
_atom_site_label
_atom_site_fract_x
_atom_site_fract_y
_atom_site_fract_z
Si Si1 0.547451 0.374221 0.440394
Si Si2 0.528291 0.991684 0.817548
Si Si3 0.781353 0.871951 0.367626
Si Si4 0.316288 0.055384 0.500103
Si Si5 0.403968 0.521372 0.691027
Si Si6 0.784706 0.367717 0.247591
Si Si7 0.318721 0.620533 0.879371
O O1 0.570261 0.250000 0.432069
O O2 0.643797 0.438144 0.478706
O O3 0.431456 0.388750 0.478188
O O4 0.538570 0.435686 0.372821
O O5 0.475463 0.023165 0.749386
O O6 0.626014 0.914977 0.794477
O O7 0.436760 0.930494 0.859196
O O8 0.595325 0.082152 0.854258
O O9 0.777936 0.750000 0.352053
O O10 0.740910 0.891755 0.439191
O O11 0.690031 0.936372 0.326994
O O12 0.230301 0.070559 0.442858
O O13 0.335871 0.619961 0.719943
O O14 0.818993 0.250000 0.236579
O O15 0.765585 0.412968 0.177579
O O16 0.323979 0.750000 0.882457
#
# Coordination Sequence:
#
# PCOD9462727 Si02
#       7
#     8   8   8   8   8   8   8
#     4  10  19  34  58  81 105 137 172 220 271 306
#     4  10  20  33  51  77 104 133 173 214 259 316
#     4  10  21  37  53  69  99 139 173 212 259 308
#     4  10  21  35  52  78 107 137 177 211 248 311
#     4   9  19  33  52  78 102 126 170 222 264 312
#     4   9  17  30  49  76 108 135 163 209 268 318
#     4  10  19  32  53  78 107 140 172 213 263 312
#
# _framework density 17.436242
#
# number of rings (size 3 to 8) (size 9 to 14) (size 15 to 20)
#    0.000    2.286    0.000    3.000    0.000    4.000 
#    0.000    1.429    0.000   13.714    0.000    0.000 
#    0.000    0.000    0.000    0.000    0.000    0.000 
#
# Total GULP energy -311740.970140 kJ/mol
# GULP energy per Si atom -5566.803038 kJ/mol
# Density = 1.739656 g / cm^3
# Si number density = 17.436242 Si / 1000 Ang^3
#
#
#
# Elastic Constant Matrix: (Units=GPa)
#
#
# Indices 1 2 3 4 5 6 
#
# 1 80.5163 43.1448 41.1810 0.0000 0.0000 0.0000
# 2 43.1448 90.4579 31.0905 0.0000 0.0000 0.0000
# 3 41.1810 31.0905 94.3581 0.0000 0.0000 0.0000
# 4 0.0000 0.0000 0.0000 14.4197 0.0000 0.0000
# 5 0.0000 0.0000 0.0000 0.0000 38.3776 0.0000
# 6 0.0000 0.0000 0.0000 0.0000 0.0000 10.7405
#
#
#
# Elastic Compliance Matrix: (Units=1/GPa)
#
#
# Indices 1 2 3 4 5 6 
#
# 1 0.019365 -0.007140 -0.006099 0.000000 0.000000 0.000000
# 2 -0.007140 0.015099 -0.001859 0.000000 0.000000 0.000000
# 3 -0.006099 -0.001859 0.013872 0.000000 0.000000 0.000000
# 4 0.000000 0.000000 0.000000 0.069350 0.000000 0.000000
# 5 0.000000 0.000000 0.000000 0.000000 0.026057 0.000000
# 6 0.000000 0.000000 0.000000 0.000000 0.000000 0.093106
#
#
# Mechanical properties :
#
#
# Convention : Reuss Voigt Hill
#
# Bulk Modulus (GPa) = 55.12493 55.12943 55.12718
# Shear Modulus (GPa) = 18.30880 22.70195 20.50537
#
# Velocity S-wave (km/s) = 3.24395 3.61224 3.43304
# Velocity P-wave (km/s) = 6.76127 7.00600 6.88472
#
# Compressibility (1/GPa) = 0.01814061
#
# Stress axis : x y z
#
# Youngs Moduli (GPa) = 51.63851 66.22780 72.08635
#
# Poissons Ratio (x) = 0.47288 0.43966
# Poissons Ratio (y) = 0.36871 0.13400
# Poissons Ratio (z) = 0.31494 0.12311
#
# Static dielectric constant tensor:
#      x y z
#    x 1.631780 0.000000 0.000000 
#    y 0.000000 1.589430 0.000000 
#    z 0.000000 0.000000 1.627520 
# 
# From -- ./inp_files/26598.got.cif
#   From: 2010.05.17/outbox.cif.g08.bks.cpg/sg62_14_cif.got.tgz:26598.got - 2010.06.03 15:25:27.
