data_PCOD9462199
_publ_section_title
;
Structure prediction by ZEFSAII (Michael W. Deem and Ramdas Pophale) SiO2 
 PCOD9462199
Probable space group: P N M A
;
_chemical_formula_sum "Si O2"
_cell_formula_units_Z 64
_cell_length_a 13.618460
_cell_length_b 17.301638
_cell_length_c 15.458510
_cell_angle_alpha 90.000000
_cell_angle_beta 90.000000
_cell_angle_gamma 90.000000
_cell_volume 3642.359865
_symmetry_space_group_name_H-M "P N M A"
_symmetry_group_IT_number 62
_symmetry_cell_setting 'orthorhombic'
loop_
_space_group_symop_operation_xyz
x,y,z
1/2-x,-y,1/2+z
1/2+x,1/2-y,1/2-z
-x,1/2+y,-z
-x,-y,-z
1/2+x,y,1/2-z
1/2-x,1/2+y,1/2+z
x,1/2-y,z
loop_
_atom_site_type_symbol
_atom_site_label
_atom_site_fract_x
_atom_site_fract_y
_atom_site_fract_z
Si Si1 0.951030 0.946213 0.303493
Si Si2 0.437725 0.919142 0.905271
Si Si3 0.948354 0.341342 0.558899
Si Si4 0.615492 0.936485 0.550674
Si Si5 0.751683 0.159380 0.171455
Si Si6 0.445005 0.027323 0.636115
Si Si7 0.292955 0.045438 0.978612
Si Si8 0.238019 0.537644 0.678747
O O1 0.981009 0.879056 0.369191
O O2 0.994010 0.928953 0.209185
O O3 0.837216 0.968560 0.300444
O O4 0.002723 0.024891 0.340727
O O5 0.357730 0.865807 0.858110
O O6 0.373666 0.977630 0.965094
O O7 0.508478 0.870152 0.966810
O O8 0.944805 0.250000 0.563845
O O9 0.841446 0.381440 0.567818
O O10 0.673051 0.867028 0.596032
O O11 0.590027 0.926863 0.449431
O O12 0.516610 0.960062 0.600130
O O13 0.691414 0.009390 0.555655
O O14 0.757263 0.250000 0.188084
O O15 0.777060 0.106832 0.254289
O O16 0.348848 0.992843 0.681398
O O17 0.279548 0.061832 0.079656
#
# Coordination Sequence:
#
# PCOD9462199 Si02
#       8
#     8   8   8   8   8   8   8   8
#     4  11  19  35  58  82 112 144 195 240 275 342
#     4  10  18  36  53  79 112 153 182 225 285 342
#     4  11  21  33  55  87 116 146 183 240 298 334
#     4   9  20  37  58  82 108 155 195 229 272 348
#     4  11  22  34  54  88 121 147 184 235 290 338
#     4  10  20  36  60  82 106 146 206 231 269 333
#     4   9  18  34  58  79 109 147 193 224 275 344
#     4  11  19  34  56  83 111 147 192 232 276 337
#
# _framework density 17.571026
#
# number of rings (size 3 to 8) (size 9 to 14) (size 15 to 20)
#    0.000    1.750    5.000    1.125    0.000    0.500 
#    0.000    2.500    0.000    7.500    0.000    0.000 
#    0.000    0.000    0.000    0.000    0.000    0.000 
#
# Total GULP energy -356992.223846 kJ/mol
# GULP energy per Si atom -5578.003498 kJ/mol
# Density = 1.753103 g / cm^3
# Si number density = 17.571026 Si / 1000 Ang^3
#
#
#
# Elastic Constant Matrix: (Units=GPa)
#
#
# Indices 1 2 3 4 5 6 
#
# 1 99.1842 28.0466 17.6829 0.0000 0.0000 0.0000
# 2 28.0466 90.3099 24.2778 0.0000 0.0000 0.0000
# 3 17.6829 24.2778 58.1108 0.0000 0.0000 0.0000
# 4 0.0000 0.0000 0.0000 16.0522 0.0000 0.0000
# 5 0.0000 0.0000 0.0000 0.0000 22.8941 0.0000
# 6 0.0000 0.0000 0.0000 0.0000 0.0000 10.6461
#
#
#
# Elastic Compliance Matrix: (Units=1/GPa)
#
#
# Indices 1 2 3 4 5 6 
#
# 1 0.011302 -0.002913 -0.002222 0.000000 0.000000 0.000000
# 2 -0.002913 0.013225 -0.004639 0.000000 0.000000 0.000000
# 3 -0.002222 -0.004639 0.019823 0.000000 0.000000 0.000000
# 4 0.000000 0.000000 0.000000 0.062297 0.000000 0.000000
# 5 0.000000 0.000000 0.000000 0.000000 0.043679 0.000000
# 6 0.000000 0.000000 0.000000 0.000000 0.000000 0.093931
#
#
# Mechanical properties :
#
#
# Convention : Reuss Voigt Hill
#
# Bulk Modulus (GPa) = 40.31921 43.06884 41.69403
# Shear Modulus (GPa) = 18.37755 21.75832 20.06794
#
# Velocity S-wave (km/s) = 3.23755 3.52278 3.38317
# Velocity P-wave (km/s) = 6.08045 6.41179 6.24832
#
# Compressibility (1/GPa) = 0.02480207
#
# Stress axis : x y z
#
# Youngs Moduli (GPa) = 88.47955 75.61716 50.44710
#
# Poissons Ratio (x) = 0.22024 0.11211
# Poissons Ratio (y) = 0.25770 0.23401
# Poissons Ratio (z) = 0.19663 0.35077
#
# Static dielectric constant tensor:
#      x y z
#    x 1.640190 0.000000 0.000000 
#    y 0.000000 1.548920 0.000000 
#    z 0.000000 0.000000 1.629190 
# 
# From -- ./inp_files/19233.got.cif
#   From: 2010.05.17/outbox.cif.g08.bks.cpg/sg62_10_cif.got.tgz:19233.got - 2010.06.03 15:25:27.
