data_PCOD9462415
_publ_section_title
;
Structure prediction by ZEFSAII (Michael W. Deem and Ramdas Pophale) SiO2 
 PCOD9462415
Probable space group: P N M A
;
_chemical_formula_sum "Si O2"
_cell_formula_units_Z 48
_cell_length_a 8.861685
_cell_length_b 21.951996
_cell_length_c 16.001951
_cell_angle_alpha 90.000000
_cell_angle_beta 90.000000
_cell_angle_gamma 90.000000
_cell_volume 3112.886310
_symmetry_space_group_name_H-M "P N M A"
_symmetry_group_IT_number 62
_symmetry_cell_setting 'orthorhombic'
loop_
_space_group_symop_operation_xyz
x,y,z
1/2-x,-y,1/2+z
1/2+x,1/2-y,1/2-z
-x,1/2+y,-z
-x,-y,-z
1/2+x,y,1/2-z
1/2-x,1/2+y,1/2+z
x,1/2-y,z
loop_
_atom_site_type_symbol
_atom_site_label
_atom_site_fract_x
_atom_site_fract_y
_atom_site_fract_z
Si Si1 0.234946 0.510688 0.271013
Si Si2 0.539167 0.322408 0.332108
Si Si3 0.067790 0.040858 0.426175
Si Si4 0.594484 0.585095 0.543864
Si Si5 0.014385 0.960605 0.129915
Si Si6 0.644317 0.886337 0.812519
O O1 0.112298 0.497872 0.343389
O O2 0.367374 0.549203 0.313386
O O3 0.300614 0.445246 0.241049
O O4 0.157506 0.539084 0.190267
O O5 0.533763 0.250000 0.335061
O O6 0.446444 0.354230 0.406720
O O7 0.465681 0.347691 0.246658
O O8 0.709332 0.347525 0.335552
O O9 0.227192 0.070375 0.453498
O O10 0.945839 0.089023 0.392668
O O11 0.000000 0.000000 0.500000
O O12 0.535770 0.582391 0.449317
O O13 0.511542 0.528863 0.592148
#
# Coordination Sequence:
#
# PCOD9462415 Si02
#       6
#     8   8   8   8   8   8
#     4  11  17  31  49  75 105 141 162 210 263 325
#     4  12  23  36  53  73 106 152 189 220 256 304
#     4  11  21  30  53  77 109 141 170 220 273 318
#     4  10  20  35  49  78 105 143 174 220 263 316
#     4  10  19  30  52  74 110 135 167 213 274 318
#     4  12  19  36  49  75 108 141 187 215 255 314
#
# _framework density 15.419772999999999
#
# number of rings (size 3 to 8) (size 9 to 14) (size 15 to 20)
#    0.000    1.000    8.333    1.500    4.667    0.000 
#    0.000    0.833    0.000    0.000    0.000    1.167 
#    0.000    0.000    0.000    0.000    0.000    0.000 
#
# Total GULP energy -267894.337285 kJ/mol
# GULP energy per Si atom -5581.132027 kJ/mol
# Density = 1.538468 g / cm^3
# Si number density = 15.419773 Si / 1000 Ang^3
#
#
#
# Elastic Constant Matrix: (Units=GPa)
#
#
# Indices 1 2 3 4 5 6 
#
# 1 98.3017 48.6640 62.2422 0.0000 0.0000 0.0000
# 2 48.6640 75.3935 50.1871 0.0000 0.0000 0.0000
# 3 62.2422 50.1871 105.3855 0.0000 0.0000 0.0000
# 4 0.0000 0.0000 0.0000 13.9543 0.0000 0.0000
# 5 0.0000 0.0000 0.0000 0.0000 34.8908 0.0000
# 6 0.0000 0.0000 0.0000 0.0000 0.0000 12.8602
#
#
#
# Elastic Compliance Matrix: (Units=1/GPa)
#
#
# Indices 1 2 3 4 5 6 
#
# 1 0.018344 -0.006777 -0.007607 0.000000 0.000000 0.000000
# 2 -0.006777 0.021924 -0.006438 0.000000 0.000000 0.000000
# 3 -0.007607 -0.006438 0.017048 0.000000 0.000000 0.000000
# 4 0.000000 0.000000 0.000000 0.071663 0.000000 0.000000
# 5 0.000000 0.000000 0.000000 0.000000 0.028661 0.000000
# 6 0.000000 0.000000 0.000000 0.000000 0.000000 0.077759
#
#
# Mechanical properties :
#
#
# Convention : Reuss Voigt Hill
#
# Bulk Modulus (GPa) = 63.80931 66.80747 65.30839
# Shear Modulus (GPa) = 17.71379 20.20688 18.96034
#
# Velocity S-wave (km/s) = 3.39303 3.62394 3.51039
# Velocity P-wave (km/s) = 7.53801 7.80580 7.67307
#
# Compressibility (1/GPa) = 0.01567169
#
# Stress axis : x y z
#
# Youngs Moduli (GPa) = 54.51306 45.61304 58.65863
#
# Poissons Ratio (x) = 0.30911 0.44622
# Poissons Ratio (y) = 0.36942 0.37765
# Poissons Ratio (z) = 0.41469 0.29366
#
# Static dielectric constant tensor:
#      x y z
#    x 1.552890 0.000000 0.000000 
#    y 0.000000 1.473810 0.000000 
#    z 0.000000 0.000000 1.520350 
# 
# From -- ./inp_files/16928.got.cif
#   From: 2010.05.17/outbox.cif.g08.bks.cpg/sg62_9_cif.got.tgz:16928.got - 2010.06.03 15:25:27.
