data_PCOD9462077
_publ_section_title
;
Structure prediction by ZEFSAII (Michael W. Deem and Ramdas Pophale) SiO2 
 PCOD9462077
Probable space group: P N M A
;
_chemical_formula_sum "Si O2"
_cell_formula_units_Z 64
_cell_length_a 20.109795
_cell_length_b 8.725129
_cell_length_c 21.154678
_cell_angle_alpha 90.000000
_cell_angle_beta 90.000000
_cell_angle_gamma 90.000000
_cell_volume 3711.811554
_symmetry_space_group_name_H-M "P N M A"
_symmetry_group_IT_number 62
_symmetry_cell_setting 'orthorhombic'
loop_
_space_group_symop_operation_xyz
x,y,z
1/2-x,-y,1/2+z
1/2+x,1/2-y,1/2-z
-x,1/2+y,-z
-x,-y,-z
1/2+x,y,1/2-z
1/2-x,1/2+y,1/2+z
x,1/2-y,z
loop_
_atom_site_type_symbol
_atom_site_label
_atom_site_fract_x
_atom_site_fract_y
_atom_site_fract_z
Si Si1 0.583121 0.933002 0.383930
Si Si2 0.700529 0.933238 0.570844
Si Si3 0.297818 0.063658 0.183374
Si Si4 0.563756 0.933971 0.760808
Si Si5 0.433608 0.933920 0.380628
Si Si6 0.214211 0.064818 0.306651
Si Si7 0.577470 0.932148 0.233409
Si Si8 0.283612 0.932978 0.561528
O O1 0.591356 0.750000 0.393551
O O2 0.507958 0.976691 0.403254
O O3 0.587725 0.963614 0.308515
O O4 0.641603 0.021235 0.418603
O O5 0.695893 0.750000 0.570972
O O6 0.744324 0.980804 0.631455
O O7 0.626691 0.001335 0.578749
O O8 0.731087 0.991439 0.505588
O O9 0.296201 0.250000 0.183017
O O10 0.373776 0.018154 0.196266
O O11 0.253799 0.014626 0.243611
O O12 0.264536 0.012466 0.118164
O O13 0.563476 0.750000 0.756009
O O14 0.573940 0.001549 0.690520
O O15 0.492599 0.992239 0.784513
O O16 0.430818 0.750000 0.378241
O O17 0.210593 0.250000 0.305645
O O18 0.140516 0.997670 0.303327
O O19 0.572867 0.750000 0.226130
O O20 0.278729 0.750000 0.556392
#
# Coordination Sequence:
#
# PCOD9462077 Si02
#       8
#     8   8   8   8   8   8   8   8
#     4   9  19  34  50  74 109 144 178 215 259 317
#     4  11  23  38  55  77 109 145 183 222 269 330
#     4   9  18  34  56  82 106 136 182 225 265 316
#     4  10  18  33  56  81 110 144 179 221 270 323
#     4  10  20  34  52  78 111 144 183 225 266 315
#     4  10  19  36  58  80 105 141 184 223 266 322
#     4  10  20  33  52  84 115 139 175 226 274 318
#     4  11  22  36  55  78 107 141 180 225 269 317
#
# _framework density 17.242253999999999
#
# number of rings (size 3 to 8) (size 9 to 14) (size 15 to 20)
#    0.000    2.000    2.500    2.625    0.000    4.000 
#    0.000    2.500    0.000    0.750    0.000    0.000 
#    0.000    0.000    0.000    0.000    0.000    0.000 
#
# Total GULP energy -357268.479138 kJ/mol
# GULP energy per Si atom -5582.319987 kJ/mol
# Density = 1.720301 g / cm^3
# Si number density = 17.242254 Si / 1000 Ang^3
#
#
#
# Elastic Constant Matrix: (Units=GPa)
#
#
# Indices 1 2 3 4 5 6 
#
# 1 98.1808 23.5324 31.1848 0.0000 0.0000 0.0000
# 2 23.5324 33.7299 22.3409 0.0000 0.0000 0.0000
# 3 31.1848 22.3409 61.6580 0.0000 0.0000 0.0000
# 4 0.0000 0.0000 0.0000 25.3510 0.0000 0.0000
# 5 0.0000 0.0000 0.0000 0.0000 18.9833 0.0000
# 6 0.0000 0.0000 0.0000 0.0000 0.0000 18.2155
#
#
#
# Elastic Compliance Matrix: (Units=1/GPa)
#
#
# Indices 1 2 3 4 5 6 
#
# 1 0.013060 -0.006232 -0.004347 0.000000 0.000000 0.000000
# 2 -0.006232 0.041983 -0.012060 0.000000 0.000000 0.000000
# 3 -0.004347 -0.012060 0.022787 0.000000 0.000000 0.000000
# 4 0.000000 0.000000 0.000000 0.039446 0.000000 0.000000
# 5 0.000000 0.000000 0.000000 0.000000 0.052678 0.000000
# 6 0.000000 0.000000 0.000000 0.000000 0.000000 0.054898
#
#
# Mechanical properties :
#
#
# Convention : Reuss Voigt Hill
#
# Bulk Modulus (GPa) = 30.72068 38.63166 34.67617
# Shear Modulus (GPa) = 17.79481 20.27734 19.03607
#
# Velocity S-wave (km/s) = 3.21603 3.43304 3.32631
# Velocity P-wave (km/s) = 5.62550 6.17805 5.90824
#
# Compressibility (1/GPa) = 0.03255136
#
# Stress axis : x y z
#
# Youngs Moduli (GPa) = 76.57077 23.81914 43.88495
#
# Poissons Ratio (x) = 0.14844 0.19077
# Poissons Ratio (y) = 0.47720 0.52925
# Poissons Ratio (z) = 0.33286 0.28726
#
# Static dielectric constant tensor:
#      x y z
#    x 1.583710 0.000000 0.000000 
#    y 0.000000 1.577420 0.000000 
#    z 0.000000 0.000000 1.579230 
# 
# From -- ./inp_files/24682.got.cif
#   From: 2010.05.17/outbox.cif.g08.bks.cpg/sg62_13_cif.got.tgz:24682.got - 2010.06.03 15:25:27.
