data_PCOD9462555
_publ_section_title
;
Structure prediction by ZEFSAII (Michael W. Deem and Ramdas Pophale) SiO2 
 PCOD9462555
Probable space group: P N M A
;
_chemical_formula_sum "Si O2"
_cell_formula_units_Z 56
_cell_length_a 22.566519
_cell_length_b 8.001614
_cell_length_c 14.987516
_cell_angle_alpha 90.000000
_cell_angle_beta 90.000000
_cell_angle_gamma 90.000000
_cell_volume 2706.274397
_symmetry_space_group_name_H-M "P N M A"
_symmetry_group_IT_number 62
_symmetry_cell_setting 'orthorhombic'
loop_
_space_group_symop_operation_xyz
x,y,z
1/2-x,-y,1/2+z
1/2+x,1/2-y,1/2-z
-x,1/2+y,-z
-x,-y,-z
1/2+x,y,1/2-z
1/2-x,1/2+y,1/2+z
x,1/2-y,z
loop_
_atom_site_type_symbol
_atom_site_label
_atom_site_fract_x
_atom_site_fract_y
_atom_site_fract_z
Si Si1 0.643294 0.052584 0.894486
Si Si2 0.730892 0.444319 0.598156
Si Si3 0.496042 0.451681 0.397096
Si Si4 0.278824 0.549081 0.603212
Si Si5 0.379990 0.446186 0.295530
Si Si6 0.637753 0.055306 0.092268
Si Si7 0.608985 0.455507 0.282785
O O1 0.631768 0.250000 0.893017
O O2 0.713868 0.025110 0.882348
O O3 0.611910 0.972039 0.809764
O O4 0.627914 0.983189 0.993160
O O5 0.747993 0.250000 0.596314
O O6 0.705077 0.486976 0.500082
O O7 0.680945 0.472734 0.671228
O O8 0.791570 0.544340 0.610569
O O9 0.500000 0.500000 0.500000
O O10 0.495553 0.250000 0.391673
O O11 0.435636 0.513372 0.351215
O O12 0.553234 0.509345 0.341540
O O13 0.273651 0.750000 0.612758
O O14 0.329989 0.490731 0.669612
O O15 0.374020 0.250000 0.313690
O O16 0.621291 0.250000 0.086570
O O17 0.606987 0.984820 0.180520
O O18 0.609796 0.250000 0.281776
#
# Coordination Sequence:
#
# PCOD9462555 Si02
#       7
#     8   8   8   8   8   8   8
#     4  10  20  33  51  77 107 137 172 215 259 306
#     4  10  19  31  51  80 111 140 172 213 260 312
#     4  10  22  39  58  79 103 134 173 215 259 310
#     4   9  17  30  52  80 108 137 166 204 259 317
#     4  11  22  35  52  74 103 141 180 217 260 309
#     4   9  18  33  54  79 107 138 172 213 261 313
#     4   9  17  33  55  75  99 135 174 209 253 309
#
# _framework density 20.692654999999998
#
# number of rings (size 3 to 8) (size 9 to 14) (size 15 to 20)
#    0.000    2.286    0.000    3.000    0.000    4.571 
#    0.000    2.143    0.000    0.000    0.000    0.000 
#    0.000    0.000    0.000    0.000    0.000    0.000 
#
# Total GULP energy -312647.495238 kJ/mol
# GULP energy per Si atom -5582.990986 kJ/mol
# Density = 2.064556 g / cm^3
# Si number density = 20.692655 Si / 1000 Ang^3
#
#
#
# Elastic Constant Matrix: (Units=GPa)
#
#
# Indices 1 2 3 4 5 6 
#
# 1 31.6724 -6.5017 45.9902 0.0000 0.0000 0.0000
# 2 -6.5017 15.1159 -4.4817 0.0000 0.0000 0.0000
# 3 45.9902 -4.4817 159.8620 0.0000 0.0000 0.0000
# 4 0.0000 0.0000 0.0000 20.6877 0.0000 0.0000
# 5 0.0000 0.0000 0.0000 0.0000 36.0193 0.0000
# 6 0.0000 0.0000 0.0000 0.0000 0.0000 10.8988
#
#
#
# Elastic Compliance Matrix: (Units=1/GPa)
#
#
# Indices 1 2 3 4 5 6 
#
# 1 0.060135 0.020910 -0.016714 0.000000 0.000000 0.000000
# 2 0.020910 0.073981 -0.003941 0.000000 0.000000 0.000000
# 3 -0.016714 -0.003941 0.010953 0.000000 0.000000 0.000000
# 4 0.000000 0.000000 0.000000 0.048338 0.000000 0.000000
# 5 0.000000 0.000000 0.000000 0.000000 0.027763 0.000000
# 6 0.000000 0.000000 0.000000 0.000000 0.000000 0.091753
#
#
# Mechanical properties :
#
#
# Convention : Reuss Voigt Hill
#
# Bulk Modulus (GPa) = 6.86914 30.74042 18.80478
# Shear Modulus (GPa) = 13.85272 24.96406 19.40839
#
# Velocity S-wave (km/s) = 2.59018 3.47713 3.06590
# Velocity P-wave (km/s) = 3.50317 5.56853 4.65192
#
# Compressibility (1/GPa) = 0.14557858
#
# Stress axis : x y z
#
# Youngs Moduli (GPa) = 16.62919 13.51700 91.29698
#
# Poissons Ratio (x) = -0.28264 1.52593
# Poissons Ratio (y) = -0.34772 0.35984
# Poissons Ratio (z) = 0.27794 0.05328
#
# Static dielectric constant tensor:
#      x y z
#    x 1.702710 0.000000 0.000000 
#    y 0.000000 1.736980 0.000000 
#    z 0.000000 0.000000 1.768270 
# 
# From -- ./inp_files/20184.got.cif
#   From: 2010.05.17/outbox.cif.g08.bks.cpg/sg62_11_cif.got.tgz:20184.got - 2010.06.03 15:25:27.
