data_PCOD9462132
_publ_section_title
;
Structure prediction by ZEFSAII (Michael W. Deem and Ramdas Pophale) SiO2 
 PCOD9462132
Probable space group: P N M A
;
_chemical_formula_sum "Si O2"
_cell_formula_units_Z 56
_cell_length_a 19.727961
_cell_length_b 8.575877
_cell_length_c 19.722636
_cell_angle_alpha 90.000000
_cell_angle_beta 90.000000
_cell_angle_gamma 90.000000
_cell_volume 3336.765632
_symmetry_space_group_name_H-M "P N M A"
_symmetry_group_IT_number 62
_symmetry_cell_setting 'orthorhombic'
loop_
_space_group_symop_operation_xyz
x,y,z
1/2-x,-y,1/2+z
1/2+x,1/2-y,1/2-z
-x,1/2+y,-z
-x,-y,-z
1/2+x,y,1/2-z
1/2-x,1/2+y,1/2+z
x,1/2-y,z
loop_
_atom_site_type_symbol
_atom_site_label
_atom_site_fract_x
_atom_site_fract_y
_atom_site_fract_z
Si Si1 0.652634 0.063237 0.226917
Si Si2 0.635511 0.562625 0.733908
Si Si3 0.293881 0.436719 0.519303
Si Si4 0.240908 0.063456 0.665227
Si Si5 0.482905 0.939724 0.704125
Si Si6 0.943460 0.562147 0.948601
Si Si7 0.742126 0.435006 0.625788
O O1 0.654365 0.250000 0.219970
O O2 0.576477 0.011787 0.244509
O O3 0.699442 0.015633 0.290860
O O4 0.688494 0.988062 0.162016
O O5 0.637092 0.750000 0.737714
O O6 0.671642 0.493016 0.800217
O O7 0.558343 0.509296 0.723491
O O8 0.681736 0.510618 0.670399
O O9 0.295467 0.250000 0.512445
O O10 0.251181 0.476660 0.586703
O O11 0.370124 0.497161 0.531293
O O12 0.264311 0.509433 0.451056
O O13 0.246797 0.250000 0.672845
O O14 0.483381 0.750000 0.703981
O O15 0.462791 0.987564 0.627914
O O16 0.941815 0.750000 0.950737
O O17 0.000000 0.500000 0.000000
O O18 0.735717 0.250000 0.630268
#
# Coordination Sequence:
#
# PCOD9462132 Si02
#       7
#     8   8   8   8   8   8   8
#     4  10  18  34  56  76 102 138 177 217 263 316
#     4  10  19  34  55  78 107 141 176 215 261 319
#     4  11  22  36  53  75 105 142 180 221 269 316
#     4  10  20  34  52  77 105 135 178 224 264 312
#     4   9  19  33  52  77 105 138 176 213 257 315
#     4  11  21  34  51  77 112 146 180 214 261 322
#     4  11  22  35  52  78 107 137 177 222 266 317
#
# _framework density 16.782719
#
# number of rings (size 3 to 8) (size 9 to 14) (size 15 to 20)
#    0.000    1.714    1.429    6.000    0.000    2.857 
#    0.000    5.000    0.000    0.857    0.000    0.000 
#    0.000    0.000    0.000    0.000    0.000    0.000 
#
# Total GULP energy -312710.044912 kJ/mol
# GULP energy per Si atom -5584.107945 kJ/mol
# Density = 1.674452 g / cm^3
# Si number density = 16.782719 Si / 1000 Ang^3
#
#
#
# Elastic Constant Matrix: (Units=GPa)
#
#
# Indices 1 2 3 4 5 6 
#
# 1 71.5682 11.4259 60.6586 0.0000 0.0000 0.0000
# 2 11.4259 39.7059 20.4571 0.0000 0.0000 0.0000
# 3 60.6586 20.4571 123.9171 0.0000 0.0000 0.0000
# 4 0.0000 0.0000 0.0000 28.6701 0.0000 0.0000
# 5 0.0000 0.0000 0.0000 0.0000 22.9879 0.0000
# 6 0.0000 0.0000 0.0000 0.0000 0.0000 -31.0268
#
#
#
# Elastic Compliance Matrix: (Units=1/GPa)
#
#
# Indices 1 2 3 4 5 6 
#
# 1 0.023912 -0.000929 -0.011552 0.000000 0.000000 0.000000
# 2 -0.000929 0.027563 -0.004095 0.000000 0.000000 0.000000
# 3 -0.011552 -0.004095 0.014401 0.000000 0.000000 0.000000
# 4 0.000000 0.000000 0.000000 0.034880 0.000000 0.000000
# 5 0.000000 0.000000 0.000000 0.000000 0.043501 0.000000
# 6 0.000000 0.000000 0.000000 0.000000 0.000000 -0.032230
#
#
# Mechanical properties :
#
#
# Convention : Reuss Voigt Hill
#
# Bulk Modulus (GPa) = 30.56010 46.69715 38.62862
# Shear Modulus (GPa) = 32.03374 13.63621 22.83498
#
# Velocity S-wave (km/s) = 4.37365 2.85356 3.69267
# Velocity P-wave (km/s) = 6.61467 6.22431 6.42245
#
# Compressibility (1/GPa) = 0.03272241
#
# Stress axis : x y z
#
# Youngs Moduli (GPa) = 41.82041 36.28110 69.44156
#
# Poissons Ratio (x) = 0.03372 0.80216
# Poissons Ratio (y) = 0.03887 0.28438
# Poissons Ratio (z) = 0.48309 0.14858
#
# Static dielectric constant tensor:
#      x y z
#    x 1.557910 0.000000 0.000000 
#    y 0.000000 1.568200 0.000000 
#    z 0.000000 0.000000 1.553980 
# 
# From -- ./inp_files/24650.got.cif
#   From: 2010.05.17/outbox.cif.g08.bks.cpg/sg62_13_cif.got.tgz:24650.got - 2010.06.03 15:25:27.
