data_PCOD9462356
_publ_section_title
;
Structure prediction by ZEFSAII (Michael W. Deem and Ramdas Pophale) SiO2 
 PCOD9462356
Probable space group: P N M A
;
_chemical_formula_sum "Si O2"
_cell_formula_units_Z 48
_cell_length_a 14.056148
_cell_length_b 9.103705
_cell_length_c 24.280980
_cell_angle_alpha 90.000000
_cell_angle_beta 90.000000
_cell_angle_gamma 90.000000
_cell_volume 3107.067647
_symmetry_space_group_name_H-M "P N M A"
_symmetry_group_IT_number 62
_symmetry_cell_setting 'orthorhombic'
loop_
_space_group_symop_operation_xyz
x,y,z
1/2-x,-y,1/2+z
1/2+x,1/2-y,1/2-z
-x,1/2+y,-z
-x,-y,-z
1/2+x,y,1/2-z
1/2-x,1/2+y,1/2+z
x,1/2-y,z
loop_
_atom_site_type_symbol
_atom_site_label
_atom_site_fract_x
_atom_site_fract_y
_atom_site_fract_z
Si Si1 0.610958 0.574041 0.556180
Si Si2 0.612035 0.425073 0.441166
Si Si3 0.212369 0.926142 0.830752
Si Si4 0.107744 0.426408 0.729188
Si Si5 0.291694 0.424703 0.661776
Si Si6 0.610529 0.574321 0.221952
O O1 0.616982 0.750000 0.548296
O O2 0.639280 0.494179 0.499921
O O3 0.499945 0.538236 0.567664
O O4 0.673744 0.533479 0.608952
O O5 0.620768 0.250000 0.443067
O O6 0.672613 0.489913 0.391254
O O7 0.212729 0.750000 0.826240
O O8 0.143056 0.993389 0.784266
O O9 0.316203 0.990388 0.817224
O O10 0.112285 0.250000 0.738658
O O11 0.184758 0.460386 0.681833
O O12 0.999685 0.464591 0.714683
O O13 0.297380 0.250000 0.651466
O O14 0.357339 0.457358 0.715137
O O15 0.621988 0.750000 0.214090
#
# Coordination Sequence:
#
# PCOD9462356 Si02
#       6
#     8   8   8   8   8   8
#     4   9  19  33  46  65  94 123 150 184 230 277
#     4  10  19  30  47  69  91 119 154 189 225 270
#     4  10  19  30  47  71  97 123 151 189 235 277
#     4   9  18  32  49  69  94 126 159 188 224 273
#     4   9  17  29  46  68  94 122 149 184 230 271
#     4   9  18  32  49  69  94 125 159 190 224 272
#
# _framework density 15.448649
#
# number of rings (size 3 to 8) (size 9 to 14) (size 15 to 20)
#    0.000    2.667    0.000    3.000    0.000    5.333 
#    0.000    0.000    0.000    1.000    0.000    0.000 
#    0.000    0.000    0.000    0.000    0.000    0.000 
#
# Total GULP energy -267638.769453 kJ/mol
# GULP energy per Si atom -5575.807697 kJ/mol
# Density = 1.541349 g / cm^3
# Si number density = 15.448649 Si / 1000 Ang^3
#
#
#
# Elastic Constant Matrix: (Units=GPa)
#
#
# Indices 1 2 3 4 5 6 
#
# 1 124.4433 48.6438 85.4651 0.0000 0.0000 0.0000
# 2 48.6438 38.9321 62.3782 0.0000 0.0000 0.0000
# 3 85.4651 62.3782 145.3732 0.0000 0.0000 0.0000
# 4 0.0000 0.0000 0.0000 29.6220 0.0000 0.0000
# 5 0.0000 0.0000 0.0000 0.0000 20.7305 0.0000
# 6 0.0000 0.0000 0.0000 0.0000 0.0000 23.5614
#
#
#
# Elastic Compliance Matrix: (Units=1/GPa)
#
#
# Indices 1 2 3 4 5 6 
#
# 1 0.016021 -0.015765 -0.002654 0.000000 0.000000 0.000000
# 2 -0.015765 0.097707 -0.032657 0.000000 0.000000 0.000000
# 3 -0.002654 -0.032657 0.022452 0.000000 0.000000 0.000000
# 4 0.000000 0.000000 0.000000 0.033759 0.000000 0.000000
# 5 0.000000 0.000000 0.000000 0.000000 0.048238 0.000000
# 6 0.000000 0.000000 0.000000 0.000000 0.000000 0.042442
#
#
# Mechanical properties :
#
#
# Convention : Reuss Voigt Hill
#
# Bulk Modulus (GPa) = 29.38743 77.96922 53.67832
# Shear Modulus (GPa) = 13.36490 22.26689 17.81590
#
# Velocity S-wave (km/s) = 2.94448 3.80063 3.39961
# Velocity P-wave (km/s) = 5.53389 8.35698 7.08742
#
# Compressibility (1/GPa) = 0.03402815
#
# Stress axis : x y z
#
# Youngs Moduli (GPa) = 62.41812 10.23466 44.53916
#
# Poissons Ratio (x) = 0.16135 0.11822
# Poissons Ratio (y) = 0.98400 1.45452
# Poissons Ratio (z) = 0.16568 0.33423
#
# Static dielectric constant tensor:
#      x y z
#    x 1.512640 0.000000 0.000000 
#    y 0.000000 1.514420 0.000000 
#    z 0.000000 0.000000 1.483220 
# 
# From -- ./inp_files/26852.got.cif
#   From: 2010.05.17/outbox.cif.g08.bks.cpg/sg62_14_cif.got.tgz:26852.got - 2010.06.03 15:25:27.
