data_PCOD9462833
_publ_section_title
;
Structure prediction by ZEFSAII (Michael W. Deem and Ramdas Pophale) SiO2 
 PCOD9462833
Probable space group: P N M A
;
_chemical_formula_sum "Si O2"
_cell_formula_units_Z 32
_cell_length_a 12.154221
_cell_length_b 8.671818
_cell_length_c 12.200937
_cell_angle_alpha 90.000000
_cell_angle_beta 90.000000
_cell_angle_gamma 90.000000
_cell_volume 1285.968907
_symmetry_space_group_name_H-M "P N M A"
_symmetry_group_IT_number 62
_symmetry_cell_setting 'orthorhombic'
loop_
_space_group_symop_operation_xyz
x,y,z
1/2-x,-y,1/2+z
1/2+x,1/2-y,1/2-z
-x,1/2+y,-z
-x,-y,-z
1/2+x,y,1/2-z
1/2-x,1/2+y,1/2+z
x,1/2-y,z
loop_
_atom_site_type_symbol
_atom_site_label
_atom_site_fract_x
_atom_site_fract_y
_atom_site_fract_z
Si Si1 0.193403 0.070677 0.383227
Si Si2 0.476638 0.070810 0.727980
Si Si3 0.626560 0.575889 0.906804
Si Si4 0.130709 0.073096 0.027447
O O1 0.600039 0.250000 0.494094
O O2 0.312703 0.011774 0.423746
O O3 0.136093 0.961990 0.294912
O O4 0.117888 0.043440 0.492276
O O5 0.503426 0.250000 0.731326
O O6 0.455860 0.015212 0.603762
O O7 0.565270 0.975919 0.798109
O O8 0.593236 0.750000 0.937674
O O9 0.758667 0.581693 0.895734
O O10 0.305481 0.750000 0.853103
#
# Coordination Sequence:
#
# PCOD9462833 Si02
#       4
#     8   8   8   8
#     4  10  19  33  51  75 105 131 167 210 252 298
#     4  12  21  31  53  77 103 137 168 203 255 302
#     4   9  19  34  51  74 104 131 167 211 252 296
#     4   9  20  35  50  73 103 132 168 210 252 298
#
# _framework density 24.883963000000001
#
# number of rings (size 3 to 8) (size 9 to 14) (size 15 to 20)
#    1.500    0.500    0.000    6.000    0.000    0.000 
#    0.000    0.000    0.000    1.500    0.000    0.000 
#    0.000    0.000    0.000    0.000    0.000    0.000 
#
# Total GULP energy -178829.962762 kJ/mol
# GULP energy per Si atom -5588.436336 kJ/mol
# Density = 2.482733 g / cm^3
# Si number density = 24.883963 Si / 1000 Ang^3
#
#
#
# Elastic Constant Matrix: (Units=GPa)
#
#
# Indices 1 2 3 4 5 6 
#
# 1 71.8874 3.0987 1.5853 0.0000 0.0000 0.0000
# 2 3.0987 123.6438 -2.7644 0.0000 0.0000 0.0000
# 3 1.5853 -2.7644 111.6342 0.0000 0.0000 0.0000
# 4 0.0000 0.0000 0.0000 29.4271 0.0000 0.0000
# 5 0.0000 0.0000 0.0000 0.0000 34.8099 0.0000
# 6 0.0000 0.0000 0.0000 0.0000 0.0000 33.6768
#
#
#
# Elastic Compliance Matrix: (Units=1/GPa)
#
#
# Indices 1 2 3 4 5 6 
#
# 1 0.013930 -0.000354 -0.000207 0.000000 0.000000 0.000000
# 2 -0.000354 0.008101 0.000206 0.000000 0.000000 0.000000
# 3 -0.000207 0.000206 0.008966 0.000000 0.000000 0.000000
# 4 0.000000 0.000000 0.000000 0.033982 0.000000 0.000000
# 5 0.000000 0.000000 0.000000 0.000000 0.028727 0.000000
# 6 0.000000 0.000000 0.000000 0.000000 0.000000 0.029694
#
#
# Mechanical properties :
#
#
# Convention : Reuss Voigt Hill
#
# Bulk Modulus (GPa) = 33.01622 34.55606 33.78614
# Shear Modulus (GPa) = 37.25594 39.93247 38.59420
#
# Velocity S-wave (km/s) = 3.87355 4.01028 3.94250
# Velocity P-wave (km/s) = 5.77085 5.94644 5.85930
#
# Compressibility (1/GPa) = 0.03028814
#
# Stress axis : x y z
#
# Youngs Moduli (GPa) = 71.78523 123.43838 111.53423
#
# Poissons Ratio (x) = 0.04366 0.02304
# Poissons Ratio (y) = 0.02539 -0.02294
# Poissons Ratio (z) = 0.01483 -0.02538
#
# Static dielectric constant tensor:
#      x y z
#    x 2.126570 0.000000 0.000000 
#    y 0.000000 1.813700 0.000000 
#    z 0.000000 0.000000 2.022170 
# 
# From -- ./inp_files/12761.got.cif
#   From: 2010.05.17/outbox.cif.g08.bks.cpg/sg62_7_cif.got.tgz:12761.got - 2010.06.03 15:25:27.
