data_PCOD9462047
_publ_section_title
;
Structure prediction by ZEFSAII (Michael W. Deem and Ramdas Pophale) SiO2 
 PCOD9462047
Probable space group: P N M A
;
_chemical_formula_sum "Si O2"
_cell_formula_units_Z 48
_cell_length_a 11.106671
_cell_length_b 12.470103
_cell_length_c 13.418535
_cell_angle_alpha 90.000000
_cell_angle_beta 90.000000
_cell_angle_gamma 90.000000
_cell_volume 1858.484962
_symmetry_space_group_name_H-M "P N M A"
_symmetry_group_IT_number 62
_symmetry_cell_setting 'orthorhombic'
loop_
_space_group_symop_operation_xyz
x,y,z
1/2-x,-y,1/2+z
1/2+x,1/2-y,1/2-z
-x,1/2+y,-z
-x,-y,-z
1/2+x,y,1/2-z
1/2-x,1/2+y,1/2+z
x,1/2-y,z
loop_
_atom_site_type_symbol
_atom_site_label
_atom_site_fract_x
_atom_site_fract_y
_atom_site_fract_z
Si Si1 0.638861 0.992355 0.875882
Si Si2 0.385337 0.430658 0.633331
Si Si3 0.101001 0.874797 0.364591
Si Si4 0.869005 0.750000 0.712424
Si Si5 0.228880 0.553614 0.849326
Si Si6 0.011105 0.367755 0.056843
Si Si7 0.133882 0.750000 0.646112
O O1 0.670657 0.978213 0.757556
O O2 0.630523 0.866633 0.908849
O O3 0.749272 0.070855 0.907738
O O4 0.517684 0.058511 0.893117
O O5 0.395610 0.382816 0.742374
O O6 0.408875 0.557722 0.626199
O O7 0.491520 0.391856 0.560041
O O8 0.100640 0.750000 0.391328
O O9 0.217691 0.944627 0.395196
O O10 0.837893 0.862141 0.658046
O O11 0.756797 0.750000 0.790425
O O12 0.014606 0.750000 0.718122
O O13 0.123288 0.613833 0.905375
O O14 0.056759 0.250000 0.066075
#
# Coordination Sequence:
#
# PCOD9462047 Si02
#       7
#     8   8   8   4   8   8   4
#     4  10  21  36  60  89 122 158 211 258 316 372
#     4  10  24  41  59  95 127 163 212 254 320 394
#     4  11  22  39  62  88 123 166 210 262 311 379
#     4  10  18  32  58  90 124 154 201 266 327 373
#     4  10  20  36  58  90 117 158 208 258 315 374
#     4  11  22  41  65  91 129 168 205 261 326 385
#     4  10  20  32  60  92 126 158 201 274 321 377
#
# _framework density 25.827490000000001
#
# number of rings (size 3 to 8) (size 9 to 14) (size 15 to 20)
#    0.000    1.667    4.167    0.500    1.167    3.333 
#    1.500    1.667    0.000    0.000    0.000    0.000 
#    0.000    0.000    0.000    0.000    0.000    0.000 
#
# Total GULP energy -268298.011824 kJ/mol
# GULP energy per Si atom -5589.541913 kJ/mol
# Density = 2.576871 g / cm^3
# Si number density = 25.827490 Si / 1000 Ang^3
#
#
#
# Elastic Constant Matrix: (Units=GPa)
#
#
# Indices 1 2 3 4 5 6 
#
# 1 112.7235 21.3542 -3.1116 0.0000 0.0000 0.0000
# 2 21.3542 180.7716 3.6793 0.0000 0.0000 0.0000
# 3 -3.1116 3.6793 57.8343 0.0000 0.0000 0.0000
# 4 0.0000 0.0000 0.0000 16.2203 0.0000 0.0000
# 5 0.0000 0.0000 0.0000 0.0000 19.5542 0.0000
# 6 0.0000 0.0000 0.0000 0.0000 0.0000 35.6106
#
#
#
# Elastic Compliance Matrix: (Units=1/GPa)
#
#
# Indices 1 2 3 4 5 6 
#
# 1 0.009092 -0.001085 0.000558 0.000000 0.000000 0.000000
# 2 -0.001085 0.005669 -0.000419 0.000000 0.000000 0.000000
# 3 0.000558 -0.000419 0.017347 0.000000 0.000000 0.000000
# 4 0.000000 0.000000 0.000000 0.061651 0.000000 0.000000
# 5 0.000000 0.000000 0.000000 0.000000 0.051140 0.000000
# 6 0.000000 0.000000 0.000000 0.000000 0.000000 0.028082
#
#
# Mechanical properties :
#
#
# Convention : Reuss Voigt Hill
#
# Bulk Modulus (GPa) = 33.09514 43.90815 38.50164
# Shear Modulus (GPa) = 27.03500 36.23751 31.63625
#
# Velocity S-wave (km/s) = 3.23887 3.74981 3.50366
# Velocity P-wave (km/s) = 5.17965 5.98210 5.59528
#
# Compressibility (1/GPa) = 0.03021592
#
# Stress axis : x y z
#
# Youngs Moduli (GPa) = 109.98324 176.41069 57.64535
#
# Poissons Ratio (x) = 0.19148 -0.03218
# Poissons Ratio (y) = 0.11938 0.02415
# Poissons Ratio (z) = -0.06140 0.07392
#
# Static dielectric constant tensor:
#      x y z
#    x 1.989920 0.000000 0.000000 
#    y 0.000000 2.039850 0.000000 
#    z 0.000000 0.000000 2.233150 
# 
# From -- ./inp_files/23055.got.cif
#   From: 2010.05.17/outbox.cif.g08.bks.cpg/sg62_12_cif.got.tgz:23055.got - 2010.06.03 15:25:27.
