data_PCOD9462575
_publ_section_title
;
Structure prediction by ZEFSAII (Michael W. Deem and Ramdas Pophale) SiO2 
 PCOD9462575
Probable space group: P N M A
;
_chemical_formula_sum "Si O2"
_cell_formula_units_Z 64
_cell_length_a 14.103797
_cell_length_b 9.635761
_cell_length_c 25.950019
_cell_angle_alpha 90.000000
_cell_angle_beta 90.000000
_cell_angle_gamma 90.000000
_cell_volume 3526.628785
_symmetry_space_group_name_H-M "P N M A"
_symmetry_group_IT_number 62
_symmetry_cell_setting 'orthorhombic'
loop_
_space_group_symop_operation_xyz
x,y,z
1/2-x,-y,1/2+z
1/2+x,1/2-y,1/2-z
-x,1/2+y,-z
-x,-y,-z
1/2+x,y,1/2-z
1/2-x,1/2+y,1/2+z
x,1/2-y,z
loop_
_atom_site_type_symbol
_atom_site_label
_atom_site_fract_x
_atom_site_fract_y
_atom_site_fract_z
Si Si1 0.549949 0.915969 0.454263
Si Si2 0.252386 0.590670 0.082511
Si Si3 0.680826 0.409782 0.728272
Si Si4 0.097654 0.910676 0.268468
Si Si5 0.016859 0.405480 0.357770
Si Si6 0.198266 0.903204 0.672259
Si Si7 0.028461 0.086771 0.549602
Si Si8 0.499769 0.416515 0.662228
O O1 0.530178 0.750000 0.458911
O O2 0.664292 0.933695 0.455301
O O3 0.518999 0.964715 0.396298
O O4 0.500000 0.000000 0.500000
O O5 0.244061 0.750000 0.101167
O O6 0.242356 0.490740 0.131379
O O7 0.357547 0.575974 0.058949
O O8 0.657945 0.250000 0.743134
O O9 0.792120 0.411768 0.715797
O O10 0.676849 0.511067 0.776611
O O11 0.604497 0.450938 0.684845
O O12 0.064339 0.750000 0.275279
O O13 0.073312 0.950677 0.209097
O O14 0.049049 0.020800 0.305589
O O15 0.057514 0.250000 0.365171
O O16 0.904073 0.389038 0.354012
O O17 0.028796 0.514604 0.403822
O O18 0.237272 0.750000 0.682980
O O19 0.006547 0.250000 0.545412
O O20 0.000000 0.000000 0.500000
O O21 0.494410 0.250000 0.658073
#
# Coordination Sequence:
#
# PCOD9462575 Si02
#       8
#     8   8   8   8   8   8   8   8
#     4  10  21  40  61  82 110 150 197 244 290 336
#     4   9  19  36  59  82 109 148 194 233 279 339
#     4  10  19  32  53  79 109 145 183 221 272 337
#     4  10  19  33  55  81 108 144 187 225 276 341
#     4  10  20  34  52  77 112 147 178 221 275 335
#     4  10  19  31  52  82 113 142 179 225 274 326
#     4  10  20  36  58  83 111 146 187 234 284 340
#     4   9  18  34  56  80 109 144 186 234 277 332
#
# _framework density 18.147642000000001
#
# number of rings (size 3 to 8) (size 9 to 14) (size 15 to 20)
#    0.000    2.250    1.250    1.875    0.000    4.500 
#    2.250    1.250    0.000    0.000    0.000    0.000 
#    0.000    0.000    0.000    0.000    0.000    0.000 
#
# Total GULP energy -356369.258797 kJ/mol
# GULP energy per Si atom -5568.269669 kJ/mol
# Density = 1.810634 g / cm^3
# Si number density = 18.147642 Si / 1000 Ang^3
#
#
#
# Elastic Constant Matrix: (Units=GPa)
#
#
# Indices 1 2 3 4 5 6 
#
# 1 71.9180 30.9930 26.5773 0.0000 0.0000 0.0000
# 2 30.9930 118.0276 64.2316 0.0000 0.0000 0.0000
# 3 26.5773 64.2316 113.7536 0.0000 0.0000 0.0000
# 4 0.0000 0.0000 0.0000 11.9113 0.0000 0.0000
# 5 0.0000 0.0000 0.0000 0.0000 27.9700 0.0000
# 6 0.0000 0.0000 0.0000 0.0000 0.0000 17.2375
#
#
#
# Elastic Compliance Matrix: (Units=1/GPa)
#
#
# Indices 1 2 3 4 5 6 
#
# 1 0.015979 -0.003124 -0.001969 0.000000 0.000000 0.000000
# 2 -0.003124 0.012842 -0.006521 0.000000 0.000000 0.000000
# 3 -0.001969 -0.006521 0.012933 0.000000 0.000000 0.000000
# 4 0.000000 0.000000 0.000000 0.083954 0.000000 0.000000
# 5 0.000000 0.000000 0.000000 0.000000 0.035753 0.000000
# 6 0.000000 0.000000 0.000000 0.000000 0.000000 0.058013
#
#
# Mechanical properties :
#
#
# Convention : Reuss Voigt Hill
#
# Bulk Modulus (GPa) = 53.98227 60.81143 57.39685
# Shear Modulus (GPa) = 20.09017 23.55026 21.82021
#
# Velocity S-wave (km/s) = 3.33083 3.60627 3.47129
# Velocity P-wave (km/s) = 6.67857 7.13599 6.91106
#
# Compressibility (1/GPa) = 0.01852460
#
# Stress axis : x y z
#
# Youngs Moduli (GPa) = 62.58282 77.86968 77.31977
#
# Poissons Ratio (x) = 0.24329 0.15225
# Poissons Ratio (y) = 0.19553 0.50423
# Poissons Ratio (z) = 0.12323 0.50781
#
# Static dielectric constant tensor:
#      x y z
#    x 1.672540 0.000000 0.000000 
#    y 0.000000 1.645630 0.000000 
#    z 0.000000 0.000000 1.620850 
# 
# From -- ./inp_files/29791.got.cif
#   From: 2010.05.17/outbox.cif.g08.bks.cpg/sg62_15_cif.got.tgz:29791.got - 2010.06.03 15:25:27.
