data_PCOD9462726
_publ_section_title
;
Structure prediction by ZEFSAII (Michael W. Deem and Ramdas Pophale) SiO2 
 PCOD9462726
Probable space group: P N M A
;
_chemical_formula_sum "Si O2"
_cell_formula_units_Z 64
_cell_length_a 20.683713
_cell_length_b 9.288453
_cell_length_c 19.807676
_cell_angle_alpha 90.000000
_cell_angle_beta 90.000000
_cell_angle_gamma 90.000000
_cell_volume 3805.444693
_symmetry_space_group_name_H-M "P N M A"
_symmetry_group_IT_number 62
_symmetry_cell_setting 'orthorhombic'
loop_
_space_group_symop_operation_xyz
x,y,z
1/2-x,-y,1/2+z
1/2+x,1/2-y,1/2-z
-x,1/2+y,-z
-x,-y,-z
1/2+x,y,1/2-z
1/2-x,1/2+y,1/2+z
x,1/2-y,z
loop_
_atom_site_type_symbol
_atom_site_label
_atom_site_fract_x
_atom_site_fract_y
_atom_site_fract_z
Si Si1 0.686998 0.421692 0.707098
Si Si2 0.945173 0.921307 0.283133
Si Si3 0.299762 0.578553 0.710891
Si Si4 0.732481 0.082261 0.558290
Si Si5 0.267287 0.080564 0.577144
Si Si6 0.887968 0.081464 0.565675
Si Si7 0.927472 0.921031 0.700781
Si Si8 0.887639 0.580797 0.429584
O O1 0.698914 0.250000 0.717406
O O2 0.615911 0.452811 0.735440
O O3 0.740008 0.509665 0.748611
O O4 0.696519 0.451906 0.627968
O O5 0.958250 0.750000 0.279366
O O6 0.923801 0.953924 0.360226
O O7 0.008442 0.011726 0.266952
O O8 0.291474 0.750000 0.704709
O O9 0.300198 0.505270 0.637739
O O10 0.364801 0.550056 0.753154
O O11 0.720974 0.250000 0.541210
O O12 0.809761 0.067322 0.570313
O O13 0.714235 0.982577 0.495659
O O14 0.280355 0.250000 0.582042
O O15 0.189294 0.060598 0.582850
O O16 0.904684 0.250000 0.569107
O O17 0.917326 0.996748 0.628502
O O18 0.907209 0.013877 0.493768
O O19 0.933468 0.750000 0.692134
O O20 0.897529 0.750000 0.444936
#
# Coordination Sequence:
#
# PCOD9462726 Si02
#       8
#     8   8   8   8   8   8   8   8
#     4  10  19  36  59  83 109 140 179 224 272 321
#     4  10  21  37  56  78 106 144 183 220 268 322
#     4  11  22  35  55  81 109 142 182 225 271 318
#     4   9  18  32  54  83 112 138 173 221 271 323
#     4  10  19  33  55  81 111 141 176 223 270 320
#     4  10  19  32  53  78 106 144 184 219 261 319
#     4  11  24  38  52  76 110 146 182 225 271 316
#     4   9  18  33  52  76 109 143 177 219 264 317
#
# _framework density 16.818007999999999
#
# number of rings (size 3 to 8) (size 9 to 14) (size 15 to 20)
#    0.000    2.000    2.500    1.500    0.000    4.500 
#    0.000    0.000    0.000    0.750    0.000    0.000 
#    0.000    0.000    0.000    0.000    0.000    0.000 
#
# Total GULP energy -357371.189867 kJ/mol
# GULP energy per Si atom -5583.924842 kJ/mol
# Density = 1.677973 g / cm^3
# Si number density = 16.818008 Si / 1000 Ang^3
#
#
#
# Elastic Constant Matrix: (Units=GPa)
#
#
# Indices 1 2 3 4 5 6 
#
# 1 46.4737 39.1057 19.6668 0.0000 0.0000 0.0000
# 2 39.1057 60.7877 43.9304 0.0000 0.0000 0.0000
# 3 19.6668 43.9304 70.1252 0.0000 0.0000 0.0000
# 4 0.0000 0.0000 0.0000 30.3839 0.0000 0.0000
# 5 0.0000 0.0000 0.0000 0.0000 16.3091 0.0000
# 6 0.0000 0.0000 0.0000 0.0000 0.0000 9.0438
#
#
#
# Elastic Compliance Matrix: (Units=1/GPa)
#
#
# Indices 1 2 3 4 5 6 
#
# 1 0.051568 -0.041520 0.011548 0.000000 0.000000 0.000000
# 2 -0.041520 0.063490 -0.028129 0.000000 0.000000 0.000000
# 3 0.011548 -0.028129 0.028643 0.000000 0.000000 0.000000
# 4 0.000000 0.000000 0.000000 0.032912 0.000000 0.000000
# 5 0.000000 0.000000 0.000000 0.000000 0.061316 0.000000
# 6 0.000000 0.000000 0.000000 0.000000 0.000000 0.110573
#
#
# Mechanical properties :
#
#
# Convention : Reuss Voigt Hill
#
# Bulk Modulus (GPa) = 36.36533 42.53250 39.44892
# Shear Modulus (GPa) = 10.55140 16.12626 13.33883
#
# Velocity S-wave (km/s) = 2.50749 3.09992 2.81931
# Velocity P-wave (km/s) = 5.48207 6.17717 5.83997
#
# Compressibility (1/GPa) = 0.02749872
#
# Stress axis : x y z
#
# Youngs Moduli (GPa) = 19.39180 15.75056 34.91240
#
# Poissons Ratio (x) = 0.65397 -0.40318
# Poissons Ratio (y) = 0.80515 0.98205
# Poissons Ratio (z) = -0.22394 0.44305
#
# Static dielectric constant tensor:
#      x y z
#    x 1.562770 0.000000 0.000000 
#    y 0.000000 1.556770 0.000000 
#    z 0.000000 0.000000 1.551630 
# 
# From -- ./inp_files/24766.got.cif
#   From: 2010.05.17/outbox.cif.g08.bks.cpg/sg62_13_cif.got.tgz:24766.got - 2010.06.03 15:25:27.
