data_PCOD9462571
_publ_section_title
;
Structure prediction by ZEFSAII (Michael W. Deem and Ramdas Pophale) SiO2 
 PCOD9462571
Probable space group: P N M A
;
_chemical_formula_sum "Si O2"
_cell_formula_units_Z 56
_cell_length_a 17.470392
_cell_length_b 9.342432
_cell_length_c 18.906454
_cell_angle_alpha 90.000000
_cell_angle_beta 90.000000
_cell_angle_gamma 90.000000
_cell_volume 3085.834837
_symmetry_space_group_name_H-M "P N M A"
_symmetry_group_IT_number 62
_symmetry_cell_setting 'orthorhombic'
loop_
_space_group_symop_operation_xyz
x,y,z
1/2-x,-y,1/2+z
1/2+x,1/2-y,1/2-z
-x,1/2+y,-z
-x,-y,-z
1/2+x,y,1/2-z
1/2-x,1/2+y,1/2+z
x,1/2-y,z
loop_
_atom_site_type_symbol
_atom_site_label
_atom_site_fract_x
_atom_site_fract_y
_atom_site_fract_z
Si Si1 0.450146 0.582885 0.099089
Si Si2 0.481857 0.578178 0.574371
Si Si3 0.693318 0.421491 0.386849
Si Si4 0.615090 0.417738 0.646457
Si Si5 0.687854 0.078611 0.797541
Si Si6 0.245822 0.917773 0.460234
Si Si7 0.902922 0.916190 0.566101
O O1 0.466426 0.750000 0.113231
O O2 0.381660 0.536475 0.150141
O O3 0.527319 0.492326 0.106045
O O4 0.422551 0.571544 0.017772
O O5 0.500000 0.500000 0.500000
O O6 0.487616 0.750000 0.565352
O O7 0.395876 0.544952 0.600631
O O8 0.543495 0.517854 0.629796
O O9 0.699671 0.250000 0.379008
O O10 0.735734 0.499836 0.322931
O O11 0.737395 0.463009 0.459306
O O12 0.591339 0.250000 0.649952
O O13 0.659565 0.452692 0.718550
O O14 0.675713 0.431683 0.582870
O O15 0.698687 0.250000 0.803832
O O16 0.224361 0.750000 0.460692
O O17 0.177916 0.006458 0.425276
O O18 0.898564 0.750000 0.584422
#
# Coordination Sequence:
#
# PCOD9462571 Si02
#       7
#     8   8   8   8   8   8   8
#     4   9  18  33  52  77 108 142 182 228 282 336
#     4  11  22  39  63  91 120 153 197 248 298 353
#     4  10  21  37  60  87 117 152 191 237 294 352
#     4  10  22  41  61  85 117 153 195 242 296 351
#     4  10  21  39  61  84 114 153 197 243 291 354
#     4  10  19  35  57  81 113 148 184 235 288 338
#     4  10  19  31  52  82 108 137 186 234 275 334
#
# _framework density 18.147438999999999
#
# number of rings (size 3 to 8) (size 9 to 14) (size 15 to 20)
#    0.000    2.000    2.857    0.857    0.000    3.429 
#    2.571    0.000    0.000    0.000    0.000    0.000 
#    0.000    0.000    0.000    0.000    0.000    0.000 
#
# Total GULP energy -312566.644057 kJ/mol
# GULP energy per Si atom -5581.547215 kJ/mol
# Density = 1.810613 g / cm^3
# Si number density = 18.147439 Si / 1000 Ang^3
#
#
#
# Elastic Constant Matrix: (Units=GPa)
#
#
# Indices 1 2 3 4 5 6 
#
# 1 122.9218 64.1257 30.4596 0.0000 0.0000 0.0000
# 2 64.1257 57.3038 26.2707 0.0000 0.0000 0.0000
# 3 30.4596 26.2707 66.1075 0.0000 0.0000 0.0000
# 4 0.0000 0.0000 0.0000 22.2800 0.0000 0.0000
# 5 0.0000 0.0000 0.0000 0.0000 22.4986 0.0000
# 6 0.0000 0.0000 0.0000 0.0000 0.0000 36.8320
#
#
#
# Elastic Compliance Matrix: (Units=1/GPa)
#
#
# Indices 1 2 3 4 5 6 
#
# 1 0.019554 -0.021706 -0.000384 0.000000 0.000000 0.000000
# 2 -0.021706 0.045433 -0.008054 0.000000 0.000000 0.000000
# 3 -0.000384 -0.008054 0.018504 0.000000 0.000000 0.000000
# 4 0.000000 0.000000 0.000000 0.044883 0.000000 0.000000
# 5 0.000000 0.000000 0.000000 0.000000 0.044447 0.000000
# 6 0.000000 0.000000 0.000000 0.000000 0.000000 0.027150
#
#
# Mechanical properties :
#
#
# Convention : Reuss Voigt Hill
#
# Bulk Modulus (GPa) = 43.09526 54.22722 48.66124
# Shear Modulus (GPa) = 18.65725 24.68726 21.67225
#
# Velocity S-wave (km/s) = 3.20987 3.69232 3.45952
# Velocity P-wave (km/s) = 6.12670 6.93715 6.54448
#
# Compressibility (1/GPa) = 0.02320441
#
# Stress axis : x y z
#
# Youngs Moduli (GPa) = 51.14111 22.01063 54.04181
#
# Poissons Ratio (x) = 0.47775 0.02075
# Poissons Ratio (y) = 1.11005 0.43523
# Poissons Ratio (z) = 0.01963 0.17726
#
# Static dielectric constant tensor:
#      x y z
#    x 1.607010 0.000000 0.000000 
#    y 0.000000 1.607510 0.000000 
#    z 0.000000 0.000000 1.616670 
# 
# From -- ./inp_files/27583.got.cif
#   From: 2010.05.17/outbox.cif.g08.bks.cpg/sg62_14_cif.got.tgz:27583.got - 2010.06.03 15:25:27.
