data_PCOD9462171
_publ_section_title
;
Structure prediction by ZEFSAII (Michael W. Deem and Ramdas Pophale) SiO2 
 PCOD9462171
Probable space group: P N M A
;
_chemical_formula_sum "Si O2"
_cell_formula_units_Z 48
_cell_length_a 9.319579
_cell_length_b 19.714425
_cell_length_c 13.742935
_cell_angle_alpha 90.000000
_cell_angle_beta 90.000000
_cell_angle_gamma 90.000000
_cell_volume 2524.991388
_symmetry_space_group_name_H-M "P N M A"
_symmetry_group_IT_number 62
_symmetry_cell_setting 'orthorhombic'
loop_
_space_group_symop_operation_xyz
x,y,z
1/2-x,-y,1/2+z
1/2+x,1/2-y,1/2-z
-x,1/2+y,-z
-x,-y,-z
1/2+x,y,1/2-z
1/2-x,1/2+y,1/2+z
x,1/2-y,z
loop_
_atom_site_type_symbol
_atom_site_label
_atom_site_fract_x
_atom_site_fract_y
_atom_site_fract_z
Si Si1 0.768654 0.324093 0.562270
Si Si2 0.739257 0.463234 0.466751
Si Si3 0.322254 0.395858 0.750055
Si Si4 0.077093 0.672761 0.051832
Si Si5 0.574987 0.488215 0.793678
Si Si6 0.418435 0.064319 0.391598
O O1 0.814182 0.250000 0.525530
O O2 0.801485 0.391035 0.500373
O O3 0.831241 0.337455 0.669509
O O4 0.595065 0.324702 0.565004
O O5 0.856538 0.497624 0.397982
O O6 0.685321 0.509874 0.555566
O O7 0.586789 0.452596 0.411401
O O8 0.363695 0.370085 0.642969
O O9 0.415154 0.460330 0.785194
O O10 0.161655 0.423706 0.747788
O O11 0.631259 0.750000 0.447406
O O12 0.107840 0.633870 0.950359
O O13 0.599615 0.552667 0.723171
#
# Coordination Sequence:
#
# PCOD9462171 Si02
#       6
#     8   8   8   8   8   8
#     4  10  21  37  56  81 114 151 186 226 281 342
#     4  10  19  35  57  82 111 148 188 229 276 334
#     4  12  20  35  56  86 116 140 181 237 284 336
#     4  10  20  35  57  81 111 153 189 224 279 340
#     4  12  21  34  59  86 111 144 186 236 283 323
#     4  10  18  35  56  80 114 144 189 232 270 338
#
# _framework density 19.009965000000001
#
# number of rings (size 3 to 8) (size 9 to 14) (size 15 to 20)
#    0.000    1.333    6.667    1.500    0.000    0.667 
#    0.000    0.833    0.000    0.000    0.000    0.000 
#    0.000    0.000    0.000    0.000    0.000    0.000 
#
# Total GULP energy -267590.224186 kJ/mol
# GULP energy per Si atom -5574.796337 kJ/mol
# Density = 1.896670 g / cm^3
# Si number density = 19.009965 Si / 1000 Ang^3
#
#
#
# Elastic Constant Matrix: (Units=GPa)
#
#
# Indices 1 2 3 4 5 6 
#
# 1 15.3406 3.0853 8.8361 0.0000 0.0000 0.0000
# 2 3.0853 101.8953 24.7830 0.0000 0.0000 0.0000
# 3 8.8361 24.7830 33.4836 0.0000 0.0000 0.0000
# 4 0.0000 0.0000 0.0000 30.3666 0.0000 0.0000
# 5 0.0000 0.0000 0.0000 0.0000 22.9501 0.0000
# 6 0.0000 0.0000 0.0000 0.0000 0.0000 15.1492
#
#
#
# Elastic Compliance Matrix: (Units=1/GPa)
#
#
# Indices 1 2 3 4 5 6 
#
# 1 0.077724 0.003214 -0.022890 0.000000 0.000000 0.000000
# 2 0.003214 0.012101 -0.009805 0.000000 0.000000 0.000000
# 3 -0.022890 -0.009805 0.043163 0.000000 0.000000 0.000000
# 4 0.000000 0.000000 0.000000 0.032931 0.000000 0.000000
# 5 0.000000 0.000000 0.000000 0.000000 0.043573 0.000000
# 6 0.000000 0.000000 0.000000 0.000000 0.000000 0.066010
#
#
# Mechanical properties :
#
#
# Convention : Reuss Voigt Hill
#
# Bulk Modulus (GPa) = 13.50855 24.90314 19.20584
# Shear Modulus (GPa) = 13.92215 21.29419 17.60817
#
# Velocity S-wave (km/s) = 2.70915 3.35051 3.04675
# Velocity P-wave (km/s) = 4.11187 5.30060 4.74362
#
# Compressibility (1/GPa) = 0.07402720
#
# Stress axis : x y z
#
# Youngs Moduli (GPa) = 12.86598 82.63460 23.16803
#
# Poissons Ratio (x) = -0.26557 0.53031
# Poissons Ratio (y) = -0.04135 0.22716
# Poissons Ratio (z) = 0.29450 0.81024
#
# Static dielectric constant tensor:
#      x y z
#    x 1.639310 0.000000 0.000000 
#    y 0.000000 1.674790 0.000000 
#    z 0.000000 0.000000 1.669370 
# 
# From -- ./inp_files/16935.got.cif
#   From: 2010.05.17/outbox.cif.g08.bks.cpg/sg62_9_cif.got.tgz:16935.got - 2010.06.03 15:25:27.
