data_PCOD9462971
_publ_section_title
;
Structure prediction by ZEFSAII (Michael W. Deem and Ramdas Pophale) SiO2 
 PCOD9462971
Probable space group: P N M A
;
_chemical_formula_sum "Si O2"
_cell_formula_units_Z 64
_cell_length_a 12.324710
_cell_length_b 20.224816
_cell_length_c 13.584547
_cell_angle_alpha 90.000000
_cell_angle_beta 90.000000
_cell_angle_gamma 90.000000
_cell_volume 3386.151999
_symmetry_space_group_name_H-M "P N M A"
_symmetry_group_IT_number 62
_symmetry_cell_setting 'orthorhombic'
loop_
_space_group_symop_operation_xyz
x,y,z
1/2-x,-y,1/2+z
1/2+x,1/2-y,1/2-z
-x,1/2+y,-z
-x,-y,-z
1/2+x,y,1/2-z
1/2-x,1/2+y,1/2+z
x,1/2-y,z
loop_
_atom_site_type_symbol
_atom_site_label
_atom_site_fract_x
_atom_site_fract_y
_atom_site_fract_z
Si Si1 0.000544 0.560259 0.076648
Si Si2 0.024468 0.329261 0.067835
Si Si3 0.720751 0.673480 0.589729
Si Si4 0.174789 0.471524 0.765835
Si Si5 0.919474 0.829235 0.716238
Si Si6 0.071935 0.567909 0.620678
Si Si7 0.144110 0.511756 0.431548
Si Si8 0.749609 0.093892 0.916694
O O1 0.124756 0.576629 0.101341
O O2 0.932014 0.539061 0.170124
O O3 0.947195 0.624205 0.023315
O O4 0.000000 0.500000 0.000000
O O5 0.024615 0.250000 0.047050
O O6 0.901413 0.352297 0.095710
O O7 0.089720 0.341893 0.167533
O O8 0.712634 0.750000 0.614027
O O9 0.811665 0.645850 0.661491
O O10 0.756273 0.661655 0.477213
O O11 0.156927 0.535894 0.696994
O O12 0.274622 0.474770 0.841921
O O13 0.190127 0.413455 0.686103
O O14 0.931443 0.750000 0.704034
O O15 0.020527 0.866314 0.666419
O O16 0.119355 0.570826 0.509635
O O17 0.969620 0.517147 0.608604
O O18 0.200238 0.457909 0.504165
#
# Coordination Sequence:
#
# PCOD9462971 Si02
#       8
#     8   8   8   8   8   8   8   8
#     4  11  20  35  56  83 107 140 185 222 270 324
#     4   9  20  36  54  80 113 144 178 225 273 326
#     4   9  18  35  57  76 105 143 182 219 262 324
#     4  11  22  35  54  81 108 144 177 226 272 327
#     4  10  19  33  55  82 107 141 180 217 273 333
#     4  10  21  34  56  79 112 144 177 226 274 333
#     4  10  20  37  52  79 110 139 178 219 282 316
#     4  10  20  36  54  77 107 137 181 222 266 320
#
# _framework density 18.900510000000001
#
# number of rings (size 3 to 8) (size 9 to 14) (size 15 to 20)
#    0.000    2.000    2.500    1.500    1.750    0.000 
#    2.250    0.625    0.000    0.750    0.000    0.000 
#    0.000    0.000    0.000    0.000    0.000    0.000 
#
# Total GULP energy -356886.006181 kJ/mol
# GULP energy per Si atom -5576.343847 kJ/mol
# Density = 1.885749 g / cm^3
# Si number density = 18.900510 Si / 1000 Ang^3
#
#
#
# Elastic Constant Matrix: (Units=GPa)
#
#
# Indices 1 2 3 4 5 6 
#
# 1 38.9858 -8.8230 23.5826 0.0000 0.0000 0.0000
# 2 -8.8230 28.3256 12.3198 0.0000 0.0000 0.0000
# 3 23.5826 12.3198 109.1040 0.0000 0.0000 0.0000
# 4 0.0000 0.0000 0.0000 27.1025 0.0000 0.0000
# 5 0.0000 0.0000 0.0000 0.0000 40.8857 0.0000
# 6 0.0000 0.0000 0.0000 0.0000 0.0000 17.8503
#
#
#
# Elastic Compliance Matrix: (Units=1/GPa)
#
#
# Indices 1 2 3 4 5 6 
#
# 1 0.034494 0.014710 -0.009117 0.000000 0.000000 0.000000
# 2 0.014710 0.043400 -0.008080 0.000000 0.000000 0.000000
# 3 -0.009117 -0.008080 0.012049 0.000000 0.000000 0.000000
# 4 0.000000 0.000000 0.000000 0.036897 0.000000 0.000000
# 5 0.000000 0.000000 0.000000 0.000000 0.024458 0.000000
# 6 0.000000 0.000000 0.000000 0.000000 0.000000 0.056021
#
#
# Mechanical properties :
#
#
# Convention : Reuss Voigt Hill
#
# Bulk Modulus (GPa) = 11.76912 25.61935 18.69424
# Shear Modulus (GPa) = 20.77995 27.12345 23.95170
#
# Velocity S-wave (km/s) = 3.31938 3.79233 3.56371
# Velocity P-wave (km/s) = 4.57509 5.72364 5.18128
#
# Compressibility (1/GPa) = 0.08496811
#
# Stress axis : x y z
#
# Youngs Moduli (GPa) = 28.99042 23.04151 82.99770
#
# Poissons Ratio (x) = -0.33893 0.75667
# Poissons Ratio (y) = -0.42644 0.67063
# Poissons Ratio (z) = 0.26430 0.18618
#
# Static dielectric constant tensor:
#      x y z
#    x 1.694060 0.000000 0.000000 
#    y 0.000000 1.673290 0.000000 
#    z 0.000000 0.000000 1.666500 
# 
# From -- ./inp_files/12551.got.cif
#   From: 2010.05.17/outbox.cif.g08.bks.cpg/sg62_7_cif.got.tgz:12551.got - 2010.06.03 15:25:27.
