data_PCOD9462357
_publ_section_title
;
Structure prediction by ZEFSAII (Michael W. Deem and Ramdas Pophale) SiO2 
 PCOD9462357
Probable space group: P N M A
;
_chemical_formula_sum "Si O2"
_cell_formula_units_Z 48
_cell_length_a 24.130411
_cell_length_b 8.955747
_cell_length_c 14.202341
_cell_angle_alpha 90.000000
_cell_angle_beta 90.000000
_cell_angle_gamma 90.000000
_cell_volume 3069.209058
_symmetry_space_group_name_H-M "P N M A"
_symmetry_group_IT_number 62
_symmetry_cell_setting 'orthorhombic'
loop_
_space_group_symop_operation_xyz
x,y,z
1/2-x,-y,1/2+z
1/2+x,1/2-y,1/2-z
-x,1/2+y,-z
-x,-y,-z
1/2+x,y,1/2-z
1/2-x,1/2+y,1/2+z
x,1/2-y,z
loop_
_atom_site_type_symbol
_atom_site_label
_atom_site_fract_x
_atom_site_fract_y
_atom_site_fract_z
Si Si1 0.276193 0.570375 0.888113
Si Si2 0.064876 0.071799 0.104067
Si Si3 0.273646 0.570429 0.104645
Si Si4 0.837324 0.428837 0.782264
Si Si5 0.334982 0.428728 0.273404
Si Si6 0.436371 0.429512 0.400814
O O1 0.283338 0.750000 0.883638
O O2 0.319845 0.492381 0.819157
O O3 0.215316 0.536797 0.845587
O O4 0.279599 0.522551 0.996582
O O5 0.071585 0.250000 0.104300
O O6 0.000189 0.037287 0.124123
O O7 0.106664 0.997887 0.177291
O O8 0.076647 0.007533 0.999950
O O9 0.276762 0.750000 0.107042
O O10 0.213516 0.528859 0.147508
O O11 0.319112 0.504074 0.175143
O O12 0.840855 0.250000 0.779738
O O13 0.335897 0.250000 0.260625
O O14 0.392497 0.474912 0.321371
O O15 0.431441 0.250000 0.413998
#
# Coordination Sequence:
#
# PCOD9462357 Si02
#       6
#     8   8   8   8   8   8
#     4   9  17  30  47  67  92 121 151 183 223 270
#     4  10  19  30  47  70  94 122 155 188 224 270
#     4   9  18  31  47  68  94 122 151 187 229 271
#     4  10  19  31  47  68  95 123 151 186 228 271
#     4   9  17  30  48  68  92 121 150 183 225 272
#     4   9  18  32  48  68  95 124 152 186 229 272
#
# _framework density 15.639207000000001
#
# number of rings (size 3 to 8) (size 9 to 14) (size 15 to 20)
#    0.000    2.667    0.000    2.000    0.000    5.333 
#    0.000    3.333    0.000    1.000    0.000    0.000 
#    0.000    0.000    0.000    0.000    0.000    0.000 
#
# Total GULP energy -267631.701133 kJ/mol
# GULP energy per Si atom -5575.660440 kJ/mol
# Density = 1.560361 g / cm^3
# Si number density = 15.639207 Si / 1000 Ang^3
#
#
#
# Elastic Constant Matrix: (Units=GPa)
#
#
# Indices 1 2 3 4 5 6 
#
# 1 83.6911 33.2418 71.7037 0.0000 0.0000 0.0000
# 2 33.2418 23.4027 41.9166 0.0000 0.0000 0.0000
# 3 71.7037 41.9166 152.6139 0.0000 0.0000 0.0000
# 4 0.0000 0.0000 0.0000 29.5126 0.0000 0.0000
# 5 0.0000 0.0000 0.0000 0.0000 26.9984 0.0000
# 6 0.0000 0.0000 0.0000 0.0000 0.0000 21.0013
#
#
#
# Elastic Compliance Matrix: (Units=1/GPa)
#
#
# Indices 1 2 3 4 5 6 
#
# 1 0.028931 -0.032964 -0.004539 0.000000 0.000000 0.000000
# 2 -0.032964 0.121665 -0.017928 0.000000 0.000000 0.000000
# 3 -0.004539 -0.017928 0.013609 0.000000 0.000000 0.000000
# 4 0.000000 0.000000 0.000000 0.033884 0.000000 0.000000
# 5 0.000000 0.000000 0.000000 0.000000 0.037039 0.000000
# 6 0.000000 0.000000 0.000000 0.000000 0.000000 0.047616
#
#
# Mechanical properties :
#
#
# Convention : Reuss Voigt Hill
#
# Bulk Modulus (GPa) = 18.74709 61.49245 40.11977
# Shear Modulus (GPa) = 12.15399 23.02551 17.58975
#
# Velocity S-wave (km/s) = 2.79076 3.84121 3.35733
# Velocity P-wave (km/s) = 4.73263 7.68622 6.38262
#
# Compressibility (1/GPa) = 0.05334161
#
# Stress axis : x y z
#
# Youngs Moduli (GPa) = 34.56527 8.21930 73.48016
#
# Poissons Ratio (x) = 0.27095 0.33351
# Poissons Ratio (y) = 1.13943 1.31737
# Poissons Ratio (z) = 0.15688 0.14736
#
# Static dielectric constant tensor:
#      x y z
#    x 1.514220 0.000000 0.000000 
#    y 0.000000 1.522400 0.000000 
#    z 0.000000 0.000000 1.498780 
# 
# From -- ./inp_files/15120.got.cif
#   From: 2010.05.17/outbox.cif.g08.bks.cpg/sg62_8_cif.got.tgz:15120.got - 2010.06.03 15:25:27.
