data_PCOD9462461
_publ_section_title
;
Structure prediction by ZEFSAII (Michael W. Deem and Ramdas Pophale) SiO2 
 PCOD9462461
Probable space group: P N M A
;
_chemical_formula_sum "Si O2"
_cell_formula_units_Z 64
_cell_length_a 15.408722
_cell_length_b 9.576217
_cell_length_c 22.765120
_cell_angle_alpha 90.000000
_cell_angle_beta 90.000000
_cell_angle_gamma 90.000000
_cell_volume 3359.158857
_symmetry_space_group_name_H-M "P N M A"
_symmetry_group_IT_number 62
_symmetry_cell_setting 'orthorhombic'
loop_
_space_group_symop_operation_xyz
x,y,z
1/2-x,-y,1/2+z
1/2+x,1/2-y,1/2-z
-x,1/2+y,-z
-x,-y,-z
1/2+x,y,1/2-z
1/2-x,1/2+y,1/2+z
x,1/2-y,z
loop_
_atom_site_type_symbol
_atom_site_label
_atom_site_fract_x
_atom_site_fract_y
_atom_site_fract_z
Si Si1 0.351631 0.585794 0.194728
Si Si2 0.024128 0.588914 0.232034
Si Si3 0.057425 0.087507 0.578215
Si Si4 0.469148 0.587668 0.403778
Si Si5 0.313836 0.914650 0.706477
Si Si6 0.719965 0.417106 0.549486
Si Si7 0.890507 0.913770 0.558260
Si Si8 0.366791 0.585717 0.571025
O O1 0.329779 0.750000 0.201560
O O2 0.443583 0.560677 0.225784
O O3 0.369315 0.556135 0.126166
O O4 0.275726 0.491505 0.220252
O O5 0.052190 0.750000 0.240302
O O6 0.105136 0.486556 0.238595
O O7 0.988196 0.576098 0.165577
O O8 0.031517 0.250000 0.586838
O O9 0.092586 0.073814 0.512121
O O10 0.974150 0.989038 0.586074
O O11 0.478628 0.750000 0.420868
O O12 0.370510 0.547802 0.418232
O O13 0.543849 0.498494 0.434743
O O14 0.310274 0.750000 0.717254
O O15 0.330516 0.938101 0.636462
O O16 0.735773 0.250000 0.555306
O O17 0.801920 0.504451 0.571289
O O18 0.699904 0.448978 0.480892
O O19 0.885881 0.750000 0.573016
O O20 0.385862 0.750000 0.565491
#
# Coordination Sequence:
#
# PCOD9462461 Si02
#       8
#     8   8   8   8   8   8   8   8
#     4  10  20  36  59  81 101 135 182 224 260 306
#     4   9  19  37  56  76 103 136 177 221 260 303
#     4   9  19  36  55  75 100 132 170 214 261 305
#     4   9  18  32  50  72 100 134 170 212 257 300
#     4  10  20  34  54  80 108 137 170 215 269 316
#     4  10  19  31  48  73 105 139 172 205 251 310
#     4  10  20  33  51  76 105 134 166 208 259 313
#     4   9  18  31  49  74 103 136 172 210 255 307
#
# _framework density 19.052388000000001
#
# number of rings (size 3 to 8) (size 9 to 14) (size 15 to 20)
#    0.000    2.500    0.000    1.875    0.000    3.000 
#    2.250    0.000    0.000    0.000    0.000    0.000 
#    0.000    0.000    0.000    0.000    0.000    0.000 
#
# Total GULP energy -357207.815593 kJ/mol
# GULP energy per Si atom -5581.372119 kJ/mol
# Density = 1.900902 g / cm^3
# Si number density = 19.052388 Si / 1000 Ang^3
#
#
#
# Elastic Constant Matrix: (Units=GPa)
#
#
# Indices 1 2 3 4 5 6 
#
# 1 116.4789 82.2803 -0.3783 0.0000 0.0000 0.0000
# 2 82.2803 79.3569 10.5651 0.0000 0.0000 0.0000
# 3 -0.3783 10.5651 10.2697 0.0000 0.0000 0.0000
# 4 0.0000 0.0000 0.0000 16.4194 0.0000 0.0000
# 5 0.0000 0.0000 0.0000 0.0000 13.4191 0.0000
# 6 0.0000 0.0000 0.0000 0.0000 0.0000 39.3862
#
#
#
# Elastic Compliance Matrix: (Units=1/GPa)
#
#
# Indices 1 2 3 4 5 6 
#
# 1 0.059961 -0.072377 0.076668 0.000000 0.000000 0.000000
# 2 -0.072377 0.101965 -0.107564 0.000000 0.000000 0.000000
# 3 0.076668 -0.107564 0.210857 0.000000 0.000000 0.000000
# 4 0.000000 0.000000 0.000000 0.060904 0.000000 0.000000
# 5 0.000000 0.000000 0.000000 0.000000 0.074521 0.000000
# 6 0.000000 0.000000 0.000000 0.000000 0.000000 0.025390
#
#
# Mechanical properties :
#
#
# Convention : Reuss Voigt Hill
#
# Bulk Modulus (GPa) = 6.01555 43.44885 24.73220
# Shear Modulus (GPa) = 6.28491 21.42083 13.85287
#
# Velocity S-wave (km/s) = 1.81822 3.35671 2.69939
# Velocity P-wave (km/s) = 2.75175 6.15450 4.76707
#
# Compressibility (1/GPa) = 0.16623573
#
# Stress axis : x y z
#
# Youngs Moduli (GPa) = 16.67743 9.80726 4.74256
#
# Poissons Ratio (x) = 0.70982 -0.36360
# Poissons Ratio (y) = 1.20707 0.51013
# Poissons Ratio (z) = -1.27862 1.05491
#
# Static dielectric constant tensor:
#      x y z
#    x 1.631690 0.000000 0.000000 
#    y 0.000000 1.636420 0.000000 
#    z 0.000000 0.000000 1.698880 
# 
# From -- ./inp_files/29773.got.cif
#   From: 2010.05.17/outbox.cif.g08.bks.cpg/sg62_15_cif.got.tgz:29773.got - 2010.06.03 15:25:27.
