data_PCOD9462715
_publ_section_title
;
Structure prediction by ZEFSAII (Michael W. Deem and Ramdas Pophale) SiO2 
 PCOD9462715
Probable space group: P N M A
;
_chemical_formula_sum "Si O2"
_cell_formula_units_Z 64
_cell_length_a 19.888457
_cell_length_b 8.604701
_cell_length_c 21.132520
_cell_angle_alpha 90.000000
_cell_angle_beta 90.000000
_cell_angle_gamma 90.000000
_cell_volume 3616.497450
_symmetry_space_group_name_H-M "P N M A"
_symmetry_group_IT_number 62
_symmetry_cell_setting 'orthorhombic'
loop_
_space_group_symop_operation_xyz
x,y,z
1/2-x,-y,1/2+z
1/2+x,1/2-y,1/2-z
-x,1/2+y,-z
-x,-y,-z
1/2+x,y,1/2-z
1/2-x,1/2+y,1/2+z
x,1/2-y,z
loop_
_atom_site_type_symbol
_atom_site_label
_atom_site_fract_x
_atom_site_fract_y
_atom_site_fract_z
Si Si1 0.461098 0.562420 0.810901
Si Si2 0.036683 0.562284 0.061785
Si Si3 0.171751 0.563554 0.757084
Si Si4 0.459837 0.936011 0.310610
Si Si5 0.323546 0.562819 0.755352
Si Si6 0.463007 0.063302 0.061712
Si Si7 0.671316 0.436848 0.885265
Si Si8 0.823514 0.437351 0.885956
O O1 0.464433 0.750000 0.809510
O O2 0.500668 0.499854 0.750226
O O3 0.383384 0.515252 0.801938
O O4 0.495812 0.511128 0.875727
O O5 0.036298 0.750000 0.059619
O O6 0.114356 0.510802 0.070598
O O7 0.996427 0.513673 0.124998
O O8 0.000000 0.500000 0.000000
O O9 0.166470 0.750000 0.755102
O O10 0.115897 0.496526 0.803503
O O11 0.248014 0.518415 0.774782
O O12 0.159684 0.499645 0.686051
O O13 0.460591 0.750000 0.308418
O O14 0.324750 0.750000 0.750151
O O15 0.336107 0.494868 0.685549
O O16 0.462231 0.250000 0.060356
O O17 0.387221 0.002007 0.070487
O O18 0.500000 0.000000 0.000000
O O19 0.668192 0.250000 0.884196
O O20 0.747515 0.485370 0.903709
O O21 0.824165 0.250000 0.884857
#
# Coordination Sequence:
#
# PCOD9462715 Si02
#       8
#     8   8   8   8   8   8   8   8
#     4  10  20  35  56  81 108 139 179 226 275 326
#     4  10  22  38  55  80 112 147 187 228 275 327
#     4  10  19  32  52  81 113 142 179 224 273 328
#     4  11  21  34  55  81 110 142 181 226 274 325
#     4   9  18  32  53  81 109 140 179 225 275 326
#     4  11  23  38  56  80 113 148 187 229 277 331
#     4  10  19  33  56  81 108 142 182 225 274 326
#     4   9  18  34  54  79 109 142 180 225 273 326
#
# _framework density 17.696681000000002
#
# number of rings (size 3 to 8) (size 9 to 14) (size 15 to 20)
#    0.000    2.000    2.500    1.500    0.000    3.000 
#    0.000    1.250    0.000    6.000    0.000    0.000 
#    0.000    0.000    0.000    0.000    0.000    0.000 
#
# Total GULP energy -357117.872960 kJ/mol
# GULP energy per Si atom -5579.966765 kJ/mol
# Density = 1.765640 g / cm^3
# Si number density = 17.696681 Si / 1000 Ang^3
#
#
#
# Elastic Constant Matrix: (Units=GPa)
#
#
# Indices 1 2 3 4 5 6 
#
# 1 173.4821 29.6946 83.7424 0.0000 0.0000 0.0000
# 2 29.6946 17.6327 25.3195 0.0000 0.0000 0.0000
# 3 83.7424 25.3195 115.0083 0.0000 0.0000 0.0000
# 4 0.0000 0.0000 0.0000 25.8243 0.0000 0.0000
# 5 0.0000 0.0000 0.0000 0.0000 31.1109 0.0000
# 6 0.0000 0.0000 0.0000 0.0000 0.0000 25.1203
#
#
#
# Elastic Compliance Matrix: (Units=1/GPa)
#
#
# Indices 1 2 3 4 5 6 
#
# 1 0.009804 -0.009154 -0.005124 0.000000 0.000000 0.000000
# 2 -0.009154 0.091475 -0.013473 0.000000 0.000000 0.000000
# 3 -0.005124 -0.013473 0.015392 0.000000 0.000000 0.000000
# 4 0.000000 0.000000 0.000000 0.038723 0.000000 0.000000
# 5 0.000000 0.000000 0.000000 0.000000 0.032143 0.000000
# 6 0.000000 0.000000 0.000000 0.000000 0.000000 0.039808
#
#
# Mechanical properties :
#
#
# Convention : Reuss Voigt Hill
#
# Bulk Modulus (GPa) = 16.34793 64.84846 40.59820
# Shear Modulus (GPa) = 16.48869 27.56888 22.02879
#
# Velocity S-wave (km/s) = 3.05575 3.95125 3.53200
# Velocity P-wave (km/s) = 4.65919 7.58554 6.29478
#
# Compressibility (1/GPa) = 0.06116981
#
# Stress axis : x y z
#
# Youngs Moduli (GPa) = 101.99437 10.93193 64.96856
#
# Poissons Ratio (x) = 0.10007 0.33289
# Poissons Ratio (y) = 0.93364 0.87534
# Poissons Ratio (z) = 0.52260 0.14729
#
# Static dielectric constant tensor:
#      x y z
#    x 1.644890 0.000000 0.000000 
#    y 0.000000 1.603120 0.000000 
#    z 0.000000 0.000000 1.559100 
# 
# From -- ./inp_files/27699.got.cif
#   From: 2010.05.17/outbox.cif.g08.bks.cpg/sg62_14_cif.got.tgz:27699.got - 2010.06.03 15:25:27.
