data_PCOD9462521
_publ_section_title
;
Structure prediction by ZEFSAII (Michael W. Deem and Ramdas Pophale) SiO2 
 PCOD9462521
Probable space group: P N M A
;
_chemical_formula_sum "Si O2"
_cell_formula_units_Z 64
_cell_length_a 20.837309
_cell_length_b 8.946830
_cell_length_c 19.969836
_cell_angle_alpha 90.000000
_cell_angle_beta 90.000000
_cell_angle_gamma 90.000000
_cell_volume 3722.933816
_symmetry_space_group_name_H-M "P N M A"
_symmetry_group_IT_number 62
_symmetry_cell_setting 'orthorhombic'
loop_
_space_group_symop_operation_xyz
x,y,z
1/2-x,-y,1/2+z
1/2+x,1/2-y,1/2-z
-x,1/2+y,-z
-x,-y,-z
1/2+x,y,1/2-z
1/2-x,1/2+y,1/2+z
x,1/2-y,z
loop_
_atom_site_type_symbol
_atom_site_label
_atom_site_fract_x
_atom_site_fract_y
_atom_site_fract_z
Si Si1 0.456793 0.427434 0.558205
Si Si2 0.718898 0.073487 0.176564
Si Si3 0.662730 0.074682 0.502581
Si Si4 0.350582 0.927097 0.336637
Si Si5 0.515039 0.570986 0.690966
Si Si6 0.056870 0.926673 0.458743
Si Si7 0.422662 0.570502 0.813602
Si Si8 0.801181 0.073490 0.534311
O O1 0.500000 0.500000 0.500000
O O2 0.465301 0.250000 0.558339
O O3 0.384356 0.473600 0.540218
O O4 0.480093 0.496080 0.627841
O O5 0.729310 0.250000 0.184580
O O6 0.650330 0.031194 0.209006
O O7 0.783841 0.986514 0.194087
O O8 0.707049 0.031193 0.098768
O O9 0.648018 0.250000 0.490733
O O10 0.651922 0.046808 0.582381
O O11 0.738367 0.049561 0.489550
O O12 0.356139 0.750000 0.327141
O O13 0.412520 0.010247 0.308097
O O14 0.515511 0.750000 0.682737
O O15 0.474762 0.534121 0.757435
O O16 0.046700 0.750000 0.454984
O O17 0.127250 0.951620 0.492123
O O18 0.061830 0.992020 0.383813
O O19 0.000000 0.000000 0.500000
O O20 0.422826 0.750000 0.824233
O O21 0.797562 0.250000 0.555784
#
# Coordination Sequence:
#
# PCOD9462521 Si02
#       8
#     8   8   8   8   8   8   8   8
#     4  12  23  34  50  75 107 143 181 220 264 314
#     4   9  16  29  51  76 102 130 169 216 259 307
#     4   9  17  31  50  72 102 135 174 220 260 303
#     4  10  19  31  50  77 106 136 174 217 260 310
#     4  11  22  36  55  77 105 141 181 223 268 316
#     4  10  19  33  57  85 111 140 174 218 269 322
#     4   9  20  37  56  80 107 137 177 222 267 320
#     4   8  16  30  49  75 104 134 171 211 260 310
#
# _framework density 17.190743999999999
#
# number of rings (size 3 to 8) (size 9 to 14) (size 15 to 20)
#    0.000    2.250    1.250    3.375    0.000    4.000 
#    0.000    0.000    2.750    0.000    0.000    0.000 
#    0.000    0.000    0.000    0.000    0.000    0.000 
#
# Total GULP energy -356790.834159 kJ/mol
# GULP energy per Si atom -5574.856784 kJ/mol
# Density = 1.715162 g / cm^3
# Si number density = 17.190744 Si / 1000 Ang^3
#
#
#
# Elastic Constant Matrix: (Units=GPa)
#
#
# Indices 1 2 3 4 5 6 
#
# 1 173.7527 72.9929 60.2552 0.0000 0.0000 0.0000
# 2 72.9929 71.7881 37.7074 0.0000 0.0000 0.0000
# 3 60.2552 37.7074 50.7977 0.0000 0.0000 0.0000
# 4 0.0000 0.0000 0.0000 20.8035 0.0000 0.0000
# 5 0.0000 0.0000 0.0000 0.0000 23.6857 0.0000
# 6 0.0000 0.0000 0.0000 0.0000 0.0000 30.1260
#
#
#
# Elastic Compliance Matrix: (Units=1/GPa)
#
#
# Indices 1 2 3 4 5 6 
#
# 1 0.011899 -0.007679 -0.008414 0.000000 0.000000 0.000000
# 2 -0.007679 0.027788 -0.011518 0.000000 0.000000 0.000000
# 3 -0.008414 -0.011518 0.038217 0.000000 0.000000 0.000000
# 4 0.000000 0.000000 0.000000 0.048069 0.000000 0.000000
# 5 0.000000 0.000000 0.000000 0.000000 0.042220 0.000000
# 6 0.000000 0.000000 0.000000 0.000000 0.000000 0.033194
#
#
# Mechanical properties :
#
#
# Convention : Reuss Voigt Hill
#
# Bulk Modulus (GPa) = 44.09058 70.91663 57.50360
# Shear Modulus (GPa) = 18.92714 23.28189 21.10451
#
# Velocity S-wave (km/s) = 3.32174 3.68411 3.50761
# Velocity P-wave (km/s) = 6.35732 7.70969 7.06593
#
# Compressibility (1/GPa) = 0.02268058
#
# Stress axis : x y z
#
# Youngs Moduli (GPa) = 84.03803 35.98656 26.16641
#
# Poissons Ratio (x) = 0.27635 0.22017
# Poissons Ratio (y) = 0.64536 0.30139
# Poissons Ratio (z) = 0.70713 0.41450
#
# Static dielectric constant tensor:
#      x y z
#    x 1.628630 0.000000 0.000000 
#    y 0.000000 1.580410 0.000000 
#    z 0.000000 0.000000 1.546080 
# 
# From -- ./inp_files/24745.got.cif
#   From: 2010.05.17/outbox.cif.g08.bks.cpg/sg62_13_cif.got.tgz:24745.got - 2010.06.03 15:25:27.
