data_PCOD9462483
_publ_section_title
;
Structure prediction by ZEFSAII (Michael W. Deem and Ramdas Pophale) SiO2 
 PCOD9462483
Probable space group: P N M A
;
_chemical_formula_sum "Si O2"
_cell_formula_units_Z 64
_cell_length_a 15.281410
_cell_length_b 29.246043
_cell_length_c 8.544954
_cell_angle_alpha 90.000000
_cell_angle_beta 90.000000
_cell_angle_gamma 90.000000
_cell_volume 3818.917455
_symmetry_space_group_name_H-M "P N M A"
_symmetry_group_IT_number 62
_symmetry_cell_setting 'orthorhombic'
loop_
_space_group_symop_operation_xyz
x,y,z
1/2-x,-y,1/2+z
1/2+x,1/2-y,1/2-z
-x,1/2+y,-z
-x,-y,-z
1/2+x,y,1/2-z
1/2-x,1/2+y,1/2+z
x,1/2-y,z
loop_
_atom_site_type_symbol
_atom_site_label
_atom_site_fract_x
_atom_site_fract_y
_atom_site_fract_z
Si Si1 0.410976 0.873967 0.634910
Si Si2 0.910767 0.803190 0.590040
Si Si3 0.409431 0.447205 0.898281
Si Si4 0.589891 0.697001 0.109462
Si Si5 0.090138 0.446716 0.406178
Si Si6 0.268651 0.125893 0.940972
Si Si7 0.335353 0.624053 0.130525
Si Si8 0.515243 0.876563 0.327981
O O1 0.416657 0.829759 0.746393
O O2 0.414613 0.917728 0.747987
O O3 0.318387 0.873732 0.544391
O O4 0.488692 0.875581 0.508104
O O5 0.887990 0.750000 0.605035
O O6 0.843518 0.831752 0.481157
O O7 0.005142 0.806322 0.503535
O O8 0.388359 0.500391 0.879802
O O9 0.330139 0.417946 0.969917
O O10 0.434692 0.421193 0.737034
O O11 0.495307 0.443886 0.008704
O O12 0.607402 0.750000 0.140314
O O13 0.671603 0.670542 0.034387
O O14 0.565585 0.668060 0.264566
O O15 0.158137 0.420404 0.519932
O O16 0.240326 0.124820 0.758148
O O17 0.423796 0.623625 0.233443
#
# Coordination Sequence:
#
# PCOD9462483 Si02
#       8
#     8   8   8   8   8   8   8   8
#     4  10  19  31  50  76 102 125 155 200 248 289
#     4   9  18  34  53  70  95 132 165 195 240 295
#     4   9  18  34  53  70  94 131 168 199 235 285
#     4   9  18  34  53  70  94 131 168 199 235 284
#     4   9  18  34  53  70  95 132 165 195 240 294
#     4  10  19  31  49  73 100 126 158 204 244 280
#     4   8  16  31  48  67  94 126 156 190 237 291
#     4   8  16  31  49  70  94 122 159 193 231 287
#
# _framework density 16.758676999999999
#
# number of rings (size 3 to 8) (size 9 to 14) (size 15 to 20)
#    0.000    3.000    0.000    2.250    0.000    3.000 
#    0.000   12.500    0.000    0.000    0.000    0.000 
#    0.000    0.000    0.000    0.000    0.000    0.000 
#
# Total GULP energy -356390.424349 kJ/mol
# GULP energy per Si atom -5568.600380 kJ/mol
# Density = 1.672053 g / cm^3
# Si number density = 16.758677 Si / 1000 Ang^3
#
#
#
# Elastic Constant Matrix: (Units=GPa)
#
#
# Indices 1 2 3 4 5 6 
#
# 1 49.0926 41.3946 13.0970 0.0000 0.0000 0.0000
# 2 41.3946 176.8706 58.4732 0.0000 0.0000 0.0000
# 3 13.0970 58.4732 91.2150 0.0000 0.0000 0.0000
# 4 0.0000 0.0000 0.0000 7.2899 0.0000 0.0000
# 5 0.0000 0.0000 0.0000 0.0000 19.4310 0.0000
# 6 0.0000 0.0000 0.0000 0.0000 0.0000 16.5090
#
#
#
# Elastic Compliance Matrix: (Units=1/GPa)
#
#
# Indices 1 2 3 4 5 6 
#
# 1 0.025381 -0.006009 0.000208 0.000000 0.000000 0.000000
# 2 -0.006009 0.008597 -0.004648 0.000000 0.000000 0.000000
# 3 0.000208 -0.004648 0.013913 0.000000 0.000000 0.000000
# 4 0.000000 0.000000 0.000000 0.137175 0.000000 0.000000
# 5 0.000000 0.000000 0.000000 0.000000 0.051464 0.000000
# 6 0.000000 0.000000 0.000000 0.000000 0.000000 0.060573
#
#
# Mechanical properties :
#
#
# Convention : Reuss Voigt Hill
#
# Bulk Modulus (GPa) = 37.04804 60.34533 48.69669
# Shear Modulus (GPa) = 15.29055 22.26021 18.77538
#
# Velocity S-wave (km/s) = 3.02387 3.64851 3.35078
# Velocity P-wave (km/s) = 5.86059 7.33726 6.64010
#
# Compressibility (1/GPa) = 0.02699198
#
# Stress axis : x y z
#
# Youngs Moduli (GPa) = 39.39982 116.32203 71.87506
#
# Poissons Ratio (x) = 0.69895 -0.01492
# Poissons Ratio (y) = 0.23674 0.33409
# Poissons Ratio (z) = -0.00818 0.54069
#
# Static dielectric constant tensor:
#      x y z
#    x 1.577130 0.000000 0.000000 
#    y 0.000000 1.554540 0.000000 
#    z 0.000000 0.000000 1.562230 
# 
# From -- ./inp_files/7018.got.cif
#   From: 2010.05.17/outbox.cif.g08.bks.cpg/sg62_4_cif.got.tgz:7018.got - 2010.06.03 15:25:27.
