data_PCOD9462125
_publ_section_title
;
Structure prediction by ZEFSAII (Michael W. Deem and Ramdas Pophale) SiO2 
 PCOD9462125
Probable space group: P N M A
;
_chemical_formula_sum "Si O2"
_cell_formula_units_Z 56
_cell_length_a 9.110174
_cell_length_b 19.591290
_cell_length_c 14.807086
_cell_angle_alpha 90.000000
_cell_angle_beta 90.000000
_cell_angle_gamma 90.000000
_cell_volume 2642.769609
_symmetry_space_group_name_H-M "P N M A"
_symmetry_group_IT_number 62
_symmetry_cell_setting 'orthorhombic'
loop_
_space_group_symop_operation_xyz
x,y,z
1/2-x,-y,1/2+z
1/2+x,1/2-y,1/2-z
-x,1/2+y,-z
-x,-y,-z
1/2+x,y,1/2-z
1/2-x,1/2+y,1/2+z
x,1/2-y,z
loop_
_atom_site_type_symbol
_atom_site_label
_atom_site_fract_x
_atom_site_fract_y
_atom_site_fract_z
Si Si1 0.922704 0.070190 0.973067
Si Si2 0.286048 0.750000 0.119580
Si Si3 0.023210 0.615842 0.841882
Si Si4 0.885410 0.881036 0.498620
Si Si5 0.600321 0.898051 0.148861
Si Si6 0.927885 0.250000 0.728499
Si Si7 0.585841 0.456822 0.696780
Si Si8 0.830622 0.828509 0.694329
O O1 0.747789 0.065956 0.983992
O O2 0.976703 0.082532 0.872344
O O3 0.981229 0.121248 0.049820
O O4 0.000000 0.000000 0.000000
O O5 0.323192 0.684911 0.057107
O O6 0.398601 0.750000 0.204833
O O7 0.128412 0.750000 0.168320
O O8 0.062116 0.537650 0.815529
O O9 0.156751 0.663159 0.811884
O O10 0.882891 0.636699 0.785936
O O11 0.894235 0.864795 0.604513
O O12 0.039479 0.899481 0.453041
O O13 0.624546 0.820047 0.180966
O O14 0.466253 0.930617 0.206294
O O15 0.748324 0.938475 0.170787
O O16 0.874198 0.750000 0.692413
#
# Coordination Sequence:
#
# PCOD9462125 Si02
#       8
#     8   4   8   8   8   4   8   8
#     4   9  20  39  60  85 121 157 205 257 308 370
#     4  10  18  34  54  84 120 158 196 248 300 368
#     4  10  23  40  63  88 119 158 213 258 314 373
#     4  10  21  37  59  89 120 163 203 250 316 373
#     4  11  22  36  61  90 129 164 206 247 312 375
#     4  10  20  32  54  84 118 156 202 238 288 364
#     4  11  21  39  60  92 126 166 203 256 312 376
#     4  11  22  42  65  89 119 162 207 267 314 367
#
# _framework density 21.189890999999999
#
# number of rings (size 3 to 8) (size 9 to 14) (size 15 to 20)
#    0.000    1.714    0.714    4.714    0.000    2.286 
#    0.000   11.429    0.000    0.000    0.000    0.000 
#    0.000    0.000    0.000    0.000    0.000    0.000 
#
# Total GULP energy -312708.200191 kJ/mol
# GULP energy per Si atom -5584.075003 kJ/mol
# Density = 2.114166 g / cm^3
# Si number density = 21.189891 Si / 1000 Ang^3
#
#
#
# Elastic Constant Matrix: (Units=GPa)
#
#
# Indices 1 2 3 4 5 6 
#
# 1 32.4733 14.0694 -9.9630 0.0000 0.0000 0.0000
# 2 14.0694 52.5011 -10.8410 0.0000 0.0000 0.0000
# 3 -9.9630 -10.8410 39.9652 0.0000 0.0000 0.0000
# 4 0.0000 0.0000 0.0000 10.0080 0.0000 0.0000
# 5 0.0000 0.0000 0.0000 0.0000 37.2815 0.0000
# 6 0.0000 0.0000 0.0000 0.0000 0.0000 30.6037
#
#
#
# Elastic Compliance Matrix: (Units=1/GPa)
#
#
# Indices 1 2 3 4 5 6 
#
# 1 0.036520 -0.008376 0.006832 0.000000 0.000000 0.000000
# 2 -0.008376 0.022098 0.003906 0.000000 0.000000 0.000000
# 3 0.006832 0.003906 0.027785 0.000000 0.000000 0.000000
# 4 0.000000 0.000000 0.000000 0.099920 0.000000 0.000000
# 5 0.000000 0.000000 0.000000 0.000000 0.026823 0.000000
# 6 0.000000 0.000000 0.000000 0.000000 0.000000 0.032676
#
#
# Mechanical properties :
#
#
# Convention : Reuss Voigt Hill
#
# Bulk Modulus (GPa) = 10.97365 12.38563 11.67964
# Shear Modulus (GPa) = 18.41810 24.35693 21.38752
#
# Velocity S-wave (km/s) = 2.95141 3.39405 3.18044
# Velocity P-wave (km/s) = 4.09931 4.60621 4.36013
#
# Compressibility (1/GPa) = 0.09112741
#
# Stress axis : x y z
#
# Youngs Moduli (GPa) = 27.38262 45.25207 35.99124
#
# Poissons Ratio (x) = 0.37903 -0.24589
# Poissons Ratio (y) = 0.22935 -0.14060
# Poissons Ratio (z) = -0.18708 -0.17677
#
# Static dielectric constant tensor:
#      x y z
#    x 1.748150 0.000000 0.000000 
#    y 0.000000 1.791510 0.000000 
#    z 0.000000 0.000000 1.806720 
# 
# From -- ./inp_files/17237.got.cif
#   From: 2010.05.17/outbox.cif.g08.bks.cpg/sg62_9_cif.got.tgz:17237.got - 2010.06.03 15:25:27.
