data_PCOD9462494
_publ_section_title
;
Structure prediction by ZEFSAII (Michael W. Deem and Ramdas Pophale) SiO2 
 PCOD9462494
Probable space group: P N M A
;
_chemical_formula_sum "Si O2"
_cell_formula_units_Z 64
_cell_length_a 14.268007
_cell_length_b 7.368446
_cell_length_c 25.966527
_cell_angle_alpha 90.000000
_cell_angle_beta 90.000000
_cell_angle_gamma 90.000000
_cell_volume 2729.939899
_symmetry_space_group_name_H-M "P N M A"
_symmetry_group_IT_number 62
_symmetry_cell_setting 'orthorhombic'
loop_
_space_group_symop_operation_xyz
x,y,z
1/2-x,-y,1/2+z
1/2+x,1/2-y,1/2-z
-x,1/2+y,-z
-x,-y,-z
1/2+x,y,1/2-z
1/2-x,1/2+y,1/2+z
x,1/2-y,z
loop_
_atom_site_type_symbol
_atom_site_label
_atom_site_fract_x
_atom_site_fract_y
_atom_site_fract_z
Si Si1 0.607846 0.542007 0.113812
Si Si2 0.271048 0.972926 0.456198
Si Si3 0.779052 0.539626 0.826755
Si Si4 0.537577 0.030898 0.597811
Si Si5 0.227944 0.469329 0.285867
Si Si6 0.840856 0.962059 0.935206
Si Si7 0.940627 0.528594 0.322933
Si Si8 0.449618 0.960299 0.289519
O O1 0.589638 0.750000 0.098762
O O2 0.675127 0.463234 0.070089
O O3 0.668879 0.539561 0.166316
O O4 0.508748 0.463444 0.131857
O O5 0.270384 0.750000 0.455371
O O6 0.361136 0.028585 0.422371
O O7 0.289632 0.034384 0.514382
O O8 0.807860 0.750000 0.825738
O O9 0.806048 0.465470 0.770520
O O10 0.815589 0.455875 0.879701
O O11 0.666209 0.529834 0.828958
O O12 0.539887 0.250000 0.599649
O O13 0.517906 0.961804 0.655893
O O14 0.452894 0.975875 0.560901
O O15 0.226259 0.250000 0.286732
O O16 0.336089 0.528528 0.291364
O O17 0.814968 0.750000 0.932915
O O18 0.941919 0.750000 0.322031
O O19 0.975407 0.463566 0.266492
O O20 0.477425 0.750000 0.289219
#
# Coordination Sequence:
#
# PCOD9462494 Si02
#       8
#     8   8   8   8   8   8   8   8
#     4  10  19  34  55  78 104 135 173 216 259 307
#     4   9  18  35  55  74 102 138 175 213 256 308
#     4   9  20  37  52  72 106 140 172 212 259 308
#     4  10  19  32  52  79 107 136 170 214 261 303
#     4  10  19  31  49  75 104 136 169 206 255 306
#     4  10  21  36  54  74 100 141 181 211 255 311
#     4   9  19  33  54  79 103 136 174 213 260 309
#     4   9  17  32  50  74 106 135 167 206 254 308
#
# _framework density 23.443739999999998
#
# number of rings (size 3 to 8) (size 9 to 14) (size 15 to 20)
#    0.000    2.500    1.250    0.750    1.750    2.000 
#    0.000    1.250    0.000    0.000    0.000    0.000 
#    0.000    0.000    0.000    0.000    0.000    0.000 
#
# Total GULP energy -357547.118527 kJ/mol
# GULP energy per Si atom -5586.673727 kJ/mol
# Density = 2.339038 g / cm^3
# Si number density = 23.443740 Si / 1000 Ang^3
#
#
#
# Elastic Constant Matrix: (Units=GPa)
#
#
# Indices 1 2 3 4 5 6 
#
# 1 49.6983 -9.8341 1.8336 0.0000 0.0000 0.0000
# 2 -9.8341 96.3432 4.7446 0.0000 0.0000 0.0000
# 3 1.8336 4.7446 90.8904 0.0000 0.0000 0.0000
# 4 0.0000 0.0000 0.0000 -8.7059 0.0000 0.0000
# 5 0.0000 0.0000 0.0000 0.0000 38.6045 0.0000
# 6 0.0000 0.0000 0.0000 0.0000 0.0000 6.0591
#
#
#
# Elastic Compliance Matrix: (Units=1/GPa)
#
#
# Indices 1 2 3 4 5 6 
#
# 1 0.020561 0.002125 -0.000526 0.000000 0.000000 0.000000
# 2 0.002125 0.010626 -0.000598 0.000000 0.000000 0.000000
# 3 -0.000526 -0.000598 0.011044 0.000000 0.000000 0.000000
# 4 0.000000 0.000000 0.000000 -0.114865 0.000000 0.000000
# 5 0.000000 0.000000 0.000000 0.000000 0.025904 0.000000
# 6 0.000000 0.000000 0.000000 0.000000 0.000000 0.165042
#
#
# Mechanical properties :
#
#
# Convention : Reuss Voigt Hill
#
# Bulk Modulus (GPa) = 22.60708 25.60225 24.10466
# Shear Modulus (GPa) = 38.15221 23.20406 30.67813
#
# Velocity S-wave (km/s) = 4.03847 3.14948 3.62136
# Velocity P-wave (km/s) = 5.60444 4.91631 5.27161
#
# Compressibility (1/GPa) = 0.04423393
#
# Stress axis : x y z
#
# Youngs Moduli (GPa) = 48.63520 94.11007 90.54646
#
# Poissons Ratio (x) = -0.19995 0.04760
# Poissons Ratio (y) = -0.10333 0.05411
# Poissons Ratio (z) = 0.02557 0.05624
#
# Static dielectric constant tensor:
#      x y z
#    x 1.866430 0.000000 0.000000 
#    y 0.000000 1.863120 0.000000 
#    z 0.000000 0.000000 1.900520 
# 
# From -- ./inp_files/29752.got.cif
#   From: 2010.05.17/outbox.cif.g08.bks.cpg/sg62_15_cif.got.tgz:29752.got - 2010.06.03 15:25:27.
