data_PCOD9462762
_publ_section_title
;
Structure prediction by ZEFSAII (Michael W. Deem and Ramdas Pophale) SiO2 
 PCOD9462762
Probable space group: P N M A
;
_chemical_formula_sum "Si O2"
_cell_formula_units_Z 40
_cell_length_a 13.903757
_cell_length_b 8.419678
_cell_length_c 18.675028
_cell_angle_alpha 90.000000
_cell_angle_beta 90.000000
_cell_angle_gamma 90.000000
_cell_volume 2186.195083
_symmetry_space_group_name_H-M "P N M A"
_symmetry_group_IT_number 62
_symmetry_cell_setting 'orthorhombic'
loop_
_space_group_symop_operation_xyz
x,y,z
1/2-x,-y,1/2+z
1/2+x,1/2-y,1/2-z
-x,1/2+y,-z
-x,-y,-z
1/2+x,y,1/2-z
1/2-x,1/2+y,1/2+z
x,1/2-y,z
loop_
_atom_site_type_symbol
_atom_site_label
_atom_site_fract_x
_atom_site_fract_y
_atom_site_fract_z
Si Si1 0.799114 0.940257 0.970658
Si Si2 0.100111 0.439014 0.468760
Si Si3 0.091195 0.941831 0.167948
Si Si4 0.176115 0.942485 0.319374
Si Si5 0.880954 0.556723 0.122271
O O1 0.801599 0.750000 0.968324
O O2 0.842408 0.007844 0.898070
O O3 0.861401 0.992954 0.040169
O O4 0.690553 0.994377 0.986445
O O5 0.102586 0.250000 0.471137
O O6 0.116566 0.496556 0.387386
O O7 0.000000 0.500000 0.500000
O O8 0.088728 0.750000 0.170227
O O9 0.133328 0.996926 0.243894
O O10 0.982587 0.999325 0.152640
O O11 0.173922 0.750000 0.321148
O O12 0.287052 0.991723 0.332454
O O13 0.882712 0.750000 0.122581
#
# Coordination Sequence:
#
# PCOD9462762 Si02
#       5
#     8   8   8   8   8
#     4  10  20  35  54  78 109 141 180 228 273 323
#     4  11  22  38  59  80 106 142 183 224 273 331
#     4  10  19  32  54  81 109 145 186 225 270 322
#     4   9  19  35  53  78 112 145 181 226 271 319
#     4   8  16  32  51  73 105 143 179 219 266 313
#
# _framework density 18.296627999999998
#
# number of rings (size 3 to 8) (size 9 to 14) (size 15 to 20)
#    0.000    2.400    0.000    4.200    0.000    2.400 
#    0.000    8.000    0.000    0.000    0.000    0.000 
#    0.000    0.000    0.000    0.000    0.000    0.000 
#
# Total GULP energy -223247.631267 kJ/mol
# GULP energy per Si atom -5581.190782 kJ/mol
# Density = 1.825498 g / cm^3
# Si number density = 18.296628 Si / 1000 Ang^3
#
#
#
# Elastic Constant Matrix: (Units=GPa)
#
#
# Indices 1 2 3 4 5 6 
#
# 1 148.3152 11.8515 129.8217 0.0000 0.0000 0.0000
# 2 11.8515 17.4553 19.6191 0.0000 0.0000 0.0000
# 3 129.8217 19.6191 172.9970 0.0000 0.0000 0.0000
# 4 0.0000 0.0000 0.0000 24.1989 0.0000 0.0000
# 5 0.0000 0.0000 0.0000 0.0000 22.7039 0.0000
# 6 0.0000 0.0000 0.0000 0.0000 0.0000 19.6394
#
#
#
# Elastic Compliance Matrix: (Units=1/GPa)
#
#
# Indices 1 2 3 4 5 6 
#
# 1 0.019860 0.003744 -0.015328 0.000000 0.000000 0.000000
# 2 0.003744 0.066364 -0.010336 0.000000 0.000000 0.000000
# 3 -0.015328 -0.010336 0.018455 0.000000 0.000000 0.000000
# 4 0.000000 0.000000 0.000000 0.041324 0.000000 0.000000
# 5 0.000000 0.000000 0.000000 0.000000 0.044045 0.000000
# 6 0.000000 0.000000 0.000000 0.000000 0.000000 0.050918
#
#
# Mechanical properties :
#
#
# Convention : Reuss Voigt Hill
#
# Bulk Modulus (GPa) = 16.43664 73.48355 44.96009
# Shear Modulus (GPa) = 16.38879 25.14014 20.76446
#
# Velocity S-wave (km/s) = 2.99612 3.71081 3.37245
# Velocity P-wave (km/s) = 4.57951 7.65570 6.30800
#
# Compressibility (1/GPa) = 0.06083969
#
# Stress axis : x y z
#
# Youngs Moduli (GPa) = 50.35225 15.06838 54.18512
#
# Poissons Ratio (x) = -0.05642 0.83056
# Poissons Ratio (y) = -0.18852 0.56005
# Poissons Ratio (z) = 0.77181 0.15574
#
# Static dielectric constant tensor:
#      x y z
#    x 1.621580 0.000000 0.000000 
#    y 0.000000 1.622220 0.000000 
#    z 0.000000 0.000000 1.611700 
# 
# From -- ./inp_files/18601.got.cif
#   From: 2010.05.17/outbox.cif.g08.bks.cpg/sg62_10_cif.got.tgz:18601.got - 2010.06.03 15:25:27.
