data_PCOD9462385
_publ_section_title
;
Structure prediction by ZEFSAII (Michael W. Deem and Ramdas Pophale) SiO2 
 PCOD9462385
Probable space group: P N M A
;
_chemical_formula_sum "Si O2"
_cell_formula_units_Z 64
_cell_length_a 20.976501
_cell_length_b 9.198096
_cell_length_c 20.060327
_cell_angle_alpha 90.000000
_cell_angle_beta 90.000000
_cell_angle_gamma 90.000000
_cell_volume 3870.517124
_symmetry_space_group_name_H-M "P N M A"
_symmetry_group_IT_number 62
_symmetry_cell_setting 'orthorhombic'
loop_
_space_group_symop_operation_xyz
x,y,z
1/2-x,-y,1/2+z
1/2+x,1/2-y,1/2-z
-x,1/2+y,-z
-x,-y,-z
1/2+x,y,1/2-z
1/2-x,1/2+y,1/2+z
x,1/2-y,z
loop_
_atom_site_type_symbol
_atom_site_label
_atom_site_fract_x
_atom_site_fract_y
_atom_site_fract_z
Si Si1 0.692360 0.923617 0.712837
Si Si2 0.922331 0.923860 0.289934
Si Si3 0.321380 0.576033 0.706520
Si Si4 0.732078 0.079240 0.581574
Si Si5 0.261367 0.924096 0.567901
Si Si6 0.884899 0.077951 0.570379
Si Si7 0.933882 0.074798 0.714760
Si Si8 0.875396 0.576949 0.435875
O O1 0.686821 0.750000 0.713374
O O2 0.757397 0.962916 0.752372
O O3 0.632523 0.994171 0.750007
O O4 0.700090 0.983966 0.638322
O O5 0.914131 0.750000 0.281352
O O6 0.914756 0.953656 0.368906
O O7 0.993597 0.963921 0.267987
O O8 0.329882 0.750000 0.711965
O O9 0.306985 0.540326 0.629442
O O10 0.381595 0.496397 0.737858
O O11 0.720342 0.250000 0.594803
O O12 0.711775 0.045218 0.505760
O O13 0.808831 0.057632 0.582084
O O14 0.247771 0.750000 0.570350
O O15 0.194682 0.007956 0.574765
O O16 0.895727 0.250000 0.559898
O O17 0.919450 0.031831 0.638099
O O18 0.902490 0.992640 0.503498
O O19 0.927626 0.250000 0.717343
O O20 0.870229 0.750000 0.443872
#
# Coordination Sequence:
#
# PCOD9462385 Si02
#       8
#     8   8   8   8   8   8   8   8
#     4  11  21  33  54  80 107 136 171 218 264 306
#     4  10  22  37  52  74 106 142 180 217 257 309
#     4  10  20  34  54  80 107 134 171 219 266 309
#     4   9  17  31  53  77 103 136 171 209 255 311
#     4   9  18  34  53  76 105 137 170 209 262 314
#     4   9  18  32  50  72 103 142 177 209 254 309
#     4  10  21  37  54  74 104 143 181 215 257 312
#     4  10  19  30  48  75 105 137 176 217 252 296
#
# _framework density 16.535257999999999
#
# number of rings (size 3 to 8) (size 9 to 14) (size 15 to 20)
#    0.000    2.250    2.500    1.500    0.000    5.000 
#    0.000    0.000    0.000    0.750    0.000    0.000 
#    0.000    0.000    0.000    0.000    0.000    0.000 
#
# Total GULP energy -357053.695442 kJ/mol
# GULP energy per Si atom -5578.963991 kJ/mol
# Density = 1.649762 g / cm^3
# Si number density = 16.535258 Si / 1000 Ang^3
#
#
#
# Elastic Constant Matrix: (Units=GPa)
#
#
# Indices 1 2 3 4 5 6 
#
# 1 80.4075 36.7108 47.8007 0.0000 0.0000 0.0000
# 2 36.7108 32.1170 40.4568 0.0000 0.0000 0.0000
# 3 47.8007 40.4568 104.8366 0.0000 0.0000 0.0000
# 4 0.0000 0.0000 0.0000 31.3531 0.0000 0.0000
# 5 0.0000 0.0000 0.0000 0.0000 20.5940 0.0000
# 6 0.0000 0.0000 0.0000 0.0000 0.0000 16.8626
#
#
#
# Elastic Compliance Matrix: (Units=1/GPa)
#
#
# Indices 1 2 3 4 5 6 
#
# 1 0.026041 -0.028817 -0.000753 0.000000 0.000000 0.000000
# 2 -0.028817 0.092479 -0.022549 0.000000 0.000000 0.000000
# 3 -0.000753 -0.022549 0.018583 0.000000 0.000000 0.000000
# 4 0.000000 0.000000 0.000000 0.031895 0.000000 0.000000
# 5 0.000000 0.000000 0.000000 0.000000 0.048558 0.000000
# 6 0.000000 0.000000 0.000000 0.000000 0.000000 0.059303
#
#
# Mechanical properties :
#
#
# Convention : Reuss Voigt Hill
#
# Bulk Modulus (GPa) = 30.42659 51.92197 41.17428
# Shear Modulus (GPa) = 12.75342 19.92146 16.33744
#
# Velocity S-wave (km/s) = 2.78022 3.47477 3.14671
# Velocity P-wave (km/s) = 5.36164 6.89693 6.17717
#
# Compressibility (1/GPa) = 0.03286599
#
# Stress axis : x y z
#
# Youngs Moduli (GPa) = 38.40098 10.81327 53.81139
#
# Poissons Ratio (x) = 0.31161 0.04051
# Poissons Ratio (y) = 1.10662 1.21337
# Poissons Ratio (z) = 0.02891 0.24382
#
# Static dielectric constant tensor:
#      x y z
#    x 1.535260 0.000000 0.000000 
#    y 0.000000 1.550950 0.000000 
#    z 0.000000 0.000000 1.561240 
# 
# From -- ./inp_files/27646.got.cif
#   From: 2010.05.17/outbox.cif.g08.bks.cpg/sg62_14_cif.got.tgz:27646.got - 2010.06.03 15:25:27.
