data_PCOD9462579
_publ_section_title
;
Structure prediction by ZEFSAII (Michael W. Deem and Ramdas Pophale) SiO2 
 PCOD9462579
Probable space group: P N M A
;
_chemical_formula_sum "Si O2"
_cell_formula_units_Z 64
_cell_length_a 9.574702
_cell_length_b 14.279437
_cell_length_c 26.608174
_cell_angle_alpha 90.000000
_cell_angle_beta 90.000000
_cell_angle_gamma 90.000000
_cell_volume 3637.905577
_symmetry_space_group_name_H-M "P N M A"
_symmetry_group_IT_number 62
_symmetry_cell_setting 'orthorhombic'
loop_
_space_group_symop_operation_xyz
x,y,z
1/2-x,-y,1/2+z
1/2+x,1/2-y,1/2-z
-x,1/2+y,-z
-x,-y,-z
1/2+x,y,1/2-z
1/2-x,1/2+y,1/2+z
x,1/2-y,z
loop_
_atom_site_type_symbol
_atom_site_label
_atom_site_fract_x
_atom_site_fract_y
_atom_site_fract_z
Si Si1 0.653063 0.039602 0.399232
Si Si2 0.090570 0.640368 0.959652
Si Si3 0.654549 0.057607 0.096169
Si Si4 0.716127 0.862429 0.697766
Si Si5 0.180745 0.647855 0.429057
Si Si6 0.985401 0.354603 0.923514
Si Si7 0.411507 0.075182 0.032228
Si Si8 0.613507 0.137553 0.298428
O O1 0.539678 0.105255 0.427116
O O2 0.785009 0.033253 0.435867
O O3 0.682307 0.086509 0.345891
O O4 0.583773 0.938068 0.392980
O O5 0.118960 0.750000 0.949187
O O6 0.221226 0.577583 0.943476
O O7 0.055991 0.629947 0.018196
O O8 0.713013 0.091472 0.149172
O O9 0.521298 0.111970 0.073625
O O10 0.621652 0.946444 0.096231
O O11 0.721532 0.750000 0.691285
O O12 0.804663 0.886077 0.747419
O O13 0.551867 0.887459 0.702741
O O14 0.131253 0.750000 0.410918
O O15 0.347224 0.642442 0.421131
O O16 0.148477 0.641444 0.488738
O O17 0.939360 0.250000 0.909057
O O18 0.500000 0.000000 0.000000
O O19 0.621875 0.250000 0.305063
#
# Coordination Sequence:
#
# PCOD9462579 Si02
#       8
#     8   8   8   8   8   8   8   8
#     4  12  20  36  57  77 110 147 188 231 272 336
#     4  11  20  32  54  80 107 142 183 226 270 324
#     4  11  21  37  54  79 111 150 186 226 280 336
#     4  10  21  38  57  80 111 141 184 238 288 341
#     4  10  19  33  52  80 113 144 183 227 271 328
#     4  10  19  31  53  81 106 140 182 224 267 317
#     4  10  23  35  51  81 116 152 188 225 275 329
#     4  10  22  37  57  84 108 140 183 234 291 339
#
# _framework density 17.592541000000001
#
# number of rings (size 3 to 8) (size 9 to 14) (size 15 to 20)
#    0.000    1.500    3.750    2.625    1.750    1.500 
#    0.000    3.750    0.000    0.750    0.000    0.000 
#    0.000    0.000    0.000    0.000    0.000    0.000 
#
# Total GULP energy -357085.332833 kJ/mol
# GULP energy per Si atom -5579.458326 kJ/mol
# Density = 1.755250 g / cm^3
# Si number density = 17.592541 Si / 1000 Ang^3
#
#
#
# Elastic Constant Matrix: (Units=GPa)
#
#
# Indices 1 2 3 4 5 6 
#
# 1 53.9284 0.1209 15.9012 0.0000 0.0000 0.0000
# 2 0.1209 54.3979 18.5835 0.0000 0.0000 0.0000
# 3 15.9012 18.5835 68.1424 0.0000 0.0000 0.0000
# 4 0.0000 0.0000 0.0000 22.5569 0.0000 0.0000
# 5 0.0000 0.0000 0.0000 0.0000 26.1481 0.0000
# 6 0.0000 0.0000 0.0000 0.0000 0.0000 6.9995
#
#
#
# Elastic Compliance Matrix: (Units=1/GPa)
#
#
# Indices 1 2 3 4 5 6 
#
# 1 0.020057 0.001714 -0.005148 0.000000 0.000000 0.000000
# 2 0.001714 0.020418 -0.005968 0.000000 0.000000 0.000000
# 3 -0.005148 -0.005968 0.017504 0.000000 0.000000 0.000000
# 4 0.000000 0.000000 0.000000 0.044332 0.000000 0.000000
# 5 0.000000 0.000000 0.000000 0.000000 0.038244 0.000000
# 6 0.000000 0.000000 0.000000 0.000000 0.000000 0.142868
#
#
# Mechanical properties :
#
#
# Convention : Reuss Voigt Hill
#
# Bulk Modulus (GPa) = 25.52639 27.29776 26.41208
# Shear Modulus (GPa) = 15.85861 20.59843 18.22852
#
# Velocity S-wave (km/s) = 3.00566 3.42550 3.22242
# Velocity P-wave (km/s) = 5.15622 5.58531 5.37505
#
# Compressibility (1/GPa) = 0.03917514
#
# Stress axis : x y z
#
# Youngs Moduli (GPa) = 49.85756 48.97597 57.12957
#
# Poissons Ratio (x) = -0.08395 0.29409
# Poissons Ratio (y) = -0.08546 0.34097
# Poissons Ratio (z) = 0.25666 0.29231
#
# Static dielectric constant tensor:
#      x y z
#    x 1.619140 0.000000 0.000000 
#    y 0.000000 1.631910 0.000000 
#    z 0.000000 0.000000 1.587600 
# 
# From -- ./inp_files/28966.got.cif
#   From: 2010.05.17/outbox.cif.g08.bks.cpg/sg62_15_cif.got.tgz:28966.got - 2010.06.03 15:25:27.
