data_PCOD9462449
_publ_section_title
;
Structure prediction by ZEFSAII (Michael W. Deem and Ramdas Pophale) SiO2 
 PCOD9462449
Probable space group: P N M A
;
_chemical_formula_sum "Si O2"
_cell_formula_units_Z 56
_cell_length_a 5.009435
_cell_length_b 20.132867
_cell_length_c 27.431617
_cell_angle_alpha 90.000000
_cell_angle_beta 90.000000
_cell_angle_gamma 90.000000
_cell_volume 2766.596218
_symmetry_space_group_name_H-M "P N M A"
_symmetry_group_IT_number 62
_symmetry_cell_setting 'orthorhombic'
loop_
_space_group_symop_operation_xyz
x,y,z
1/2-x,-y,1/2+z
1/2+x,1/2-y,1/2-z
-x,1/2+y,-z
-x,-y,-z
1/2+x,y,1/2-z
1/2-x,1/2+y,1/2+z
x,1/2-y,z
loop_
_atom_site_type_symbol
_atom_site_label
_atom_site_fract_x
_atom_site_fract_y
_atom_site_fract_z
Si Si1 0.942163 0.619058 0.279126
Si Si2 0.743079 0.479937 0.122511
Si Si3 0.275305 0.516710 0.555296
Si Si4 0.748550 0.127220 0.626532
Si Si5 0.975939 0.606597 0.478283
Si Si6 0.015563 0.458159 0.278046
Si Si7 0.029024 0.750000 0.474160
Si Si8 0.459116 0.250000 0.591339
O O1 0.148653 0.639323 0.236715
O O2 0.046777 0.644390 0.330648
O O3 0.973640 0.538525 0.280584
O O4 0.462071 0.486330 0.094837
O O5 0.855431 0.552909 0.137924
O O6 0.663881 0.441189 0.171404
O O7 0.960972 0.458405 0.082633
O O8 0.167617 0.564262 0.512987
O O9 0.276605 0.441588 0.532899
O O10 0.888732 0.119506 0.574095
O O11 0.531540 0.183846 0.620325
O O12 0.947703 0.680707 0.499530
O O13 0.217841 0.436249 0.235287
O O14 0.841671 0.750000 0.426289
O O15 0.336859 0.750000 0.455851
#
# Coordination Sequence:
#
# PCOD9462449 Si02
#       8
#     8   8   8   8   8   8   4   4
#     4   9  18  30  44  62  84 113 151 196 242 284
#     4  10  19  31  48  69  96 126 153 193 239 280
#     4  10  20  32  48  72  99 125 158 196 239 282
#     4   9  19  33  49  66  89 120 159 199 239 282
#     4   9  20  34  51  71  95 127 162 197 236 286
#     4   9  16  27  44  65  89 120 156 186 225 279
#     4  10  20  34  50  69  92 122 160 197 232 274
#     4  10  20  32  48  67  86 114 158 203 236 276
#
# _framework density 20.241479000000002
#
# number of rings (size 3 to 8) (size 9 to 14) (size 15 to 20)
#    0.000    2.571    0.000    1.714    0.000   16.571 
#    0.000    0.714    0.000    0.000    0.000    0.000 
#    0.000    0.000    0.000   12.857    0.000   11.714 
#
# Total GULP energy -312294.542943 kJ/mol
# GULP energy per Si atom -5576.688267 kJ/mol
# Density = 2.019541 g / cm^3
# Si number density = 20.241479 Si / 1000 Ang^3
#
#
#
# Elastic Constant Matrix: (Units=GPa)
#
#
# Indices 1 2 3 4 5 6 
#
# 1 62.6985 -9.4017 6.4176 0.0000 0.0000 0.0000
# 2 -9.4017 57.5846 10.2641 0.0000 0.0000 0.0000
# 3 6.4176 10.2641 67.7698 0.0000 0.0000 0.0000
# 4 0.0000 0.0000 0.0000 12.1742 0.0000 0.0000
# 5 0.0000 0.0000 0.0000 0.0000 28.5414 0.0000
# 6 0.0000 0.0000 0.0000 0.0000 0.0000 7.5317
#
#
#
# Elastic Compliance Matrix: (Units=1/GPa)
#
#
# Indices 1 2 3 4 5 6 
#
# 1 0.016620 0.003077 -0.002040 0.000000 0.000000 0.000000
# 2 0.003077 0.018417 -0.003081 0.000000 0.000000 0.000000
# 3 -0.002040 -0.003081 0.015416 0.000000 0.000000 0.000000
# 4 0.000000 0.000000 0.000000 0.082141 0.000000 0.000000
# 5 0.000000 0.000000 0.000000 0.000000 0.035037 0.000000
# 6 0.000000 0.000000 0.000000 0.000000 0.000000 0.132772
#
#
# Mechanical properties :
#
#
# Convention : Reuss Voigt Hill
#
# Bulk Modulus (GPa) = 21.56792 22.51255 22.04023
# Shear Modulus (GPa) = 15.62770 21.70098 18.66434
#
# Velocity S-wave (km/s) = 2.78162 3.27785 3.03988
# Velocity P-wave (km/s) = 4.58203 5.04697 4.82011
#
# Compressibility (1/GPa) = 0.04636517
#
# Stress axis : x y z
#
# Youngs Moduli (GPa) = 60.17011 54.29693 64.86929
#
# Poissons Ratio (x) = -0.16707 0.13232
# Poissons Ratio (y) = -0.18514 0.19985
# Poissons Ratio (z) = 0.12274 0.16728
#
# Static dielectric constant tensor:
#      x y z
#    x 1.748050 0.000000 0.000000 
#    y 0.000000 1.770740 0.000000 
#    z 0.000000 0.000000 1.766910 
# 
# From -- ./inp_files/30536.got.cif
#   From: 2010.05.17/outbox.cif.g08.bks.cpg/sg62_16_cif.got.tgz:30536.got - 2010.06.03 15:25:27.
