data_PCOD9462908
_publ_section_title
;
Structure prediction by ZEFSAII (Michael W. Deem and Ramdas Pophale) SiO2 
 PCOD9462908
Probable space group: P N M A
;
_chemical_formula_sum "Si O2"
_cell_formula_units_Z 64
_cell_length_a 9.472755
_cell_length_b 13.590278
_cell_length_c 27.697420
_cell_angle_alpha 90.000000
_cell_angle_beta 90.000000
_cell_angle_gamma 90.000000
_cell_volume 3565.693114
_symmetry_space_group_name_H-M "P N M A"
_symmetry_group_IT_number 62
_symmetry_cell_setting 'orthorhombic'
loop_
_space_group_symop_operation_xyz
x,y,z
1/2-x,-y,1/2+z
1/2+x,1/2-y,1/2-z
-x,1/2+y,-z
-x,-y,-z
1/2+x,y,1/2-z
1/2-x,1/2+y,1/2+z
x,1/2-y,z
loop_
_atom_site_type_symbol
_atom_site_label
_atom_site_fract_x
_atom_site_fract_y
_atom_site_fract_z
Si Si1 0.380034 0.021553 0.884636
Si Si2 0.900969 0.996139 0.061327
Si Si3 0.133936 0.134478 0.029860
Si Si4 0.245377 0.868034 0.195851
Si Si5 0.327883 0.368608 0.587540
Si Si6 0.954102 0.867630 0.467752
Si Si7 0.930278 0.131519 0.713073
Si Si8 0.932224 0.134278 0.426276
O O1 0.225291 0.989531 0.901691
O O2 0.444286 0.093585 0.925633
O O3 0.371715 0.076914 0.833930
O O4 0.490245 0.931097 0.886474
O O5 0.026483 0.923588 0.078057
O O6 0.839912 0.938408 0.014936
O O7 0.982537 0.097040 0.048886
O O8 0.131982 0.250000 0.016122
O O9 0.263797 0.121755 0.067091
O O10 0.228594 0.750000 0.193829
O O11 0.223451 0.900214 0.140834
O O12 0.403328 0.887708 0.212841
O O13 0.138497 0.903003 0.236899
O O14 0.346765 0.250000 0.586390
O O15 0.205280 0.392754 0.548811
O O16 0.964331 0.750000 0.467327
O O17 0.999089 0.896969 0.521830
O O18 0.908497 0.250000 0.708110
O O19 0.959183 0.250000 0.419402
#
# Coordination Sequence:
#
# PCOD9462908 Si02
#       8
#     8   8   8   8   8   8   8   8
#     4  12  22  34  55  80 110 142 186 230 265 324
#     4  11  24  33  52  81 108 144 184 222 271 319
#     4  10  22  39  52  72 110 148 184 225 268 316
#     4   9  19  35  53  77 110 144 177 215 267 328
#     4  10  20  34  53  78 111 148 182 220 268 326
#     4  10  19  33  54  77 108 148 188 223 264 317
#     4  10  21  36  56  82 112 145 177 220 273 328
#     4  10  22  38  56  76 105 149 192 232 270 312
#
# _framework density 17.948823999999998
#
# number of rings (size 3 to 8) (size 9 to 14) (size 15 to 20)
#    0.000    1.750    2.500    1.875    5.250    2.000 
#    0.000    0.000    0.000    0.000    0.000    1.750 
#    0.000    0.000    0.000    0.000    0.000    0.000 
#
# Total GULP energy -357243.750835 kJ/mol
# GULP energy per Si atom -5581.933607 kJ/mol
# Density = 1.790797 g / cm^3
# Si number density = 17.948824 Si / 1000 Ang^3
#
#
#
# Elastic Constant Matrix: (Units=GPa)
#
#
# Indices 1 2 3 4 5 6 
#
# 1 77.4765 17.7300 18.4801 0.0000 0.0000 0.0000
# 2 17.7300 57.2344 6.2389 0.0000 0.0000 0.0000
# 3 18.4801 6.2389 43.1049 0.0000 0.0000 0.0000
# 4 0.0000 0.0000 0.0000 18.8764 0.0000 0.0000
# 5 0.0000 0.0000 0.0000 0.0000 31.2721 0.0000
# 6 0.0000 0.0000 0.0000 0.0000 0.0000 24.8552
#
#
#
# Elastic Compliance Matrix: (Units=1/GPa)
#
#
# Indices 1 2 3 4 5 6 
#
# 1 0.015260 -0.004078 -0.005952 0.000000 0.000000 0.000000
# 2 -0.004078 0.018842 -0.000979 0.000000 0.000000 0.000000
# 3 -0.005952 -0.000979 0.025893 0.000000 0.000000 0.000000
# 4 0.000000 0.000000 0.000000 0.052976 0.000000 0.000000
# 5 0.000000 0.000000 0.000000 0.000000 0.031977 0.000000
# 6 0.000000 0.000000 0.000000 0.000000 0.000000 0.040233
#
#
# Mechanical properties :
#
#
# Convention : Reuss Voigt Hill
#
# Bulk Modulus (GPa) = 26.33199 29.19040 27.76120
# Shear Modulus (GPa) = 22.74188 24.02520 23.38354
#
# Velocity S-wave (km/s) = 3.56341 3.66257 3.61333
# Velocity P-wave (km/s) = 5.62432 5.84674 5.73661
#
# Compressibility (1/GPa) = 0.03797662
#
# Stress axis : x y z
#
# Youngs Moduli (GPa) = 65.52994 53.07258 38.62097
#
# Poissons Ratio (x) = 0.21646 0.22988
# Poissons Ratio (y) = 0.26726 0.03780
# Poissons Ratio (z) = 0.39004 0.05194
#
# Static dielectric constant tensor:
#      x y z
#    x 1.635930 0.000000 0.000000 
#    y 0.000000 1.635240 0.000000 
#    z 0.000000 0.000000 1.613930 
# 
# From -- ./inp_files/32329.got.cif
#   From: 2010.05.17/outbox.cif.g08.bks.cpg/sg62_17_cif.got.tgz:32329.got - 2010.06.03 15:25:27.
