data_PCOD9462170
_publ_section_title
;
Structure prediction by ZEFSAII (Michael W. Deem and Ramdas Pophale) SiO2 
 PCOD9462170
Probable space group: P N M A
;
_chemical_formula_sum "Si O2"
_cell_formula_units_Z 48
_cell_length_a 16.040745
_cell_length_b 16.626212
_cell_length_c 9.720606
_cell_angle_alpha 90.000000
_cell_angle_beta 90.000000
_cell_angle_gamma 90.000000
_cell_volume 2592.454777
_symmetry_space_group_name_H-M "P N M A"
_symmetry_group_IT_number 62
_symmetry_cell_setting 'orthorhombic'
loop_
_space_group_symop_operation_xyz
x,y,z
1/2-x,-y,1/2+z
1/2+x,1/2-y,1/2-z
-x,1/2+y,-z
-x,-y,-z
1/2+x,y,1/2-z
1/2-x,1/2+y,1/2+z
x,1/2-y,z
loop_
_atom_site_type_symbol
_atom_site_label
_atom_site_fract_x
_atom_site_fract_y
_atom_site_fract_z
Si Si1 0.517088 0.339932 0.338018
Si Si2 0.895383 0.561771 0.252205
Si Si3 0.211875 0.996267 0.507104
Si Si4 0.821594 0.661209 0.035896
Si Si5 0.436199 0.495511 0.789270
Si Si6 0.382947 0.436811 0.487468
O O1 0.507616 0.250000 0.280324
O O2 0.599424 0.340505 0.433532
O O3 0.531188 0.412919 0.231630
O O4 0.437271 0.362739 0.432740
O O5 0.828373 0.517595 0.346955
O O6 0.857507 0.642375 0.188516
O O7 0.910580 0.508819 0.114591
O O8 0.984155 0.559706 0.327592
O O9 0.258941 0.910505 0.503740
O O10 0.138592 0.994685 0.396203
O O11 0.283042 0.062629 0.474286
O O12 0.783683 0.750000 0.029763
O O13 0.403595 0.461745 0.642896
#
# Coordination Sequence:
#
# PCOD9462170 Si02
#       6
#     8   8   8   8   8   8
#     4  10  19  35  58  81 104 145 192 238 280 326
#     4  10  19  36  58  81 111 150 191 225 276 348
#     4  11  22  33  58  87 117 146 187 236 292 335
#     4  10  20  36  58  82 112 149 191 237 283 333
#     4  11  19  37  57  83 112 151 191 231 280 348
#     4  10  18  35  56  78 106 143 196 229 263 338
#
# _framework density 18.515270999999998
#
# number of rings (size 3 to 8) (size 9 to 14) (size 15 to 20)
#    0.000    1.667    5.000    3.500    0.000    0.000 
#    0.000    9.167    0.000    0.000    0.000    0.000 
#    0.000    0.000    0.000    0.000    0.000    0.000 
#
# Total GULP energy -267490.919233 kJ/mol
# GULP energy per Si atom -5572.727484 kJ/mol
# Density = 1.847313 g / cm^3
# Si number density = 18.515271 Si / 1000 Ang^3
#
#
#
# Elastic Constant Matrix: (Units=GPa)
#
#
# Indices 1 2 3 4 5 6 
#
# 1 76.7922 3.7716 7.5612 0.0000 0.0000 0.0000
# 2 3.7716 52.8089 0.0038 0.0000 0.0000 0.0000
# 3 7.5612 0.0038 32.9990 0.0000 0.0000 0.0000
# 4 0.0000 0.0000 0.0000 12.6921 0.0000 0.0000
# 5 0.0000 0.0000 0.0000 0.0000 35.7195 0.0000
# 6 0.0000 0.0000 0.0000 0.0000 0.0000 17.0996
#
#
#
# Elastic Compliance Matrix: (Units=1/GPa)
#
#
# Indices 1 2 3 4 5 6 
#
# 1 0.013371 -0.000955 -0.003064 0.000000 0.000000 0.000000
# 2 -0.000955 0.019004 0.000217 0.000000 0.000000 0.000000
# 3 -0.003064 0.000217 0.031006 0.000000 0.000000 0.000000
# 4 0.000000 0.000000 0.000000 0.078789 0.000000 0.000000
# 5 0.000000 0.000000 0.000000 0.000000 0.027996 0.000000
# 6 0.000000 0.000000 0.000000 0.000000 0.000000 0.058481
#
#
# Mechanical properties :
#
#
# Convention : Reuss Voigt Hill
#
# Bulk Modulus (GPa) = 17.92836 20.58591 19.25714
# Shear Modulus (GPa) = 19.61989 23.18645 21.40317
#
# Velocity S-wave (km/s) = 3.25877 3.54261 3.40365
# Velocity P-wave (km/s) = 4.88503 5.27976 5.08623
#
# Compressibility (1/GPa) = 0.05577755
#
# Stress axis : x y z
#
# Youngs Moduli (GPa) = 74.79039 52.61950 32.25190
#
# Poissons Ratio (x) = 0.05024 0.09881
# Poissons Ratio (y) = 0.07140 -0.00698
# Poissons Ratio (z) = 0.22913 -0.01140
#
# Static dielectric constant tensor:
#      x y z
#    x 1.698170 0.000000 0.000000 
#    y 0.000000 1.656620 0.000000 
#    z 0.000000 0.000000 1.660200 
# 
# From -- ./inp_files/13457.got.cif
#   From: 2010.05.17/outbox.cif.g08.bks.cpg/sg62_7_cif.got.tgz:13457.got - 2010.06.03 15:25:27.
