data_PCOD9462631
_publ_section_title
;
Structure prediction by ZEFSAII (Michael W. Deem and Ramdas Pophale) SiO2 
 PCOD9462631
Probable space group: P N M A
;
_chemical_formula_sum "Si O2"
_cell_formula_units_Z 64
_cell_length_a 14.110839
_cell_length_b 8.976784
_cell_length_c 30.072667
_cell_angle_alpha 90.000000
_cell_angle_beta 90.000000
_cell_angle_gamma 90.000000
_cell_volume 3809.303338
_symmetry_space_group_name_H-M "P N M A"
_symmetry_group_IT_number 62
_symmetry_cell_setting 'orthorhombic'
loop_
_space_group_symop_operation_xyz
x,y,z
1/2-x,-y,1/2+z
1/2+x,1/2-y,1/2-z
-x,1/2+y,-z
-x,-y,-z
1/2+x,y,1/2-z
1/2-x,1/2+y,1/2+z
x,1/2-y,z
loop_
_atom_site_type_symbol
_atom_site_label
_atom_site_fract_x
_atom_site_fract_y
_atom_site_fract_z
Si Si1 0.526359 0.073276 0.815587
Si Si2 0.902123 0.423236 0.487318
Si Si3 0.651823 0.427057 0.150552
Si Si4 0.249853 0.075802 0.932999
Si Si5 0.243131 0.431244 0.673830
Si Si6 0.143235 0.572656 0.259223
Si Si7 0.748650 0.429149 0.926777
Si Si8 0.602740 0.571527 0.503870
O O1 0.524007 0.250000 0.826102
O O2 0.634682 0.024485 0.815539
O O3 0.469407 0.053311 0.768923
O O4 0.457001 0.987995 0.849700
O O5 0.917569 0.250000 0.477334
O O6 0.831932 0.434864 0.529617
O O7 0.846794 0.501039 0.446871
O O8 0.000000 0.500000 0.500000
O O9 0.653080 0.250000 0.148323
O O10 0.711518 0.498909 0.111210
O O11 0.687288 0.486645 0.198627
O O12 0.229985 0.250000 0.925355
O O13 0.159537 0.994211 0.954176
O O14 0.245425 0.250000 0.674001
O O15 0.314985 0.479385 0.712514
O O16 0.266515 0.478893 0.623704
O O17 0.162064 0.750000 0.263734
O O18 0.738220 0.250000 0.927021
O O19 0.833910 0.466759 0.960376
O O20 0.500000 0.500000 0.500000
O O21 0.596967 0.750000 0.506888
#
# Coordination Sequence:
#
# PCOD9462631 Si02
#       8
#     8   8   8   8   8   8   8   8
#     4   8  16  30  50  73 100 134 171 210 256 306
#     4  10  21  33  48  73 107 141 173 214 263 316
#     4  10  19  32  50  74 105 134 167 214 264 314
#     4  10  20  35  54  75 101 137 179 219 261 313
#     4   9  16  31  55  78 102 136 177 219 259 305
#     4   8  16  31  50  73 100 132 174 214 253 309
#     4   9  19  34  53  79 106 137 180 222 261 312
#     4  10  20  36  56  78 106 139 177 221 271 322
#
# _framework density 16.800972000000002
#
# number of rings (size 3 to 8) (size 9 to 14) (size 15 to 20)
#    0.750    2.000    0.000    1.875    1.750    2.000 
#    0.000    2.500    0.000    4.500    0.000    0.000 
#    0.000    0.000    0.000    0.000    0.000    0.000 
#
# Total GULP energy -356295.863709 kJ/mol
# GULP energy per Si atom -5567.122870 kJ/mol
# Density = 1.676273 g / cm^3
# Si number density = 16.800972 Si / 1000 Ang^3
#
#
#
# Elastic Constant Matrix: (Units=GPa)
#
#
# Indices 1 2 3 4 5 6 
#
# 1 83.9269 35.2210 24.2335 0.0000 0.0000 0.0000
# 2 35.2210 53.0388 29.6606 0.0000 0.0000 0.0000
# 3 24.2335 29.6606 90.9259 0.0000 0.0000 0.0000
# 4 0.0000 0.0000 0.0000 20.7540 0.0000 0.0000
# 5 0.0000 0.0000 0.0000 0.0000 15.6198 0.0000
# 6 0.0000 0.0000 0.0000 0.0000 0.0000 19.9972
#
#
#
# Elastic Compliance Matrix: (Units=1/GPa)
#
#
# Indices 1 2 3 4 5 6 
#
# 1 0.016594 -0.010453 -0.001013 0.000000 0.000000 0.000000
# 2 -0.010453 0.029646 -0.006885 0.000000 0.000000 0.000000
# 3 -0.001013 -0.006885 0.013514 0.000000 0.000000 0.000000
# 4 0.000000 0.000000 0.000000 0.048184 0.000000 0.000000
# 5 0.000000 0.000000 0.000000 0.000000 0.064021 0.000000
# 6 0.000000 0.000000 0.000000 0.000000 0.000000 0.050007
#
#
# Mechanical properties :
#
#
# Convention : Reuss Voigt Hill
#
# Bulk Modulus (GPa) = 43.37934 45.12463 44.25199
# Shear Modulus (GPa) = 18.77218 20.52596 19.64907
#
# Velocity S-wave (km/s) = 3.34627 3.49909 3.42353
# Velocity P-wave (km/s) = 6.38793 6.57583 6.48256
#
# Compressibility (1/GPa) = 0.02305245
#
# Stress axis : x y z
#
# Youngs Moduli (GPa) = 60.26112 33.73157 73.99899
#
# Poissons Ratio (x) = 0.35261 0.07495
# Poissons Ratio (y) = 0.62993 0.50946
# Poissons Ratio (z) = 0.06103 0.23223
#
# Static dielectric constant tensor:
#      x y z
#    x 1.556890 0.000000 0.000000 
#    y 0.000000 1.560860 0.000000 
#    z 0.000000 0.000000 1.572120 
# 
# From -- ./inp_files/32694.got.cif
#   From: 2010.05.17/outbox.cif.g08.bks.cpg/sg62_17_cif.got.tgz:32694.got - 2010.06.03 15:25:27.
