data_PCOD9462028
_publ_section_title
;
Structure prediction by ZEFSAII (Michael W. Deem and Ramdas Pophale) SiO2 
 PCOD9462028
Probable space group: P N M A
;
_chemical_formula_sum "Si O2"
_cell_formula_units_Z 32
_cell_length_a 5.297285
_cell_length_b 37.710365
_cell_length_c 6.975375
_cell_angle_alpha 90.000000
_cell_angle_beta 90.000000
_cell_angle_gamma 90.000000
_cell_volume 1393.418703
_symmetry_space_group_name_H-M "P N M A"
_symmetry_group_IT_number 62
_symmetry_cell_setting 'orthorhombic'
loop_
_space_group_symop_operation_xyz
x,y,z
1/2-x,-y,1/2+z
1/2+x,1/2-y,1/2-z
-x,1/2+y,-z
-x,-y,-z
1/2+x,y,1/2-z
1/2-x,1/2+y,1/2+z
x,1/2-y,z
loop_
_atom_site_type_symbol
_atom_site_label
_atom_site_fract_x
_atom_site_fract_y
_atom_site_fract_z
Si Si1 0.111333 0.566293 0.971154
Si Si2 0.388601 0.038864 0.030282
Si Si3 0.942518 0.857434 0.867093
Si Si4 0.958268 0.210509 0.876214
O O1 0.891571 0.541560 0.054667
O O2 0.147258 0.551646 0.751612
O O3 0.004779 0.605905 0.974187
O O4 0.393756 0.564564 0.050010
O O5 0.500000 0.000000 0.000000
O O6 0.651502 0.857935 0.802523
O O7 0.999527 0.821982 0.982876
O O8 0.182900 0.208162 0.720084
O O9 0.979834 0.250000 0.965507
#
# Coordination Sequence:
#
# PCOD9462028 Si02
#       4
#     8   8   8   8
#     4  10  19  35  53  81 110 151 192 256 308 350
#     4  10  18  32  56  73 106 149 191 237 310 365
#     4  12  21  38  68  94 126 165 209 267 311 367
#     4  10  23  43  65  92 132 172 204 250 315 379
#
# _framework density 22.965097
#
# number of rings (size 3 to 8) (size 9 to 14) (size 15 to 20)
#    0.000    1.500    5.000    2.250    0.000    1.000 
#    0.000    0.000   33.000    0.000    0.000    0.000 
#    0.000    0.000    0.000    0.000    0.000    0.000 
#
# Total GULP energy -178711.640014 kJ/mol
# GULP energy per Si atom -5584.738750 kJ/mol
# Density = 2.291283 g / cm^3
# Si number density = 22.965097 Si / 1000 Ang^3
#
#
#
# Elastic Constant Matrix: (Units=GPa)
#
#
# Indices 1 2 3 4 5 6 
#
# 1 110.1995 -25.9581 -14.2683 0.0000 0.0000 0.0000
# 2 -25.9581 132.4313 3.2178 0.0000 0.0000 0.0000
# 3 -14.2683 3.2178 39.8054 0.0000 0.0000 0.0000
# 4 0.0000 0.0000 0.0000 39.0964 0.0000 0.0000
# 5 0.0000 0.0000 0.0000 0.0000 1.4082 0.0000
# 6 0.0000 0.0000 0.0000 0.0000 0.0000 39.1597
#
#
#
# Elastic Compliance Matrix: (Units=1/GPa)
#
#
# Indices 1 2 3 4 5 6 
#
# 1 0.009957 0.001869 0.003418 0.000000 0.000000 0.000000
# 2 0.001869 0.007917 0.000030 0.000000 0.000000 0.000000
# 3 0.003418 0.000030 0.026345 0.000000 0.000000 0.000000
# 4 0.000000 0.000000 0.000000 0.025578 0.000000 0.000000
# 5 0.000000 0.000000 0.000000 0.000000 0.710141 0.000000
# 6 0.000000 0.000000 0.000000 0.000000 0.000000 0.025536
#
#
# Mechanical properties :
#
#
# Convention : Reuss Voigt Hill
#
# Bulk Modulus (GPa) = 18.23083 23.15767 20.69425
# Shear Modulus (GPa) = 6.14911 37.22918 21.68914
#
# Velocity S-wave (km/s) = 1.63811 4.03068 3.07651
# Velocity P-wave (km/s) = 3.39612 5.63628 4.65302
#
# Compressibility (1/GPa) = 0.05485215
#
# Stress axis : x y z
#
# Youngs Moduli (GPa) = 100.42995 126.31615 37.95780
#
# Poissons Ratio (x) = -0.23604 -0.12974
# Poissons Ratio (y) = -0.18767 -0.00113
# Poissons Ratio (z) = -0.34328 -0.00377
#
# Static dielectric constant tensor:
#      x y z
#    x 1.934730 0.000000 0.000000 
#    y 0.000000 1.854580 0.000000 
#    z 0.000000 0.000000 2.091910 
# 
# From -- ./inp_files/3813.got.cif
#   From: 2010.05.17/outbox.cif.g08.bks.cpg/sg62_2_cif.got.tgz:3813.got - 2010.06.03 15:25:27.
