data_PCOD9462440
_publ_section_title
;
Structure prediction by ZEFSAII (Michael W. Deem and Ramdas Pophale) SiO2 
 PCOD9462440
Probable space group: P N M A
;
_chemical_formula_sum "Si O2"
_cell_formula_units_Z 64
_cell_length_a 9.676054
_cell_length_b 12.162323
_cell_length_c 33.732127
_cell_angle_alpha 90.000000
_cell_angle_beta 90.000000
_cell_angle_gamma 90.000000
_cell_volume 3969.707823
_symmetry_space_group_name_H-M "P N M A"
_symmetry_group_IT_number 62
_symmetry_cell_setting 'orthorhombic'
loop_
_space_group_symop_operation_xyz
x,y,z
1/2-x,-y,1/2+z
1/2+x,1/2-y,1/2-z
-x,1/2+y,-z
-x,-y,-z
1/2+x,y,1/2-z
1/2-x,1/2+y,1/2+z
x,1/2-y,z
loop_
_atom_site_type_symbol
_atom_site_label
_atom_site_fract_x
_atom_site_fract_y
_atom_site_fract_z
Si Si1 0.959480 0.617782 0.361906
Si Si2 0.855919 0.622695 0.967711
Si Si3 0.890147 0.511875 0.051061
Si Si4 0.039779 0.116165 0.790928
Si Si5 0.597517 0.489834 0.944476
Si Si6 0.350523 0.625925 0.976463
Si Si7 0.280301 0.616376 0.215113
Si Si8 0.284285 0.882250 0.367923
O O1 0.948183 0.750000 0.366906
O O2 0.901740 0.557448 0.400649
O O3 0.870375 0.586522 0.323430
O O4 0.123484 0.592945 0.358192
O O5 0.884150 0.750000 0.959480
O O6 0.703496 0.587788 0.954100
O O7 0.955761 0.534706 0.946468
O O8 0.874059 0.597747 0.014734
O O9 0.802153 0.406504 0.036758
O O10 0.832819 0.561225 0.091543
O O11 0.037366 0.250000 0.790090
O O12 0.136068 0.080357 0.754205
O O13 0.114997 0.084935 0.831844
O O14 0.879866 0.079744 0.787111
O O15 0.447757 0.537979 0.954824
O O16 0.631740 0.396180 0.976800
O O17 0.386039 0.750000 0.966471
O O18 0.276446 0.750000 0.216355
O O19 0.293724 0.750000 0.372649
#
# Coordination Sequence:
#
# PCOD9462440 Si02
#       8
#     8   8   8   8   8   8   8   8
#     4  10  19  31  47  70 102 133 163 202 242 286
#     4  10  21  35  50  68  97 132 165 209 253 288
#     4  10  20  34  50  71  95 128 171 204 244 298
#     4   9  17  29  46  69  97 131 163 193 237 290
#     4  10  20  32  48  73  96 128 169 205 245 291
#     4  10  19  33  50  68  95 129 168 209 245 285
#     4   9  17  29  46  69  98 131 162 193 236 290
#     4  10  19  31  48  70 100 133 164 202 243 287
#
# _framework density 16.122093
#
# number of rings (size 3 to 8) (size 9 to 14) (size 15 to 20)
#    0.000    2.250    1.250    2.250    1.750    3.000 
#    0.000    1.250    0.000    0.000    0.000    0.000 
#    0.000    6.000    0.000    0.000    0.000    0.000 
#
# Total GULP energy -356694.104908 kJ/mol
# GULP energy per Si atom -5573.345389 kJ/mol
# Density = 1.608540 g / cm^3
# Si number density = 16.122093 Si / 1000 Ang^3
#
#
#
# Elastic Constant Matrix: (Units=GPa)
#
#
# Indices 1 2 3 4 5 6 
#
# 1 78.6636 7.9850 42.4762 0.0000 0.0000 0.0000
# 2 7.9850 30.9113 23.2962 0.0000 0.0000 0.0000
# 3 42.4762 23.2962 112.3624 0.0000 0.0000 0.0000
# 4 0.0000 0.0000 0.0000 14.6361 0.0000 0.0000
# 5 0.0000 0.0000 0.0000 0.0000 23.2786 0.0000
# 6 0.0000 0.0000 0.0000 0.0000 0.0000 3.6984
#
#
#
# Elastic Compliance Matrix: (Units=1/GPa)
#
#
# Indices 1 2 3 4 5 6 
#
# 1 0.015979 0.000503 -0.006145 0.000000 0.000000 0.000000
# 2 0.000503 0.038358 -0.008143 0.000000 0.000000 0.000000
# 3 -0.006145 -0.008143 0.012911 0.000000 0.000000 0.000000
# 4 0.000000 0.000000 0.000000 0.068324 0.000000 0.000000
# 5 0.000000 0.000000 0.000000 0.000000 0.042958 0.000000
# 6 0.000000 0.000000 0.000000 0.000000 0.000000 0.270388
#
#
# Mechanical properties :
#
#
# Convention : Reuss Voigt Hill
#
# Bulk Modulus (GPa) = 25.20242 41.05025 33.12633
# Shear Modulus (GPa) = 10.21004 18.20127 14.20566
#
# Velocity S-wave (km/s) = 2.51927 3.36365 2.97160
# Velocity P-wave (km/s) = 4.91207 6.37204 5.68908
#
# Compressibility (1/GPa) = 0.03967873
#
# Stress axis : x y z
#
# Youngs Moduli (GPa) = 62.58045 26.07047 77.45276
#
# Poissons Ratio (x) = -0.01312 0.47595
# Poissons Ratio (y) = -0.03150 0.63070
# Poissons Ratio (z) = 0.38456 0.21229
#
# Static dielectric constant tensor:
#      x y z
#    x 1.552720 0.000000 0.000000 
#    y 0.000000 1.498820 0.000000 
#    z 0.000000 0.000000 1.525280 
# 
# From -- ./inp_files/32265.got.cif
#   From: 2010.05.17/outbox.cif.g08.bks.cpg/sg62_17_cif.got.tgz:32265.got - 2010.06.03 15:25:27.
