data_PCOD9462512
_publ_section_title
;
Structure prediction by ZEFSAII (Michael W. Deem and Ramdas Pophale) SiO2 
 PCOD9462512
Probable space group: P N M A
;
_chemical_formula_sum "Si O2"
_cell_formula_units_Z 64
_cell_length_a 23.578359
_cell_length_b 10.943222
_cell_length_c 12.532178
_cell_angle_alpha 90.000000
_cell_angle_beta 90.000000
_cell_angle_gamma 90.000000
_cell_volume 3233.592883
_symmetry_space_group_name_H-M "P N M A"
_symmetry_group_IT_number 62
_symmetry_cell_setting 'orthorhombic'
loop_
_space_group_symop_operation_xyz
x,y,z
1/2-x,-y,1/2+z
1/2+x,1/2-y,1/2-z
-x,1/2+y,-z
-x,-y,-z
1/2+x,y,1/2-z
1/2-x,1/2+y,1/2+z
x,1/2-y,z
loop_
_atom_site_type_symbol
_atom_site_label
_atom_site_fract_x
_atom_site_fract_y
_atom_site_fract_z
Si Si1 0.213720 0.468634 0.656273
Si Si2 0.283361 0.619651 0.925532
Si Si3 0.178903 0.050428 0.881760
Si Si4 0.585717 0.394491 0.067938
Si Si5 0.550588 0.397939 0.300675
Si Si6 0.896002 0.110962 0.404654
Si Si7 0.569719 0.609584 0.659895
Si Si8 0.672793 0.111882 0.377894
O O1 0.215554 0.382623 0.553913
O O2 0.187244 0.403138 0.760355
O O3 0.169507 0.575558 0.621123
O O4 0.275974 0.528650 0.665175
O O5 0.263708 0.750000 0.885416
O O6 0.237087 0.524326 0.891442
O O7 0.348366 0.598834 0.894770
O O8 0.122255 0.968585 0.881072
O O9 0.176771 0.119964 0.993391
O O10 0.576086 0.250000 0.036296
O O11 0.550374 0.423354 0.173966
O O12 0.580438 0.500640 0.978876
O O13 0.549546 0.250000 0.309943
O O14 0.493517 0.441530 0.358777
O O15 0.610618 0.438753 0.348489
O O16 0.900475 0.250000 0.448985
O O17 0.924510 0.111710 0.288669
O O18 0.574314 0.750000 0.622147
O O19 0.677619 0.250000 0.335457
#
# Coordination Sequence:
#
# PCOD9462512 Si02
#       8
#     8   8   8   8   8   8   8   8
#     4   9  18  31  47  71  99 124 153 195 247 297
#     4   9  17  29  47  71  95 121 154 192 240 295
#     4  10  19  31  50  72  93 123 159 198 243 289
#     4   9  17  30  50  75 103 133 165 206 254 302
#     4   9  18  32  49  69  95 129 168 208 247 290
#     4   9  17  30  50  76 103 131 166 207 252 303
#     4   9  18  32  49  70  96 128 167 207 246 291
#     4  10  20  33  50  72  97 127 164 203 246 300
#
# _framework density 19.792224999999998
#
# number of rings (size 3 to 8) (size 9 to 14) (size 15 to 20)
#    0.000    2.750    0.000    1.500    0.000    4.000 
#    0.000    1.875    0.000    9.000    0.000    0.000 
#    0.000    0.000    0.000    0.000    0.000    0.000 
#
# Total GULP energy -356287.469434 kJ/mol
# GULP energy per Si atom -5566.991710 kJ/mol
# Density = 1.974718 g / cm^3
# Si number density = 19.792225 Si / 1000 Ang^3
#
#
#
# Elastic Constant Matrix: (Units=GPa)
#
#
# Indices 1 2 3 4 5 6 
#
# 1 83.4302 13.8348 12.3553 0.0000 0.0000 0.0000
# 2 13.8348 66.5643 18.3296 0.0000 0.0000 0.0000
# 3 12.3553 18.3296 79.9737 0.0000 0.0000 0.0000
# 4 0.0000 0.0000 0.0000 -292.8976 0.0000 0.0000
# 5 0.0000 0.0000 0.0000 0.0000 18.2917 0.0000
# 6 0.0000 0.0000 0.0000 0.0000 0.0000 13.3350
#
#
#
# Elastic Compliance Matrix: (Units=1/GPa)
#
#
# Indices 1 2 3 4 5 6 
#
# 1 0.012566 -0.002217 -0.001433 0.000000 0.000000 0.000000
# 2 -0.002217 0.016426 -0.003422 0.000000 0.000000 0.000000
# 3 -0.001433 -0.003422 0.013510 0.000000 0.000000 0.000000
# 4 0.000000 0.000000 0.000000 -0.003414 0.000000 0.000000
# 5 0.000000 0.000000 0.000000 0.000000 0.054670 0.000000
# 6 0.000000 0.000000 0.000000 0.000000 0.000000 0.074990
#
#
# Mechanical properties :
#
#
# Convention : Reuss Voigt Hill
#
# Bulk Modulus (GPa) = 35.26466 35.44526 35.35496
# Shear Modulus (GPa) = 25.99489 -39.89094 -6.94802
#
# Velocity S-wave (km/s) = 3.62800 -4.49429 -1.87566
# Velocity P-wave (km/s) = 5.95029 2.99732 3.63470
#
# Compressibility (1/GPa) = 0.02835700
#
# Stress axis : x y z
#
# Youngs Moduli (GPa) = 79.58005 60.87817 74.01977
#
# Poissons Ratio (x) = 0.13497 0.10608
# Poissons Ratio (y) = 0.17643 0.25332
# Poissons Ratio (z) = 0.11405 0.20834
#
# Static dielectric constant tensor:
#      x y z
#    x 1.726580 0.000000 0.000000 
#    y 0.000000 1.654680 0.000000 
#    z 0.000000 0.000000 1.746390 
# 
# From -- ./inp_files/15286.got.cif
#   From: 2010.05.17/outbox.cif.g08.bks.cpg/sg62_8_cif.got.tgz:15286.got - 2010.06.03 15:25:27.
