data_PCOD9462741
_publ_section_title
;
Structure prediction by ZEFSAII (Michael W. Deem and Ramdas Pophale) SiO2 
 PCOD9462741
Probable space group: P N M A
;
_chemical_formula_sum "Si O2"
_cell_formula_units_Z 64
_cell_length_a 20.778223
_cell_length_b 9.273854
_cell_length_c 16.840186
_cell_angle_alpha 90.000000
_cell_angle_beta 90.000000
_cell_angle_gamma 90.000000
_cell_volume 3245.006278
_symmetry_space_group_name_H-M "P N M A"
_symmetry_group_IT_number 62
_symmetry_cell_setting 'orthorhombic'
loop_
_space_group_symop_operation_xyz
x,y,z
1/2-x,-y,1/2+z
1/2+x,1/2-y,1/2-z
-x,1/2+y,-z
-x,-y,-z
1/2+x,y,1/2-z
1/2-x,1/2+y,1/2+z
x,1/2-y,z
loop_
_atom_site_type_symbol
_atom_site_label
_atom_site_fract_x
_atom_site_fract_y
_atom_site_fract_z
Si Si1 0.876864 0.420391 0.213545
Si Si2 0.651523 0.421973 0.560811
Si Si3 0.801781 0.421735 0.594916
Si Si4 0.884697 0.913445 0.464077
Si Si5 0.780948 0.913545 0.321810
Si Si6 0.384325 0.920395 0.786883
Si Si7 0.343848 0.579072 0.617854
Si Si8 0.022300 0.579379 0.644738
O O1 0.866814 0.250000 0.205747
O O2 0.886492 0.492640 0.128248
O O3 0.814606 0.495285 0.252768
O O4 0.934550 0.444100 0.276125
O O5 0.643472 0.250000 0.571982
O O6 0.727821 0.454886 0.572628
O O7 0.633570 0.460327 0.470321
O O8 0.808845 0.250000 0.594615
O O9 0.849377 0.494001 0.530980
O O10 0.825600 0.488405 0.677882
O O11 0.897797 0.750000 0.491636
O O12 0.833923 0.906695 0.391685
O O13 0.947152 0.988400 0.426455
O O14 0.767026 0.750000 0.295308
O O15 0.719462 0.991009 0.358740
O O16 0.371528 0.750000 0.798832
O O17 0.391160 0.942523 0.692337
O O18 0.449500 0.958231 0.832943
O O19 0.327595 0.750000 0.614666
O O20 0.026331 0.750000 0.626494
#
# Coordination Sequence:
#
# PCOD9462741 Si02
#       8
#     8   8   8   8   8   8   8   8
#     4  10  20  34  56  80 106 143 185 226 272 324
#     4  10  21  36  55  83 116 144 177 224 278 331
#     4  11  22  36  56  83 117 147 178 222 277 333
#     4  10  20  34  56  84 111 144 182 223 270 324
#     4  10  19  32  53  81 111 140 176 222 274 328
#     4  10  22  39  58  79 107 146 190 230 271 325
#     4  10  20  36  57  80 109 146 182 222 277 331
#     4   9  20  39  58  78 108 147 190 231 270 320
#
# _framework density 19.722611000000001
#
# number of rings (size 3 to 8) (size 9 to 14) (size 15 to 20)
#    0.000    2.000    1.250    2.250    0.000    6.500 
#    0.000    0.625    0.000    0.000    0.000    0.000 
#    0.000    0.000    0.000    0.000    0.000    0.000 
#
# Total GULP energy -357528.416712 kJ/mol
# GULP energy per Si atom -5586.381511 kJ/mol
# Density = 1.967772 g / cm^3
# Si number density = 19.722611 Si / 1000 Ang^3
#
#
#
# Elastic Constant Matrix: (Units=GPa)
#
#
# Indices 1 2 3 4 5 6 
#
# 1 36.7563 12.7647 -5.7797 0.0000 0.0000 0.0000
# 2 12.7647 39.4223 21.7790 0.0000 0.0000 0.0000
# 3 -5.7797 21.7790 87.0382 0.0000 0.0000 0.0000
# 4 0.0000 0.0000 0.0000 34.0463 0.0000 0.0000
# 5 0.0000 0.0000 0.0000 0.0000 27.1271 0.0000
# 6 0.0000 0.0000 0.0000 0.0000 0.0000 17.9898
#
#
#
# Elastic Compliance Matrix: (Units=1/GPa)
#
#
# Indices 1 2 3 4 5 6 
#
# 1 0.032864 -0.013747 0.005622 0.000000 0.000000 0.000000
# 2 -0.013747 0.035186 -0.009717 0.000000 0.000000 0.000000
# 3 0.005622 -0.009717 0.014294 0.000000 0.000000 0.000000
# 4 0.000000 0.000000 0.000000 0.029372 0.000000 0.000000
# 5 0.000000 0.000000 0.000000 0.000000 0.036864 0.000000
# 6 0.000000 0.000000 0.000000 0.000000 0.000000 0.055587
#
#
# Mechanical properties :
#
#
# Convention : Reuss Voigt Hill
#
# Bulk Modulus (GPa) = 21.43172 24.52720 22.97946
# Shear Modulus (GPa) = 19.57677 24.79616 22.18646
#
# Velocity S-wave (km/s) = 3.15398 3.54961 3.35763
# Velocity P-wave (km/s) = 4.91463 5.40950 5.16800
#
# Compressibility (1/GPa) = 0.04665981
#
# Stress axis : x y z
#
# Youngs Moduli (GPa) = 30.42802 28.42045 69.95924
#
# Poissons Ratio (x) = 0.39070 -0.39333
# Poissons Ratio (y) = 0.41830 0.67981
# Poissons Ratio (z) = -0.17107 0.27617
#
# Static dielectric constant tensor:
#      x y z
#    x 1.671650 0.000000 0.000000 
#    y 0.000000 1.662280 0.000000 
#    z 0.000000 0.000000 1.734080 
# 
# From -- ./inp_files/20956.got.cif
#   From: 2010.05.17/outbox.cif.g08.bks.cpg/sg62_11_cif.got.tgz:20956.got - 2010.06.03 15:25:27.
