data_PCOD9462011
_publ_section_title
;
Structure prediction by ZEFSAII (Michael W. Deem and Ramdas Pophale) SiO2 
 PCOD9462011
Probable space group: P N M A
;
_chemical_formula_sum "Si O2"
_cell_formula_units_Z 40
_cell_length_a 9.993991
_cell_length_b 8.589488
_cell_length_c 26.435546
_cell_angle_alpha 90.000000
_cell_angle_beta 90.000000
_cell_angle_gamma 90.000000
_cell_volume 2269.313601
_symmetry_space_group_name_H-M "P N M A"
_symmetry_group_IT_number 62
_symmetry_cell_setting 'orthorhombic'
loop_
_space_group_symop_operation_xyz
x,y,z
1/2-x,-y,1/2+z
1/2+x,1/2-y,1/2-z
-x,1/2+y,-z
-x,-y,-z
1/2+x,y,1/2-z
1/2-x,1/2+y,1/2+z
x,1/2-y,z
loop_
_atom_site_type_symbol
_atom_site_label
_atom_site_fract_x
_atom_site_fract_y
_atom_site_fract_z
Si Si1 0.996951 0.436799 0.443510
Si Si2 0.986389 0.061376 0.165058
Si Si3 0.498485 0.061940 0.217243
Si Si4 0.778714 0.060987 0.363741
Si Si5 0.202925 0.565016 0.362809
O O1 0.998278 0.250000 0.444180
O O2 0.864126 0.488332 0.412524
O O3 0.000000 0.500000 0.500000
O O4 0.121496 0.494837 0.410030
O O5 0.979201 0.250000 0.162897
O O6 0.990237 0.016820 0.224387
O O7 0.126141 0.008837 0.140286
O O8 0.854627 0.992810 0.139797
O O9 0.509593 0.250000 0.215033
O O10 0.366431 0.016095 0.185435
O O11 0.624582 0.993365 0.187289
O O12 0.775853 0.250000 0.363791
O O13 0.197341 0.750000 0.365187
#
# Coordination Sequence:
#
# PCOD9462011 Si02
#       5
#     8   8   8   8   8
#     4  10  20  38  60  79  99 130 175 222 269 319
#     4  10  18  32  54  78 106 140 175 213 256 301
#     4   9  17  32  54  77 103 141 183 215 249 302
#     4   8  16  30  51  78 103 129 169 217 257 301
#     4  11  22  34  50  78 112 142 173 211 257 311
#
# _framework density 17.626474999999999
#
# number of rings (size 3 to 8) (size 9 to 14) (size 15 to 20)
#    0.000    2.400    0.000    4.800    0.000    4.000 
#    0.000    6.000    0.000    0.000    0.000    0.000 
#    0.000    0.000    0.000    0.000    0.000    0.000 
#
# Total GULP energy -223220.293081 kJ/mol
# GULP energy per Si atom -5580.507327 kJ/mol
# Density = 1.758636 g / cm^3
# Si number density = 17.626475 Si / 1000 Ang^3
#
#
#
# Elastic Constant Matrix: (Units=GPa)
#
#
# Indices 1 2 3 4 5 6 
#
# 1 188.5535 39.0822 86.1827 0.0000 0.0000 0.0000
# 2 39.0822 41.9736 39.1673 0.0000 0.0000 0.0000
# 3 86.1827 39.1673 141.8011 0.0000 0.0000 0.0000
# 4 0.0000 0.0000 0.0000 24.3076 0.0000 0.0000
# 5 0.0000 0.0000 0.0000 0.0000 5.1147 0.0000
# 6 0.0000 0.0000 0.0000 0.0000 0.0000 8.1568
#
#
#
# Elastic Compliance Matrix: (Units=1/GPa)
#
#
# Indices 1 2 3 4 5 6 
#
# 1 0.007771 -0.003811 -0.003670 0.000000 0.000000 0.000000
# 2 -0.003811 0.033966 -0.007066 0.000000 0.000000 0.000000
# 3 -0.003670 -0.007066 0.011235 0.000000 0.000000 0.000000
# 4 0.000000 0.000000 0.000000 0.041139 0.000000 0.000000
# 5 0.000000 0.000000 0.000000 0.000000 0.195514 0.000000
# 6 0.000000 0.000000 0.000000 0.000000 0.000000 0.122597
#
#
# Mechanical properties :
#
#
# Convention : Reuss Voigt Hill
#
# Bulk Modulus (GPa) = 41.87998 77.91030 59.89514
# Shear Modulus (GPa) = 11.12903 21.37555 16.25229
#
# Velocity S-wave (km/s) = 2.51546 3.48616 3.03980
# Velocity P-wave (km/s) = 5.67873 7.77824 6.80988
#
# Compressibility (1/GPa) = 0.02387776
#
# Stress axis : x y z
#
# Youngs Moduli (GPa) = 128.68257 29.44114 89.01045
#
# Poissons Ratio (x) = 0.11219 0.32671
# Poissons Ratio (y) = 0.49036 0.62894
# Poissons Ratio (z) = 0.47233 0.20803
#
# Static dielectric constant tensor:
#      x y z
#    x 1.600450 0.000000 0.000000 
#    y 0.000000 1.594670 0.000000 
#    z 0.000000 0.000000 1.577300 
# 
# From -- ./inp_files/28579.got.cif
#   From: 2010.05.17/outbox.cif.g08.bks.cpg/sg62_15_cif.got.tgz:28579.got - 2010.06.03 15:25:27.
