data_PCOD9462201
_publ_section_title
;
Structure prediction by ZEFSAII (Michael W. Deem and Ramdas Pophale) SiO2 
 PCOD9462201
Probable space group: P N M A
;
_chemical_formula_sum "Si O2"
_cell_formula_units_Z 48
_cell_length_a 7.653246
_cell_length_b 24.157446
_cell_length_c 12.334890
_cell_angle_alpha 90.000000
_cell_angle_beta 90.000000
_cell_angle_gamma 90.000000
_cell_volume 2280.509950
_symmetry_space_group_name_H-M "P N M A"
_symmetry_group_IT_number 62
_symmetry_cell_setting 'orthorhombic'
loop_
_space_group_symop_operation_xyz
x,y,z
1/2-x,-y,1/2+z
1/2+x,1/2-y,1/2-z
-x,1/2+y,-z
-x,-y,-z
1/2+x,y,1/2-z
1/2-x,1/2+y,1/2+z
x,1/2-y,z
loop_
_atom_site_type_symbol
_atom_site_label
_atom_site_fract_x
_atom_site_fract_y
_atom_site_fract_z
Si Si1 0.254268 0.554108 0.681423
Si Si2 0.691264 0.188947 0.025744
Si Si3 0.102734 0.543420 0.075103
Si Si4 0.427134 0.857888 0.518756
Si Si5 0.325487 0.750000 0.411369
Si Si6 0.886527 0.577381 0.593203
Si Si7 0.725391 0.750000 0.330429
O O1 0.349053 0.494339 0.676654
O O2 0.350102 0.602189 0.611364
O O3 0.255026 0.572020 0.805653
O O4 0.064381 0.548480 0.627878
O O5 0.655288 0.250000 0.069856
O O6 0.570703 0.141444 0.070996
O O7 0.889425 0.170349 0.053779
O O8 0.687399 0.198162 0.894678
O O9 0.281582 0.557815 0.011901
O O10 0.000000 0.500000 0.000000
O O11 0.987241 0.599125 0.077027
O O12 0.307246 0.807152 0.477919
O O13 0.527397 0.750000 0.372195
O O14 0.225388 0.750000 0.297630
#
# Coordination Sequence:
#
# PCOD9462201 Si02
#       7
#     8   8   8   8   4   8   4
#     4  11  22  37  56  87 112 154 191 236 291 341
#     4   8  17  37  55  78 110 153 187 235 286 341
#     4   9  19  38  60  81 114 150 188 238 281 338
#     4   9  18  36  59  80 114 145 191 235 291 337
#     4  10  18  36  55  84 109 148 181 238 284 344
#     4  11  21  38  60  83 118 150 191 241 284 345
#     4   8  18  32  55  74 113 142 183 222 284 338
#
# _framework density 21.047923999999998
#
# number of rings (size 3 to 8) (size 9 to 14) (size 15 to 20)
#    0.500    2.000    0.833    3.500    0.000    1.333 
#    3.000   16.667    0.000    0.000    0.000    0.000 
#    0.000    0.000    0.000    0.000    0.000    0.000 
#
# Total GULP energy -267231.844304 kJ/mol
# GULP energy per Si atom -5567.330090 kJ/mol
# Density = 2.100002 g / cm^3
# Si number density = 21.047924 Si / 1000 Ang^3
#
#
#
# Elastic Constant Matrix: (Units=GPa)
#
#
# Indices 1 2 3 4 5 6 
#
# 1 33.5639 8.7295 -3.2270 0.0000 0.0000 0.0000
# 2 8.7295 131.2564 26.7788 0.0000 0.0000 0.0000
# 3 -3.2270 26.7788 57.4187 0.0000 0.0000 0.0000
# 4 0.0000 0.0000 0.0000 25.8184 0.0000 0.0000
# 5 0.0000 0.0000 0.0000 0.0000 22.1754 0.0000
# 6 0.0000 0.0000 0.0000 0.0000 0.0000 28.1447
#
#
#
# Elastic Compliance Matrix: (Units=1/GPa)
#
#
# Indices 1 2 3 4 5 6 
#
# 1 0.030769 -0.002651 0.002966 0.000000 0.000000 0.000000
# 2 -0.002651 0.008648 -0.004182 0.000000 0.000000 0.000000
# 3 0.002966 -0.004182 0.019533 0.000000 0.000000 0.000000
# 4 0.000000 0.000000 0.000000 0.038732 0.000000 0.000000
# 5 0.000000 0.000000 0.000000 0.000000 0.045095 0.000000
# 6 0.000000 0.000000 0.000000 0.000000 0.000000 0.035531
#
#
# Mechanical properties :
#
#
# Convention : Reuss Voigt Hill
#
# Bulk Modulus (GPa) = 19.52589 31.86686 25.69638
# Shear Modulus (GPa) = 24.61656 27.89154 26.25405
#
# Velocity S-wave (km/s) = 3.42358 3.64420 3.53561
# Velocity P-wave (km/s) = 4.99248 5.73411 5.37610
#
# Compressibility (1/GPa) = 0.05121405
#
# Stress axis : x y z
#
# Youngs Moduli (GPa) = 32.50065 115.62967 51.19497
#
# Poissons Ratio (x) = 0.30658 -0.15183
# Poissons Ratio (y) = 0.08617 0.21412
# Poissons Ratio (z) = -0.09639 0.48361
#
# Static dielectric constant tensor:
#      x y z
#    x 1.828920 0.000000 0.000000 
#    y 0.000000 1.812390 0.000000 
#    z 0.000000 0.000000 1.743520 
# 
# From -- ./inp_files/11391.got.cif
#   From: 2010.05.17/outbox.cif.g08.bks.cpg/sg62_6_cif.got.tgz:11391.got - 2010.06.03 15:25:27.
