data_PCOD9462048
_publ_section_title
;
Structure prediction by ZEFSAII (Michael W. Deem and Ramdas Pophale) SiO2 
 PCOD9462048
Probable space group: P N M A
;
_chemical_formula_sum "Si O2"
_cell_formula_units_Z 48
_cell_length_a 5.369240
_cell_length_b 14.864954
_cell_length_c 23.909232
_cell_angle_alpha 90.000000
_cell_angle_beta 90.000000
_cell_angle_gamma 90.000000
_cell_volume 1908.279622
_symmetry_space_group_name_H-M "P N M A"
_symmetry_group_IT_number 62
_symmetry_cell_setting 'orthorhombic'
loop_
_space_group_symop_operation_xyz
x,y,z
1/2-x,-y,1/2+z
1/2+x,1/2-y,1/2-z
-x,1/2+y,-z
-x,-y,-z
1/2+x,y,1/2-z
1/2-x,1/2+y,1/2+z
x,1/2-y,z
loop_
_atom_site_type_symbol
_atom_site_label
_atom_site_fract_x
_atom_site_fract_y
_atom_site_fract_z
Si Si1 0.647618 0.593354 0.607074
Si Si2 0.164616 0.853162 0.389851
Si Si3 0.520095 0.119678 0.273009
Si Si4 0.104564 0.587292 0.268397
Si Si5 0.659564 0.996544 0.922967
Si Si6 0.140999 0.150467 0.004249
O O1 0.594731 0.639088 0.666130
O O2 0.926990 0.557689 0.603759
O O3 0.586059 0.643879 0.548487
O O4 0.419763 0.520915 0.608052
O O5 0.116172 0.750000 0.376469
O O6 0.199219 0.904995 0.331811
O O7 0.378071 0.854549 0.437573
O O8 0.931925 0.902057 0.419982
O O9 0.301812 0.153025 0.232117
O O10 0.553211 0.013266 0.255808
O O11 0.329645 0.629742 0.233456
O O12 0.713450 0.941585 0.979843
O O13 0.257017 0.250000 0.015131
#
# Coordination Sequence:
#
# PCOD9462048 Si02
#       6
#     8   8   8   8   8   8
#     4  10  21  39  69  93 129 168 221 269 333 386
#     4  11  23  43  65  99 138 176 222 272 322 395
#     4  10  18  32  58  91 119 162 213 260 316 381
#     4  10  21  39  61  86 128 169 218 260 316 374
#     4  10  21  41  65  94 128 170 215 264 332 390
#     4   9  23  43  68 100 131 170 222 277 335 390
#
# _framework density 25.153547
#
# number of rings (size 3 to 8) (size 9 to 14) (size 15 to 20)
#    1.000    1.000    0.000    5.500    0.000    2.000 
#    3.000    2.500    0.000    1.000    0.000    0.000 
#    0.000    0.000    0.000    0.000    0.000    0.000 
#
# Total GULP energy -267273.366290 kJ/mol
# GULP energy per Si atom -5568.195131 kJ/mol
# Density = 2.509630 g / cm^3
# Si number density = 25.153547 Si / 1000 Ang^3
#
#
#
# Elastic Constant Matrix: (Units=GPa)
#
#
# Indices 1 2 3 4 5 6 
#
# 1 143.7613 5.5986 24.7872 0.0000 0.0000 0.0000
# 2 5.5986 109.2355 34.2314 0.0000 0.0000 0.0000
# 3 24.7872 34.2314 122.1133 0.0000 0.0000 0.0000
# 4 0.0000 0.0000 0.0000 -11.0806 0.0000 0.0000
# 5 0.0000 0.0000 0.0000 0.0000 20.3432 0.0000
# 6 0.0000 0.0000 0.0000 0.0000 0.0000 26.7614
#
#
#
# Elastic Compliance Matrix: (Units=1/GPa)
#
#
# Indices 1 2 3 4 5 6 
#
# 1 0.007209 0.000098 -0.001491 0.000000 0.000000 0.000000
# 2 0.000098 0.010037 -0.002834 0.000000 0.000000 0.000000
# 3 -0.001491 -0.002834 0.009286 0.000000 0.000000 0.000000
# 4 0.000000 0.000000 0.000000 -0.090248 0.000000 0.000000
# 5 0.000000 0.000000 0.000000 0.000000 0.049157 0.000000
# 6 0.000000 0.000000 0.000000 0.000000 0.000000 0.037367
#
#
# Mechanical properties :
#
#
# Convention : Reuss Voigt Hill
#
# Bulk Modulus (GPa) = 55.31150 56.03828 55.67489
# Shear Modulus (GPa) = 134.09003 27.90432 80.99718
#
# Velocity S-wave (km/s) = 7.30919 3.33432 5.68076
# Velocity P-wave (km/s) = 9.65762 6.09511 8.07527
#
# Compressibility (1/GPa) = 0.01807942
#
# Stress axis : x y z
#
# Youngs Moduli (GPa) = 138.71152 99.62642 107.68855
#
# Poissons Ratio (x) = -0.00973 0.16054
# Poissons Ratio (y) = -0.01355 0.30514
# Poissons Ratio (z) = 0.20678 0.28230
#
# Static dielectric constant tensor:
#      x y z
#    x 2.030770 0.000000 0.000000 
#    y 0.000000 2.064450 0.000000 
#    z 0.000000 0.000000 2.052460 
# 
# From -- ./inp_files/28333.got.cif
#   From: 2010.05.17/outbox.cif.g08.bks.cpg/sg62_15_cif.got.tgz:28333.got - 2010.06.03 15:25:27.
