data_PCOD9462772
_publ_section_title
;
Structure prediction by ZEFSAII (Michael W. Deem and Ramdas Pophale) SiO2 
 PCOD9462772
Probable space group: P N M A
;
_chemical_formula_sum "Si O2"
_cell_formula_units_Z 48
_cell_length_a 20.305403
_cell_length_b 8.840824
_cell_length_c 15.395733
_cell_angle_alpha 90.000000
_cell_angle_beta 90.000000
_cell_angle_gamma 90.000000
_cell_volume 2763.788013
_symmetry_space_group_name_H-M "P N M A"
_symmetry_group_IT_number 62
_symmetry_cell_setting 'orthorhombic'
loop_
_space_group_symop_operation_xyz
x,y,z
1/2-x,-y,1/2+z
1/2+x,1/2-y,1/2-z
-x,1/2+y,-z
-x,-y,-z
1/2+x,y,1/2-z
1/2-x,1/2+y,1/2+z
x,1/2-y,z
loop_
_atom_site_type_symbol
_atom_site_label
_atom_site_fract_x
_atom_site_fract_y
_atom_site_fract_z
Si Si1 0.944311 0.067903 0.937731
Si Si2 0.035527 0.931250 0.583122
Si Si3 0.198261 0.567873 0.992540
Si Si4 0.160270 0.932843 0.802285
Si Si5 0.311716 0.431193 0.109971
Si Si6 0.017553 0.068800 0.766537
O O1 0.946829 0.250000 0.945926
O O2 0.871739 0.018272 0.966706
O O3 0.963457 0.029051 0.838977
O O4 0.000000 0.000000 0.000000
O O5 0.030571 0.750000 0.583114
O O6 0.113287 0.971660 0.584321
O O7 0.006150 0.995976 0.672657
O O8 0.000000 0.000000 0.500000
O O9 0.200662 0.750000 0.996334
O O10 0.258364 0.503730 0.047391
O O11 0.197064 0.524250 0.890774
O O12 0.151559 0.750000 0.802060
O O13 0.195364 0.974590 0.711737
O O14 0.087938 0.006503 0.799926
O O15 0.306006 0.250000 0.104716
O O16 0.020863 0.250000 0.758621
#
# Coordination Sequence:
#
# PCOD9462772 Si02
#       6
#     8   8   8   8   8   8
#     4  10  20  33  53  82 112 142 179 223 270 323
#     4  10  21  39  61  82 108 143 184 229 276 327
#     4  10  20  35  55  78 109 145 181 225 272 325
#     4   9  18  35  56  75 104 143 182 220 270 325
#     4   9  20  37  55  78 107 139 178 224 269 323
#     4  10  19  32  54  83 111 139 179 224 272 327
#
# _framework density 17.367467000000001
#
# number of rings (size 3 to 8) (size 9 to 14) (size 15 to 20)
#    0.000    2.333    1.667    2.000    0.000    5.333 
#    3.000    0.000    0.000    0.000    0.000    0.000 
#    0.000    0.000    0.000    0.000    0.000    0.000 
#
# Total GULP energy -267760.523319 kJ/mol
# GULP energy per Si atom -5578.344236 kJ/mol
# Density = 1.732794 g / cm^3
# Si number density = 17.367467 Si / 1000 Ang^3
#
#
#
# Elastic Constant Matrix: (Units=GPa)
#
#
# Indices 1 2 3 4 5 6 
#
# 1 84.9706 31.2791 97.0885 0.0000 0.0000 0.0000
# 2 31.2791 24.8921 51.0287 0.0000 0.0000 0.0000
# 3 97.0885 51.0287 200.0308 0.0000 0.0000 0.0000
# 4 0.0000 0.0000 0.0000 30.8354 0.0000 0.0000
# 5 0.0000 0.0000 0.0000 0.0000 35.3558 0.0000
# 6 0.0000 0.0000 0.0000 0.0000 0.0000 29.6936
#
#
#
# Elastic Compliance Matrix: (Units=1/GPa)
#
#
# Indices 1 2 3 4 5 6 
#
# 1 0.029175 -0.015998 -0.010079 0.000000 0.000000 0.000000
# 2 -0.015998 0.092987 -0.015956 0.000000 0.000000 0.000000
# 3 -0.010079 -0.015956 0.013962 0.000000 0.000000 0.000000
# 4 0.000000 0.000000 0.000000 0.032430 0.000000 0.000000
# 5 0.000000 0.000000 0.000000 0.000000 0.028284 0.000000
# 6 0.000000 0.000000 0.000000 0.000000 0.000000 0.033677
#
#
# Mechanical properties :
#
#
# Convention : Reuss Voigt Hill
#
# Bulk Modulus (GPa) = 19.21009 74.29845 46.75427
# Shear Modulus (GPa) = 15.06325 27.87679 21.47002
#
# Velocity S-wave (km/s) = 2.94823 4.01074 3.51981
# Velocity P-wave (km/s) = 4.76177 8.02004 6.59528
#
# Compressibility (1/GPa) = 0.05205599
#
# Stress axis : x y z
#
# Youngs Moduli (GPa) = 34.27641 10.75423 71.62334
#
# Poissons Ratio (x) = 0.17205 0.72191
# Poissons Ratio (y) = 0.54835 1.14285
# Poissons Ratio (z) = 0.34548 0.17160
#
# Static dielectric constant tensor:
#      x y z
#    x 1.559530 0.000000 0.000000 
#    y 0.000000 1.600050 0.000000 
#    z 0.000000 0.000000 1.599390 
# 
# From -- ./inp_files/20038.got.cif
#   From: 2010.05.17/outbox.cif.g08.bks.cpg/sg62_11_cif.got.tgz:20038.got - 2010.06.03 15:25:27.
