data_PCOD9462713
_publ_section_title
;
Structure prediction by ZEFSAII (Michael W. Deem and Ramdas Pophale) SiO2 
 PCOD9462713
Probable space group: P N M A
;
_chemical_formula_sum "Si O2"
_cell_formula_units_Z 48
_cell_length_a 14.472910
_cell_length_b 7.543790
_cell_length_c 18.526874
_cell_angle_alpha 90.000000
_cell_angle_beta 90.000000
_cell_angle_gamma 90.000000
_cell_volume 2022.775103
_symmetry_space_group_name_H-M "P N M A"
_symmetry_group_IT_number 62
_symmetry_cell_setting 'orthorhombic'
loop_
_space_group_symop_operation_xyz
x,y,z
1/2-x,-y,1/2+z
1/2+x,1/2-y,1/2-z
-x,1/2+y,-z
-x,-y,-z
1/2+x,y,1/2-z
1/2-x,1/2+y,1/2+z
x,1/2-y,z
loop_
_atom_site_type_symbol
_atom_site_label
_atom_site_fract_x
_atom_site_fract_y
_atom_site_fract_z
Si Si1 0.640055 0.547554 0.663819
Si Si2 0.323599 0.532862 0.765397
Si Si3 0.162487 0.452875 0.996115
Si Si4 0.960141 0.962902 0.608354
Si Si5 0.938451 0.967682 0.868791
Si Si6 0.859260 0.540966 0.462063
O O1 0.628452 0.750000 0.689321
O O2 0.722876 0.468069 0.710455
O O3 0.672737 0.548721 0.580175
O O4 0.537433 0.470121 0.660239
O O5 0.321273 0.750000 0.767880
O O6 0.400920 0.476198 0.823598
O O7 0.359147 0.480484 0.687154
O O8 0.140016 0.250000 0.978396
O O9 0.086728 0.528270 0.050944
O O10 0.258977 0.456257 0.039400
O O11 0.956584 0.750000 0.607838
O O12 0.909939 0.027054 0.535062
O O13 0.067768 0.011427 0.602009
O O14 0.940917 0.750000 0.871711
O O15 0.844753 0.750000 0.469774
#
# Coordination Sequence:
#
# PCOD9462713 Si02
#       6
#     8   8   8   8   8   8
#     4  10  19  36  59  80 107 145 183 225 279 332
#     4   9  17  33  56  82 108 140 184 230 277 327
#     4  11  21  34  54  83 113 145 188 233 275 323
#     4   9  17  31  52  80 108 138 178 222 269 322
#     4   9  20  34  54  84 111 140 185 235 277 322
#     4  10  19  32  52  81 110 142 180 221 273 324
#
# _framework density 23.729773000000002
#
# number of rings (size 3 to 8) (size 9 to 14) (size 15 to 20)
#    0.000    2.333    1.667    1.500    0.000    2.000 
#    0.000    5.833    0.000    8.000    0.000    0.000 
#    0.000    0.000    0.000    0.000    0.000    0.000 
#
# Total GULP energy -268219.663200 kJ/mol
# GULP energy per Si atom -5587.909650 kJ/mol
# Density = 2.367576 g / cm^3
# Si number density = 23.729773 Si / 1000 Ang^3
#
#
#
# Elastic Constant Matrix: (Units=GPa)
#
#
# Indices 1 2 3 4 5 6 
#
# 1 143.3788 -4.9569 45.0360 0.0000 0.0000 0.0000
# 2 -4.9569 67.0517 -3.4941 0.0000 0.0000 0.0000
# 3 45.0360 -3.4941 45.1738 0.0000 0.0000 0.0000
# 4 0.0000 0.0000 0.0000 6.8826 0.0000 0.0000
# 5 0.0000 0.0000 0.0000 0.0000 17.8172 0.0000
# 6 0.0000 0.0000 0.0000 0.0000 0.0000 -1.2379
#
#
#
# Elastic Compliance Matrix: (Units=1/GPa)
#
#
# Indices 1 2 3 4 5 6 
#
# 1 0.010158 0.000224 -0.010109 0.000000 0.000000 0.000000
# 2 0.000224 0.014979 0.000935 0.000000 0.000000 0.000000
# 3 -0.010109 0.000935 0.032288 0.000000 0.000000 0.000000
# 4 0.000000 0.000000 0.000000 0.145294 0.000000 0.000000
# 5 0.000000 0.000000 0.000000 0.000000 0.056125 0.000000
# 6 0.000000 0.000000 0.000000 0.000000 0.000000 -0.807795
#
#
# Mechanical properties :
#
#
# Convention : Reuss Voigt Hill
#
# Bulk Modulus (GPa) = 25.30087 36.53045 30.91566
# Shear Modulus (GPa) = -9.65480 19.29366 4.81943
#
# Velocity S-wave (km/s) = -2.01928 2.85451 1.42666
# Velocity P-wave (km/s) = 2.29098 5.12758 3.97119
#
# Compressibility (1/GPa) = 0.03952433
#
# Stress axis : x y z
#
# Youngs Moduli (GPa) = 98.44764 66.75937 30.97163
#
# Poissons Ratio (x) = -0.01496 0.31310
# Poissons Ratio (y) = -0.02206 -0.02896
# Poissons Ratio (z) = 0.99524 -0.06243
#
# Static dielectric constant tensor:
#      x y z
#    x 1.915760 0.000000 0.000000 
#    y 0.000000 1.915950 0.000000 
#    z 0.000000 0.000000 1.870810 
# 
# From -- ./inp_files/26867.got.cif
#   From: 2010.05.17/outbox.cif.g08.bks.cpg/sg62_14_cif.got.tgz:26867.got - 2010.06.03 15:25:27.
