data_PCOD9462502
_publ_section_title
;
Structure prediction by ZEFSAII (Michael W. Deem and Ramdas Pophale) SiO2 
 PCOD9462502
Probable space group: P N M A
;
_chemical_formula_sum "Si O2"
_cell_formula_units_Z 56
_cell_length_a 22.087553
_cell_length_b 9.088742
_cell_length_c 15.790626
_cell_angle_alpha 90.000000
_cell_angle_beta 90.000000
_cell_angle_gamma 90.000000
_cell_volume 3169.937704
_symmetry_space_group_name_H-M "P N M A"
_symmetry_group_IT_number 62
_symmetry_cell_setting 'orthorhombic'
loop_
_space_group_symop_operation_xyz
x,y,z
1/2-x,-y,1/2+z
1/2+x,1/2-y,1/2-z
-x,1/2+y,-z
-x,-y,-z
1/2+x,y,1/2-z
1/2-x,1/2+y,1/2+z
x,1/2-y,z
loop_
_atom_site_type_symbol
_atom_site_label
_atom_site_fract_x
_atom_site_fract_y
_atom_site_fract_z
Si Si1 0.478259 0.920217 0.628974
Si Si2 0.316408 0.426133 0.048889
Si Si3 0.944291 0.581677 0.258105
Si Si4 0.713501 0.073548 0.588404
Si Si5 0.315383 0.073625 0.244032
Si Si6 0.596724 0.920873 0.507695
Si Si7 0.943802 0.917565 0.459288
O O1 0.464002 0.750000 0.646039
O O2 0.538073 0.924162 0.569036
O O3 0.499410 0.008427 0.711106
O O4 0.424978 0.999829 0.577933
O O5 0.325237 0.250000 0.048437
O O6 0.298784 0.464805 0.146490
O O7 0.379710 0.502960 0.027243
O O8 0.265927 0.462439 0.979327
O O9 0.934941 0.750000 0.227961
O O10 0.883862 0.486077 0.243420
O O11 0.953622 0.584301 0.358285
O O12 0.709120 0.250000 0.595818
O O13 0.722513 0.002562 0.681215
O O14 0.651587 0.007029 0.550696
O O15 0.314074 0.250000 0.253526
O O16 0.612622 0.750000 0.494218
O O17 0.940703 0.750000 0.489965
O O18 0.000000 0.000000 0.500000
#
# Coordination Sequence:
#
# PCOD9462502 Si02
#       7
#     8   8   8   8   8   8   8
#     4  10  19  31  49  76 108 142 179 218 264 311
#     4   9  21  39  58  81 111 145 183 225 272 329
#     4  10  19  32  53  80 108 139 180 224 268 323
#     4  11  21  35  56  81 110 146 184 226 275 326
#     4  10  19  34  55  79 106 141 184 227 270 324
#     4  10  20  32  49  75 109 145 179 216 261 314
#     4  10  21  37  59  84 108 139 178 225 276 323
#
# _framework density 17.665962
#
# number of rings (size 3 to 8) (size 9 to 14) (size 15 to 20)
#    0.000    2.000    1.429    2.571    0.000    4.571 
#    0.000    1.429    0.000    3.429    0.000    0.000 
#    0.000    0.000    0.000    0.000    0.000    0.000 
#
# Total GULP energy -312471.465446 kJ/mol
# GULP energy per Si atom -5579.847597 kJ/mol
# Density = 1.762575 g / cm^3
# Si number density = 17.665962 Si / 1000 Ang^3
#
#
#
# Elastic Constant Matrix: (Units=GPa)
#
#
# Indices 1 2 3 4 5 6 
#
# 1 69.9910 48.9778 61.0299 0.0000 0.0000 0.0000
# 2 48.9778 96.0403 54.9213 0.0000 0.0000 0.0000
# 3 61.0299 54.9213 92.6915 0.0000 0.0000 0.0000
# 4 0.0000 0.0000 0.0000 31.1020 0.0000 0.0000
# 5 0.0000 0.0000 0.0000 0.0000 35.4386 0.0000
# 6 0.0000 0.0000 0.0000 0.0000 0.0000 24.4783
#
#
#
# Elastic Compliance Matrix: (Units=1/GPa)
#
#
# Indices 1 2 3 4 5 6 
#
# 1 0.036737 -0.007415 -0.019795 0.000000 0.000000 0.000000
# 2 -0.007415 0.017245 -0.005336 0.000000 0.000000 0.000000
# 3 -0.019795 -0.005336 0.026983 0.000000 0.000000 0.000000
# 4 0.000000 0.000000 0.000000 0.032152 0.000000 0.000000
# 5 0.000000 0.000000 0.000000 0.000000 0.028218 0.000000
# 6 0.000000 0.000000 0.000000 0.000000 0.000000 0.040853
#
#
# Mechanical properties :
#
#
# Convention : Reuss Voigt Hill
#
# Bulk Modulus (GPa) = 62.99584 65.39787 64.19686
# Shear Modulus (GPa) = 19.79653 24.45668 22.12660
#
# Velocity S-wave (km/s) = 3.35117 3.72478 3.54291
# Velocity P-wave (km/s) = 7.12114 7.45642 7.29071
#
# Compressibility (1/GPa) = 0.01587406
#
# Stress axis : x y z
#
# Youngs Moduli (GPa) = 27.22085 57.98765 37.06010
#
# Poissons Ratio (x) = 0.42997 0.73359
# Poissons Ratio (y) = 0.20184 0.19775
# Poissons Ratio (z) = 0.53883 0.30941
#
# Static dielectric constant tensor:
#      x y z
#    x 1.564150 0.000000 0.000000 
#    y 0.000000 1.602860 0.000000 
#    z 0.000000 0.000000 1.625830 
# 
# From -- ./inp_files/20285.got.cif
#   From: 2010.05.17/outbox.cif.g08.bks.cpg/sg62_11_cif.got.tgz:20285.got - 2010.06.03 15:25:27.
