data_PCOD9462055
_publ_section_title
;
Structure prediction by ZEFSAII (Michael W. Deem and Ramdas Pophale) SiO2 
 PCOD9462055
Probable space group: P N M A
;
_chemical_formula_sum "Si O2"
_cell_formula_units_Z 64
_cell_length_a 9.807644
_cell_length_b 28.895526
_cell_length_c 12.432295
_cell_angle_alpha 90.000000
_cell_angle_beta 90.000000
_cell_angle_gamma 90.000000
_cell_volume 3523.275506
_symmetry_space_group_name_H-M "P N M A"
_symmetry_group_IT_number 62
_symmetry_cell_setting 'orthorhombic'
loop_
_space_group_symop_operation_xyz
x,y,z
1/2-x,-y,1/2+z
1/2+x,1/2-y,1/2-z
-x,1/2+y,-z
-x,-y,-z
1/2+x,y,1/2-z
1/2-x,1/2+y,1/2+z
x,1/2-y,z
loop_
_atom_site_type_symbol
_atom_site_label
_atom_site_fract_x
_atom_site_fract_y
_atom_site_fract_z
Si Si1 0.939608 0.379055 0.977241
Si Si2 0.738092 0.625553 0.037836
Si Si3 0.572359 0.804785 0.641482
Si Si4 0.591281 0.024085 0.818799
Si Si5 0.047854 0.533918 0.866654
Si Si6 0.751566 0.194822 0.351675
Si Si7 0.160745 0.914251 0.252983
Si Si8 0.268940 0.977636 0.528446
O O1 0.876970 0.395675 0.865173
O O2 0.098598 0.371180 0.952696
O O3 0.885086 0.333382 0.036014
O O4 0.928551 0.418776 0.069107
O O5 0.675083 0.625385 0.156701
O O6 0.697189 0.664495 0.952412
O O7 0.715447 0.573684 0.992353
O O8 0.585901 0.750000 0.623992
O O9 0.663750 0.817210 0.744681
O O10 0.411008 0.814495 0.662546
O O11 0.448996 0.049554 0.800489
O O12 0.698654 0.058629 0.763361
O O13 0.585642 0.974892 0.756245
O O14 0.650454 0.012352 0.935764
O O15 0.886849 0.523544 0.880092
O O16 0.140668 0.496634 0.930021
O O17 0.766892 0.250000 0.370776
#
# Coordination Sequence:
#
# PCOD9462055 Si02
#       8
#     8   8   8   8   8   8   8   8
#     4  10  20  36  58  78 108 150 183 219 277 334
#     4  10  21  37  56  80 110 147 184 224 272 328
#     4   9  19  38  62  85 109 139 176 224 280 332
#     4  12  21  34  53  74 107 149 185 227 267 312
#     4  10  18  33  51  71 105 149 184 217 265 319
#     4   9  19  39  63  85 110 139 176 225 280 328
#     4  12  21  37  54  78 111 146 188 224 266 320
#     4  10  19  33  51  73 106 146 185 218 266 317
#
# _framework density 18.164915000000001
#
# number of rings (size 3 to 8) (size 9 to 14) (size 15 to 20)
#    0.000    1.750    5.000    0.750    1.750    0.500 
#    2.250    0.625    0.000    0.000    0.000    0.000 
#    0.000    0.000    0.000    0.000    0.000    0.000 
#
# Total GULP energy -356702.291452 kJ/mol
# GULP energy per Si atom -5573.473304 kJ/mol
# Density = 1.812357 g / cm^3
# Si number density = 18.164915 Si / 1000 Ang^3
#
#
#
# Elastic Constant Matrix: (Units=GPa)
#
#
# Indices 1 2 3 4 5 6 
#
# 1 23.1395 11.2242 15.6334 0.0000 0.0000 0.0000
# 2 11.2242 46.5405 32.5887 0.0000 0.0000 0.0000
# 3 15.6334 32.5887 77.6295 0.0000 0.0000 0.0000
# 4 0.0000 0.0000 0.0000 32.2465 0.0000 0.0000
# 5 0.0000 0.0000 0.0000 0.0000 26.8845 0.0000
# 6 0.0000 0.0000 0.0000 0.0000 0.0000 17.5560
#
#
#
# Elastic Compliance Matrix: (Units=1/GPa)
#
#
# Indices 1 2 3 4 5 6 
#
# 1 0.051733 -0.007339 -0.007338 0.000000 0.000000 0.000000
# 2 -0.007339 0.031473 -0.011735 0.000000 0.000000 0.000000
# 3 -0.007338 -0.011735 0.019286 0.000000 0.000000 0.000000
# 4 0.000000 0.000000 0.000000 0.031011 0.000000 0.000000
# 5 0.000000 0.000000 0.000000 0.000000 0.037196 0.000000
# 6 0.000000 0.000000 0.000000 0.000000 0.000000 0.056961
#
#
# Mechanical properties :
#
#
# Convention : Reuss Voigt Hill
#
# Bulk Modulus (GPa) = 20.13261 29.57799 24.85530
# Shear Modulus (GPa) = 16.83286 21.19495 19.01390
#
# Velocity S-wave (km/s) = 3.04743 3.41956 3.23884
# Velocity P-wave (km/s) = 4.84662 5.64886 5.26304
#
# Compressibility (1/GPa) = 0.04967065
#
# Stress axis : x y z
#
# Youngs Moduli (GPa) = 19.32995 31.77297 51.85242
#
# Poissons Ratio (x) = 0.23317 0.38047
# Poissons Ratio (y) = 0.14185 0.60846
# Poissons Ratio (z) = 0.14183 0.37284
#
# Static dielectric constant tensor:
#      x y z
#    x 1.633270 0.000000 0.000000 
#    y 0.000000 1.628590 0.000000 
#    z 0.000000 0.000000 1.657930 
# 
# From -- ./inp_files/11548.got.cif
#   From: 2010.05.17/outbox.cif.g08.bks.cpg/sg62_6_cif.got.tgz:11548.got - 2010.06.03 15:25:27.
