data_PCOD9462513
_publ_section_title
;
Structure prediction by ZEFSAII (Michael W. Deem and Ramdas Pophale) SiO2 
 PCOD9462513
Probable space group: P N M A
;
_chemical_formula_sum "Si O2"
_cell_formula_units_Z 28
_cell_length_a 16.892883
_cell_length_b 5.405158
_cell_length_c 15.039437
_cell_angle_alpha 90.000000
_cell_angle_beta 90.000000
_cell_angle_gamma 90.000000
_cell_volume 1373.231467
_symmetry_space_group_name_H-M "P N M A"
_symmetry_group_IT_number 62
_symmetry_cell_setting 'orthorhombic'
loop_
_space_group_symop_operation_xyz
x,y,z
1/2-x,-y,1/2+z
1/2+x,1/2-y,1/2-z
-x,1/2+y,-z
-x,-y,-z
1/2+x,y,1/2-z
1/2-x,1/2+y,1/2+z
x,1/2-y,z
loop_
_atom_site_type_symbol
_atom_site_label
_atom_site_fract_x
_atom_site_fract_y
_atom_site_fract_z
Si Si1 0.952934 0.750000 0.976091
Si Si2 0.890338 0.250000 0.478303
Si Si3 0.527496 0.750000 0.702601
Si Si4 0.393543 0.750000 0.832998
Si Si5 0.069174 0.250000 0.542510
Si Si6 0.122760 0.250000 0.845657
Si Si7 0.806051 0.250000 0.659175
O O1 0.954737 0.750000 0.869747
O O2 0.000000 0.500000 0.000000
O O3 0.881131 0.750000 0.045583
O O4 0.895507 0.497799 0.421133
O O5 0.821800 0.250000 0.551701
O O6 0.973696 0.250000 0.536394
O O7 0.481182 0.750000 0.794323
O O8 0.578077 0.499938 0.686562
O O9 0.401871 0.750000 0.939841
O O10 0.348038 0.499751 0.807291
O O11 0.213942 0.250000 0.819261
#
# Coordination Sequence:
#
# PCOD9462513 Si02
#       7
#     4   4   4   4   4   4   4
#     4   8  16  30  50  74  92 120 166 206 242 291
#     4   8  14  25  42  64  88 119 157 198 226 269
#     4  10  19  33  53  77  99 134 172 208 248 304
#     4  10  19  31  50  77  99 137 168 199 247 311
#     4   8  14  25  42  65  89 118 160 193 223 279
#     4  10  19  33  53  74 100 131 170 215 254 292
#     4  10  19  31  50  73 101 131 169 207 256 294
#
# _framework density 20.389862999999998
#
# number of rings (size 3 to 8) (size 9 to 14) (size 15 to 20)
#    0.000    2.857    0.000    1.714    0.000    0.000 
#    0.000    0.000    6.286    0.000    0.000    0.000 
#    0.000    0.000    0.000    0.000    0.000    0.000 
#
# Total GULP energy -155967.178648 kJ/mol
# GULP energy per Si atom -5570.256380 kJ/mol
# Density = 2.034346 g / cm^3
# Si number density = 20.389863 Si / 1000 Ang^3
#
#
#
# Elastic Constant Matrix: (Units=GPa)
#
#
# Indices 1 2 3 4 5 6 
#
# 1 107.6948 63.3400 18.8284 0.0000 0.0000 0.0000
# 2 63.3400 218.9459 20.8190 0.0000 0.0000 0.0000
# 3 18.8284 20.8190 37.2187 0.0000 0.0000 0.0000
# 4 0.0000 0.0000 0.0000 7.1737 0.0000 0.0000
# 5 0.0000 0.0000 0.0000 0.0000 21.4656 0.0000
# 6 0.0000 0.0000 0.0000 0.0000 0.0000 23.2701
#
#
#
# Elastic Compliance Matrix: (Units=1/GPa)
#
#
# Indices 1 2 3 4 5 6 
#
# 1 0.011804 -0.003007 -0.004289 0.000000 0.000000 0.000000
# 2 -0.003007 0.005590 -0.001606 0.000000 0.000000 0.000000
# 3 -0.004289 -0.001606 0.029936 0.000000 0.000000 0.000000
# 4 0.000000 0.000000 0.000000 0.139397 0.000000 0.000000
# 5 0.000000 0.000000 0.000000 0.000000 0.046586 0.000000
# 6 0.000000 0.000000 0.000000 0.000000 0.000000 0.042974
#
#
# Mechanical properties :
#
#
# Convention : Reuss Voigt Hill
#
# Bulk Modulus (GPa) = 33.86834 63.31490 48.59162
# Shear Modulus (GPa) = 16.45098 27.77336 22.11217
#
# Velocity S-wave (km/s) = 2.84354 3.69469 3.29670
# Velocity P-wave (km/s) = 5.23712 7.02286 6.19467
#
# Compressibility (1/GPa) = 0.02952610
#
# Stress axis : x y z
#
# Youngs Moduli (GPa) = 84.71736 178.89367 33.40419
#
# Poissons Ratio (x) = 0.53792 0.14329
# Poissons Ratio (y) = 0.25474 0.05364
# Poissons Ratio (z) = 0.36339 0.28724
#
# Static dielectric constant tensor:
#      x y z
#    x 1.685390 0.000000 0.000000 
#    y 0.000000 1.843190 0.000000 
#    z 0.000000 0.000000 1.770400 
# 
# From -- ./inp_files/18380.got.cif
#   From: 2010.05.17/outbox.cif.g08.bks.cpg/sg62_10_cif.got.tgz:18380.got - 2010.06.03 15:25:27.
