data_PCOD9462456
_publ_section_title
;
Structure prediction by ZEFSAII (Michael W. Deem and Ramdas Pophale) SiO2 
 PCOD9462456
Probable space group: P N M A
;
_chemical_formula_sum "Si O2"
_cell_formula_units_Z 56
_cell_length_a 19.740881
_cell_length_b 7.977761
_cell_length_c 18.766896
_cell_angle_alpha 90.000000
_cell_angle_beta 90.000000
_cell_angle_gamma 90.000000
_cell_volume 2955.561491
_symmetry_space_group_name_H-M "P N M A"
_symmetry_group_IT_number 62
_symmetry_cell_setting 'orthorhombic'
loop_
_space_group_symop_operation_xyz
x,y,z
1/2-x,-y,1/2+z
1/2+x,1/2-y,1/2-z
-x,1/2+y,-z
-x,-y,-z
1/2+x,y,1/2-z
1/2-x,1/2+y,1/2+z
x,1/2-y,z
loop_
_atom_site_type_symbol
_atom_site_label
_atom_site_fract_x
_atom_site_fract_y
_atom_site_fract_z
Si Si1 0.641994 0.455674 0.543378
Si Si2 0.751385 0.551752 0.360090
Si Si3 0.391172 0.550257 0.617542
Si Si4 0.039568 0.452508 0.833496
Si Si5 0.391884 0.548911 0.190622
Si Si6 0.427563 0.449827 0.030305
Si Si7 0.287002 0.056639 0.983390
O O1 0.643585 0.250000 0.543252
O O2 0.616567 0.509014 0.464835
O O3 0.590251 0.510702 0.604075
O O4 0.719798 0.514828 0.554230
O O5 0.758817 0.750000 0.375590
O O6 0.674050 0.518148 0.340100
O O7 0.812072 0.502859 0.307344
O O8 0.765409 0.451997 0.433217
O O9 0.386428 0.750000 0.616841
O O10 0.462943 0.499941 0.649097
O O11 0.043039 0.250000 0.832989
O O12 0.065814 0.517074 0.757267
O O13 0.395043 0.750000 0.194245
O O14 0.419027 0.500220 0.112786
O O15 0.422046 0.250000 0.027231
O O16 0.362572 0.519146 0.985604
O O17 0.500000 0.500000 0.000000
O O18 0.292696 0.250000 0.960123
#
# Coordination Sequence:
#
# PCOD9462456 Si02
#       7
#     8   8   8   8   8   8   8
#     4   8  15  29  49  71  96 126 163 203 243 289
#     4   9  16  29  49  70  91 120 160 203 243 288
#     4  10  19  31  48  72 100 130 165 203 243 294
#     4  10  19  32  50  72  99 130 162 202 249 296
#     4   9  19  34  51  72  98 128 166 207 250 299
#     4  10  19  32  53  76 100 130 166 208 253 297
#     4   8  15  29  48  71  95 122 157 198 244 293
#
# _framework density 18.947330000000001
#
# number of rings (size 3 to 8) (size 9 to 14) (size 15 to 20)
#    0.000    2.857    0.000    2.571    0.000    1.714 
#    0.000    4.286    0.000    5.143    0.000    0.000 
#    0.000    0.000    0.000    0.000    0.000    0.000 
#
# Total GULP energy -311890.613448 kJ/mol
# GULP energy per Si atom -5569.475240 kJ/mol
# Density = 1.890420 g / cm^3
# Si number density = 18.947330 Si / 1000 Ang^3
#
#
#
# Elastic Constant Matrix: (Units=GPa)
#
#
# Indices 1 2 3 4 5 6 
#
# 1 219.7972 8.2219 78.3517 0.0000 0.0000 0.0000
# 2 8.2219 22.4073 7.8368 0.0000 0.0000 0.0000
# 3 78.3517 7.8368 68.4334 0.0000 0.0000 0.0000
# 4 0.0000 0.0000 0.0000 14.2839 0.0000 0.0000
# 5 0.0000 0.0000 0.0000 0.0000 18.0177 0.0000
# 6 0.0000 0.0000 0.0000 0.0000 0.0000 20.6597
#
#
#
# Elastic Compliance Matrix: (Units=1/GPa)
#
#
# Indices 1 2 3 4 5 6 
#
# 1 0.007689 0.000268 -0.008834 0.000000 0.000000 0.000000
# 2 0.000268 0.046500 -0.005632 0.000000 0.000000 0.000000
# 3 -0.008834 -0.005632 0.025372 0.000000 0.000000 0.000000
# 4 0.000000 0.000000 0.000000 0.070009 0.000000 0.000000
# 5 0.000000 0.000000 0.000000 0.000000 0.055501 0.000000
# 6 0.000000 0.000000 0.000000 0.000000 0.000000 0.048403
#
#
# Mechanical properties :
#
#
# Convention : Reuss Voigt Hill
#
# Bulk Modulus (GPa) = 19.54468 55.49541 37.52005
# Shear Modulus (GPa) = 16.72671 25.00742 20.86706
#
# Velocity S-wave (km/s) = 2.97442 3.63690 3.32221
# Velocity P-wave (km/s) = 4.70467 6.85485 5.87890
#
# Compressibility (1/GPa) = 0.05116481
#
# Stress axis : x y z
#
# Youngs Moduli (GPa) = 130.06355 21.50553 39.41408
#
# Poissons Ratio (x) = -0.00577 0.34817
# Poissons Ratio (y) = -0.03490 0.22199
# Poissons Ratio (z) = 1.14893 0.12112
#
# Static dielectric constant tensor:
#      x y z
#    x 1.730320 0.000000 0.000000 
#    y 0.000000 1.693370 0.000000 
#    z 0.000000 0.000000 1.653330 
# 
# From -- ./inp_files/27562.got.cif
#   From: 2010.05.17/outbox.cif.g08.bks.cpg/sg62_14_cif.got.tgz:27562.got - 2010.06.03 15:25:27.
