data_PCOD9462302
_publ_section_title
;
Structure prediction by ZEFSAII (Michael W. Deem and Ramdas Pophale) SiO2 
 PCOD9462302
Probable space group: P N M A
;
_chemical_formula_sum "Si O2"
_cell_formula_units_Z 64
_cell_length_a 14.741253
_cell_length_b 7.856860
_cell_length_c 31.709204
_cell_angle_alpha 90.000000
_cell_angle_beta 90.000000
_cell_angle_gamma 90.000000
_cell_volume 3672.558772
_symmetry_space_group_name_H-M "P N M A"
_symmetry_group_IT_number 62
_symmetry_cell_setting 'orthorhombic'
loop_
_space_group_symop_operation_xyz
x,y,z
1/2-x,-y,1/2+z
1/2+x,1/2-y,1/2-z
-x,1/2+y,-z
-x,-y,-z
1/2+x,y,1/2-z
1/2-x,1/2+y,1/2+z
x,1/2-y,z
loop_
_atom_site_type_symbol
_atom_site_label
_atom_site_fract_x
_atom_site_fract_y
_atom_site_fract_z
Si Si1 0.104435 0.045029 0.047752
Si Si2 0.820417 0.950955 0.294897
Si Si3 0.682761 0.045243 0.366505
Si Si4 0.689805 0.053993 0.629947
Si Si5 0.012231 0.449009 0.270262
Si Si6 0.989917 0.044100 0.174763
Si Si7 0.394331 0.543675 0.452790
Si Si8 0.213428 0.549407 0.288426
O O1 0.111025 0.250000 0.047146
O O2 0.168702 0.982862 0.085542
O O3 0.124785 0.982875 0.000426
O O4 0.998841 0.004024 0.056950
O O5 0.830768 0.750000 0.289219
O O6 0.764189 0.019126 0.253752
O O7 0.763335 0.981115 0.337197
O O8 0.921181 0.026342 0.296855
O O9 0.690033 0.250000 0.367593
O O10 0.588484 0.003149 0.343219
O O11 0.719553 0.250000 0.624140
O O12 0.673991 0.978817 0.583316
O O13 0.750772 0.974710 0.667186
O O14 0.589176 0.046437 0.649515
O O15 0.033170 0.250000 0.266805
O O16 0.105541 0.532223 0.284829
O O17 0.987093 0.509810 0.223324
O O18 0.976829 0.250000 0.171687
O O19 0.390360 0.750000 0.452486
O O20 0.235701 0.750000 0.289627
#
# Coordination Sequence:
#
# PCOD9462302 Si02
#       8
#     8   8   8   8   8   8   8   8
#     4   9  17  29  45  67  97 129 159 195 237 282
#     4  11  22  34  50  71  96 126 162 200 239 283
#     4  10  19  32  47  68  98 131 166 197 235 283
#     4  10  19  31  47  69  97 129 164 197 234 281
#     4  11  22  35  50  68  94 127 163 202 237 276
#     4  10  19  29  45  68  96 128 161 196 232 274
#     4   9  17  28  45  69  96 127 161 196 236 283
#     4  10  21  34  48  68  95 127 160 196 236 280
#
# _framework density 17.426541
#
# number of rings (size 3 to 8) (size 9 to 14) (size 15 to 20)
#    0.000    2.000    3.750    0.750    0.000    2.500 
#    0.000    0.000    0.000    0.000    0.000    0.875 
#    0.000    0.000    0.000    0.000    0.000    0.000 
#
# Total GULP energy -356847.333757 kJ/mol
# GULP energy per Si atom -5575.739590 kJ/mol
# Density = 1.738688 g / cm^3
# Si number density = 17.426541 Si / 1000 Ang^3
#
#
#
# Elastic Constant Matrix: (Units=GPa)
#
#
# Indices 1 2 3 4 5 6 
#
# 1 58.8167 -4.0495 30.9831 0.0000 0.0000 0.0000
# 2 -4.0495 16.6305 3.6450 0.0000 0.0000 0.0000
# 3 30.9831 3.6450 122.9256 0.0000 0.0000 0.0000
# 4 0.0000 0.0000 0.0000 11.6935 0.0000 0.0000
# 5 0.0000 0.0000 0.0000 0.0000 23.0761 0.0000
# 6 0.0000 0.0000 0.0000 0.0000 0.0000 10.5135
#
#
#
# Elastic Compliance Matrix: (Units=1/GPa)
#
#
# Indices 1 2 3 4 5 6 
#
# 1 0.020196 0.006073 -0.005271 0.000000 0.000000 0.000000
# 2 0.006073 0.062350 -0.003379 0.000000 0.000000 0.000000
# 3 -0.005271 -0.003379 0.009564 0.000000 0.000000 0.000000
# 4 0.000000 0.000000 0.000000 0.085517 0.000000 0.000000
# 5 0.000000 0.000000 0.000000 0.000000 0.043335 0.000000
# 6 0.000000 0.000000 0.000000 0.000000 0.000000 0.095115
#
#
# Mechanical properties :
#
#
# Convention : Reuss Voigt Hill
#
# Bulk Modulus (GPa) = 11.50007 28.83667 20.16837
# Shear Modulus (GPa) = 14.27685 20.24292 17.25989
#
# Velocity S-wave (km/s) = 2.86538 3.41194 3.15053
# Velocity P-wave (km/s) = 4.19054 5.66615 4.98327
#
# Compressibility (1/GPa) = 0.08695599
#
# Stress axis : x y z
#
# Youngs Moduli (GPa) = 49.51363 16.03848 104.56279
#
# Poissons Ratio (x) = -0.09740 0.55110
# Poissons Ratio (y) = -0.30069 0.35337
# Poissons Ratio (z) = 0.26096 0.05420
#
# Static dielectric constant tensor:
#      x y z
#    x 1.560120 0.000000 0.000000 
#    y 0.000000 1.630210 0.000000 
#    z 0.000000 0.000000 1.656280 
# 
# From -- ./inp_files/32702.got.cif
#   From: 2010.05.17/outbox.cif.g08.bks.cpg/sg62_17_cif.got.tgz:32702.got - 2010.06.03 15:25:27.
