data_PCOD9462687
_publ_section_title
;
Structure prediction by ZEFSAII (Michael W. Deem and Ramdas Pophale) SiO2 
 PCOD9462687
Probable space group: P N M A
;
_chemical_formula_sum "Si O2"
_cell_formula_units_Z 56
_cell_length_a 15.907330
_cell_length_b 9.522103
_cell_length_c 20.762663
_cell_angle_alpha 90.000000
_cell_angle_beta 90.000000
_cell_angle_gamma 90.000000
_cell_volume 3144.946201
_symmetry_space_group_name_H-M "P N M A"
_symmetry_group_IT_number 62
_symmetry_cell_setting 'orthorhombic'
loop_
_space_group_symop_operation_xyz
x,y,z
1/2-x,-y,1/2+z
1/2+x,1/2-y,1/2-z
-x,1/2+y,-z
-x,-y,-z
1/2+x,y,1/2-z
1/2-x,1/2+y,1/2+z
x,1/2-y,z
loop_
_atom_site_type_symbol
_atom_site_label
_atom_site_fract_x
_atom_site_fract_y
_atom_site_fract_z
Si Si1 0.051931 0.912351 0.949194
Si Si2 0.999396 0.919986 0.807728
Si Si3 0.874693 0.081212 0.306458
Si Si4 0.812100 0.581092 0.840386
Si Si5 0.979412 0.907443 0.405294
Si Si6 0.779929 0.085303 0.972704
Si Si7 0.612278 0.408086 0.040798
O O1 0.024027 0.750000 0.950969
O O2 0.036087 0.963860 0.877018
O O3 0.146318 0.918060 0.974926
O O4 0.000000 0.000000 0.000000
O O5 0.000220 0.750000 0.805309
O O6 0.064000 0.963935 0.751936
O O7 0.900535 0.961302 0.806845
O O8 0.883494 0.250000 0.315254
O O9 0.774596 0.052891 0.301462
O O10 0.910841 0.998003 0.367418
O O11 0.815921 0.750000 0.851166
O O12 0.803039 0.502563 0.909153
O O13 0.987348 0.750000 0.378881
O O14 0.947959 0.894400 0.478700
O O15 0.066321 0.992961 0.408304
O O16 0.765436 0.250000 0.954383
O O17 0.697396 0.033817 0.009889
O O18 0.626829 0.250000 0.066550
#
# Coordination Sequence:
#
# PCOD9462687 Si02
#       7
#     8   8   8   8   8   8   8
#     4  10  19  33  55  80 107 135 169 220 275 321
#     4   9  19  36  53  77 108 137 176 225 265 317
#     4  10  20  35  55  77 104 142 184 220 266 323
#     4  10  19  33  56  79 100 138 181 218 265 317
#     4  10  19  32  52  76 105 138 174 220 266 309
#     4  10  19  32  53  81 107 137 173 216 269 320
#     4   9  18  32  49  75 108 140 175 215 262 316
#
# _framework density 17.806346000000001
#
# number of rings (size 3 to 8) (size 9 to 14) (size 15 to 20)
#    0.000    2.286    2.857    0.429    0.000    1.143 
#    2.571    1.429    0.000    0.000    0.000    0.000 
#    0.000    0.000    0.000    0.000    0.000    0.000 
#
# Total GULP energy -311814.780848 kJ/mol
# GULP energy per Si atom -5568.121087 kJ/mol
# Density = 1.776582 g / cm^3
# Si number density = 17.806346 Si / 1000 Ang^3
#
#
#
# Elastic Constant Matrix: (Units=GPa)
#
#
# Indices 1 2 3 4 5 6 
#
# 1 113.2081 29.6341 36.7772 0.0000 0.0000 0.0000
# 2 29.6341 36.1873 25.1580 0.0000 0.0000 0.0000
# 3 36.7772 25.1580 41.6528 0.0000 0.0000 0.0000
# 4 0.0000 0.0000 0.0000 16.1382 0.0000 0.0000
# 5 0.0000 0.0000 0.0000 0.0000 30.6379 0.0000
# 6 0.0000 0.0000 0.0000 0.0000 0.0000 14.7547
#
#
#
# Elastic Compliance Matrix: (Units=1/GPa)
#
#
# Indices 1 2 3 4 5 6 
#
# 1 0.012802 -0.004526 -0.008570 0.000000 0.000000 0.000000
# 2 -0.004526 0.049237 -0.025743 0.000000 0.000000 0.000000
# 3 -0.008570 -0.025743 0.047123 0.000000 0.000000 0.000000
# 4 0.000000 0.000000 0.000000 0.061965 0.000000 0.000000
# 5 0.000000 0.000000 0.000000 0.000000 0.032639 0.000000
# 6 0.000000 0.000000 0.000000 0.000000 0.000000 0.067775
#
#
# Mechanical properties :
#
#
# Convention : Reuss Voigt Hill
#
# Bulk Modulus (GPa) = 31.76090 41.57630 36.66860
# Shear Modulus (GPa) = 13.89997 18.93810 16.41904
#
# Velocity S-wave (km/s) = 2.79699 3.26476 3.03989
# Velocity P-wave (km/s) = 5.32038 6.13281 5.74099
#
# Compressibility (1/GPa) = 0.03148525
#
# Stress axis : x y z
#
# Youngs Moduli (GPa) = 78.11245 20.31000 21.22097
#
# Poissons Ratio (x) = 0.09192 0.18186
# Poissons Ratio (y) = 0.35351 0.54628
# Poissons Ratio (z) = 0.66943 0.52283
#
# Static dielectric constant tensor:
#      x y z
#    x 1.667740 0.000000 0.000000 
#    y 0.000000 1.628710 0.000000 
#    z 0.000000 0.000000 1.601620 
# 
# From -- ./inp_files/27195.got.cif
#   From: 2010.05.17/outbox.cif.g08.bks.cpg/sg62_14_cif.got.tgz:27195.got - 2010.06.03 15:25:27.
