data_PCOD9462865
_publ_section_title
;
Structure prediction by ZEFSAII (Michael W. Deem and Ramdas Pophale) SiO2 
 PCOD9462865
Probable space group: P N M A
;
_chemical_formula_sum "Si O2"
_cell_formula_units_Z 60
_cell_length_a 5.312005
_cell_length_b 14.413636
_cell_length_c 35.331784
_cell_angle_alpha 90.000000
_cell_angle_beta 90.000000
_cell_angle_gamma 90.000000
_cell_volume 2705.188871
_symmetry_space_group_name_H-M "P N M A"
_symmetry_group_IT_number 62
_symmetry_cell_setting 'orthorhombic'
loop_
_space_group_symop_operation_xyz
x,y,z
1/2-x,-y,1/2+z
1/2+x,1/2-y,1/2-z
-x,1/2+y,-z
-x,-y,-z
1/2+x,y,1/2-z
1/2-x,1/2+y,1/2+z
x,1/2-y,z
loop_
_atom_site_type_symbol
_atom_site_label
_atom_site_fract_x
_atom_site_fract_y
_atom_site_fract_z
Si Si1 0.220135 0.613966 0.109432
Si Si2 0.782225 0.611177 0.891377
Si Si3 0.752028 0.386762 0.977707
Si Si4 0.783197 0.890757 0.652130
Si Si5 0.378246 0.143903 0.263994
Si Si6 0.234050 0.750000 0.275734
Si Si7 0.752630 0.112793 0.478040
Si Si8 0.781106 0.114755 0.654752
O O1 0.221777 0.501340 0.108558
O O2 0.234367 0.643393 0.065813
O O3 0.464569 0.642898 0.133028
O O4 0.964007 0.641654 0.130348
O O5 0.550890 0.639520 0.864593
O O6 0.742507 0.642036 0.934393
O O7 0.054632 0.637188 0.875351
O O8 0.748613 0.499782 0.977622
O O9 0.498074 0.357778 0.998816
O O10 0.998455 0.358368 0.000880
O O11 0.719293 0.854883 0.693538
O O12 0.783733 0.002808 0.656273
O O13 0.653637 0.099013 0.260325
O O14 0.419709 0.250000 0.250450
O O15 0.485858 0.750000 0.250423
O O16 0.230863 0.662109 0.304320
#
# Coordination Sequence:
#
# PCOD9462865 Si02
#       8
#     8   8   8   8   8   4   8   8
#     4   9  17  31  49  72 102 135 170 212 254 301
#     4   9  17  28  45  72 107 139 170 208 245 295
#     4   9  15  23  40  65  99 136 165 200 249 295
#     4  10  19  33  53  75 103 139 171 206 255 312
#     4  10  21  36  54  77 104 128 161 211 251 295
#     4  12  26  42  58  78 104 132 172 226 276 330
#     4   9  15  23  37  65 104 137 162 200 249 286
#     4  10  21  36  54  75 103 133 170 216 260 310
#
# _framework density 22.179594999999999
#
# number of rings (size 3 to 8) (size 9 to 14) (size 15 to 20)
#    0.000    2.400    0.000    3.200    0.000    7.467 
#    0.000    0.000    0.000    0.000    0.000    0.000 
#   40.000    0.000    0.000    0.000    0.000    0.000 
#
# Total GULP energy -335449.437018 kJ/mol
# GULP energy per Si atom -5590.823950 kJ/mol
# Density = 2.212911 g / cm^3
# Si number density = 22.179595 Si / 1000 Ang^3
#
#
#
# Elastic Constant Matrix: (Units=GPa)
#
#
# Indices 1 2 3 4 5 6 
#
# 1 154.6644 17.0738 45.3996 0.0000 0.0000 0.0000
# 2 17.0738 96.7230 13.9942 0.0000 0.0000 0.0000
# 3 45.3996 13.9942 133.0806 0.0000 0.0000 0.0000
# 4 0.0000 0.0000 0.0000 79.8322 0.0000 0.0000
# 5 0.0000 0.0000 0.0000 0.0000 51.9238 0.0000
# 6 0.0000 0.0000 0.0000 0.0000 0.0000 8.3141
#
#
#
# Elastic Compliance Matrix: (Units=1/GPa)
#
#
# Indices 1 2 3 4 5 6 
#
# 1 0.007268 -0.000939 -0.002381 0.000000 0.000000 0.000000
# 2 -0.000939 0.010620 -0.000797 0.000000 0.000000 0.000000
# 3 -0.002381 -0.000797 0.008410 0.000000 0.000000 0.000000
# 4 0.000000 0.000000 0.000000 0.012526 0.000000 0.000000
# 5 0.000000 0.000000 0.000000 0.000000 0.019259 0.000000
# 6 0.000000 0.000000 0.000000 0.000000 0.000000 0.120278
#
#
# Mechanical properties :
#
#
# Convention : Reuss Voigt Hill
#
# Bulk Modulus (GPa) = 55.35172 59.71148 57.53160
# Shear Modulus (GPa) = 25.95857 48.54736 37.25296
#
# Velocity S-wave (km/s) = 3.42479 4.68357 4.10274
# Velocity P-wave (km/s) = 6.37568 7.49853 6.95979
#
# Compressibility (1/GPa) = 0.01806629
#
# Stress axis : x y z
#
# Youngs Moduli (GPa) = 137.58834 94.16448 118.90340
#
# Poissons Ratio (x) = 0.08838 0.28308
# Poissons Ratio (y) = 0.12913 0.09471
# Poissons Ratio (z) = 0.32757 0.07501
#
# Static dielectric constant tensor:
#      x y z
#    x 1.791640 0.000000 0.000000 
#    y 0.000000 2.113390 0.000000 
#    z 0.000000 0.000000 1.745640 
# 
# From -- ./inp_files/30504.got.cif
#   From: 2010.05.17/outbox.cif.g08.bks.cpg/sg62_16_cif.got.tgz:30504.got - 2010.06.03 15:25:27.
