data_PCOD9462874
_publ_section_title
;
Structure prediction by ZEFSAII (Michael W. Deem and Ramdas Pophale) SiO2 
 PCOD9462874
Probable space group: P N M A
;
_chemical_formula_sum "Si O2"
_cell_formula_units_Z 32
_cell_length_a 11.521588
_cell_length_b 5.568969
_cell_length_c 20.564969
_cell_angle_alpha 90.000000
_cell_angle_beta 90.000000
_cell_angle_gamma 90.000000
_cell_volume 1319.517641
_symmetry_space_group_name_H-M "P N M A"
_symmetry_group_IT_number 62
_symmetry_cell_setting 'orthorhombic'
loop_
_space_group_symop_operation_xyz
x,y,z
1/2-x,-y,1/2+z
1/2+x,1/2-y,1/2-z
-x,1/2+y,-z
-x,-y,-z
1/2+x,y,1/2-z
1/2-x,1/2+y,1/2+z
x,1/2-y,z
loop_
_atom_site_type_symbol
_atom_site_label
_atom_site_fract_x
_atom_site_fract_y
_atom_site_fract_z
Si Si1 0.252313 0.750000 0.175494
Si Si2 0.059197 0.250000 0.581090
Si Si3 0.645363 0.750000 0.983785
Si Si4 0.177622 0.750000 0.327415
Si Si5 0.579912 0.750000 0.606847
Si Si6 0.329826 0.750000 0.824412
Si Si7 0.849556 0.750000 0.826504
Si Si8 0.628497 0.250000 0.561393
O O1 0.385680 0.750000 0.153587
O O2 0.225025 0.750000 0.252885
O O3 0.196000 0.504875 0.147777
O O4 0.110904 0.500407 0.550899
O O5 0.929781 0.250000 0.550574
O O6 0.780474 0.750000 0.002601
O O7 0.109617 0.501467 0.337641
O O8 0.290206 0.750000 0.373282
O O9 0.710977 0.750000 0.634816
O O10 0.487684 0.750000 0.665129
O O11 0.563844 0.504017 0.566889
O O12 0.307866 0.750000 0.747940
#
# Coordination Sequence:
#
# PCOD9462874 Si02
#       8
#     4   4   4   4   4   4   4   4
#     4  10  19  35  56  81 114 149 185 230 283 335
#     4  10  21  38  61  87 114 147 188 236 288 339
#     4  10  21  38  61  87 114 147 188 236 288 339
#     4   8  16  30  48  74 106 138 176 216 266 326
#     4  10  19  33  53  77 111 150 187 229 277 331
#     4   8  16  30  46  72 104 142 182 218 268 320
#     4  10  19  33  53  77 111 150 187 229 277 331
#     4  10  19  35  56  81 114 149 185 230 283 335
#
# _framework density 24.251286
#
# number of rings (size 3 to 8) (size 9 to 14) (size 15 to 20)
#    0.000    2.500    0.000    2.250    0.000    0.000 
#    0.000   22.500    0.000   18.000    0.000    0.000 
#    0.000    0.000    0.000    0.000    0.000    0.000 
#
# Total GULP energy -178370.912177 kJ/mol
# GULP energy per Si atom -5574.091006 kJ/mol
# Density = 2.419609 g / cm^3
# Si number density = 24.251286 Si / 1000 Ang^3
#
#
#
# Elastic Constant Matrix: (Units=GPa)
#
#
# Indices 1 2 3 4 5 6 
#
# 1 44.6363 20.4743 9.2516 0.0000 0.0000 0.0000
# 2 20.4743 276.6687 16.0818 0.0000 0.0000 0.0000
# 3 9.2516 16.0818 65.0293 0.0000 0.0000 0.0000
# 4 0.0000 0.0000 0.0000 13.0097 0.0000 0.0000
# 5 0.0000 0.0000 0.0000 0.0000 13.4779 0.0000
# 6 0.0000 0.0000 0.0000 0.0000 0.0000 24.5921
#
#
#
# Elastic Compliance Matrix: (Units=1/GPa)
#
#
# Indices 1 2 3 4 5 6 
#
# 1 0.023749 -0.001584 -0.002987 0.000000 0.000000 0.000000
# 2 -0.001584 0.003773 -0.000708 0.000000 0.000000 0.000000
# 3 -0.002987 -0.000708 0.015978 0.000000 0.000000 0.000000
# 4 0.000000 0.000000 0.000000 0.076866 0.000000 0.000000
# 5 0.000000 0.000000 0.000000 0.000000 0.074196 0.000000
# 6 0.000000 0.000000 0.000000 0.000000 0.000000 0.040663
#
#
# Mechanical properties :
#
#
# Convention : Reuss Voigt Hill
#
# Bulk Modulus (GPa) = 30.35622 53.10552 41.73087
# Shear Modulus (GPa) = 19.47328 32.91771 26.19550
#
# Velocity S-wave (km/s) = 2.83676 3.68823 3.29016
# Velocity P-wave (km/s) = 4.82433 6.33111 5.62837
#
# Compressibility (1/GPa) = 0.03294218
#
# Stress axis : x y z
#
# Youngs Moduli (GPa) = 42.10724 265.05679 62.58742
#
# Poissons Ratio (x) = 0.41981 0.18695
# Poissons Ratio (y) = 0.06669 0.04429
# Poissons Ratio (z) = 0.12578 0.18757
#
# Static dielectric constant tensor:
#      x y z
#    x 1.878610 0.000000 0.000000 
#    y 0.000000 1.986690 0.000000 
#    z 0.000000 0.000000 1.950620 
# 
# From -- ./inp_files/26353.got.cif
#   From: 2010.05.17/outbox.cif.g08.bks.cpg/sg62_14_cif.got.tgz:26353.got - 2010.06.03 15:25:27.
