data_PCOD9462332
_publ_section_title
;
Structure prediction by ZEFSAII (Michael W. Deem and Ramdas Pophale) SiO2 
 PCOD9462332
Probable space group: P N M A
;
_chemical_formula_sum "Si O2"
_cell_formula_units_Z 56
_cell_length_a 12.504259
_cell_length_b 7.377569
_cell_length_c 29.118663
_cell_angle_alpha 90.000000
_cell_angle_beta 90.000000
_cell_angle_gamma 90.000000
_cell_volume 2686.226758
_symmetry_space_group_name_H-M "P N M A"
_symmetry_group_IT_number 62
_symmetry_cell_setting 'orthorhombic'
loop_
_space_group_symop_operation_xyz
x,y,z
1/2-x,-y,1/2+z
1/2+x,1/2-y,1/2-z
-x,1/2+y,-z
-x,-y,-z
1/2+x,y,1/2-z
1/2-x,1/2+y,1/2+z
x,1/2-y,z
loop_
_atom_site_type_symbol
_atom_site_label
_atom_site_fract_x
_atom_site_fract_y
_atom_site_fract_z
Si Si1 0.366624 0.971372 0.162535
Si Si2 0.977679 0.029040 0.845664
Si Si3 0.792794 0.029474 0.915782
Si Si4 0.316715 0.029509 0.731886
Si Si5 0.375303 0.464673 0.489084
Si Si6 0.193907 0.461201 0.886297
Si Si7 0.389410 0.028781 0.831779
O O1 0.366309 0.750000 0.163096
O O2 0.307114 0.026992 0.115450
O O3 0.290218 0.027917 0.204882
O O4 0.488309 0.033604 0.165499
O O5 0.980211 0.250000 0.845116
O O6 0.898949 0.977764 0.887354
O O7 0.918359 0.973751 0.799156
O O8 0.095889 0.961400 0.856473
O O9 0.791175 0.250000 0.916715
O O10 0.806065 0.965491 0.967806
O O11 0.314678 0.250000 0.731812
O O12 0.334094 0.973331 0.783970
O O13 0.500000 0.500000 0.500000
O O14 0.362237 0.250000 0.487555
O O15 0.338610 0.530794 0.439440
O O16 0.197743 0.250000 0.873672
O O17 0.310302 0.531732 0.872439
O O18 0.396620 0.250000 0.831777
#
# Coordination Sequence:
#
# PCOD9462332 Si02
#       7
#     8   8   8   8   8   8   8
#     4   8  14  25  38  58  91 126 160 191 232 288
#     4   8  13  23  39  60  90 122 149 182 231 283
#     4   8  14  26  43  61  84 119 154 190 234 283
#     4   8  14  22  37  61  91 127 159 190 234 283
#     4  11  20  32  51  73  95 123 160 200 246 293
#     4  10  19  30  44  69 104 129 152 194 244 284
#     4   9  17  25  38  62  96 132 158 193 236 277
#
# _framework density 20.847087999999999
#
# number of rings (size 3 to 8) (size 9 to 14) (size 15 to 20)
#    0.000    3.143    1.429    2.143    2.000    0.000 
#    0.000    0.714    0.000    0.000    0.000    2.000 
#    0.000    0.000    0.000    0.000    0.000    0.000 
#
# Total GULP energy -312369.410941 kJ/mol
# GULP energy per Si atom -5578.025195 kJ/mol
# Density = 2.079964 g / cm^3
# Si number density = 20.847088 Si / 1000 Ang^3
#
#
#
# Elastic Constant Matrix: (Units=GPa)
#
#
# Indices 1 2 3 4 5 6 
#
# 1 189.2344 3.6166 88.7262 0.0000 0.0000 0.0000
# 2 3.6166 70.4017 -10.1337 0.0000 0.0000 0.0000
# 3 88.7262 -10.1337 112.3001 0.0000 0.0000 0.0000
# 4 0.0000 0.0000 0.0000 5.8083 0.0000 0.0000
# 5 0.0000 0.0000 0.0000 0.0000 21.9163 0.0000
# 6 0.0000 0.0000 0.0000 0.0000 0.0000 -8.1566
#
#
#
# Elastic Compliance Matrix: (Units=1/GPa)
#
#
# Indices 1 2 3 4 5 6 
#
# 1 0.008533 -0.001427 -0.006871 0.000000 0.000000 0.000000
# 2 -0.001427 0.014630 0.002448 0.000000 0.000000 0.000000
# 3 -0.006871 0.002448 0.014554 0.000000 0.000000 0.000000
# 4 0.000000 0.000000 0.000000 0.172168 0.000000 0.000000
# 5 0.000000 0.000000 0.000000 0.000000 0.045628 0.000000
# 6 0.000000 0.000000 0.000000 0.000000 0.000000 -0.122600
#
#
# Mechanical properties :
#
#
# Convention : Reuss Voigt Hill
#
# Bulk Modulus (GPa) = 38.43681 59.59495 49.01588
# Shear Modulus (GPa) = 32.61883 23.22873 27.92378
#
# Velocity S-wave (km/s) = 3.95988 3.34165 3.66383
# Velocity P-wave (km/s) = 6.27575 6.59830 6.43905
#
# Compressibility (1/GPa) = 0.02601673
#
# Stress axis : x y z
#
# Youngs Moduli (GPa) = 117.18936 68.35328 68.70956
#
# Poissons Ratio (x) = 0.09756 0.47208
# Poissons Ratio (y) = 0.16727 -0.16819
# Poissons Ratio (z) = 0.80517 -0.16732
#
# Static dielectric constant tensor:
#      x y z
#    x 1.718570 0.000000 0.000000 
#    y 0.000000 1.845230 0.000000 
#    z 0.000000 0.000000 1.712090 
# 
# From -- ./inp_files/31183.got.cif
#   From: 2010.05.17/outbox.cif.g08.bks.cpg/sg62_16_cif.got.tgz:31183.got - 2010.06.03 15:25:27.
