data_PCOD9462980
_publ_section_title
;
Structure prediction by ZEFSAII (Michael W. Deem and Ramdas Pophale) SiO2 
 PCOD9462980
Probable space group: P N M A
;
_chemical_formula_sum "Si O2"
_cell_formula_units_Z 64
_cell_length_a 20.013702
_cell_length_b 8.658475
_cell_length_c 20.295687
_cell_angle_alpha 90.000000
_cell_angle_beta 90.000000
_cell_angle_gamma 90.000000
_cell_volume 3517.001818
_symmetry_space_group_name_H-M "P N M A"
_symmetry_group_IT_number 62
_symmetry_cell_setting 'orthorhombic'
loop_
_space_group_symop_operation_xyz
x,y,z
1/2-x,-y,1/2+z
1/2+x,1/2-y,1/2-z
-x,1/2+y,-z
-x,-y,-z
1/2+x,y,1/2-z
1/2-x,1/2+y,1/2+z
x,1/2-y,z
loop_
_atom_site_type_symbol
_atom_site_label
_atom_site_fract_x
_atom_site_fract_y
_atom_site_fract_z
Si Si1 0.795435 0.936948 0.510220
Si Si2 0.216069 0.564465 0.859974
Si Si3 0.240390 0.933929 0.711230
Si Si4 0.466123 0.063606 0.565261
Si Si5 0.596419 0.434809 0.820723
Si Si6 0.317031 0.436176 0.596618
Si Si7 0.936420 0.066026 0.461140
Si Si8 0.427891 0.563818 0.327295
O O1 0.801764 0.750000 0.510189
O O2 0.762656 0.985917 0.579715
O O3 0.741695 0.979710 0.454006
O O4 0.867308 0.006942 0.493780
O O5 0.209664 0.750000 0.864876
O O6 0.246461 0.526897 0.788336
O O7 0.141324 0.496532 0.858562
O O8 0.231281 0.750000 0.705563
O O9 0.174168 0.017269 0.683615
O O10 0.301015 0.990184 0.666853
O O11 0.467181 0.250000 0.562965
O O12 0.389310 0.014755 0.570809
O O13 0.509911 0.014338 0.628273
O O14 0.500000 0.000000 0.500000
O O15 0.591452 0.250000 0.826460
O O16 0.564489 0.509868 0.885172
O O17 0.567863 0.484997 0.749330
O O18 0.316562 0.250000 0.602265
O O19 0.937961 0.250000 0.462938
O O20 0.000000 0.000000 0.500000
O O21 0.424914 0.750000 0.327134
#
# Coordination Sequence:
#
# PCOD9462980 Si02
#       8
#     8   8   8   8   8   8   8   8
#     4  10  20  37  59  83 113 150 188 231 283 338
#     4   9  19  35  57  84 116 150 187 232 281 331
#     4  10  19  33  55  83 112 142 186 233 275 331
#     4  10  21  37  55  82 116 154 193 234 283 335
#     4  10  19  36  60  83 112 150 190 233 282 335
#     4  10  20  34  56  80 111 152 190 229 283 338
#     4  12  25  41  61  85 112 146 188 237 290 347
#     4   9  19  35  57  84 118 155 196 237 277 334
#
# _framework density 18.197317000000002
#
# number of rings (size 3 to 8) (size 9 to 14) (size 15 to 20)
#    0.000    2.000    1.250    2.625    0.000    3.500 
#    2.250    0.000    0.000    0.000    0.000    0.000 
#    0.000    0.000    0.000    0.000    0.000    0.000 
#
# Total GULP energy -357292.739429 kJ/mol
# GULP energy per Si atom -5582.699054 kJ/mol
# Density = 1.815590 g / cm^3
# Si number density = 18.197317 Si / 1000 Ang^3
#
#
#
# Elastic Constant Matrix: (Units=GPa)
#
#
# Indices 1 2 3 4 5 6 
#
# 1 144.3386 40.0397 87.2501 0.0000 0.0000 0.0000
# 2 40.0397 35.2736 38.6489 0.0000 0.0000 0.0000
# 3 87.2501 38.6489 135.7900 0.0000 0.0000 0.0000
# 4 0.0000 0.0000 0.0000 21.6814 0.0000 0.0000
# 5 0.0000 0.0000 0.0000 0.0000 30.5499 0.0000
# 6 0.0000 0.0000 0.0000 0.0000 0.0000 25.4486
#
#
#
# Elastic Compliance Matrix: (Units=1/GPa)
#
#
# Indices 1 2 3 4 5 6 
#
# 1 0.012698 -0.007955 -0.005895 0.000000 0.000000 0.000000
# 2 -0.007955 0.046181 -0.008033 0.000000 0.000000 0.000000
# 3 -0.005895 -0.008033 0.013438 0.000000 0.000000 0.000000
# 4 0.000000 0.000000 0.000000 0.046122 0.000000 0.000000
# 5 0.000000 0.000000 0.000000 0.000000 0.032733 0.000000
# 6 0.000000 0.000000 0.000000 0.000000 0.000000 0.039295
#
#
# Mechanical properties :
#
#
# Convention : Reuss Voigt Hill
#
# Bulk Modulus (GPa) = 35.02349 71.91997 53.47173
# Shear Modulus (GPa) = 20.51269 25.50020 23.00645
#
# Velocity S-wave (km/s) = 3.36108 3.74748 3.55952
# Velocity P-wave (km/s) = 5.86095 7.63760 6.80748
#
# Compressibility (1/GPa) = 0.02855226
#
# Stress axis : x y z
#
# Youngs Moduli (GPa) = 78.75078 21.65384 74.41401
#
# Poissons Ratio (x) = 0.17226 0.43867
# Poissons Ratio (y) = 0.62647 0.59775
# Poissons Ratio (z) = 0.46423 0.17394
#
# Static dielectric constant tensor:
#      x y z
#    x 1.597040 0.000000 0.000000 
#    y 0.000000 1.620290 0.000000 
#    z 0.000000 0.000000 1.631410 
# 
# From -- ./inp_files/24809.got.cif
#   From: 2010.05.17/outbox.cif.g08.bks.cpg/sg62_13_cif.got.tgz:24809.got - 2010.06.03 15:25:27.
