data_PCOD9462963
_publ_section_title
;
Structure prediction by ZEFSAII (Michael W. Deem and Ramdas Pophale) SiO2 
 PCOD9462963
Probable space group: P N M A
;
_chemical_formula_sum "Si O2"
_cell_formula_units_Z 64
_cell_length_a 25.411412
_cell_length_b 7.668551
_cell_length_c 14.883452
_cell_angle_alpha 90.000000
_cell_angle_beta 90.000000
_cell_angle_gamma 90.000000
_cell_volume 2900.319075
_symmetry_space_group_name_H-M "P N M A"
_symmetry_group_IT_number 62
_symmetry_cell_setting 'orthorhombic'
loop_
_space_group_symop_operation_xyz
x,y,z
1/2-x,-y,1/2+z
1/2+x,1/2-y,1/2-z
-x,1/2+y,-z
-x,-y,-z
1/2+x,y,1/2-z
1/2-x,1/2+y,1/2+z
x,1/2-y,z
loop_
_atom_site_type_symbol
_atom_site_label
_atom_site_fract_x
_atom_site_fract_y
_atom_site_fract_z
Si Si1 0.618989 0.458625 0.375346
Si Si2 0.547262 0.035733 0.219217
Si Si3 0.838409 0.547368 0.056141
Si Si4 0.337515 0.961565 0.239821
Si Si5 0.778500 0.949744 0.549599
Si Si6 0.390836 0.953695 0.953639
Si Si7 0.440870 0.452471 0.130947
Si Si8 0.220725 0.540601 0.242941
O O1 0.612747 0.250000 0.383568
O O2 0.571136 0.524106 0.313755
O O3 0.627518 0.531094 0.475422
O O4 0.672613 0.489559 0.319786
O O5 0.547867 0.250000 0.220509
O O6 0.585727 0.975612 0.138742
O O7 0.488986 0.978825 0.190871
O O8 0.852768 0.750000 0.064587
O O9 0.842557 0.474634 0.156774
O O10 0.776858 0.538477 0.028843
O O11 0.339632 0.750000 0.238275
O O12 0.278782 0.009346 0.207319
O O13 0.386137 0.027133 0.182867
O O14 0.772992 0.750000 0.518022
O O15 0.834054 0.027670 0.517196
O O16 0.784323 0.958340 0.658103
O O17 0.380075 0.750000 0.937169
O O18 0.432572 0.965543 0.033376
O O19 0.451731 0.250000 0.114447
O O20 0.220407 0.750000 0.254905
#
# Coordination Sequence:
#
# PCOD9462963 Si02
#       8
#     8   8   8   8   8   8   8   8
#     4  10  19  36  60  83 110 146 185 225 280 339
#     4   9  19  38  58  80 111 144 185 230 276 330
#     4   9  20  36  57  83 112 146 183 229 278 330
#     4   9  20  39  55  75 113 150 181 224 280 332
#     4  10  19  33  55  80 111 149 181 217 274 333
#     4  10  20  36  56  79 112 151 182 218 280 339
#     4  11  23  36  56  82 107 144 193 238 272 318
#     4  10  20  34  54  81 113 145 181 226 274 325
#
# _framework density 22.066537
#
# number of rings (size 3 to 8) (size 9 to 14) (size 15 to 20)
#    0.000    2.250    1.250    2.250    1.750    4.000 
#    0.000    2.500    0.000    0.000    0.000    0.000 
#    0.000    0.000    0.000    0.000    0.000    0.000 
#
# Total GULP energy -357352.525994 kJ/mol
# GULP energy per Si atom -5583.633219 kJ/mol
# Density = 2.201631 g / cm^3
# Si number density = 22.066537 Si / 1000 Ang^3
#
#
#
# Elastic Constant Matrix: (Units=GPa)
#
#
# Indices 1 2 3 4 5 6 
#
# 1 53.9592 -5.6380 -3.8008 0.0000 0.0000 0.0000
# 2 -5.6380 41.0133 -7.8173 0.0000 0.0000 0.0000
# 3 -3.8008 -7.8173 30.1467 0.0000 0.0000 0.0000
# 4 0.0000 0.0000 0.0000 14.7394 0.0000 0.0000
# 5 0.0000 0.0000 0.0000 0.0000 28.1758 0.0000
# 6 0.0000 0.0000 0.0000 0.0000 0.0000 16.4353
#
#
#
# Elastic Compliance Matrix: (Units=1/GPa)
#
#
# Indices 1 2 3 4 5 6 
#
# 1 0.019100 0.003245 0.003250 0.000000 0.000000 0.000000
# 2 0.003245 0.026201 0.007203 0.000000 0.000000 0.000000
# 3 0.003250 0.007203 0.035449 0.000000 0.000000 0.000000
# 4 0.000000 0.000000 0.000000 0.067845 0.000000 0.000000
# 5 0.000000 0.000000 0.000000 0.000000 0.035491 0.000000
# 6 0.000000 0.000000 0.000000 0.000000 0.000000 0.060844
#
#
# Mechanical properties :
#
#
# Convention : Reuss Voigt Hill
#
# Bulk Modulus (GPa) = 9.24668 10.06743 9.65705
# Shear Modulus (GPa) = 19.71728 21.36180 20.53954
#
# Velocity S-wave (km/s) = 2.99245 3.11475 3.05421
# Velocity P-wave (km/s) = 4.01736 4.18423 4.10164
#
# Compressibility (1/GPa) = 0.10814698
#
# Stress axis : x y z
#
# Youngs Moduli (GPa) = 52.35468 38.16583 28.20973
#
# Poissons Ratio (x) = -0.12385 -0.09167
# Poissons Ratio (y) = -0.16990 -0.20321
# Poissons Ratio (z) = -0.17013 -0.27492
#
# Static dielectric constant tensor:
#      x y z
#    x 1.822260 0.000000 0.000000 
#    y 0.000000 1.840590 0.000000 
#    z 0.000000 0.000000 1.821070 
# 
# From -- ./inp_files/20873.got.cif
#   From: 2010.05.17/outbox.cif.g08.bks.cpg/sg62_11_cif.got.tgz:20873.got - 2010.06.03 15:25:27.
