data_PCOD9462506
_publ_section_title
;
Structure prediction by ZEFSAII (Michael W. Deem and Ramdas Pophale) SiO2 
 PCOD9462506
Probable space group: P N M A
;
_chemical_formula_sum "Si O2"
_cell_formula_units_Z 64
_cell_length_a 20.990962
_cell_length_b 8.673228
_cell_length_c 20.009116
_cell_angle_alpha 90.000000
_cell_angle_beta 90.000000
_cell_angle_gamma 90.000000
_cell_volume 3642.847641
_symmetry_space_group_name_H-M "P N M A"
_symmetry_group_IT_number 62
_symmetry_cell_setting 'orthorhombic'
loop_
_space_group_symop_operation_xyz
x,y,z
1/2-x,-y,1/2+z
1/2+x,1/2-y,1/2-z
-x,1/2+y,-z
-x,-y,-z
1/2+x,y,1/2-z
1/2-x,1/2+y,1/2+z
x,1/2-y,z
loop_
_atom_site_type_symbol
_atom_site_label
_atom_site_fract_x
_atom_site_fract_y
_atom_site_fract_z
Si Si1 0.457194 0.432708 0.559901
Si Si2 0.716239 0.066526 0.175695
Si Si3 0.665080 0.065942 0.502913
Si Si4 0.349142 0.933658 0.339290
Si Si5 0.516146 0.565030 0.695064
Si Si6 0.063168 0.064425 0.466059
Si Si7 0.422504 0.562657 0.810880
Si Si8 0.805013 0.065552 0.527956
O O1 0.500000 0.500000 0.500000
O O2 0.465506 0.250000 0.562317
O O3 0.384821 0.477576 0.542664
O O4 0.481286 0.505326 0.628657
O O5 0.722487 0.250000 0.182403
O O6 0.649619 0.015327 0.209121
O O7 0.783063 0.989027 0.193496
O O8 0.704877 0.021985 0.098172
O O9 0.654121 0.250000 0.496828
O O10 0.652954 0.024643 0.581239
O O11 0.739590 0.035646 0.488157
O O12 0.352598 0.750000 0.336350
O O13 0.411646 0.005927 0.307045
O O14 0.516557 0.750000 0.694502
O O15 0.475885 0.510410 0.759179
O O16 0.065205 0.250000 0.469554
O O17 0.064042 0.017220 0.387505
O O18 0.127511 0.994316 0.498396
O O19 0.000000 0.000000 0.500000
O O20 0.422268 0.750000 0.810529
O O21 0.807626 0.250000 0.539825
#
# Coordination Sequence:
#
# PCOD9462506 Si02
#       8
#     8   8   8   8   8   8   8   8
#     4  12  23  34  50  75 107 142 181 221 264 312
#     4   9  16  30  52  76 102 132 172 216 258 309
#     4   9  18  32  50  72 104 137 174 218 261 306
#     4  10  19  31  49  77 107 134 173 219 261 308
#     4  11  21  35  55  76 103 141 181 220 266 314
#     4  10  19  34  57  84 111 137 174 218 267 323
#     4   8  18  35  55  79 105 135 175 218 261 319
#     4   9  17  30  50  78 107 134 170 215 264 310
#
# _framework density 17.568673
#
# number of rings (size 3 to 8) (size 9 to 14) (size 15 to 20)
#    0.000    2.250    1.250    4.500    0.000    2.500 
#    0.000    7.500    2.750    0.000    0.000    0.000 
#    0.000    0.000    0.000    0.000    0.000    0.000 
#
# Total GULP energy -356817.418205 kJ/mol
# GULP energy per Si atom -5575.272159 kJ/mol
# Density = 1.752869 g / cm^3
# Si number density = 17.568673 Si / 1000 Ang^3
#
#
#
# Elastic Constant Matrix: (Units=GPa)
#
#
# Indices 1 2 3 4 5 6 
#
# 1 182.1310 45.9930 52.4977 0.0000 0.0000 0.0000
# 2 45.9930 55.2015 17.5244 0.0000 0.0000 0.0000
# 3 52.4977 17.5244 48.8064 0.0000 0.0000 0.0000
# 4 0.0000 0.0000 0.0000 15.4089 0.0000 0.0000
# 5 0.0000 0.0000 0.0000 0.0000 26.0714 0.0000
# 6 0.0000 0.0000 0.0000 0.0000 0.0000 32.8547
#
#
#
# Elastic Compliance Matrix: (Units=1/GPa)
#
#
# Indices 1 2 3 4 5 6 
#
# 1 0.009042 -0.005018 -0.007924 0.000000 0.000000 0.000000
# 2 -0.005018 0.023231 -0.002944 0.000000 0.000000 0.000000
# 3 -0.007924 -0.002944 0.030069 0.000000 0.000000 0.000000
# 4 0.000000 0.000000 0.000000 0.064897 0.000000 0.000000
# 5 0.000000 0.000000 0.000000 0.000000 0.038356 0.000000
# 6 0.000000 0.000000 0.000000 0.000000 0.000000 0.030437
#
#
# Mechanical properties :
#
#
# Convention : Reuss Voigt Hill
#
# Bulk Modulus (GPa) = 32.71110 57.57432 45.14271
# Shear Modulus (GPa) = 21.00898 26.20861 23.60880
#
# Velocity S-wave (km/s) = 3.46182 3.86655 3.66977
# Velocity P-wave (km/s) = 5.88543 7.26469 6.61113
#
# Compressibility (1/GPa) = 0.03057066
#
# Stress axis : x y z
#
# Youngs Moduli (GPa) = 110.59915 43.04629 33.25664
#
# Poissons Ratio (x) = 0.21600 0.26352
# Poissons Ratio (y) = 0.55497 0.09790
# Poissons Ratio (z) = 0.87636 0.12672
#
# Static dielectric constant tensor:
#      x y z
#    x 1.639500 0.000000 0.000000 
#    y 0.000000 1.592510 0.000000 
#    z 0.000000 0.000000 1.582740 
# 
# From -- ./inp_files/24744.got.cif
#   From: 2010.05.17/outbox.cif.g08.bks.cpg/sg62_13_cif.got.tgz:24744.got - 2010.06.03 15:25:27.
