data_PCOD9462680
_publ_section_title
;
Structure prediction by ZEFSAII (Michael W. Deem and Ramdas Pophale) SiO2 
 PCOD9462680
Probable space group: P N M A
;
_chemical_formula_sum "Si O2"
_cell_formula_units_Z 48
_cell_length_a 18.377027
_cell_length_b 9.094072
_cell_length_c 16.266771
_cell_angle_alpha 90.000000
_cell_angle_beta 90.000000
_cell_angle_gamma 90.000000
_cell_volume 2718.535412
_symmetry_space_group_name_H-M "P N M A"
_symmetry_group_IT_number 62
_symmetry_cell_setting 'orthorhombic'
loop_
_space_group_symop_operation_xyz
x,y,z
1/2-x,-y,1/2+z
1/2+x,1/2-y,1/2-z
-x,1/2+y,-z
-x,-y,-z
1/2+x,y,1/2-z
1/2-x,1/2+y,1/2+z
x,1/2-y,z
loop_
_atom_site_type_symbol
_atom_site_label
_atom_site_fract_x
_atom_site_fract_y
_atom_site_fract_z
Si Si1 0.795860 0.423525 0.573526
Si Si2 0.453886 0.926506 0.928066
Si Si3 0.709407 0.579136 0.432656
Si Si4 0.698406 0.924580 0.254452
Si Si5 0.458099 0.924707 0.744508
Si Si6 0.465859 0.422169 0.578755
O O1 0.809719 0.250000 0.564748
O O2 0.872262 0.509164 0.567963
O O3 0.743191 0.479865 0.502806
O O4 0.764862 0.447480 0.666099
O O5 0.452091 0.750000 0.936346
O O6 0.485374 0.960780 0.836567
O O7 0.500000 0.000000 0.000000
O O8 0.725898 0.750000 0.450550
O O9 0.737953 0.543801 0.340428
O O10 0.621979 0.563476 0.427823
O O11 0.677751 0.750000 0.258960
O O12 0.625807 0.022040 0.253289
O O13 0.462252 0.750000 0.732860
O O14 0.490375 0.005529 0.664999
O O15 0.500000 0.500000 0.500000
O O16 0.483439 0.250000 0.579028
#
# Coordination Sequence:
#
# PCOD9462680 Si02
#       6
#     8   8   8   8   8   8
#     4  10  19  32  52  76 100 129 166 205 246 295
#     4  10  20  34  53  76 102 132 166 206 250 297
#     4   9  18  33  51  72  99 130 163 202 247 292
#     4   8  16  31  49  69  96 130 165 199 241 296
#     4   9  17  30  50  74  98 127 165 205 246 296
#     4  10  20  34  53  75 101 134 169 207 250 296
#
# _framework density 17.656566000000002
#
# number of rings (size 3 to 8) (size 9 to 14) (size 15 to 20)
#    0.000    2.667    0.000    3.000    0.000    6.000 
#    0.000    1.667    0.000    4.000    0.000    0.000 
#    0.000    0.000    0.000    0.000    0.000    0.000 
#
# Total GULP energy -267344.416976 kJ/mol
# GULP energy per Si atom -5569.675354 kJ/mol
# Density = 1.761638 g / cm^3
# Si number density = 17.656566 Si / 1000 Ang^3
#
#
#
# Elastic Constant Matrix: (Units=GPa)
#
#
# Indices 1 2 3 4 5 6 
#
# 1 11.7858 21.7998 35.3411 0.0000 0.0000 0.0000
# 2 21.7998 88.7683 94.1154 0.0000 0.0000 0.0000
# 3 35.3411 94.1154 198.5219 0.0000 0.0000 0.0000
# 4 0.0000 0.0000 0.0000 36.1893 0.0000 0.0000
# 5 0.0000 0.0000 0.0000 0.0000 28.7124 0.0000
# 6 0.0000 0.0000 0.0000 0.0000 0.0000 25.6276
#
#
#
# Elastic Compliance Matrix: (Units=1/GPa)
#
#
# Indices 1 2 3 4 5 6 
#
# 1 0.203343 -0.023237 -0.025183 0.000000 0.000000 0.000000
# 2 -0.023237 0.025305 -0.007860 0.000000 0.000000 0.000000
# 3 -0.025183 -0.007860 0.013247 0.000000 0.000000 0.000000
# 4 0.000000 0.000000 0.000000 0.027632 0.000000 0.000000
# 5 0.000000 0.000000 0.000000 0.000000 0.034828 0.000000
# 6 0.000000 0.000000 0.000000 0.000000 0.000000 0.039020
#
#
# Mechanical properties :
#
#
# Convention : Reuss Voigt Hill
#
# Bulk Modulus (GPa) = 7.73190 66.84316 37.28753
# Shear Modulus (GPa) = 10.01908 27.96053 18.98981
#
# Velocity S-wave (km/s) = 2.38469 3.98374 3.28305
# Velocity P-wave (km/s) = 3.45990 7.68764 5.96115
#
# Compressibility (1/GPa) = 0.12933428
#
# Stress axis : x y z
#
# Youngs Moduli (GPa) = 4.91781 39.51710 75.49067
#
# Poissons Ratio (x) = 0.91827 1.90108
# Poissons Ratio (y) = 0.11428 0.59337
# Poissons Ratio (z) = 0.12384 0.31061
#
# Static dielectric constant tensor:
#      x y z
#    x 1.578280 0.000000 0.000000 
#    y 0.000000 1.589790 0.000000 
#    z 0.000000 0.000000 1.652050 
# 
# From -- ./inp_files/20035.got.cif
#   From: 2010.05.17/outbox.cif.g08.bks.cpg/sg62_11_cif.got.tgz:20035.got - 2010.06.03 15:25:27.
