data_PCOD9462600
_publ_section_title
;
Structure prediction by ZEFSAII (Michael W. Deem and Ramdas Pophale) SiO2 
 PCOD9462600
Probable space group: P N M A
;
_chemical_formula_sum "Si O2"
_cell_formula_units_Z 56
_cell_length_a 18.745265
_cell_length_b 9.159345
_cell_length_c 20.971383
_cell_angle_alpha 90.000000
_cell_angle_beta 90.000000
_cell_angle_gamma 90.000000
_cell_volume 3600.667957
_symmetry_space_group_name_H-M "P N M A"
_symmetry_group_IT_number 62
_symmetry_cell_setting 'orthorhombic'
loop_
_space_group_symop_operation_xyz
x,y,z
1/2-x,-y,1/2+z
1/2+x,1/2-y,1/2-z
-x,1/2+y,-z
-x,-y,-z
1/2+x,y,1/2-z
1/2-x,1/2+y,1/2+z
x,1/2-y,z
loop_
_atom_site_type_symbol
_atom_site_label
_atom_site_fract_x
_atom_site_fract_y
_atom_site_fract_z
Si Si1 0.085376 0.574398 0.757820
Si Si2 0.922916 0.074369 0.505038
Si Si3 0.920441 0.576014 0.759997
Si Si4 0.838217 0.423684 0.375441
Si Si5 0.207465 0.582855 0.179391
Si Si6 0.714826 0.418677 0.682064
Si Si7 0.654222 0.424472 0.123791
O O1 0.091503 0.750000 0.765578
O O2 0.112478 0.540038 0.685950
O O3 0.138706 0.493495 0.805882
O O4 0.002926 0.532456 0.765491
O O5 0.929505 0.250000 0.510857
O O6 0.878969 0.042086 0.440496
O O7 0.882117 0.006415 0.565163
O O8 0.000000 0.000000 0.500000
O O9 0.915426 0.750000 0.769679
O O10 0.867225 0.497063 0.808601
O O11 0.891967 0.547890 0.688137
O O12 0.825741 0.250000 0.373023
O O13 0.762900 0.503779 0.367168
O O14 0.196780 0.750000 0.160866
O O15 0.246699 0.579604 0.248519
O O16 0.709005 0.250000 0.661881
O O17 0.767290 0.510838 0.637167
O O18 0.656392 0.250000 0.113853
#
# Coordination Sequence:
#
# PCOD9462600 Si02
#       7
#     8   8   8   8   8   8   8
#     4   9  16  28  46  67  90 119 153 187 224 270
#     4  11  22  34  48  68  94 125 159 193 226 265
#     4   9  17  29  46  67  93 123 153 186 229 277
#     4   9  18  32  47  63  89 124 158 187 221 267
#     4   9  17  28  44  66  90 116 150 190 231 270
#     4   9  17  29  44  65  91 118 149 188 232 273
#     4  10  19  32  48  66  91 125 160 191 224 268
#
# _framework density 15.552670000000001
#
# number of rings (size 3 to 8) (size 9 to 14) (size 15 to 20)
#    0.000    2.571    0.000    2.571    0.000    8.000 
#    0.000    2.857    0.000    0.000    0.000    1.000 
#    0.000    0.000    0.000    0.000    0.000    0.000 
#
# Total GULP energy -312186.935240 kJ/mol
# GULP energy per Si atom -5574.766701 kJ/mol
# Density = 1.551727 g / cm^3
# Si number density = 15.552670 Si / 1000 Ang^3
#
#
#
# Elastic Constant Matrix: (Units=GPa)
#
#
# Indices 1 2 3 4 5 6 
#
# 1 171.4930 79.9337 63.5869 0.0000 0.0000 0.0000
# 2 79.9337 73.4454 52.3061 0.0000 0.0000 0.0000
# 3 63.5869 52.3061 68.0398 0.0000 0.0000 0.0000
# 4 0.0000 0.0000 0.0000 22.5959 0.0000 0.0000
# 5 0.0000 0.0000 0.0000 0.0000 23.2745 0.0000
# 6 0.0000 0.0000 0.0000 0.0000 0.0000 27.1420
#
#
#
# Elastic Compliance Matrix: (Units=1/GPa)
#
#
# Indices 1 2 3 4 5 6 
#
# 1 0.012040 -0.011249 -0.002604 0.000000 0.000000 0.000000
# 2 -0.011249 0.040599 -0.020698 0.000000 0.000000 0.000000
# 3 -0.002604 -0.020698 0.033043 0.000000 0.000000 0.000000
# 4 0.000000 0.000000 0.000000 0.044256 0.000000 0.000000
# 5 0.000000 0.000000 0.000000 0.000000 0.042965 0.000000
# 6 0.000000 0.000000 0.000000 0.000000 0.000000 0.036843
#
#
# Mechanical properties :
#
#
# Convention : Reuss Voigt Hill
#
# Bulk Modulus (GPa) = 60.31612 78.29242 69.30427
# Shear Modulus (GPa) = 17.58245 22.41258 19.99752
#
# Velocity S-wave (km/s) = 3.36595 3.80027 3.58969
# Velocity P-wave (km/s) = 7.34658 8.34898 7.86377
#
# Compressibility (1/GPa) = 0.01657931
#
# Stress axis : x y z
#
# Youngs Moduli (GPa) = 83.05712 24.63139 30.26368
#
# Poissons Ratio (x) = 0.27707 0.07882
# Poissons Ratio (y) = 0.93429 0.62639
# Poissons Ratio (z) = 0.21631 0.50982
#
# Static dielectric constant tensor:
#      x y z
#    x 1.506000 0.000000 0.000000 
#    y 0.000000 1.520450 0.000000 
#    z 0.000000 0.000000 1.496310 
# 
# From -- ./inp_files/27503.got.cif
#   From: 2010.05.17/outbox.cif.g08.bks.cpg/sg62_14_cif.got.tgz:27503.got - 2010.06.03 15:25:27.
