data_PCOD9462444
_publ_section_title
;
Structure prediction by ZEFSAII (Michael W. Deem and Ramdas Pophale) SiO2 
 PCOD9462444
Probable space group: P N M A
;
_chemical_formula_sum "Si O2"
_cell_formula_units_Z 40
_cell_length_a 8.210100
_cell_length_b 7.592704
_cell_length_c 24.487606
_cell_angle_alpha 90.000000
_cell_angle_beta 90.000000
_cell_angle_gamma 90.000000
_cell_volume 1526.480445
_symmetry_space_group_name_H-M "P N M A"
_symmetry_group_IT_number 62
_symmetry_cell_setting 'orthorhombic'
loop_
_space_group_symop_operation_xyz
x,y,z
1/2-x,-y,1/2+z
1/2+x,1/2-y,1/2-z
-x,1/2+y,-z
-x,-y,-z
1/2+x,y,1/2-z
1/2-x,1/2+y,1/2+z
x,1/2-y,z
loop_
_atom_site_type_symbol
_atom_site_label
_atom_site_fract_x
_atom_site_fract_y
_atom_site_fract_z
Si Si1 0.041441 0.039914 0.668107
Si Si2 0.953857 0.963464 0.129147
Si Si3 0.642370 0.964866 0.268868
Si Si4 0.629348 0.451708 0.062855
Si Si5 0.333184 0.461152 0.533250
O O1 0.048014 0.250000 0.673437
O O2 0.894642 0.976943 0.707475
O O3 0.201182 0.969709 0.698313
O O4 0.010293 0.013877 0.604052
O O5 0.941768 0.750000 0.125982
O O6 0.989985 0.007469 0.191610
O O7 0.111876 0.020004 0.093270
O O8 0.792929 0.033410 0.100132
O O9 0.654744 0.750000 0.267363
O O10 0.596161 0.250000 0.052229
O O11 0.686862 0.533492 0.004821
O O12 0.500000 0.500000 0.500000
O O13 0.311584 0.250000 0.536181
#
# Coordination Sequence:
#
# PCOD9462444 Si02
#       5
#     8   8   8   8   8
#     4  10  19  33  51  71  93 122 159 200 241 284
#     4   9  16  31  54  76  96 124 160 201 241 279
#     4   9  18  32  53  75  93 117 159 206 244 282
#     4  10  19  31  47  72 102 131 160 193 232 282
#     4   8  15  27  46  70  97 126 158 192 231 277
#
# _framework density 26.204070000000002
#
# number of rings (size 3 to 8) (size 9 to 14) (size 15 to 20)
#    0.000    2.800    0.000    1.800    0.000    4.000 
#    0.000    6.000    0.000    0.000    0.000    0.000 
#    0.000    0.000    0.000    0.000    0.000    0.000 
#
# Total GULP energy -223380.985719 kJ/mol
# GULP energy per Si atom -5584.524643 kJ/mol
# Density = 2.614443 g / cm^3
# Si number density = 26.204070 Si / 1000 Ang^3
#
#
#
# Elastic Constant Matrix: (Units=GPa)
#
#
# Indices 1 2 3 4 5 6 
#
# 1 94.9053 9.4662 19.8175 0.0000 0.0000 0.0000
# 2 9.4662 57.3967 9.9029 0.0000 0.0000 0.0000
# 3 19.8175 9.9029 166.8845 0.0000 0.0000 0.0000
# 4 0.0000 0.0000 0.0000 7.9668 0.0000 0.0000
# 5 0.0000 0.0000 0.0000 0.0000 42.1451 0.0000
# 6 0.0000 0.0000 0.0000 0.0000 0.0000 -0.1947
#
#
#
# Elastic Compliance Matrix: (Units=1/GPa)
#
#
# Indices 1 2 3 4 5 6 
#
# 1 0.010948 -0.001598 -0.001205 0.000000 0.000000 0.000000
# 2 -0.001598 0.017836 -0.000869 0.000000 0.000000 0.000000
# 3 -0.001205 -0.000869 0.006187 0.000000 0.000000 0.000000
# 4 0.000000 0.000000 0.000000 0.125521 0.000000 0.000000
# 5 0.000000 0.000000 0.000000 0.000000 0.023728 0.000000
# 6 0.000000 0.000000 0.000000 0.000000 0.000000 -5.136323
#
#
# Mechanical properties :
#
#
# Convention : Reuss Voigt Hill
#
# Bulk Modulus (GPa) = 36.19577 44.17332 40.18455
# Shear Modulus (GPa) = -1.01306 28.65008 13.81851
#
# Velocity S-wave (km/s) = -0.62245 3.31016 2.29888
# Velocity P-wave (km/s) = 3.65054 5.61281 4.73445
#
# Compressibility (1/GPa) = 0.02762754
#
# Stress axis : x y z
#
# Youngs Moduli (GPa) = 91.34215 56.06647 161.63346
#
# Poissons Ratio (x) = 0.08957 0.19481
# Poissons Ratio (y) = 0.14593 0.14041
# Poissons Ratio (z) = 0.11009 0.04870
#
# Static dielectric constant tensor:
#      x y z
#    x 2.118420 0.000000 0.000000 
#    y 0.000000 1.983710 0.000000 
#    z 0.000000 0.000000 2.060140 
# 
# From -- ./inp_files/28570.got.cif
#   From: 2010.05.17/outbox.cif.g08.bks.cpg/sg62_15_cif.got.tgz:28570.got - 2010.06.03 15:25:27.
