data_PCOD9462429
_publ_section_title
;
Structure prediction by ZEFSAII (Michael W. Deem and Ramdas Pophale) SiO2 
 PCOD9462429
Probable space group: P N M A
;
_chemical_formula_sum "Si O2"
_cell_formula_units_Z 64
_cell_length_a 5.708225
_cell_length_b 26.631642
_cell_length_c 16.521962
_cell_angle_alpha 90.000000
_cell_angle_beta 90.000000
_cell_angle_gamma 90.000000
_cell_volume 2511.658827
_symmetry_space_group_name_H-M "P N M A"
_symmetry_group_IT_number 62
_symmetry_cell_setting 'orthorhombic'
loop_
_space_group_symop_operation_xyz
x,y,z
1/2-x,-y,1/2+z
1/2+x,1/2-y,1/2-z
-x,1/2+y,-z
-x,-y,-z
1/2+x,y,1/2-z
1/2-x,1/2+y,1/2+z
x,1/2-y,z
loop_
_atom_site_type_symbol
_atom_site_label
_atom_site_fract_x
_atom_site_fract_y
_atom_site_fract_z
Si Si1 0.500000 0.914839 0.936524
Si Si2 0.000000 0.807498 0.528822
Si Si3 0.500000 0.090750 0.867507
Si Si4 1.000000 0.053360 0.043196
Si Si5 0.000000 0.001449 0.246084
Si Si6 0.000000 0.688535 0.790989
Si Si7 0.500000 0.093562 0.631093
Si Si8 1.000000 0.309174 0.022303
O O1 0.500000 0.856059 0.913650
O O2 0.500000 0.918718 0.035820
O O3 0.249804 0.938601 0.914028
O O4 0.750196 0.938601 0.914028
O O5 0.000000 0.750000 0.562497
O O6 0.244746 0.815393 0.483025
O O7 0.755254 0.815393 0.483025
O O8 0.500000 0.037602 0.821108
O O9 0.748421 0.114738 0.843771
O O10 0.251579 0.114738 0.843771
O O11 1.000000 0.091982 0.966849
O O12 0.000000 0.000000 0.000000
O O13 0.250000 0.028464 0.250000
O O14 0.000000 0.963111 0.168927
O O15 0.250000 0.673920 0.750000
O O16 0.000000 0.750000 0.789780
O O17 0.000000 0.670319 0.885267
O O18 1.000000 0.250000 0.036552
#
# Coordination Sequence:
#
# PCOD9462429 Si02
#       8
#     8   8   8   8   8   8   8   8
#     4  10  19  31  46  66  92 123 158 192 232 276
#     4  10  19  31  46  64  91 126 161 196 232 280
#     4   8  14  23  37  57  83 109 137 177 221 258
#     4  10  19  31  46  66  94 122 149 187 234 283
#     4   8  12  20  34  54  80 105 131 169 219 260
#     4   9  15  23  37  58  85 111 137 180 238 285
#     4   8  14  23  37  57  83 110 136 171 220 267
#     4   9  17  28  42  62  89 118 148 186 233 279
#
# _framework density 25.481166999999999
#
# number of rings (size 3 to 8) (size 9 to 14) (size 15 to 20)
#    0.000    3.000    0.000    1.875    0.000    3.000 
#    0.000    0.000    0.000    0.000    0.000    0.000 
#    0.000  125.000    0.000    0.000    0.000   26.000 
#
# Total GULP energy -356337.440317 kJ/mol
# GULP energy per Si atom -5567.772505 kJ/mol
# Density = 2.542317 g / cm^3
# Si number density = 25.481167 Si / 1000 Ang^3
#
#
#
# Elastic Constant Matrix: (Units=GPa)
#
#
# Indices 1 2 3 4 5 6 
#
# 1 389.2053 41.7037 8.6573 0.0000 0.0000 0.0000
# 2 41.7037 88.8929 6.2473 0.0000 0.0000 0.0000
# 3 8.6573 6.2473 131.9867 0.0000 0.0000 0.0000
# 4 0.0000 0.0000 0.0000 22.0352 0.0000 0.0000
# 5 0.0000 0.0000 0.0000 0.0000 3.0192 0.0000
# 6 0.0000 0.0000 0.0000 0.0000 0.0000 33.5265
#
#
#
# Elastic Compliance Matrix: (Units=1/GPa)
#
#
# Indices 1 2 3 4 5 6 
#
# 1 0.002707 -0.001262 -0.000118 0.000000 0.000000 0.000000
# 2 -0.001262 0.011875 -0.000479 0.000000 0.000000 0.000000
# 3 -0.000118 -0.000479 0.007607 0.000000 0.000000 0.000000
# 4 0.000000 0.000000 0.000000 0.045382 0.000000 0.000000
# 5 0.000000 0.000000 0.000000 0.000000 0.331218 0.000000
# 6 0.000000 0.000000 0.000000 0.000000 0.000000 0.029827
#
#
# Mechanical properties :
#
#
# Convention : Reuss Voigt Hill
#
# Bulk Modulus (GPa) = 54.13787 80.36683 67.25235
# Shear Modulus (GPa) = 11.40273 48.61462 30.00867
#
# Velocity S-wave (km/s) = 2.11771 4.37265 3.43546
# Velocity P-wave (km/s) = 5.22225 7.55656 6.49513
#
# Compressibility (1/GPa) = 0.01847136
#
# Stress axis : x y z
#
# Youngs Moduli (GPa) = 369.39093 84.20958 131.45894
#
# Poissons Ratio (x) = 0.10625 0.01549
# Poissons Ratio (y) = 0.46609 0.06301
# Poissons Ratio (z) = 0.04353 0.04036
#
# Static dielectric constant tensor:
#      x y z
#    x 2.384380 0.000000 0.000000 
#    y 0.000000 2.055360 0.000000 
#    z 0.000000 0.000000 2.002550 
# 
# From -- ./inp_files/25472.got.cif
#   From: 2010.05.17/outbox.cif.g08.bks.cpg/sg62_13_cif.got.tgz:25472.got - 2010.06.03 15:25:27.
