data_PCOD9462062
_publ_section_title
;
Structure prediction by ZEFSAII (Michael W. Deem and Ramdas Pophale) SiO2 
 PCOD9462062
Probable space group: P N M A
;
_chemical_formula_sum "Si O2"
_cell_formula_units_Z 56
_cell_length_a 21.410926
_cell_length_b 7.723753
_cell_length_c 15.094784
_cell_angle_alpha 90.000000
_cell_angle_beta 90.000000
_cell_angle_gamma 90.000000
_cell_volume 2496.265245
_symmetry_space_group_name_H-M "P N M A"
_symmetry_group_IT_number 62
_symmetry_cell_setting 'orthorhombic'
loop_
_space_group_symop_operation_xyz
x,y,z
1/2-x,-y,1/2+z
1/2+x,1/2-y,1/2-z
-x,1/2+y,-z
-x,-y,-z
1/2+x,y,1/2-z
1/2-x,1/2+y,1/2+z
x,1/2-y,z
loop_
_atom_site_type_symbol
_atom_site_label
_atom_site_fract_x
_atom_site_fract_y
_atom_site_fract_z
Si Si1 0.864778 0.455211 0.540187
Si Si2 0.755234 0.450575 0.291518
Si Si3 0.644589 0.456746 0.639494
Si Si4 0.769775 0.958673 0.987823
Si Si5 0.983407 0.962646 0.219470
Si Si6 0.539026 0.445291 0.914427
Si Si7 0.883513 0.459800 0.734652
O O1 0.874713 0.250000 0.528562
O O2 0.791576 0.485294 0.547158
O O3 0.891552 0.542342 0.452791
O O4 0.896342 0.509309 0.632083
O O5 0.772622 0.250000 0.302240
O O6 0.806503 0.519572 0.221579
O O7 0.747383 0.528350 0.390620
O O8 0.683980 0.466052 0.257263
O O9 0.639856 0.250000 0.628891
O O10 0.673744 0.526963 0.547747
O O11 0.574879 0.522432 0.660576
O O12 0.778480 0.750000 0.977285
O O13 0.982318 0.750000 0.215967
O O14 0.967187 0.028148 0.318894
O O15 0.056309 0.011375 0.206932
O O16 0.519877 0.250000 0.898499
O O17 0.500000 0.500000 0.000000
O O18 0.878075 0.250000 0.736822
#
# Coordination Sequence:
#
# PCOD9462062 Si02
#       7
#     8   8   8   8   8   8   8
#     4  10  18  33  54  75 103 141 179 220 271 328
#     4  11  22  36  55  84 114 141 183 233 275 322
#     4  10  19  38  62  81 106 148 188 223 276 335
#     4   9  19  35  56  79 107 144 181 221 278 335
#     4   9  19  34  55  80 107 140 187 231 264 320
#     4  11  20  31  47  76 109 140 173 217 270 327
#     4  10  19  36  57  78 108 146 185 222 268 329
#
# _framework density 22.433513000000001
#
# number of rings (size 3 to 8) (size 9 to 14) (size 15 to 20)
#    0.000    2.000    2.857    1.714    0.000    0.571 
#    0.000    4.286    0.000    0.000    0.000    0.000 
#    0.000    0.000    0.000    0.000    0.000    0.000 
#
# Total GULP energy -312151.314262 kJ/mol
# GULP energy per Si atom -5574.130612 kJ/mol
# Density = 2.238245 g / cm^3
# Si number density = 22.433513 Si / 1000 Ang^3
#
#
#
# Elastic Constant Matrix: (Units=GPa)
#
#
# Indices 1 2 3 4 5 6 
#
# 1 56.1642 -6.9062 -6.2314 0.0000 0.0000 0.0000
# 2 -6.9062 24.9359 -8.4023 0.0000 0.0000 0.0000
# 3 -6.2314 -8.4023 42.7471 0.0000 0.0000 0.0000
# 4 0.0000 0.0000 0.0000 11.2664 0.0000 0.0000
# 5 0.0000 0.0000 0.0000 0.0000 31.2834 0.0000
# 6 0.0000 0.0000 0.0000 0.0000 0.0000 12.6826
#
#
#
# Elastic Compliance Matrix: (Units=1/GPa)
#
#
# Indices 1 2 3 4 5 6 
#
# 1 0.019078 0.006662 0.004091 0.000000 0.000000 0.000000
# 2 0.006662 0.045274 0.009870 0.000000 0.000000 0.000000
# 3 0.004091 0.009870 0.025930 0.000000 0.000000 0.000000
# 4 0.000000 0.000000 0.000000 0.088760 0.000000 0.000000
# 5 0.000000 0.000000 0.000000 0.000000 0.031966 0.000000
# 6 0.000000 0.000000 0.000000 0.000000 0.000000 0.078848
#
#
# Mechanical properties :
#
#
# Convention : Reuss Voigt Hill
#
# Bulk Modulus (GPa) = 7.60299 8.97415 8.28857
# Shear Modulus (GPa) = 17.09682 20.73894 18.91788
#
# Velocity S-wave (km/s) = 2.76363 3.04380 2.90709
# Velocity P-wave (km/s) = 3.68511 4.04499 3.86923
#
# Compressibility (1/GPa) = 0.13152713
#
# Stress axis : x y z
#
# Youngs Moduli (GPa) = 52.41639 22.08787 38.56571
#
# Poissons Ratio (x) = -0.14715 -0.15776
# Poissons Ratio (y) = -0.34921 -0.38065
# Poissons Ratio (z) = -0.21441 -0.21801
#
# Static dielectric constant tensor:
#      x y z
#    x 1.915810 0.000000 0.000000 
#    y 0.000000 1.834550 0.000000 
#    z 0.000000 0.000000 1.880980 
# 
# From -- ./inp_files/20239.got.cif
#   From: 2010.05.17/outbox.cif.g08.bks.cpg/sg62_11_cif.got.tgz:20239.got - 2010.06.03 15:25:27.
