data_PCOD9462997
_publ_section_title
;
Structure prediction by ZEFSAII (Michael W. Deem and Ramdas Pophale) SiO2 
 PCOD9462997
Probable space group: P N M A
;
_chemical_formula_sum "Si O2"
_cell_formula_units_Z 56
_cell_length_a 20.360591
_cell_length_b 12.320301
_cell_length_c 11.465156
_cell_angle_alpha 90.000000
_cell_angle_beta 90.000000
_cell_angle_gamma 90.000000
_cell_volume 2876.018442
_symmetry_space_group_name_H-M "P N M A"
_symmetry_group_IT_number 62
_symmetry_cell_setting 'orthorhombic'
loop_
_space_group_symop_operation_xyz
x,y,z
1/2-x,-y,1/2+z
1/2+x,1/2-y,1/2-z
-x,1/2+y,-z
-x,-y,-z
1/2+x,y,1/2-z
1/2-x,1/2+y,1/2+z
x,1/2-y,z
loop_
_atom_site_type_symbol
_atom_site_label
_atom_site_fract_x
_atom_site_fract_y
_atom_site_fract_z
Si Si1 0.647595 0.032220 0.760024
Si Si2 0.762500 0.866272 0.815362
Si Si3 0.593449 0.058629 0.241842
Si Si4 0.218422 0.027920 0.958843
Si Si5 0.846568 0.879833 0.517864
Si Si6 0.609251 0.877296 0.416971
Si Si7 0.541800 0.627340 0.654854
O O1 0.708987 0.951314 0.775768
O O2 0.676029 0.085670 0.642603
O O3 0.584480 0.961833 0.723872
O O4 0.640625 0.096308 0.880712
O O5 0.742934 0.750000 0.769830
O O6 0.837286 0.889919 0.781030
O O7 0.760522 0.877927 0.953941
O O8 0.595450 0.077361 0.102977
O O9 0.532616 0.116095 0.303846
O O10 0.593386 0.937123 0.295496
O O11 0.283303 0.952384 0.942603
O O12 0.169425 0.943717 0.025125
O O13 0.837156 0.750000 0.533018
O O14 0.623991 0.750000 0.401998
O O15 0.552609 0.887905 0.515750
O O16 0.565773 0.750000 0.680174
#
# Coordination Sequence:
#
# PCOD9462997 Si02
#       7
#     8   8   8   8   8   8   8
#     4  10  21  37  55  78 110 145 187 224 264 340
#     4  10  19  33  56  80 106 138 180 233 276 317
#     4  11  21  35  56  86 114 142 188 233 274 330
#     4   9  19  35  54  80 108 140 186 228 273 328
#     4  11  22  36  56  80 112 150 185 229 282 327
#     4   9  19  36  58  82 111 147 185 228 282 329
#     4  10  20  36  59  83 112 149 184 227 280 331
#
# _framework density 19.471363
#
# number of rings (size 3 to 8) (size 9 to 14) (size 15 to 20)
#    0.000    2.000    1.429    2.571    0.000    2.286 
#    0.000    4.286    0.000    0.000    0.000    0.000 
#    0.000    0.000    0.000    0.000    0.000    0.000 
#
# Total GULP energy -311757.061417 kJ/mol
# GULP energy per Si atom -5567.090382 kJ/mol
# Density = 1.942705 g / cm^3
# Si number density = 19.471363 Si / 1000 Ang^3
#
#
#
# Elastic Constant Matrix: (Units=GPa)
#
#
# Indices 1 2 3 4 5 6 
#
# 1 47.2727 -3.1698 -7.6112 0.0000 0.0000 0.0000
# 2 -3.1698 56.4279 20.7779 0.0000 0.0000 0.0000
# 3 -7.6112 20.7779 71.6882 0.0000 0.0000 0.0000
# 4 0.0000 0.0000 0.0000 13.6238 0.0000 0.0000
# 5 0.0000 0.0000 0.0000 0.0000 13.1740 0.0000
# 6 0.0000 0.0000 0.0000 0.0000 0.0000 28.8630
#
#
#
# Elastic Compliance Matrix: (Units=1/GPa)
#
#
# Indices 1 2 3 4 5 6 
#
# 1 0.021530 0.000412 0.002167 0.000000 0.000000 0.000000
# 2 0.000412 0.019847 -0.005709 0.000000 0.000000 0.000000
# 3 0.002167 -0.005709 0.015834 0.000000 0.000000 0.000000
# 4 0.000000 0.000000 0.000000 0.073401 0.000000 0.000000
# 5 0.000000 0.000000 0.000000 0.000000 0.075907 0.000000
# 6 0.000000 0.000000 0.000000 0.000000 0.000000 0.034646
#
#
# Mechanical properties :
#
#
# Convention : Reuss Voigt Hill
#
# Bulk Modulus (GPa) = 19.62699 21.70919 20.66809
# Shear Modulus (GPa) = 18.91005 22.15830 20.53417
#
# Velocity S-wave (km/s) = 3.11974 3.37708 3.25096
# Velocity P-wave (km/s) = 4.80405 5.13612 4.97286
#
# Compressibility (1/GPa) = 0.05095024
#
# Stress axis : x y z
#
# Youngs Moduli (GPa) = 46.44620 50.38574 63.15566
#
# Poissons Ratio (x) = -0.02074 -0.13683
# Poissons Ratio (y) = -0.01912 0.36053
# Poissons Ratio (z) = -0.10063 0.28763
#
# Static dielectric constant tensor:
#      x y z
#    x 1.663130 0.000000 0.000000 
#    y 0.000000 1.656830 0.000000 
#    z 0.000000 0.000000 1.796620 
# 
# From -- ./inp_files/14794.got.cif
#   From: 2010.05.17/outbox.cif.g08.bks.cpg/sg62_8_cif.got.tgz:14794.got - 2010.06.03 15:25:27.
