data_PCOD9462219
_publ_section_title
;
Structure prediction by ZEFSAII (Michael W. Deem and Ramdas Pophale) SiO2 
 PCOD9462219
Probable space group: P N M A
;
_chemical_formula_sum "Si O2"
_cell_formula_units_Z 64
_cell_length_a 31.264344
_cell_length_b 7.435591
_cell_length_c 12.191291
_cell_angle_alpha 90.000000
_cell_angle_beta 90.000000
_cell_angle_gamma 90.000000
_cell_volume 2834.095702
_symmetry_space_group_name_H-M "P N M A"
_symmetry_group_IT_number 62
_symmetry_cell_setting 'orthorhombic'
loop_
_space_group_symop_operation_xyz
x,y,z
1/2-x,-y,1/2+z
1/2+x,1/2-y,1/2-z
-x,1/2+y,-z
-x,-y,-z
1/2+x,y,1/2-z
1/2-x,1/2+y,1/2+z
x,1/2-y,z
loop_
_atom_site_type_symbol
_atom_site_label
_atom_site_fract_x
_atom_site_fract_y
_atom_site_fract_z
Si Si1 0.864035 0.470105 0.332072
Si Si2 0.933666 0.468728 0.970925
Si Si3 0.959637 0.462429 0.731438
Si Si4 0.286201 0.469973 0.315931
Si Si5 0.809641 0.542635 0.719170
Si Si6 0.611434 0.544450 0.071361
Si Si7 0.949614 0.033886 0.208439
Si Si8 0.834364 0.466955 0.965238
O O1 0.862719 0.250000 0.331511
O O2 0.819202 0.527859 0.278895
O O3 0.873403 0.533266 0.455424
O O4 0.904178 0.524958 0.256707
O O5 0.936858 0.250000 0.969670
O O6 0.955869 0.532130 0.083154
O O7 0.883758 0.516332 0.981581
O O8 0.949426 0.536347 0.853119
O O9 0.949720 0.250000 0.736679
O O10 0.928545 0.537656 0.637678
O O11 0.010172 0.483449 0.716826
O O12 0.285446 0.250000 0.313333
O O13 0.237621 0.531860 0.302673
O O14 0.305992 0.525475 0.432252
O O15 0.810166 0.750000 0.683426
O O16 0.848467 0.453662 0.653947
O O17 0.818427 0.533640 0.848400
O O18 0.598934 0.750000 0.044870
O O19 0.948151 0.250000 0.204514
O O20 0.833027 0.250000 0.962000
#
# Coordination Sequence:
#
# PCOD9462219 Si02
#       8
#     8   8   8   8   8   8   8   8
#     4   9  18  35  58  81 105 141 190 229 261 323
#     4   9  16  31  55  79 105 138 180 221 264 322
#     4  10  20  34  51  77 109 142 182 224 268 327
#     4   9  19  35  57  83 112 143 179 226 275 319
#     4  11  23  36  54  87 119 140 176 235 282 312
#     4  10  21  38  59  78 105 151 193 220 263 333
#     4  10  19  33  56  82 104 136 182 230 274 319
#     4  10  18  36  62  81 105 149 188 216 264 332
#
# _framework density 22.582159999999998
#
# number of rings (size 3 to 8) (size 9 to 14) (size 15 to 20)
#    0.000    2.250    2.500    0.750    1.750    1.000 
#    0.000    1.875    0.000    2.250    0.000    0.000 
#    0.000    0.000    0.000    0.000    0.000    0.000 
#
# Total GULP energy -357592.559086 kJ/mol
# GULP energy per Si atom -5587.383736 kJ/mol
# Density = 2.253076 g / cm^3
# Si number density = 22.582160 Si / 1000 Ang^3
#
#
#
# Elastic Constant Matrix: (Units=GPa)
#
#
# Indices 1 2 3 4 5 6 
#
# 1 58.8698 -9.3917 -24.8840 0.0000 0.0000 0.0000
# 2 -9.3917 68.5894 -5.3495 0.0000 0.0000 0.0000
# 3 -24.8840 -5.3495 56.3702 0.0000 0.0000 0.0000
# 4 0.0000 0.0000 0.0000 -22.5928 0.0000 0.0000
# 5 0.0000 0.0000 0.0000 0.0000 15.7305 0.0000
# 6 0.0000 0.0000 0.0000 0.0000 0.0000 11.6447
#
#
#
# Elastic Compliance Matrix: (Units=1/GPa)
#
#
# Indices 1 2 3 4 5 6 
#
# 1 0.021807 0.003765 0.009984 0.000000 0.000000 0.000000
# 2 0.003765 0.015338 0.003117 0.000000 0.000000 0.000000
# 3 0.009984 0.003117 0.022443 0.000000 0.000000 0.000000
# 4 0.000000 0.000000 0.000000 -0.044262 0.000000 0.000000
# 5 0.000000 0.000000 0.000000 0.000000 0.063571 0.000000
# 6 0.000000 0.000000 0.000000 0.000000 0.000000 0.085876
#
#
# Mechanical properties :
#
#
# Convention : Reuss Voigt Hill
#
# Bulk Modulus (GPa) = 10.71574 11.61988 11.16781
# Shear Modulus (GPa) = 30.83589 15.85343 23.34466
#
# Velocity S-wave (km/s) = 3.69927 2.65247 3.21871
# Velocity P-wave (km/s) = 4.79601 3.81281 4.33239
#
# Compressibility (1/GPa) = 0.09332069
#
# Stress axis : x y z
#
# Youngs Moduli (GPa) = 45.85598 65.19695 44.55732
#
# Poissons Ratio (x) = -0.24545 -0.44486
# Poissons Ratio (y) = -0.17263 -0.13891
# Poissons Ratio (z) = -0.45782 -0.20325
#
# Static dielectric constant tensor:
#      x y z
#    x 1.804470 0.000000 0.000000 
#    y 0.000000 1.859320 0.000000 
#    z 0.000000 0.000000 1.811070 
# 
# From -- ./inp_files/15889.got.cif
#   From: 2010.05.17/outbox.cif.g08.bks.cpg/sg62_8_cif.got.tgz:15889.got - 2010.06.03 15:25:27.
