data_PCOD9462593
_publ_section_title
;
Structure prediction by ZEFSAII (Michael W. Deem and Ramdas Pophale) SiO2 
 PCOD9462593
Probable space group: P N M A
;
_chemical_formula_sum "Si O2"
_cell_formula_units_Z 48
_cell_length_a 27.061625
_cell_length_b 15.490786
_cell_length_c 5.499976
_cell_angle_alpha 90.000000
_cell_angle_beta 90.000000
_cell_angle_gamma 90.000000
_cell_volume 2305.622068
_symmetry_space_group_name_H-M "P N M A"
_symmetry_group_IT_number 62
_symmetry_cell_setting 'orthorhombic'
loop_
_space_group_symop_operation_xyz
x,y,z
1/2-x,-y,1/2+z
1/2+x,1/2-y,1/2-z
-x,1/2+y,-z
-x,-y,-z
1/2+x,y,1/2-z
1/2-x,1/2+y,1/2+z
x,1/2-y,z
loop_
_atom_site_type_symbol
_atom_site_label
_atom_site_fract_x
_atom_site_fract_y
_atom_site_fract_z
Si Si1 0.599507 0.655402 0.134965
Si Si2 0.465299 0.914744 0.460803
Si Si3 0.316409 0.155665 0.226507
Si Si4 0.997874 0.395758 0.460863
Si Si5 0.130002 0.508574 0.034347
Si Si6 0.231060 0.456090 0.237866
O O1 0.589937 0.750000 0.241654
O O2 0.597014 0.572813 0.303965
O O3 0.654877 0.656109 0.028641
O O4 0.558197 0.637469 0.930135
O O5 0.470847 0.871097 0.724773
O O6 0.409172 0.944956 0.414195
O O7 0.500000 0.000000 0.500000
O O8 0.483996 0.863887 0.224852
O O9 0.325662 0.250000 0.338291
O O10 0.258560 0.135537 0.217584
O O11 0.341180 0.075322 0.362639
O O12 0.000000 0.500000 0.500000
O O13 0.172771 0.461031 0.187228
O O14 0.243663 0.492794 0.507564
#
# Coordination Sequence:
#
# PCOD9462593 Si02
#       6
#     8   8   8   8   8   8
#     4  11  21  33  55  84 114 143 180 234 291 334
#     4  10  19  31  56  76 107 141 185 220 265 324
#     4  10  21  36  54  83 118 148 181 240 295 335
#     4  10  19  34  51  79 108 145 180 218 269 327
#     4  11  20  34  57  84 110 147 193 230 280 338
#     4  10  21  36  56  80 111 146 191 230 277 344
#
# _framework density 20.818677999999998
#
# number of rings (size 3 to 8) (size 9 to 14) (size 15 to 20)
#    0.000    1.667    5.000    2.500    0.000    0.000 
#    0.000    0.000    0.000    2.000    0.000    0.000 
#    0.000    0.000    0.000    0.000    0.000    0.000 
#
# Total GULP energy -267355.747008 kJ/mol
# GULP energy per Si atom -5569.911396 kJ/mol
# Density = 2.077129 g / cm^3
# Si number density = 20.818678 Si / 1000 Ang^3
#
#
#
# Elastic Constant Matrix: (Units=GPa)
#
#
# Indices 1 2 3 4 5 6 
#
# 1 90.3292 25.5165 2.4096 0.0000 0.0000 0.0000
# 2 25.5165 35.7620 7.6716 0.0000 0.0000 0.0000
# 3 2.4096 7.6716 99.0565 0.0000 0.0000 0.0000
# 4 0.0000 0.0000 0.0000 -14.0901 0.0000 0.0000
# 5 0.0000 0.0000 0.0000 0.0000 31.0504 0.0000
# 6 0.0000 0.0000 0.0000 0.0000 0.0000 29.0588
#
#
#
# Elastic Compliance Matrix: (Units=1/GPa)
#
#
# Indices 1 2 3 4 5 6 
#
# 1 0.013884 -0.010000 0.000437 0.000000 0.000000 0.000000
# 2 -0.010000 0.035637 -0.002517 0.000000 0.000000 0.000000
# 3 0.000437 -0.002517 0.010280 0.000000 0.000000 0.000000
# 4 0.000000 0.000000 0.000000 -0.070972 0.000000 0.000000
# 5 0.000000 0.000000 0.000000 0.000000 0.032206 0.000000
# 6 0.000000 0.000000 0.000000 0.000000 0.000000 0.034413
#
#
# Mechanical properties :
#
#
# Convention : Reuss Voigt Hill
#
# Bulk Modulus (GPa) = 28.05757 32.92700 30.49229
# Shear Modulus (GPa) = 54.65213 21.84049 38.24631
#
# Velocity S-wave (km/s) = 5.12918 3.24247 4.29081
# Velocity P-wave (km/s) = 6.97025 5.46521 6.26310
#
# Compressibility (1/GPa) = 0.03564100
#
# Stress axis : x y z
#
# Youngs Moduli (GPa) = 72.02654 28.06034 97.28061
#
# Poissons Ratio (x) = 0.28060 -0.04249
# Poissons Ratio (y) = 0.72026 0.24483
# Poissons Ratio (z) = -0.03146 0.07062
#
# Static dielectric constant tensor:
#      x y z
#    x 1.767580 0.000000 0.000000 
#    y 0.000000 1.760530 0.000000 
#    z 0.000000 0.000000 1.907350 
# 
# From -- ./inp_files/2746.got.cif
#   From: 2010.05.17/outbox.cif.g08.bks.cpg/sg62_2_cif.got.tgz:2746.got - 2010.06.03 15:25:27.
