data_PCOD9462702
_publ_section_title
;
Structure prediction by ZEFSAII (Michael W. Deem and Ramdas Pophale) SiO2 
 PCOD9462702
Probable space group: P N M A
;
_chemical_formula_sum "Si O2"
_cell_formula_units_Z 48
_cell_length_a 11.971083
_cell_length_b 13.524397
_cell_length_c 17.265208
_cell_angle_alpha 90.000000
_cell_angle_beta 90.000000
_cell_angle_gamma 90.000000
_cell_volume 2795.266164
_symmetry_space_group_name_H-M "P N M A"
_symmetry_group_IT_number 62
_symmetry_cell_setting 'orthorhombic'
loop_
_space_group_symop_operation_xyz
x,y,z
1/2-x,-y,1/2+z
1/2+x,1/2-y,1/2-z
-x,1/2+y,-z
-x,-y,-z
1/2+x,y,1/2-z
1/2-x,1/2+y,1/2+z
x,1/2-y,z
loop_
_atom_site_type_symbol
_atom_site_label
_atom_site_fract_x
_atom_site_fract_y
_atom_site_fract_z
Si Si1 0.193199 0.942652 0.887393
Si Si2 0.273881 0.863349 0.469343
Si Si3 0.621543 0.134690 0.006991
Si Si4 0.553814 0.366623 0.392585
Si Si5 0.242706 0.631313 0.718176
Si Si6 0.589755 0.943601 0.913135
O O1 0.256547 0.885927 0.957152
O O2 0.237909 0.902641 0.806135
O O3 0.061233 0.924433 0.890637
O O4 0.220179 0.057381 0.901544
O O5 0.270396 0.750000 0.444617
O O6 0.379296 0.878427 0.526888
O O7 0.167283 0.887832 0.523252
O O8 0.606290 0.250000 0.989622
O O9 0.533474 0.098192 0.072406
O O10 0.598524 0.059066 0.936325
O O11 0.528489 0.250000 0.382951
O O12 0.641850 0.394785 0.325464
O O13 0.230399 0.750000 0.713000
O O14 0.142628 0.582051 0.669137
#
# Coordination Sequence:
#
# PCOD9462702 Si02
#       6
#     8   8   8   8   8   8
#     4  11  21  31  51  80 104 127 168 212 252 295
#     4   9  18  35  55  72  97 137 172 203 243 299
#     4  10  19  32  52  79 102 128 168 212 247 286
#     4   9  18  33  51  73 101 132 164 202 251 300
#     4  10  20  33  50  73 103 135 163 202 254 302
#     4   9  19  34  53  74 101 136 168 199 247 305
#
# _framework density 17.171887999999999
#
# number of rings (size 3 to 8) (size 9 to 14) (size 15 to 20)
#    0.000    2.333    0.000    4.500    2.333    0.000 
#    0.000    0.833    0.000    1.000    0.000    0.000 
#    0.000    0.000    0.000    0.000    0.000    0.000 
#
# Total GULP energy -267797.498663 kJ/mol
# GULP energy per Si atom -5579.114555 kJ/mol
# Density = 1.713280 g / cm^3
# Si number density = 17.171888 Si / 1000 Ang^3
#
#
#
# Elastic Constant Matrix: (Units=GPa)
#
#
# Indices 1 2 3 4 5 6 
#
# 1 55.3290 14.8148 -2.7848 0.0000 0.0000 0.0000
# 2 14.8148 115.3052 23.5648 0.0000 0.0000 0.0000
# 3 -2.7848 23.5648 27.8551 0.0000 0.0000 0.0000
# 4 0.0000 0.0000 0.0000 21.7416 0.0000 0.0000
# 5 0.0000 0.0000 0.0000 0.0000 7.7212 0.0000
# 6 0.0000 0.0000 0.0000 0.0000 0.0000 15.6190
#
#
#
# Elastic Compliance Matrix: (Units=1/GPa)
#
#
# Indices 1 2 3 4 5 6 
#
# 1 0.019246 -0.003465 0.004855 0.000000 0.000000 0.000000
# 2 -0.003465 0.011109 -0.009745 0.000000 0.000000 0.000000
# 3 0.004855 -0.009745 0.044629 0.000000 0.000000 0.000000
# 4 0.000000 0.000000 0.000000 0.045995 0.000000 0.000000
# 5 0.000000 0.000000 0.000000 0.000000 0.129513 0.000000
# 6 0.000000 0.000000 0.000000 0.000000 0.000000 0.064025
#
#
# Mechanical properties :
#
#
# Convention : Reuss Voigt Hill
#
# Bulk Modulus (GPa) = 17.15973 29.96431 23.56202
# Shear Modulus (GPa) = 14.25918 19.87599 17.06759
#
# Velocity S-wave (km/s) = 2.88476 3.40586 3.15608
# Velocity P-wave (km/s) = 4.59460 5.74056 5.19925
#
# Compressibility (1/GPa) = 0.05827599
#
# Stress axis : x y z
#
# Youngs Moduli (GPa) = 51.95918 90.01427 22.40680
#
# Poissons Ratio (x) = 0.31191 -0.10880
# Poissons Ratio (y) = 0.18004 0.21835
# Poissons Ratio (z) = -0.25229 0.87716
#
# Static dielectric constant tensor:
#      x y z
#    x 1.608880 0.000000 0.000000 
#    y 0.000000 1.574910 0.000000 
#    z 0.000000 0.000000 1.560100 
# 
# From -- ./inp_files/23002.got.cif
#   From: 2010.05.17/outbox.cif.g08.bks.cpg/sg62_12_cif.got.tgz:23002.got - 2010.06.03 15:25:27.
