data_PCOD9462186
_publ_section_title
;
Structure prediction by ZEFSAII (Michael W. Deem and Ramdas Pophale) SiO2 
 PCOD9462186
Probable space group: P N M A
;
_chemical_formula_sum "Si O2"
_cell_formula_units_Z 20
_cell_length_a 11.786935
_cell_length_b 9.900180
_cell_length_c 6.854983
_cell_angle_alpha 90.000000
_cell_angle_beta 90.000000
_cell_angle_gamma 90.000000
_cell_volume 799.927010
_symmetry_space_group_name_H-M "P N M A"
_symmetry_group_IT_number 62
_symmetry_cell_setting 'orthorhombic'
loop_
_space_group_symop_operation_xyz
x,y,z
1/2-x,-y,1/2+z
1/2+x,1/2-y,1/2-z
-x,1/2+y,-z
-x,-y,-z
1/2+x,y,1/2-z
1/2-x,1/2+y,1/2+z
x,1/2-y,z
loop_
_atom_site_type_symbol
_atom_site_label
_atom_site_fract_x
_atom_site_fract_y
_atom_site_fract_z
Si Si1 0.226644 0.250000 0.081307
Si Si2 0.540869 0.750000 0.056052
Si Si3 0.782560 0.750000 0.396367
Si Si4 0.108445 0.525834 0.134797
O O1 0.207928 0.250000 0.843142
O O2 0.362923 0.250000 0.109105
O O3 0.167596 0.117147 0.161515
O O4 0.408235 0.750000 0.021512
O O5 0.566265 0.885779 0.181621
O O6 0.707029 0.878825 0.451647
O O7 0.000000 0.500000 0.000000
#
# Coordination Sequence:
#
# PCOD9462186 Si02
#       4
#     4   4   4   8
#     4  10  19  36  55  86 114 151 193 234 284 335
#     4  10  22  38  61  83 117 153 190 238 283 338
#     4  10  21  36  58  85 115 154 191 236 279 343
#     4  10  18  35  61  81 115 154 189 227 296 336
#
# _framework density 25.002281
#
# number of rings (size 3 to 8) (size 9 to 14) (size 15 to 20)
#    0.000    2.400    4.000    1.200    0.000    1.600 
#    0.000   18.000    0.000    0.000    0.000    0.000 
#    0.000    0.000    0.000    0.000    0.000    0.000 
#
# Total GULP energy -112000.249730 kJ/mol
# GULP energy per Si atom -5600.012487 kJ/mol
# Density = 2.494537 g / cm^3
# Si number density = 25.002281 Si / 1000 Ang^3
#
#
#
# Elastic Constant Matrix: (Units=GPa)
#
#
# Indices 1 2 3 4 5 6 
#
# 1 288.4294 130.4548 42.9592 0.0000 0.0000 0.0000
# 2 130.4548 262.8281 42.3754 0.0000 0.0000 0.0000
# 3 42.9592 42.3754 106.6237 0.0000 0.0000 0.0000
# 4 0.0000 0.0000 0.0000 -6.0351 0.0000 0.0000
# 5 0.0000 0.0000 0.0000 0.0000 32.0146 0.0000
# 6 0.0000 0.0000 0.0000 0.0000 0.0000 37.9759
#
#
#
# Elastic Compliance Matrix: (Units=1/GPa)
#
#
# Indices 1 2 3 4 5 6 
#
# 1 0.004569 -0.002106 -0.001004 0.000000 0.000000 0.000000
# 2 -0.002106 0.005036 -0.001153 0.000000 0.000000 0.000000
# 3 -0.001004 -0.001153 0.010241 0.000000 0.000000 0.000000
# 4 0.000000 0.000000 0.000000 -0.165697 0.000000 0.000000
# 5 0.000000 0.000000 0.000000 0.000000 0.031236 0.000000
# 6 0.000000 0.000000 0.000000 0.000000 0.000000 0.026332
#
#
# Mechanical properties :
#
#
# Convention : Reuss Voigt Hill
#
# Bulk Modulus (GPa) = 88.33274 121.05111 104.69193
# Shear Modulus (GPa) = -65.80417 42.26385 -11.77016
#
# Velocity S-wave (km/s) = -5.13580 4.11591 -2.17206
# Velocity P-wave (km/s) = 0.48789 8.43260 5.97272
#
# Compressibility (1/GPa) = 0.01132083
#
# Stress axis : x y z
#
# Youngs Moduli (GPa) = 218.86048 198.57121 97.64225
#
# Poissons Ratio (x) = 0.41820 0.09803
# Poissons Ratio (y) = 0.46093 0.11257
# Poissons Ratio (z) = 0.21972 0.22894
#
# Static dielectric constant tensor:
#      x y z
#    x 1.945600 0.000000 0.000000 
#    y 0.000000 1.920000 0.000000 
#    z 0.000000 0.000000 2.070230 
# 
# From -- ./inp_files/4683.got.cif
#   From: 2010.05.17/outbox.cif.g08.bks.cpg/sg62_3_cif.got.tgz:4683.got - 2010.06.03 15:25:27.
