data_PCOD9462445
_publ_section_title
;
Structure prediction by ZEFSAII (Michael W. Deem and Ramdas Pophale) SiO2 
 PCOD9462445
Probable space group: P N M A
;
_chemical_formula_sum "Si O2"
_cell_formula_units_Z 56
_cell_length_a 15.902792
_cell_length_b 9.095675
_cell_length_c 22.634994
_cell_angle_alpha 90.000000
_cell_angle_beta 90.000000
_cell_angle_gamma 90.000000
_cell_volume 3274.075548
_symmetry_space_group_name_H-M "P N M A"
_symmetry_group_IT_number 62
_symmetry_cell_setting 'orthorhombic'
loop_
_space_group_symop_operation_xyz
x,y,z
1/2-x,-y,1/2+z
1/2+x,1/2-y,1/2-z
-x,1/2+y,-z
-x,-y,-z
1/2+x,y,1/2-z
1/2-x,1/2+y,1/2+z
x,1/2-y,z
loop_
_atom_site_type_symbol
_atom_site_label
_atom_site_fract_x
_atom_site_fract_y
_atom_site_fract_z
Si Si1 0.038992 0.918332 0.944375
Si Si2 0.742263 0.073478 0.676339
Si Si3 0.548749 0.072876 0.680314
Si Si4 0.517194 0.074614 0.094111
Si Si5 0.238886 0.581871 0.949092
Si Si6 0.076748 0.927165 0.285442
Si Si7 0.626598 0.924426 0.990560
O O1 0.009314 0.750000 0.940706
O O2 0.139106 0.917267 0.954262
O O3 0.026020 0.000469 0.882231
O O4 0.000000 0.000000 0.000000
O O5 0.742701 0.250000 0.668275
O O6 0.646695 0.032951 0.695334
O O7 0.823181 0.036360 0.716821
O O8 0.758075 0.997214 0.613152
O O9 0.546324 0.250000 0.674567
O O10 0.481276 0.029492 0.730085
O O11 0.530030 0.250000 0.096485
O O12 0.539309 0.001261 0.155917
O O13 0.574709 0.002957 0.043122
O O14 0.422502 0.047691 0.070318
O O15 0.269129 0.750000 0.947890
O O16 0.282103 0.493681 0.002023
O O17 0.070960 0.750000 0.291227
O O18 0.627655 0.750000 0.000803
#
# Coordination Sequence:
#
# PCOD9462445 Si02
#       7
#     8   8   8   8   8   8   8
#     4  10  21  37  57  80 104 133 172 218 267 314
#     4   9  17  31  51  73  98 134 176 214 257 310
#     4   9  19  35  54  77 105 135 172 218 260 309
#     4  10  20  31  47  72 105 139 172 210 252 302
#     4  10  19  31  51  78 103 131 173 219 261 309
#     4  10  19  32  52  76 103 139 178 212 259 314
#     4  10  19  31  47  72 104 138 173 209 254 306
#
# _framework density 17.104064000000001
#
# number of rings (size 3 to 8) (size 9 to 14) (size 15 to 20)
#    0.000    2.286    1.429    1.714    0.000    4.000 
#    0.000    1.429    0.000    3.429    0.000    0.000 
#    0.000    0.000    0.000    0.000    0.000    0.000 
#
# Total GULP energy -312071.922018 kJ/mol
# GULP energy per Si atom -5572.712893 kJ/mol
# Density = 1.706513 g / cm^3
# Si number density = 17.104064 Si / 1000 Ang^3
#
#
#
# Elastic Constant Matrix: (Units=GPa)
#
#
# Indices 1 2 3 4 5 6 
#
# 1 91.8899 35.5148 67.5112 0.0000 0.0000 0.0000
# 2 35.5148 39.9343 37.4857 0.0000 0.0000 0.0000
# 3 67.5112 37.4857 104.1247 0.0000 0.0000 0.0000
# 4 0.0000 0.0000 0.0000 24.0603 0.0000 0.0000
# 5 0.0000 0.0000 0.0000 0.0000 34.1833 0.0000
# 6 0.0000 0.0000 0.0000 0.0000 0.0000 22.9973
#
#
#
# Elastic Compliance Matrix: (Units=1/GPa)
#
#
# Indices 1 2 3 4 5 6 
#
# 1 0.023060 -0.009778 -0.011432 0.000000 0.000000 0.000000
# 2 -0.009778 0.041968 -0.008769 0.000000 0.000000 0.000000
# 3 -0.011432 -0.008769 0.020173 0.000000 0.000000 0.000000
# 4 0.000000 0.000000 0.000000 0.041562 0.000000 0.000000
# 5 0.000000 0.000000 0.000000 0.000000 0.029254 0.000000
# 6 0.000000 0.000000 0.000000 0.000000 0.000000 0.043483
#
#
# Mechanical properties :
#
#
# Convention : Reuss Voigt Hill
#
# Bulk Modulus (GPa) = 39.61297 57.44136 48.52717
# Shear Modulus (GPa) = 18.66555 22.61066 20.63811
#
# Velocity S-wave (km/s) = 3.30706 3.63980 3.47741
# Velocity P-wave (km/s) = 6.14755 7.16384 6.67507
#
# Compressibility (1/GPa) = 0.02524426
#
# Stress axis : x y z
#
# Youngs Moduli (GPa) = 43.36461 23.82744 49.57177
#
# Poissons Ratio (x) = 0.23298 0.56668
# Poissons Ratio (y) = 0.42400 0.43472
# Poissons Ratio (z) = 0.49572 0.20895
#
# Static dielectric constant tensor:
#      x y z
#    x 1.639440 0.000000 0.000000 
#    y 0.000000 1.577140 0.000000 
#    z 0.000000 0.000000 1.533480 
# 
# From -- ./inp_files/27544.got.cif
#   From: 2010.05.17/outbox.cif.g08.bks.cpg/sg62_14_cif.got.tgz:27544.got - 2010.06.03 15:25:27.
