data_PCOD9462675
_publ_section_title
;
Structure prediction by ZEFSAII (Michael W. Deem and Ramdas Pophale) SiO2 
 PCOD9462675
Probable space group: P N M A
;
_chemical_formula_sum "Si O2"
_cell_formula_units_Z 56
_cell_length_a 19.603058
_cell_length_b 8.689824
_cell_length_c 19.921390
_cell_angle_alpha 90.000000
_cell_angle_beta 90.000000
_cell_angle_gamma 90.000000
_cell_volume 3393.551490
_symmetry_space_group_name_H-M "P N M A"
_symmetry_group_IT_number 62
_symmetry_cell_setting 'orthorhombic'
loop_
_space_group_symop_operation_xyz
x,y,z
1/2-x,-y,1/2+z
1/2+x,1/2-y,1/2-z
-x,1/2+y,-z
-x,-y,-z
1/2+x,y,1/2-z
1/2-x,1/2+y,1/2+z
x,1/2-y,z
loop_
_atom_site_type_symbol
_atom_site_label
_atom_site_fract_x
_atom_site_fract_y
_atom_site_fract_z
Si Si1 0.234615 0.563223 0.839650
Si Si2 0.710518 0.435725 0.019824
Si Si3 0.019016 0.932724 0.301408
Si Si4 0.128621 0.936210 0.730497
Si Si5 0.254615 0.435063 0.123716
Si Si6 0.054882 0.434995 0.447742
Si Si7 0.352169 0.935775 0.733784
O O1 0.233158 0.750000 0.840498
O O2 0.246486 0.510194 0.915383
O O3 0.167587 0.514866 0.798708
O O4 0.300262 0.522452 0.794314
O O5 0.711934 0.250000 0.018986
O O6 0.631521 0.481845 0.031016
O O7 0.738346 0.496342 0.949693
O O8 0.019603 0.750000 0.307724
O O9 0.038233 0.006016 0.373311
O O10 0.075958 0.987562 0.248535
O O11 0.944530 0.990263 0.280050
O O12 0.122374 0.750000 0.730845
O O13 0.179984 0.977481 0.669603
O O14 0.254336 0.250000 0.119642
O O15 0.187279 0.480333 0.165724
O O16 0.051952 0.250000 0.447686
O O17 0.000000 0.500000 0.500000
O O18 0.359554 0.750000 0.734619
#
# Coordination Sequence:
#
# PCOD9462675 Si02
#       7
#     8   8   8   8   8   8   8
#     4   8  15  32  55  75  93 128 179 216 254 307
#     4  10  19  32  52  75 103 135 166 210 259 305
#     4  12  23  33  49  77 108 137 172 213 260 309
#     4   9  18  34  55  73  97 135 176 215 254 307
#     4   9  19  33  53  78 102 132 172 214 255 308
#     4  11  22  35  51  74 109 145 175 208 252 309
#     4   9  17  35  56  72  97 135 178 215 251 304
#
# _framework density 16.501887
#
# number of rings (size 3 to 8) (size 9 to 14) (size 15 to 20)
#    0.000    2.286    1.429    4.286    0.000    4.571 
#    0.000    2.857    0.000    0.857    0.000    0.000 
#    0.000    0.000    0.000    0.000    0.000    0.000 
#
# Total GULP energy -312420.597934 kJ/mol
# GULP energy per Si atom -5578.939249 kJ/mol
# Density = 1.646433 g / cm^3
# Si number density = 16.501887 Si / 1000 Ang^3
#
#
#
# Elastic Constant Matrix: (Units=GPa)
#
#
# Indices 1 2 3 4 5 6 
#
# 1 61.0795 17.5081 67.2951 0.0000 0.0000 0.0000
# 2 17.5081 28.3733 28.2629 0.0000 0.0000 0.0000
# 3 67.2951 28.2629 154.9139 0.0000 0.0000 0.0000
# 4 0.0000 0.0000 0.0000 28.8218 0.0000 0.0000
# 5 0.0000 0.0000 0.0000 0.0000 23.4833 0.0000
# 6 0.0000 0.0000 0.0000 0.0000 0.0000 17.1082
#
#
#
# Elastic Compliance Matrix: (Units=1/GPa)
#
#
# Indices 1 2 3 4 5 6 
#
# 1 0.032607 -0.007346 -0.012824 0.000000 0.000000 0.000000
# 2 -0.007346 0.044727 -0.004969 0.000000 0.000000 0.000000
# 3 -0.012824 -0.004969 0.012933 0.000000 0.000000 0.000000
# 4 0.000000 0.000000 0.000000 0.034696 0.000000 0.000000
# 5 0.000000 0.000000 0.000000 0.000000 0.042583 0.000000
# 6 0.000000 0.000000 0.000000 0.000000 0.000000 0.058451
#
#
# Mechanical properties :
#
#
# Convention : Reuss Voigt Hill
#
# Bulk Modulus (GPa) = 25.00756 52.27764 38.64260
# Shear Modulus (GPa) = 17.26480 22.63605 19.95043
#
# Velocity S-wave (km/s) = 3.23806 3.70770 3.48081
# Velocity P-wave (km/s) = 5.40068 7.07658 6.29465
#
# Compressibility (1/GPa) = 0.03998791
#
# Stress axis : x y z
#
# Youngs Moduli (GPa) = 30.66787 22.35784 77.32322
#
# Poissons Ratio (x) = 0.16425 0.99163
# Poissons Ratio (y) = 0.22530 0.38421
# Poissons Ratio (z) = 0.39330 0.11109
#
# Static dielectric constant tensor:
#      x y z
#    x 1.540970 0.000000 0.000000 
#    y 0.000000 1.558700 0.000000 
#    z 0.000000 0.000000 1.549460 
# 
# From -- ./inp_files/24637.got.cif
#   From: 2010.05.17/outbox.cif.g08.bks.cpg/sg62_13_cif.got.tgz:24637.got - 2010.06.03 15:25:27.
