data_PCOD9462451
_publ_section_title
;
Structure prediction by ZEFSAII (Michael W. Deem and Ramdas Pophale) SiO2 
 PCOD9462451
Probable space group: P N M A
;
_chemical_formula_sum "Si O2"
_cell_formula_units_Z 64
_cell_length_a 13.089463
_cell_length_b 7.544462
_cell_length_c 29.458924
_cell_angle_alpha 90.000000
_cell_angle_beta 90.000000
_cell_angle_gamma 90.000000
_cell_volume 2909.155832
_symmetry_space_group_name_H-M "P N M A"
_symmetry_group_IT_number 62
_symmetry_cell_setting 'orthorhombic'
loop_
_space_group_symop_operation_xyz
x,y,z
1/2-x,-y,1/2+z
1/2+x,1/2-y,1/2-z
-x,1/2+y,-z
-x,-y,-z
1/2+x,y,1/2-z
1/2-x,1/2+y,1/2+z
x,1/2-y,z
loop_
_atom_site_type_symbol
_atom_site_label
_atom_site_fract_x
_atom_site_fract_y
_atom_site_fract_z
Si Si1 0.551751 0.540989 0.163626
Si Si2 0.183423 0.533562 0.417900
Si Si3 0.752798 0.467168 0.407919
Si Si4 0.677276 0.956419 0.811828
Si Si5 0.109645 0.548718 0.869951
Si Si6 0.766406 0.465133 0.212809
Si Si7 0.385279 0.461225 0.013054
Si Si8 0.963065 0.537126 0.948588
O O1 0.534787 0.750000 0.161592
O O2 0.586678 0.480629 0.113180
O O3 0.445236 0.463378 0.180939
O O4 0.652899 0.509603 0.194462
O O5 0.190767 0.750000 0.415775
O O6 0.282119 0.451255 0.395330
O O7 0.178137 0.475519 0.469693
O O8 0.752833 0.250000 0.405857
O O9 0.767801 0.531480 0.356655
O O10 0.846920 0.528832 0.438974
O O11 0.651153 0.519597 0.435165
O O12 0.706536 0.750000 0.809907
O O13 0.711662 0.031398 0.763442
O O14 0.073155 0.750000 0.861027
O O15 0.144602 0.468767 0.821698
O O16 0.034051 0.467168 0.907317
O O17 0.772894 0.250000 0.211740
O O18 0.372601 0.250000 0.014323
O O19 0.500000 0.500000 0.000000
O O20 0.965840 0.750000 0.945710
O O21 0.000000 0.500000 0.000000
#
# Coordination Sequence:
#
# PCOD9462451 Si02
#       8
#     8   8   8   8   8   8   8   8
#     4  10  20  34  53  77 106 137 169 212 264 312
#     4   9  18  32  50  72  99 132 166 200 244 300
#     4   9  19  34  52  76 105 136 169 209 259 311
#     4  10  20  35  56  79 104 137 176 218 263 311
#     4   9  18  32  52  77 100 126 166 215 257 295
#     4   9  19  35  55  79 104 135 179 223 263 314
#     4  10  19  31  48  70  97 130 165 200 243 295
#     4  10  20  35  54  76 106 141 175 213 261 316
#
# _framework density 21.999510999999998
#
# number of rings (size 3 to 8) (size 9 to 14) (size 15 to 20)
#    0.000    2.500    0.000    1.875    0.000    4.000 
#    0.000    5.000    0.000    1.500    0.000    0.000 
#    0.000    0.000    0.000    0.000    0.000    0.000 
#
# Total GULP energy -356960.666047 kJ/mol
# GULP energy per Si atom -5577.510407 kJ/mol
# Density = 2.194944 g / cm^3
# Si number density = 21.999511 Si / 1000 Ang^3
#
#
#
# Elastic Constant Matrix: (Units=GPa)
#
#
# Indices 1 2 3 4 5 6 
#
# 1 84.3155 -10.0117 58.7203 0.0000 0.0000 0.0000
# 2 -10.0117 53.5708 7.4840 0.0000 0.0000 0.0000
# 3 58.7203 7.4840 196.5080 0.0000 0.0000 0.0000
# 4 0.0000 0.0000 0.0000 7.6634 0.0000 0.0000
# 5 0.0000 0.0000 0.0000 0.0000 32.9397 0.0000
# 6 0.0000 0.0000 0.0000 0.0000 0.0000 4.4464
#
#
#
# Elastic Compliance Matrix: (Units=1/GPa)
#
#
# Indices 1 2 3 4 5 6 
#
# 1 0.015636 0.003594 -0.004809 0.000000 0.000000 0.000000
# 2 0.003594 0.019593 -0.001820 0.000000 0.000000 0.000000
# 3 -0.004809 -0.001820 0.006595 0.000000 0.000000 0.000000
# 4 0.000000 0.000000 0.000000 0.130490 0.000000 0.000000
# 5 0.000000 0.000000 0.000000 0.000000 0.030359 0.000000
# 6 0.000000 0.000000 0.000000 0.000000 0.000000 0.224901
#
#
# Mechanical properties :
#
#
# Convention : Reuss Voigt Hill
#
# Bulk Modulus (GPa) = 27.96913 49.64218 38.80566
# Shear Modulus (GPa) = 11.22177 27.55669 19.38923
#
# Velocity S-wave (km/s) = 2.26097 3.54306 2.97197
# Velocity P-wave (km/s) = 4.42234 6.27310 5.42719
#
# Compressibility (1/GPa) = 0.03575370
#
# Stress axis : x y z
#
# Youngs Moduli (GPa) = 63.95349 51.03903 151.62337
#
# Poissons Ratio (x) = -0.18344 0.72921
# Poissons Ratio (y) = -0.22986 0.27598
# Poissons Ratio (z) = 0.30757 0.09290
#
# Static dielectric constant tensor:
#      x y z
#    x 1.800070 0.000000 0.000000 
#    y 0.000000 1.852150 0.000000 
#    z 0.000000 0.000000 1.858580 
# 
# From -- ./inp_files/32543.got.cif
#   From: 2010.05.17/outbox.cif.g08.bks.cpg/sg62_17_cif.got.tgz:32543.got - 2010.06.03 15:25:27.
