data_PCOD9462141
_publ_section_title
;
Structure prediction by ZEFSAII (Michael W. Deem and Ramdas Pophale) SiO2 
 PCOD9462141
Probable space group: P N M A
;
_chemical_formula_sum "Si O2"
_cell_formula_units_Z 52
_cell_length_a 15.158109
_cell_length_b 19.707182
_cell_length_c 7.108532
_cell_angle_alpha 90.000000
_cell_angle_beta 90.000000
_cell_angle_gamma 90.000000
_cell_volume 2123.486361
_symmetry_space_group_name_H-M "P N M A"
_symmetry_group_IT_number 62
_symmetry_cell_setting 'orthorhombic'
loop_
_space_group_symop_operation_xyz
x,y,z
1/2-x,-y,1/2+z
1/2+x,1/2-y,1/2-z
-x,1/2+y,-z
-x,-y,-z
1/2+x,y,1/2-z
1/2-x,1/2+y,1/2+z
x,1/2-y,z
loop_
_atom_site_type_symbol
_atom_site_label
_atom_site_fract_x
_atom_site_fract_y
_atom_site_fract_z
Si Si1 0.661526 0.383717 0.160444
Si Si2 0.086531 0.250000 0.317058
Si Si3 0.698133 0.393655 0.582961
Si Si4 0.042532 0.750000 0.002438
Si Si5 0.151655 0.250000 0.903035
Si Si6 0.551337 0.493441 0.700020
Si Si7 0.628741 0.961191 0.165390
Si Si8 0.140779 0.887656 0.945802
O O1 0.604547 0.321232 0.083179
O O2 0.647179 0.387484 0.385348
O O3 0.644989 0.461223 0.107140
O O4 0.763480 0.368147 0.125926
O O5 0.493042 0.250000 0.286682
O O6 0.154521 0.250000 0.134811
O O7 0.695412 0.318612 0.668517
O O8 0.638481 0.447534 0.692584
O O9 0.797943 0.417902 0.556669
O O10 0.093167 0.820642 0.023655
O O11 0.953729 0.750000 0.127494
O O12 0.500000 0.500000 0.500000
O O13 0.477617 0.458173 0.831248
O O14 0.584927 0.571338 0.713000
O O15 0.654357 0.940101 0.380291
#
# Coordination Sequence:
#
# PCOD9462141 Si02
#       8
#     8   4   8   4   4   8   8   8
#     4  11  18  36  55  86 112 151 187 238 290 342
#     4   8  19  31  57  79 108 144 189 234 282 330
#     4  11  20  37  58  82 113 155 194 237 293 341
#     4  10  19  36  57  92 104 150 204 243 266 350
#     4   8  18  33  56  79 108 142 191 231 280 338
#     4  10  18  34  57  81 107 153 194 231 273 341
#     4  11  21  34  58  84 118 149 195 242 284 344
#     4  11  21  33  59  87 115 147 198 242 284 342
#
# _framework density 24.488033000000001
#
# number of rings (size 3 to 8) (size 9 to 14) (size 15 to 20)
#    0.462    1.231    4.615    3.231    0.000    0.615 
#    0.000    1.538    3.385    0.000    4.000    0.000 
#    0.000    0.000    0.000    0.000    0.000    0.000 
#
# Total GULP energy -290097.520737 kJ/mol
# GULP energy per Si atom -5578.798476 kJ/mol
# Density = 2.443230 g / cm^3
# Si number density = 24.488033 Si / 1000 Ang^3
#
#
#
# Elastic Constant Matrix: (Units=GPa)
#
#
# Indices 1 2 3 4 5 6 
#
# 1 99.1067 40.8095 14.9724 0.0000 0.0000 0.0000
# 2 40.8095 173.3253 20.8689 0.0000 0.0000 0.0000
# 3 14.9724 20.8689 48.4184 0.0000 0.0000 0.0000
# 4 0.0000 0.0000 0.0000 7.9542 0.0000 0.0000
# 5 0.0000 0.0000 0.0000 0.0000 13.1575 0.0000
# 6 0.0000 0.0000 0.0000 0.0000 0.0000 40.6170
#
#
#
# Elastic Compliance Matrix: (Units=1/GPa)
#
#
# Indices 1 2 3 4 5 6 
#
# 1 0.011456 -0.002395 -0.002510 0.000000 0.000000 0.000000
# 2 -0.002395 0.006586 -0.002098 0.000000 0.000000 0.000000
# 3 -0.002510 -0.002098 0.022334 0.000000 0.000000 0.000000
# 4 0.000000 0.000000 0.000000 0.125720 0.000000 0.000000
# 5 0.000000 0.000000 0.000000 0.000000 0.076002 0.000000
# 6 0.000000 0.000000 0.000000 0.000000 0.000000 0.024620
#
#
# Mechanical properties :
#
#
# Convention : Reuss Voigt Hill
#
# Bulk Modulus (GPa) = 37.92330 52.68355 45.30343
# Shear Modulus (GPa) = 17.27033 28.62570 22.94802
#
# Velocity S-wave (km/s) = 2.65855 3.42273 3.06455
# Velocity P-wave (km/s) = 4.99439 6.09760 5.57336
#
# Compressibility (1/GPa) = 0.02636901
#
# Stress axis : x y z
#
# Youngs Moduli (GPa) = 87.29398 151.83698 44.77523
#
# Poissons Ratio (x) = 0.36365 0.11239
# Poissons Ratio (y) = 0.20907 0.09394
# Poissons Ratio (z) = 0.21912 0.31856
#
# Static dielectric constant tensor:
#      x y z
#    x 1.903750 0.000000 0.000000 
#    y 0.000000 1.994020 0.000000 
#    z 0.000000 0.000000 2.112530 
# 
# From -- ./inp_files/13528.got.cif
#   From: 2010.05.17/outbox.cif.g08.bks.cpg/sg62_7_cif.got.tgz:13528.got - 2010.06.03 15:25:27.
