data_PCOD9462379
_publ_section_title
;
Structure prediction by ZEFSAII (Michael W. Deem and Ramdas Pophale) SiO2 
 PCOD9462379
Probable space group: P N M A
;
_chemical_formula_sum "Si O2"
_cell_formula_units_Z 48
_cell_length_a 13.937166
_cell_length_b 8.996402
_cell_length_c 24.228520
_cell_angle_alpha 90.000000
_cell_angle_beta 90.000000
_cell_angle_gamma 90.000000
_cell_volume 3037.877185
_symmetry_space_group_name_H-M "P N M A"
_symmetry_group_IT_number 62
_symmetry_cell_setting 'orthorhombic'
loop_
_space_group_symop_operation_xyz
x,y,z
1/2-x,-y,1/2+z
1/2+x,1/2-y,1/2-z
-x,1/2+y,-z
-x,-y,-z
1/2+x,y,1/2-z
1/2-x,1/2+y,1/2+z
x,1/2-y,z
loop_
_atom_site_type_symbol
_atom_site_label
_atom_site_fract_x
_atom_site_fract_y
_atom_site_fract_z
Si Si1 0.774244 0.427159 0.666548
Si Si2 0.393073 0.073045 0.064536
Si Si3 0.394119 0.073394 0.269312
Si Si4 0.097228 0.925874 0.226442
Si Si5 0.599263 0.572170 0.063307
Si Si6 0.291274 0.572478 0.164892
O O1 0.753607 0.250000 0.667963
O O2 0.679863 0.515009 0.684432
O O3 0.854268 0.454480 0.713846
O O4 0.819745 0.466455 0.607757
O O5 0.390210 0.250000 0.072574
O O6 0.500337 0.012420 0.075524
O O7 0.321460 0.993590 0.106441
O O8 0.372762 0.040762 0.000024
O O9 0.389392 0.250000 0.264728
O O10 0.501489 0.018992 0.280916
O O11 0.357852 0.999520 0.212189
O O12 0.074576 0.750000 0.223664
O O13 0.181617 0.958546 0.182687
O O14 0.581422 0.750000 0.067917
O O15 0.304666 0.750000 0.166012
#
# Coordination Sequence:
#
# PCOD9462379 Si02
#       6
#     8   8   8   8   8   8
#     4   9  18  33  51  69  94 129 163 191 226 282
#     4  10  19  30  48  75 102 126 157 200 241 276
#     4  11  21  31  48  74 100 123 152 198 246 282
#     4   9  18  32  50  70  93 126 163 194 231 284
#     4   9  18  32  50  72  99 132 163 191 232 285
#     4  10  20  34  51  69  94 130 164 193 232 286
#
# _framework density 15.800507
#
# number of rings (size 3 to 8) (size 9 to 14) (size 15 to 20)
#    0.000    2.333    0.000    4.500    0.000    6.000 
#    0.000    0.000    0.000    1.000    0.000    0.000 
#    0.000    0.000    0.000    0.000    0.000    0.000 
#
# Total GULP energy -267828.992094 kJ/mol
# GULP energy per Si atom -5579.770669 kJ/mol
# Density = 1.576454 g / cm^3
# Si number density = 15.800507 Si / 1000 Ang^3
#
#
#
# Elastic Constant Matrix: (Units=GPa)
#
#
# Indices 1 2 3 4 5 6 
#
# 1 113.6004 73.9771 67.8477 0.0000 0.0000 0.0000
# 2 73.9771 78.1589 55.0241 0.0000 0.0000 0.0000
# 3 67.8477 55.0241 91.1803 0.0000 0.0000 0.0000
# 4 0.0000 0.0000 0.0000 26.0570 0.0000 0.0000
# 5 0.0000 0.0000 0.0000 0.0000 20.2736 0.0000
# 6 0.0000 0.0000 0.0000 0.0000 0.0000 17.9286
#
#
#
# Elastic Compliance Matrix: (Units=1/GPa)
#
#
# Indices 1 2 3 4 5 6 
#
# 1 0.025746 -0.018919 -0.007741 0.000000 0.000000 0.000000
# 2 -0.018919 0.036147 -0.007736 0.000000 0.000000 0.000000
# 3 -0.007741 -0.007736 0.021396 0.000000 0.000000 0.000000
# 4 0.000000 0.000000 0.000000 0.038377 0.000000 0.000000
# 5 0.000000 0.000000 0.000000 0.000000 0.049325 0.000000
# 6 0.000000 0.000000 0.000000 0.000000 0.000000 0.055777
#
#
# Mechanical properties :
#
#
# Convention : Reuss Voigt Hill
#
# Bulk Modulus (GPa) = 68.97730 75.18193 72.07961
# Shear Modulus (GPa) = 16.64487 18.59121 17.61804
#
# Velocity S-wave (km/s) = 3.24919 3.43391 3.34283
# Velocity P-wave (km/s) = 7.60436 7.96289 7.78569
#
# Compressibility (1/GPa) = 0.01449752
#
# Stress axis : x y z
#
# Youngs Moduli (GPa) = 38.84077 27.66458 46.73845
#
# Poissons Ratio (x) = 0.52339 0.36180
# Poissons Ratio (y) = 0.73483 0.36156
# Poissons Ratio (z) = 0.30066 0.21401
#
# Static dielectric constant tensor:
#      x y z
#    x 1.501900 0.000000 0.000000 
#    y 0.000000 1.525120 0.000000 
#    z 0.000000 0.000000 1.525850 
# 
# From -- ./inp_files/26889.got.cif
#   From: 2010.05.17/outbox.cif.g08.bks.cpg/sg62_14_cif.got.tgz:26889.got - 2010.06.03 15:25:27.
