data_PCOD9462640
_publ_section_title
;
Structure prediction by ZEFSAII (Michael W. Deem and Ramdas Pophale) SiO2 
 PCOD9462640
Probable space group: P N M A
;
_chemical_formula_sum "Si O2"
_cell_formula_units_Z 56
_cell_length_a 8.658406
_cell_length_b 15.232655
_cell_length_c 19.174188
_cell_angle_alpha 90.000000
_cell_angle_beta 90.000000
_cell_angle_gamma 90.000000
_cell_volume 2528.893462
_symmetry_space_group_name_H-M "P N M A"
_symmetry_group_IT_number 62
_symmetry_cell_setting 'orthorhombic'
loop_
_space_group_symop_operation_xyz
x,y,z
1/2-x,-y,1/2+z
1/2+x,1/2-y,1/2-z
-x,1/2+y,-z
-x,-y,-z
1/2+x,y,1/2-z
1/2-x,1/2+y,1/2+z
x,1/2-y,z
loop_
_atom_site_type_symbol
_atom_site_label
_atom_site_fract_x
_atom_site_fract_y
_atom_site_fract_z
Si Si1 0.490872 0.152412 0.176840
Si Si2 0.774774 0.567326 0.754738
Si Si3 0.164192 0.624673 0.284945
Si Si4 0.165393 0.852761 0.529890
Si Si5 0.571846 0.350122 0.904694
Si Si6 0.510879 0.156143 0.644133
Si Si7 0.338616 0.498174 0.594985
O O1 0.431263 0.250000 0.190201
O O2 0.401506 0.084543 0.225943
O O3 0.662829 0.143101 0.204697
O O4 0.449257 0.134245 0.096804
O O5 0.806964 0.478553 0.714948
O O6 0.844185 0.552494 0.832203
O O7 0.016838 0.647684 0.331359
O O8 0.322719 0.658066 0.318422
O O9 0.117915 0.650941 0.206258
O O10 0.216807 0.750000 0.531108
O O11 0.062075 0.865963 0.461778
O O12 0.298272 0.925753 0.539545
O O13 0.630963 0.250000 0.916221
O O14 0.696377 0.427968 0.907808
O O15 0.494234 0.250000 0.606890
O O16 0.482519 0.069201 0.598047
#
# Coordination Sequence:
#
# PCOD9462640 Si02
#       7
#     8   8   8   8   8   8   8
#     4  10  19  34  55  80 108 140 182 233 280 326
#     4  10  19  32  50  78 108 140 177 221 278 334
#     4  11  21  34  53  79 113 146 180 225 278 339
#     4   9  20  37  59  83 109 145 191 232 272 329
#     4  11  21  36  59  84 111 149 189 226 272 332
#     4  11  21  34  53  80 112 146 183 228 281 338
#     4  10  20  35  54  80 109 142 179 227 276 326
#
# _framework density 22.144072999999999
#
# number of rings (size 3 to 8) (size 9 to 14) (size 15 to 20)
#    0.000    1.714    0.000    7.714    0.000    0.571 
#    0.000    0.714    0.000    3.429    0.000   14.000 
#    0.000    0.000    0.000    0.000    0.000    0.000 
#
# Total GULP energy -312315.114435 kJ/mol
# GULP energy per Si atom -5577.055615 kJ/mol
# Density = 2.209367 g / cm^3
# Si number density = 22.144073 Si / 1000 Ang^3
#
#
#
# Elastic Constant Matrix: (Units=GPa)
#
#
# Indices 1 2 3 4 5 6 
#
# 1 32.4360 3.6108 9.0466 0.0000 0.0000 0.0000
# 2 3.6108 86.2470 24.9752 0.0000 0.0000 0.0000
# 3 9.0466 24.9752 65.6648 0.0000 0.0000 0.0000
# 4 0.0000 0.0000 0.0000 26.5007 0.0000 0.0000
# 5 0.0000 0.0000 0.0000 0.0000 34.7527 0.0000
# 6 0.0000 0.0000 0.0000 0.0000 0.0000 -33.7462
#
#
#
# Elastic Compliance Matrix: (Units=1/GPa)
#
#
# Indices 1 2 3 4 5 6 
#
# 1 0.032062 -0.000071 -0.004390 0.000000 0.000000 0.000000
# 2 -0.000071 0.013030 -0.004946 0.000000 0.000000 0.000000
# 3 -0.004390 -0.004946 0.017715 0.000000 0.000000 0.000000
# 4 0.000000 0.000000 0.000000 0.037735 0.000000 0.000000
# 5 0.000000 0.000000 0.000000 0.000000 0.028775 0.000000
# 6 0.000000 0.000000 0.000000 0.000000 0.000000 -0.029633
#
#
# Mechanical properties :
#
#
# Convention : Reuss Voigt Hill
#
# Bulk Modulus (GPa) = 22.73112 28.84588 25.78850
# Shear Modulus (GPa) = 37.54812 15.28244 26.41528
#
# Velocity S-wave (km/s) = 4.12227 2.62990 3.45756
# Velocity P-wave (km/s) = 5.73976 4.71980 5.25459
#
# Compressibility (1/GPa) = 0.04399256
#
# Stress axis : x y z
#
# Youngs Moduli (GPa) = 31.18926 76.74691 56.44970
#
# Poissons Ratio (x) = 0.00545 0.24783
# Poissons Ratio (y) = 0.00221 0.27920
# Poissons Ratio (z) = 0.13693 0.37959
#
# Static dielectric constant tensor:
#      x y z
#    x 1.842900 0.000000 0.000000 
#    y 0.000000 1.853180 0.000000 
#    z 0.000000 0.000000 1.779000 
# 
# From -- ./inp_files/25992.got.cif
#   From: 2010.05.17/outbox.cif.g08.bks.cpg/sg62_13_cif.got.tgz:25992.got - 2010.06.03 15:25:27.
