data_PCOD9462246
_publ_section_title
;
Structure prediction by ZEFSAII (Michael W. Deem and Ramdas Pophale) SiO2 
 PCOD9462246
Probable space group: P N M A
;
_chemical_formula_sum "Si O2"
_cell_formula_units_Z 48
_cell_length_a 9.914521
_cell_length_b 18.370034
_cell_length_c 11.857001
_cell_angle_alpha 90.000000
_cell_angle_beta 90.000000
_cell_angle_gamma 90.000000
_cell_volume 2159.516634
_symmetry_space_group_name_H-M "P N M A"
_symmetry_group_IT_number 62
_symmetry_cell_setting 'orthorhombic'
loop_
_space_group_symop_operation_xyz
x,y,z
1/2-x,-y,1/2+z
1/2+x,1/2-y,1/2-z
-x,1/2+y,-z
-x,-y,-z
1/2+x,y,1/2-z
1/2-x,1/2+y,1/2+z
x,1/2-y,z
loop_
_atom_site_type_symbol
_atom_site_label
_atom_site_fract_x
_atom_site_fract_y
_atom_site_fract_z
Si Si1 0.457829 0.750000 0.066943
Si Si2 0.769689 0.750000 0.062505
Si Si3 0.997736 0.494520 0.203896
Si Si4 0.339910 0.639399 0.241599
Si Si5 0.023288 0.750000 0.950872
Si Si6 0.285551 0.750000 0.834609
Si Si7 0.856946 0.103437 0.939644
Si Si8 0.226396 0.411302 0.334452
O O1 0.613367 0.750000 0.032877
O O2 0.426833 0.684092 0.151446
O O3 0.357003 0.750000 0.959857
O O4 0.811359 0.817848 0.142901
O O5 0.863038 0.750000 0.952147
O O6 0.067821 0.528711 0.092126
O O7 0.117423 0.466359 0.283857
O O8 0.911118 0.562935 0.244672
O O9 0.882073 0.432959 0.192188
O O10 0.198029 0.629659 0.180190
O O11 0.064872 0.674145 0.012727
O O12 0.121914 0.750000 0.845012
O O13 0.314827 0.669112 0.790692
O O14 0.737041 0.088983 0.029147
#
# Coordination Sequence:
#
# PCOD9462246 Si02
#       8
#     4   4   8   8   4   4   8   8
#     4  11  21  37  64 100 130 172 211 256 331 393
#     4  11  22  30  62 107 134 162 206 261 324 413
#     4  12  24  42  66 102 130 171 218 268 334 399
#     4  11  21  36  64  98 138 166 203 259 333 400
#     4  10  18  38  65  92 128 174 201 256 335 391
#     4  10  23  49  67  81 126 178 226 271 322 381
#     4  11  21  43  64  95 135 175 209 263 332 398
#     4  11  26  45  69  89 126 175 222 275 330 380
#
# _framework density 22.227198000000001
#
# number of rings (size 3 to 8) (size 9 to 14) (size 15 to 20)
#    0.000    1.000    6.667    2.000    2.333    1.333 
#    0.000    3.333    0.000    0.000    0.000    1.167 
#    0.000    0.000    0.000    0.000    0.000    0.000 
#
# Total GULP energy -267634.846561 kJ/mol
# GULP energy per Si atom -5575.725970 kJ/mol
# Density = 2.217661 g / cm^3
# Si number density = 22.227198 Si / 1000 Ang^3
#
#
#
# Elastic Constant Matrix: (Units=GPa)
#
#
# Indices 1 2 3 4 5 6 
#
# 1 62.8771 13.9362 -7.7984 0.0000 0.0000 0.0000
# 2 13.9362 124.1275 26.6730 0.0000 0.0000 0.0000
# 3 -7.7984 26.6730 27.0269 0.0000 0.0000 0.0000
# 4 0.0000 0.0000 0.0000 15.7855 0.0000 0.0000
# 5 0.0000 0.0000 0.0000 0.0000 22.5647 0.0000
# 6 0.0000 0.0000 0.0000 0.0000 0.0000 29.0122
#
#
#
# Elastic Compliance Matrix: (Units=1/GPa)
#
#
# Indices 1 2 3 4 5 6 
#
# 1 0.017908 -0.003961 0.009076 0.000000 0.000000 0.000000
# 2 -0.003961 0.011101 -0.012098 0.000000 0.000000 0.000000
# 3 0.009076 -0.012098 0.051559 0.000000 0.000000 0.000000
# 4 0.000000 0.000000 0.000000 0.063349 0.000000 0.000000
# 5 0.000000 0.000000 0.000000 0.000000 0.044317 0.000000
# 6 0.000000 0.000000 0.000000 0.000000 0.000000 0.034468
#
#
# Mechanical properties :
#
#
# Convention : Reuss Voigt Hill
#
# Bulk Modulus (GPa) = 15.01477 31.07256 23.04366
# Shear Modulus (GPa) = 19.31488 25.55385 22.43436
#
# Velocity S-wave (km/s) = 2.95104 3.39435 3.18043
# Velocity P-wave (km/s) = 4.28734 5.41960 4.88637
#
# Compressibility (1/GPa) = 0.06660110
#
# Stress axis : x y z
#
# Youngs Moduli (GPa) = 55.84220 90.08507 19.39537
#
# Poissons Ratio (x) = 0.35681 -0.17603
# Poissons Ratio (y) = 0.22118 0.23465
# Poissons Ratio (z) = -0.50683 1.08986
#
# Static dielectric constant tensor:
#      x y z
#    x 1.839740 0.000000 0.000000 
#    y 0.000000 1.899770 0.000000 
#    z 0.000000 0.000000 1.847460 
# 
# From -- ./inp_files/17032.got.cif
#   From: 2010.05.17/outbox.cif.g08.bks.cpg/sg62_9_cif.got.tgz:17032.got - 2010.06.03 15:25:27.
