data_PCOD9462976
_publ_section_title
;
Structure prediction by ZEFSAII (Michael W. Deem and Ramdas Pophale) SiO2 
 PCOD9462976
Probable space group: P N M A
;
_chemical_formula_sum "Si O2"
_cell_formula_units_Z 64
_cell_length_a 16.534145
_cell_length_b 8.034517
_cell_length_c 20.029412
_cell_angle_alpha 90.000000
_cell_angle_beta 90.000000
_cell_angle_gamma 90.000000
_cell_volume 2660.784586
_symmetry_space_group_name_H-M "P N M A"
_symmetry_group_IT_number 62
_symmetry_cell_setting 'orthorhombic'
loop_
_space_group_symop_operation_xyz
x,y,z
1/2-x,-y,1/2+z
1/2+x,1/2-y,1/2-z
-x,1/2+y,-z
-x,-y,-z
1/2+x,y,1/2-z
1/2-x,1/2+y,1/2+z
x,1/2-y,z
loop_
_atom_site_type_symbol
_atom_site_label
_atom_site_fract_x
_atom_site_fract_y
_atom_site_fract_z
Si Si1 0.839875 0.554367 0.784079
Si Si2 0.790105 0.048025 0.111045
Si Si3 0.378815 0.055542 0.514585
Si Si4 0.058302 0.443746 0.626176
Si Si5 0.378692 0.448994 0.865526
Si Si6 0.016269 0.942182 0.130812
Si Si7 0.112831 0.941556 0.769243
Si Si8 0.230063 0.557156 0.599415
O O1 0.856914 0.750000 0.795379
O O2 0.855831 0.521692 0.706845
O O3 0.903319 0.443410 0.823866
O O4 0.755022 0.523780 0.822751
O O5 0.792585 0.250000 0.112312
O O6 0.813345 0.990011 0.185790
O O7 0.699890 0.994533 0.091277
O O8 0.855818 0.984696 0.057538
O O9 0.397594 0.250000 0.507073
O O10 0.450057 0.984938 0.560998
O O11 0.294018 0.041662 0.554931
O O12 0.058680 0.250000 0.609333
O O13 0.077513 0.465171 0.705320
O O14 0.135630 0.523103 0.590369
O O15 0.967798 0.511252 0.613483
O O16 0.384032 0.250000 0.860241
O O17 0.989009 0.750000 0.124996
O O18 0.955655 0.052540 0.173390
O O19 0.128548 0.750000 0.749367
O O20 0.246070 0.750000 0.585605
#
# Coordination Sequence:
#
# PCOD9462976 Si02
#       8
#     8   8   8   8   8   8   8   8
#     4  10  19  33  55  82 113 147 182 227 284 341
#     4  10  23  41  59  82 113 153 196 237 284 339
#     4   9  20  40  61  81 113 154 196 238 281 334
#     4  11  23  38  57  85 118 150 187 233 288 346
#     4  11  23  37  56  83 114 148 189 236 287 344
#     4  10  19  33  56  85 115 151 189 230 280 337
#     4  11  22  36  57  87 121 152 188 235 287 344
#     4  10  21  36  58  87 113 144 190 237 283 339
#
# _framework density 24.053056000000002
#
# number of rings (size 3 to 8) (size 9 to 14) (size 15 to 20)
#    0.000    1.750    1.250    3.000    0.000    8.500 
#    0.000    0.625    0.000    0.000    0.000    0.000 
#    0.000    0.000    0.000    0.000    0.000    0.000 
#
# Total GULP energy -357528.496399 kJ/mol
# GULP energy per Si atom -5586.382756 kJ/mol
# Density = 2.399831 g / cm^3
# Si number density = 24.053056 Si / 1000 Ang^3
#
#
#
# Elastic Constant Matrix: (Units=GPa)
#
#
# Indices 1 2 3 4 5 6 
#
# 1 90.1510 3.2669 -31.2955 0.0000 0.0000 0.0000
# 2 3.2669 54.8563 -7.8924 0.0000 0.0000 0.0000
# 3 -31.2955 -7.8924 28.1880 0.0000 0.0000 0.0000
# 4 0.0000 0.0000 0.0000 13.8624 0.0000 0.0000
# 5 0.0000 0.0000 0.0000 0.0000 33.6799 0.0000
# 6 0.0000 0.0000 0.0000 0.0000 0.0000 23.6468
#
#
#
# Elastic Compliance Matrix: (Units=1/GPa)
#
#
# Indices 1 2 3 4 5 6 
#
# 1 0.018238 0.001904 0.020781 0.000000 0.000000 0.000000
# 2 0.001904 0.019193 0.007488 0.000000 0.000000 0.000000
# 3 0.020781 0.007488 0.060645 0.000000 0.000000 0.000000
# 4 0.000000 0.000000 0.000000 0.072138 0.000000 0.000000
# 5 0.000000 0.000000 0.000000 0.000000 0.029691 0.000000
# 6 0.000000 0.000000 0.000000 0.000000 0.000000 0.042289
#
#
# Mechanical properties :
#
#
# Convention : Reuss Voigt Hill
#
# Bulk Modulus (GPa) = 6.31230 11.26149 8.78690
# Shear Modulus (GPa) = 21.30785 28.17892 24.74338
#
# Velocity S-wave (km/s) = 2.97958 3.42648 3.21082
# Velocity P-wave (km/s) = 3.80358 4.51070 4.17215
#
# Compressibility (1/GPa) = 0.15842077
#
# Stress axis : x y z
#
# Youngs Moduli (GPa) = 54.83180 52.10143 16.48948
#
# Poissons Ratio (x) = -0.09919 -0.34267
# Poissons Ratio (y) = -0.10439 -0.12347
# Poissons Ratio (z) = -1.13947 -0.39012
#
# Static dielectric constant tensor:
#      x y z
#    x 2.006620 0.000000 0.000000 
#    y 0.000000 -1.475580 0.000000 
#    z 0.000000 0.000000 1.969430 
# 
# From -- ./inp_files/29922.got.cif
#   From: 2010.05.17/outbox.cif.g08.bks.cpg/sg62_15_cif.got.tgz:29922.got - 2010.06.03 15:25:27.
