data_PCOD9462858
_publ_section_title
;
Structure prediction by ZEFSAII (Michael W. Deem and Ramdas Pophale) SiO2 
 PCOD9462858
Probable space group: P N M A
;
_chemical_formula_sum "Si O2"
_cell_formula_units_Z 40
_cell_length_a 18.136706
_cell_length_b 17.480766
_cell_length_c 5.180457
_cell_angle_alpha 90.000000
_cell_angle_beta 90.000000
_cell_angle_gamma 90.000000
_cell_volume 1642.430289
_symmetry_space_group_name_H-M "P N M A"
_symmetry_group_IT_number 62
_symmetry_cell_setting 'orthorhombic'
loop_
_space_group_symop_operation_xyz
x,y,z
1/2-x,-y,1/2+z
1/2+x,1/2-y,1/2-z
-x,1/2+y,-z
-x,-y,-z
1/2+x,y,1/2-z
1/2-x,1/2+y,1/2+z
x,1/2-y,z
loop_
_atom_site_type_symbol
_atom_site_label
_atom_site_fract_x
_atom_site_fract_y
_atom_site_fract_z
Si Si1 0.580455 0.535091 0.459566
Si Si2 0.466078 0.337343 0.861386
Si Si3 0.801175 0.657313 0.124200
Si Si4 0.887932 0.842486 0.629329
Si Si5 0.656622 0.930916 0.959618
O O1 0.500000 0.500000 0.500000
O O2 0.556903 0.622802 0.403203
O O3 0.638213 0.529208 0.690870
O O4 0.622573 0.517448 0.190563
O O5 0.479944 0.250000 0.814694
O O6 0.536669 0.373079 0.004552
O O7 0.395884 0.355923 0.036476
O O8 0.785343 0.750000 0.102084
O O9 0.867799 0.639711 0.924403
O O10 0.735407 0.602601 0.031754
O O11 0.823683 0.641983 0.419964
O O12 0.895548 0.750000 0.630007
#
# Coordination Sequence:
#
# PCOD9462858 Si02
#       5
#     8   8   8   8   8
#     4  10  22  38  59  84 113 155 191 237 293 343
#     4   9  21  35  58  89 116 150 197 244 285 339
#     4  10  19  33  52  82 119 149 181 232 296 342
#     4   9  19  32  50  78 118 154 180 225 293 347
#     4  10  21  35  59  83 110 147 195 242 278 340
#
# _framework density 24.354153
#
# number of rings (size 3 to 8) (size 9 to 14) (size 15 to 20)
#    1.200    1.200    0.000    2.400    2.800    1.600 
#    0.000    0.000    0.000    4.800    0.000    0.000 
#    0.000    0.000    0.000    0.000    0.000    0.000 
#
# Total GULP energy -223282.011979 kJ/mol
# GULP energy per Si atom -5582.050299 kJ/mol
# Density = 2.429872 g / cm^3
# Si number density = 24.354153 Si / 1000 Ang^3
#
#
#
# Elastic Constant Matrix: (Units=GPa)
#
#
# Indices 1 2 3 4 5 6 
#
# 1 84.0903 -4.5753 -0.1699 0.0000 0.0000 0.0000
# 2 -4.5753 62.1272 9.3533 0.0000 0.0000 0.0000
# 3 -0.1699 9.3533 129.5935 0.0000 0.0000 0.0000
# 4 0.0000 0.0000 0.0000 31.9765 0.0000 0.0000
# 5 0.0000 0.0000 0.0000 0.0000 23.9753 0.0000
# 6 0.0000 0.0000 0.0000 0.0000 0.0000 39.7720
#
#
#
# Elastic Compliance Matrix: (Units=1/GPa)
#
#
# Indices 1 2 3 4 5 6 
#
# 1 0.011940 0.000887 -0.000048 0.000000 0.000000 0.000000
# 2 0.000887 0.016339 -0.001178 0.000000 0.000000 0.000000
# 3 -0.000048 -0.001178 0.007801 0.000000 0.000000 0.000000
# 4 0.000000 0.000000 0.000000 0.031273 0.000000 0.000000
# 5 0.000000 0.000000 0.000000 0.000000 0.041710 0.000000
# 6 0.000000 0.000000 0.000000 0.000000 0.000000 0.025143
#
#
# Mechanical properties :
#
#
# Convention : Reuss Voigt Hill
#
# Bulk Modulus (GPa) = 28.24813 31.66968 29.95890
# Shear Modulus (GPa) = 34.08643 37.22495 35.65569
#
# Velocity S-wave (km/s) = 3.74520 3.91383 3.83044
# Velocity P-wave (km/s) = 5.50692 5.78412 5.64722
#
# Compressibility (1/GPa) = 0.03540058
#
# Stress axis : x y z
#
# Youngs Moduli (GPa) = 83.75126 61.20450 128.18211
#
# Poissons Ratio (x) = -0.05426 0.00620
# Poissons Ratio (y) = -0.07425 0.15101
# Poissons Ratio (z) = 0.00405 0.07210
#
# Static dielectric constant tensor:
#      x y z
#    x 1.923230 0.000000 0.000000 
#    y 0.000000 2.038440 0.000000 
#    z 0.000000 0.000000 2.002080 
# 
# From -- ./inp_files/1630.got.cif
#   From: 2010.05.17/outbox.cif.g08.bks.cpg/sg62_1_cif.got.tgz:1630.got - 2010.06.03 15:25:27.
