data_PCOD9462130
_publ_section_title
;
Structure prediction by ZEFSAII (Michael W. Deem and Ramdas Pophale) SiO2 
 PCOD9462130
Probable space group: P N M A
;
_chemical_formula_sum "Si O2"
_cell_formula_units_Z 40
_cell_length_a 8.741313
_cell_length_b 24.769690
_cell_length_c 10.338575
_cell_angle_alpha 90.000000
_cell_angle_beta 90.000000
_cell_angle_gamma 90.000000
_cell_volume 2238.504260
_symmetry_space_group_name_H-M "P N M A"
_symmetry_group_IT_number 62
_symmetry_cell_setting 'orthorhombic'
loop_
_space_group_symop_operation_xyz
x,y,z
1/2-x,-y,1/2+z
1/2+x,1/2-y,1/2-z
-x,1/2+y,-z
-x,-y,-z
1/2+x,y,1/2-z
1/2-x,1/2+y,1/2+z
x,1/2-y,z
loop_
_atom_site_type_symbol
_atom_site_label
_atom_site_fract_x
_atom_site_fract_y
_atom_site_fract_z
Si Si1 0.903906 0.250000 0.058638
Si Si2 0.066753 0.369884 0.300942
Si Si3 0.412173 0.750000 0.795517
Si Si4 0.090564 0.526609 0.117348
Si Si5 0.926598 0.018127 0.366751
Si Si6 0.388003 0.131001 0.452879
O O1 0.764629 0.250000 0.163344
O O2 0.887850 0.307874 0.992503
O O3 0.058793 0.250000 0.142197
O O4 0.022445 0.308174 0.339424
O O5 0.237797 0.377005 0.359973
O O6 0.965806 0.418819 0.353412
O O7 0.032662 0.373716 0.146134
O O8 0.249455 0.495652 0.132721
O O9 0.999800 0.515595 0.248742
O O10 0.114038 0.587621 0.067168
O O11 0.000000 0.500000 0.000000
O O12 0.000000 0.000000 0.500000
#
# Coordination Sequence:
#
# PCOD9462130 Si02
#       6
#     4   8   4   8   8   8
#     4   8  16  30  52  79 111 148 184 238 278 338
#     4  10  18  34  55  84 117 144 186 234 280 338
#     4   8  16  28  52  81 109 146 178 228 286 326
#     4  12  24  39  58  83 113 156 189 236 292 344
#     4  12  23  38  57  84 120 152 188 234 286 345
#     4  10  19  34  56  84 116 149 193 232 291 338
#
# _framework density 17.869076
#
# number of rings (size 3 to 8) (size 9 to 14) (size 15 to 20)
#    0.000    1.600    4.000    2.400    0.000    0.000 
#    0.000    0.000    0.000    2.400    0.000    0.000 
#    0.000    0.000    0.000    0.000    0.000    0.000 
#
# Total GULP energy -222736.052966 kJ/mol
# GULP energy per Si atom -5568.401324 kJ/mol
# Density = 1.782841 g / cm^3
# Si number density = 17.869076 Si / 1000 Ang^3
#
#
#
# Elastic Constant Matrix: (Units=GPa)
#
#
# Indices 1 2 3 4 5 6 
#
# 1 84.8001 40.0772 41.1838 0.0000 0.0000 0.0000
# 2 40.0772 175.3975 50.5605 0.0000 0.0000 0.0000
# 3 41.1838 50.5605 95.5944 0.0000 0.0000 0.0000
# 4 0.0000 0.0000 0.0000 29.1228 0.0000 0.0000
# 5 0.0000 0.0000 0.0000 0.0000 29.4915 0.0000
# 6 0.0000 0.0000 0.0000 0.0000 0.0000 21.2251
#
#
#
# Elastic Compliance Matrix: (Units=1/GPa)
#
#
# Indices 1 2 3 4 5 6 
#
# 1 0.015431 -0.001899 -0.005643 0.000000 0.000000 0.000000
# 2 -0.001899 0.006961 -0.002863 0.000000 0.000000 0.000000
# 3 -0.005643 -0.002863 0.014407 0.000000 0.000000 0.000000
# 4 0.000000 0.000000 0.000000 0.034337 0.000000 0.000000
# 5 0.000000 0.000000 0.000000 0.000000 0.033908 0.000000
# 6 0.000000 0.000000 0.000000 0.000000 0.000000 0.047114
#
#
# Mechanical properties :
#
#
# Convention : Reuss Voigt Hill
#
# Bulk Modulus (GPa) = 62.55360 68.82610 65.68985
# Shear Modulus (GPa) = 28.04296 30.89925 29.47110
#
# Velocity S-wave (km/s) = 3.96581 4.16288 4.06554
# Velocity P-wave (km/s) = 7.48684 7.85535 7.67331
#
# Compressibility (1/GPa) = 0.01598629
#
# Stress axis : x y z
#
# Youngs Moduli (GPa) = 64.80590 143.66445 69.41257
#
# Poissons Ratio (x) = 0.27282 0.39172
# Poissons Ratio (y) = 0.12307 0.19876
# Poissons Ratio (z) = 0.36573 0.41137
#
# Static dielectric constant tensor:
#      x y z
#    x 1.848830 0.000000 0.000000 
#    y 0.000000 1.670160 0.000000 
#    z 0.000000 0.000000 1.574500 
# 
# From -- ./inp_files/4359.got.cif
#   From: 2010.05.17/outbox.cif.g08.bks.cpg/sg62_3_cif.got.tgz:4359.got - 2010.06.03 15:25:27.
