data_PCOD9462926
_publ_section_title
;
Structure prediction by ZEFSAII (Michael W. Deem and Ramdas Pophale) SiO2 
 PCOD9462926
Probable space group: P N M A
;
_chemical_formula_sum "Si O2"
_cell_formula_units_Z 64
_cell_length_a 22.734738
_cell_length_b 13.891465
_cell_length_c 10.344105
_cell_angle_alpha 90.000000
_cell_angle_beta 90.000000
_cell_angle_gamma 90.000000
_cell_volume 3266.863006
_symmetry_space_group_name_H-M "P N M A"
_symmetry_group_IT_number 62
_symmetry_cell_setting 'orthorhombic'
loop_
_space_group_symop_operation_xyz
x,y,z
1/2-x,-y,1/2+z
1/2+x,1/2-y,1/2-z
-x,1/2+y,-z
-x,-y,-z
1/2+x,y,1/2-z
1/2-x,1/2+y,1/2+z
x,1/2-y,z
loop_
_atom_site_type_symbol
_atom_site_label
_atom_site_fract_x
_atom_site_fract_y
_atom_site_fract_z
Si Si1 0.077590 0.942372 0.784229
Si Si2 0.342937 0.001742 0.932178
Si Si3 0.312119 0.540895 0.197339
Si Si4 0.678954 0.473174 0.345432
Si Si5 0.592243 0.860115 0.437366
Si Si6 0.482002 0.859022 0.241906
Si Si7 0.949392 0.362676 0.488202
Si Si8 0.728236 0.141349 0.565176
O O1 0.045030 0.893666 0.661727
O O2 0.147004 0.953882 0.750706
O O3 0.069171 0.888928 0.919822
O O4 0.057150 0.053097 0.789838
O O5 0.346398 0.949357 0.795332
O O6 0.284828 0.070366 0.932796
O O7 0.397780 0.071339 0.954626
O O8 0.337611 0.934035 0.057096
O O9 0.246002 0.505137 0.176941
O O10 0.306749 0.623724 0.302312
O O11 0.641924 0.562624 0.400698
O O12 0.684702 0.389719 0.450146
O O13 0.614337 0.750000 0.439989
O O14 0.541426 0.864375 0.328641
O O15 0.458926 0.750000 0.257186
O O16 0.497416 0.874685 0.089950
O O17 0.933344 0.250000 0.492544
O O18 0.748470 0.250000 0.551247
#
# Coordination Sequence:
#
# PCOD9462926 Si02
#       8
#     8   8   8   8   8   8   8   8
#     4  11  21  38  57  85 117 154 180 238 293 339
#     4   9  18  33  57  78 112 145 187 238 282 324
#     4   9  20  34  56  81 111 148 188 228 281 341
#     4  10  19  36  57  82 116 146 189 239 283 332
#     4  11  22  38  60  87 111 144 194 243 287 335
#     4  10  22  38  59  85 111 146 194 234 282 351
#     4  10  19  34  58  87 110 141 190 236 282 332
#     4  10  19  33  54  80 113 153 190 225 281 348
#
# _framework density 19.590658000000001
#
# number of rings (size 3 to 8) (size 9 to 14) (size 15 to 20)
#    0.000    2.000    2.500    1.500    0.000    2.500 
#    0.000    1.250    0.000    1.500    0.000    0.000 
#    0.000    0.000    0.000    0.000    0.000    0.000 
#
# Total GULP energy -356815.078859 kJ/mol
# GULP energy per Si atom -5575.235607 kJ/mol
# Density = 1.954607 g / cm^3
# Si number density = 19.590658 Si / 1000 Ang^3
#
#
#
# Elastic Constant Matrix: (Units=GPa)
#
#
# Indices 1 2 3 4 5 6 
#
# 1 23.1138 7.8260 -1.1410 0.0000 0.0000 0.0000
# 2 7.8260 32.5664 23.4998 0.0000 0.0000 0.0000
# 3 -1.1410 23.4998 125.8604 0.0000 0.0000 0.0000
# 4 0.0000 0.0000 0.0000 15.8270 0.0000 0.0000
# 5 0.0000 0.0000 0.0000 0.0000 9.3092 0.0000
# 6 0.0000 0.0000 0.0000 0.0000 0.0000 19.5072
#
#
#
# Elastic Compliance Matrix: (Units=1/GPa)
#
#
# Indices 1 2 3 4 5 6 
#
# 1 0.048054 -0.013709 0.002995 0.000000 0.000000 0.000000
# 2 -0.013709 0.039399 -0.007481 0.000000 0.000000 0.000000
# 3 0.002995 -0.007481 0.009369 0.000000 0.000000 0.000000
# 4 0.000000 0.000000 0.000000 0.063183 0.000000 0.000000
# 5 0.000000 0.000000 0.000000 0.000000 0.107420 0.000000
# 6 0.000000 0.000000 0.000000 0.000000 0.000000 0.051263
#
#
# Mechanical properties :
#
#
# Convention : Reuss Voigt Hill
#
# Bulk Modulus (GPa) = 16.54727 26.87893 21.71310
# Shear Modulus (GPa) = 13.32545 19.01907 16.17226
#
# Velocity S-wave (km/s) = 2.61088 3.11918 2.87628
# Velocity P-wave (km/s) = 4.18972 5.16938 4.70512
#
# Compressibility (1/GPa) = 0.06043293
#
# Stress axis : x y z
#
# Youngs Moduli (GPa) = 20.81004 25.38136 106.73280
#
# Poissons Ratio (x) = 0.34796 -0.31970
# Poissons Ratio (y) = 0.28529 0.79843
# Poissons Ratio (z) = -0.06233 0.18987
#
# Static dielectric constant tensor:
#      x y z
#    x 1.712810 0.000000 0.000000 
#    y 0.000000 1.647430 0.000000 
#    z 0.000000 0.000000 1.746650 
# 
# From -- ./inp_files/9507.got.cif
#   From: 2010.05.17/outbox.cif.g08.bks.cpg/sg62_5_cif.got.tgz:9507.got - 2010.06.03 15:25:27.
