data_PCOD9462827
_publ_section_title
;
Structure prediction by ZEFSAII (Michael W. Deem and Ramdas Pophale) SiO2 
 PCOD9462827
Probable space group: P N M A
;
_chemical_formula_sum "Si O2"
_cell_formula_units_Z 48
_cell_length_a 5.145048
_cell_length_b 21.889330
_cell_length_c 23.713792
_cell_angle_alpha 90.000000
_cell_angle_beta 90.000000
_cell_angle_gamma 90.000000
_cell_volume 2670.686467
_symmetry_space_group_name_H-M "P N M A"
_symmetry_group_IT_number 62
_symmetry_cell_setting 'orthorhombic'
loop_
_space_group_symop_operation_xyz
x,y,z
1/2-x,-y,1/2+z
1/2+x,1/2-y,1/2-z
-x,1/2+y,-z
-x,-y,-z
1/2+x,y,1/2-z
1/2-x,1/2+y,1/2+z
x,1/2-y,z
loop_
_atom_site_type_symbol
_atom_site_label
_atom_site_fract_x
_atom_site_fract_y
_atom_site_fract_z
Si Si1 0.612786 0.162768 0.720778
Si Si2 0.696499 0.555416 0.990286
Si Si3 0.954521 0.018602 0.903187
Si Si4 0.326094 0.181889 0.961831
Si Si5 0.829301 0.515489 0.216816
Si Si6 0.683632 0.653072 0.392706
O O1 0.907608 0.183071 0.731269
O O2 0.456287 0.176410 0.663791
O O3 0.651214 0.089317 0.720631
O O4 0.602691 0.624626 0.998038
O O5 0.889234 0.544271 0.042959
O O6 0.500000 0.500000 0.000000
O O7 0.812835 0.539922 0.929250
O O8 0.787280 0.078886 0.886555
O O9 0.122461 0.001846 0.848760
O O10 0.346194 0.250000 0.985874
O O11 0.535168 0.176921 0.910792
O O12 0.032031 0.171232 0.939616
O O13 0.061068 0.493491 0.257084
#
# Coordination Sequence:
#
# PCOD9462827 Si02
#       6
#     8   8   8   8   8   8
#     4   9  16  27  45  68  89 120 165 208 245 281
#     4  10  19  33  53  75 103 134 170 213 256 301
#     4   9  19  31  50  77 103 133 171 208 252 305
#     4  11  22  35  51  71  97 130 165 204 252 306
#     4   9  18  28  44  70 103 133 159 200 253 298
#     4  10  19  33  51  69  96 131 165 205 248 293
#
# _framework density 17.972906999999999
#
# number of rings (size 3 to 8) (size 9 to 14) (size 15 to 20)
#    0.000    2.333    1.667    1.500    2.333    4.000 
#    0.000    0.000    0.000   10.000    0.000    0.000 
#    0.000    1.333    0.000    0.000    0.000    0.000 
#
# Total GULP energy -267365.313903 kJ/mol
# GULP energy per Si atom -5570.110706 kJ/mol
# Density = 1.793200 g / cm^3
# Si number density = 17.972907 Si / 1000 Ang^3
#
#
#
# Elastic Constant Matrix: (Units=GPa)
#
#
# Indices 1 2 3 4 5 6 
#
# 1 36.7795 -1.6473 -16.9615 0.0000 0.0000 0.0000
# 2 -1.6473 94.4538 15.1099 0.0000 0.0000 0.0000
# 3 -16.9615 15.1099 33.9084 0.0000 0.0000 0.0000
# 4 0.0000 0.0000 0.0000 -10.6121 0.0000 0.0000
# 5 0.0000 0.0000 0.0000 0.0000 13.4111 0.0000
# 6 0.0000 0.0000 0.0000 0.0000 0.0000 -8.3521
#
#
#
# Elastic Compliance Matrix: (Units=1/GPa)
#
#
# Indices 1 2 3 4 5 6 
#
# 1 0.035846 -0.002415 0.019007 0.000000 0.000000 0.000000
# 2 -0.002415 0.011563 -0.006361 0.000000 0.000000 0.000000
# 3 0.019007 -0.006361 0.041833 0.000000 0.000000 0.000000
# 4 0.000000 0.000000 0.000000 -0.094232 0.000000 0.000000
# 5 0.000000 0.000000 0.000000 0.000000 0.074565 0.000000
# 6 0.000000 0.000000 0.000000 0.000000 0.000000 -0.119730
#
#
# Mechanical properties :
#
#
# Convention : Reuss Voigt Hill
#
# Bulk Modulus (GPa) = 9.11538 17.57154 13.34346
# Shear Modulus (GPa) = -146.84884 10.13208 -68.35838
#
# Velocity S-wave (km/s) = -9.04893 2.37690 -6.17387
# Velocity P-wave (km/s) = 10.20268 4.16303 6.58650
#
# Compressibility (1/GPa) = 0.10970466
#
# Stress axis : x y z
#
# Youngs Moduli (GPa) = 27.89681 86.48590 23.90442
#
# Poissons Ratio (x) = 0.20890 -0.45436
# Poissons Ratio (y) = 0.06738 0.15205
# Poissons Ratio (z) = -0.53024 0.55010
#
# Static dielectric constant tensor:
#      x y z
#    x 1.699270 0.000000 0.000000 
#    y 0.000000 1.668690 0.000000 
#    z 0.000000 0.000000 1.677400 
# 
# From -- ./inp_files/25313.got.cif
#   From: 2010.05.17/outbox.cif.g08.bks.cpg/sg62_13_cif.got.tgz:25313.got - 2010.06.03 15:25:27.
