data_PCOD9462708
_publ_section_title
;
Structure prediction by ZEFSAII (Michael W. Deem and Ramdas Pophale) SiO2 
 PCOD9462708
Probable space group: P N M A
;
_chemical_formula_sum "Si O2"
_cell_formula_units_Z 40
_cell_length_a 10.723376
_cell_length_b 7.425953
_cell_length_c 23.496330
_cell_angle_alpha 90.000000
_cell_angle_beta 90.000000
_cell_angle_gamma 90.000000
_cell_volume 1871.042978
_symmetry_space_group_name_H-M "P N M A"
_symmetry_group_IT_number 62
_symmetry_cell_setting 'orthorhombic'
loop_
_space_group_symop_operation_xyz
x,y,z
1/2-x,-y,1/2+z
1/2+x,1/2-y,1/2-z
-x,1/2+y,-z
-x,-y,-z
1/2+x,y,1/2-z
1/2-x,1/2+y,1/2+z
x,1/2-y,z
loop_
_atom_site_type_symbol
_atom_site_label
_atom_site_fract_x
_atom_site_fract_y
_atom_site_fract_z
Si Si1 0.734152 0.541323 0.372613
Si Si2 0.507514 0.470089 0.694598
Si Si3 0.996296 0.529858 0.326433
Si Si4 0.756378 0.970267 0.119547
Si Si5 0.352260 0.963648 0.502314
O O1 0.739389 0.750000 0.354818
O O2 0.615298 0.465337 0.338823
O O3 0.869009 0.466549 0.356200
O O4 0.705277 0.535242 0.439402
O O5 0.507951 0.250000 0.693178
O O6 0.504692 0.523469 0.760326
O O7 0.632324 0.526560 0.661701
O O8 0.998993 0.750000 0.327804
O O9 0.122134 0.470876 0.357826
O O10 0.757134 0.750000 0.119100
O O11 0.788952 0.030525 0.055707
O O12 0.335555 0.750000 0.504006
O O13 0.500000 0.000000 0.500000
#
# Coordination Sequence:
#
# PCOD9462708 Si02
#       5
#     8   8   8   8   8
#     4  10  19  32  52  80 105 130 170 212 250 300
#     4   9  15  27  48  75 105 133 164 206 252 296
#     4   9  17  28  47  77 108 132 161 208 258 298
#     4   9  17  29  46  72 103 132 164 205 252 299
#     4  11  21  35  54  74 101 136 173 213 256 306
#
# _framework density 21.378451999999999
#
# number of rings (size 3 to 8) (size 9 to 14) (size 15 to 20)
#    0.000    2.400    2.000    1.800    0.000    5.600 
#    0.000    0.000    0.000    2.400    0.000    0.000 
#    0.000    0.000    0.000    0.000    0.000    0.000 
#
# Total GULP energy -223495.469709 kJ/mol
# GULP energy per Si atom -5587.386743 kJ/mol
# Density = 2.132979 g / cm^3
# Si number density = 21.378452 Si / 1000 Ang^3
#
#
#
# Elastic Constant Matrix: (Units=GPa)
#
#
# Indices 1 2 3 4 5 6 
#
# 1 253.6509 1.7992 142.6171 0.0000 0.0000 0.0000
# 2 1.7992 64.7882 -13.8578 0.0000 0.0000 0.0000
# 3 142.6171 -13.8578 193.3102 0.0000 0.0000 0.0000
# 4 0.0000 0.0000 0.0000 16.7592 0.0000 0.0000
# 5 0.0000 0.0000 0.0000 0.0000 -3.3773 0.0000
# 6 0.0000 0.0000 0.0000 0.0000 0.0000 -7.3691
#
#
#
# Elastic Compliance Matrix: (Units=1/GPa)
#
#
# Indices 1 2 3 4 5 6 
#
# 1 0.006841 -0.001289 -0.005140 0.000000 0.000000 0.000000
# 2 -0.001289 0.015918 0.002092 0.000000 0.000000 0.000000
# 3 -0.005140 0.002092 0.009115 0.000000 0.000000 0.000000
# 4 0.000000 0.000000 0.000000 0.059669 0.000000 0.000000
# 5 0.000000 0.000000 0.000000 0.000000 -0.296093 0.000000
# 6 0.000000 0.000000 0.000000 0.000000 0.000000 -0.135703
#
#
# Mechanical properties :
#
#
# Convention : Reuss Voigt Hill
#
# Bulk Modulus (GPa) = 43.10139 85.87404 64.48771
# Shear Modulus (GPa) = -15.43952 26.61529 5.58789
#
# Velocity S-wave (km/s) = -2.69029 3.53222 1.61848
# Velocity P-wave (km/s) = 3.24879 7.54262 5.80714
#
# Compressibility (1/GPa) = 0.02320111
#
# Stress axis : x y z
#
# Youngs Moduli (GPa) = 146.16747 62.82097 109.70939
#
# Poissons Ratio (x) = 0.08100 0.56389
# Poissons Ratio (y) = 0.18846 -0.22955
# Poissons Ratio (z) = 0.75127 -0.13144
#
# Static dielectric constant tensor:
#      x y z
#    x 1.730250 0.000000 0.000000 
#    y 0.000000 1.847400 0.000000 
#    z 0.000000 0.000000 1.711520 
# 
# From -- ./inp_files/26448.got.cif
#   From: 2010.05.17/outbox.cif.g08.bks.cpg/sg62_14_cif.got.tgz:26448.got - 2010.06.03 15:25:27.
