data_PCOD9462214
_publ_section_title
;
Structure prediction by ZEFSAII (Michael W. Deem and Ramdas Pophale) SiO2 
 PCOD9462214
Probable space group: P N M A
;
_chemical_formula_sum "Si O2"
_cell_formula_units_Z 40
_cell_length_a 9.454089
_cell_length_b 20.743339
_cell_length_c 7.972686
_cell_angle_alpha 90.000000
_cell_angle_beta 90.000000
_cell_angle_gamma 90.000000
_cell_volume 1563.518453
_symmetry_space_group_name_H-M "P N M A"
_symmetry_group_IT_number 62
_symmetry_cell_setting 'orthorhombic'
loop_
_space_group_symop_operation_xyz
x,y,z
1/2-x,-y,1/2+z
1/2+x,1/2-y,1/2-z
-x,1/2+y,-z
-x,-y,-z
1/2+x,y,1/2-z
1/2-x,1/2+y,1/2+z
x,1/2-y,z
loop_
_atom_site_type_symbol
_atom_site_label
_atom_site_fract_x
_atom_site_fract_y
_atom_site_fract_z
Si Si1 0.371257 0.946348 0.794453
Si Si2 0.379459 0.750000 0.984697
Si Si3 0.093567 0.750000 0.800733
Si Si4 0.591173 0.893820 0.588637
Si Si5 0.287711 0.630518 0.211582
Si Si6 0.938881 0.086399 0.599321
O O1 0.456424 0.937714 0.623593
O O2 0.218614 0.914427 0.785538
O O3 0.366126 0.017165 0.874146
O O4 0.475604 0.909430 0.925514
O O5 0.345747 0.691684 0.110750
O O6 0.262573 0.750000 0.835082
O O7 0.526669 0.750000 0.884918
O O8 0.050282 0.681805 0.888199
O O9 0.676981 0.902137 0.416648
O O10 0.185299 0.638115 0.369959
O O11 0.429467 0.590011 0.230296
#
# Coordination Sequence:
#
# PCOD9462214 Si02
#       6
#     8   4   4   8   8   8
#     4  10  21  36  58  87 119 158 205 248 303 362
#     4  10  22  40  62  90 120 156 204 256 306 370
#     4  10  18  36  60  84 120 152 192 250 302 356
#     4  10  20  35  57  86 114 153 204 252 298 361
#     4  10  22  38  57  83 118 156 201 250 303 360
#     4  10  21  38  57  84 123 160 196 251 306 363
#
# _framework density 25.583324000000001
#
# number of rings (size 3 to 8) (size 9 to 14) (size 15 to 20)
#    0.000    2.000    0.000    4.800    0.000    3.200 
#    0.000    6.000    0.000    0.000    0.000    0.000 
#    0.000    0.000    0.000    0.000    0.000    0.000 
#
# Total GULP energy -223313.281393 kJ/mol
# GULP energy per Si atom -5582.832035 kJ/mol
# Density = 2.552510 g / cm^3
# Si number density = 25.583324 Si / 1000 Ang^3
#
#
#
# Elastic Constant Matrix: (Units=GPa)
#
#
# Indices 1 2 3 4 5 6 
#
# 1 107.1268 17.6295 38.3831 0.0000 0.0000 0.0000
# 2 17.6295 74.3521 8.1499 0.0000 0.0000 0.0000
# 3 38.3831 8.1499 46.8039 0.0000 0.0000 0.0000
# 4 0.0000 0.0000 0.0000 20.8728 0.0000 0.0000
# 5 0.0000 0.0000 0.0000 0.0000 62.0248 0.0000
# 6 0.0000 0.0000 0.0000 0.0000 0.0000 24.8053
#
#
#
# Elastic Compliance Matrix: (Units=1/GPa)
#
#
# Indices 1 2 3 4 5 6 
#
# 1 0.013512 -0.002028 -0.010728 0.000000 0.000000 0.000000
# 2 -0.002028 0.014016 -0.000777 0.000000 0.000000 0.000000
# 3 -0.010728 -0.000777 0.030299 0.000000 0.000000 0.000000
# 4 0.000000 0.000000 0.000000 0.047909 0.000000 0.000000
# 5 0.000000 0.000000 0.000000 0.000000 0.016123 0.000000
# 6 0.000000 0.000000 0.000000 0.000000 0.000000 0.040314
#
#
# Mechanical properties :
#
#
# Convention : Reuss Voigt Hill
#
# Bulk Modulus (GPa) = 32.50977 39.62308 36.06642
# Shear Modulus (GPa) = 25.06354 32.48193 28.77273
#
# Velocity S-wave (km/s) = 3.13338 3.56708 3.35724
# Velocity P-wave (km/s) = 5.08191 5.69973 5.39966
#
# Compressibility (1/GPa) = 0.03075999
#
# Stress axis : x y z
#
# Youngs Moduli (GPa) = 74.00678 71.34918 33.00438
#
# Poissons Ratio (x) = 0.14469 0.35407
# Poissons Ratio (y) = 0.15008 0.02566
# Poissons Ratio (z) = 0.79395 0.05547
#
# Static dielectric constant tensor:
#      x y z
#    x 1.959080 0.000000 0.000000 
#    y 0.000000 2.056960 0.000000 
#    z 0.000000 0.000000 2.138820 
# 
# From -- ./inp_files/4311.got.cif
#   From: 2010.05.17/outbox.cif.g08.bks.cpg/sg62_3_cif.got.tgz:4311.got - 2010.06.03 15:25:27.
