data_PCOD9462764
_publ_section_title
;
Structure prediction by ZEFSAII (Michael W. Deem and Ramdas Pophale) SiO2 
 PCOD9462764
Probable space group: P N M A
;
_chemical_formula_sum "Si O2"
_cell_formula_units_Z 48
_cell_length_a 15.497737
_cell_length_b 7.724658
_cell_length_c 19.695919
_cell_angle_alpha 90.000000
_cell_angle_beta 90.000000
_cell_angle_gamma 90.000000
_cell_volume 2357.891391
_symmetry_space_group_name_H-M "P N M A"
_symmetry_group_IT_number 62
_symmetry_cell_setting 'orthorhombic'
loop_
_space_group_symop_operation_xyz
x,y,z
1/2-x,-y,1/2+z
1/2+x,1/2-y,1/2-z
-x,1/2+y,-z
-x,-y,-z
1/2+x,y,1/2-z
1/2-x,1/2+y,1/2+z
x,1/2-y,z
loop_
_atom_site_type_symbol
_atom_site_label
_atom_site_fract_x
_atom_site_fract_y
_atom_site_fract_z
Si Si1 0.621775 0.453174 0.677519
Si Si2 0.769056 0.547938 0.578233
Si Si3 0.533306 0.956563 0.075423
Si Si4 0.974627 0.041569 0.922829
Si Si5 0.875643 0.537549 0.331088
Si Si6 0.219601 0.961982 0.072670
O O1 0.602220 0.250000 0.685651
O O2 0.711381 0.466852 0.637082
O O3 0.546214 0.526956 0.629468
O O4 0.626316 0.524362 0.753601
O O5 0.747098 0.750000 0.578615
O O6 0.871169 0.527833 0.586935
O O7 0.743331 0.479382 0.503573
O O8 0.538987 0.750000 0.080729
O O9 0.461961 0.017231 0.129347
O O10 0.500000 0.000000 0.000000
O O11 0.973959 0.250000 0.917681
O O12 0.877084 0.981286 0.909636
O O13 0.000000 0.000000 0.000000
O O14 0.874518 0.750000 0.331535
O O15 0.792423 0.482024 0.374403
O O16 0.220893 0.750000 0.071939
#
# Coordination Sequence:
#
# PCOD9462764 Si02
#       6
#     8   8   8   8   8   8
#     4  10  21  36  57  86 114 144 189 238 283 338
#     4  11  21  36  58  83 113 153 193 233 285 340
#     4  11  21  36  60  89 116 150 194 240 286 342
#     4  10  19  32  54  82 107 140 182 228 277 330
#     4   9  19  36  57  83 114 146 183 230 286 341
#     4   9  17  32  55  79 107 146 185 224 278 340
#
# _framework density 20.357171000000001
#
# number of rings (size 3 to 8) (size 9 to 14) (size 15 to 20)
#    0.000    2.000    3.333    1.000    0.000    1.333 
#    0.000    6.667    0.000    2.000    0.000    0.000 
#    0.000    0.000    0.000    0.000    0.000    0.000 
#
# Total GULP energy -268096.641109 kJ/mol
# GULP energy per Si atom -5585.346690 kJ/mol
# Density = 2.031084 g / cm^3
# Si number density = 20.357171 Si / 1000 Ang^3
#
#
#
# Elastic Constant Matrix: (Units=GPa)
#
#
# Indices 1 2 3 4 5 6 
#
# 1 169.4508 -10.7585 91.2558 0.0000 0.0000 0.0000
# 2 -10.7585 31.6846 -1.7708 0.0000 0.0000 0.0000
# 3 91.2558 -1.7708 189.2301 0.0000 0.0000 0.0000
# 4 0.0000 0.0000 0.0000 17.7146 0.0000 0.0000
# 5 0.0000 0.0000 0.0000 0.0000 32.1256 0.0000
# 6 0.0000 0.0000 0.0000 0.0000 0.0000 16.9000
#
#
#
# Elastic Compliance Matrix: (Units=1/GPa)
#
#
# Indices 1 2 3 4 5 6 
#
# 1 0.008174 0.002556 -0.003918 0.000000 0.000000 0.000000
# 2 0.002556 0.032377 -0.000930 0.000000 0.000000 0.000000
# 3 -0.003918 -0.000930 0.007165 0.000000 0.000000 0.000000
# 4 0.000000 0.000000 0.000000 0.056450 0.000000 0.000000
# 5 0.000000 0.000000 0.000000 0.000000 0.031128 0.000000
# 6 0.000000 0.000000 0.000000 0.000000 0.000000 0.059172
#
#
# Mechanical properties :
#
#
# Convention : Reuss Voigt Hill
#
# Bulk Modulus (GPa) = 23.18384 60.86874 42.02629
# Shear Modulus (GPa) = 23.42731 34.12397 28.77564
#
# Velocity S-wave (km/s) = 3.39604 4.09866 3.76378
# Velocity P-wave (km/s) = 5.17598 7.23630 6.29106
#
# Compressibility (1/GPa) = 0.04313349
#
# Stress axis : x y z
#
# Youngs Moduli (GPa) = 122.34508 30.88600 139.56317
#
# Poissons Ratio (x) = -0.07896 0.54678
# Poissons Ratio (y) = -0.31276 0.12977
# Poissons Ratio (z) = 0.47932 0.02872
#
# Static dielectric constant tensor:
#      x y z
#    x 1.690920 0.000000 0.000000 
#    y 0.000000 1.768110 0.000000 
#    z 0.000000 0.000000 1.694380 
# 
# From -- ./inp_files/23697.got.cif
#   From: 2010.05.17/outbox.cif.g08.bks.cpg/sg62_12_cif.got.tgz:23697.got - 2010.06.03 15:25:27.
