data_PCOD9462653
_publ_section_title
;
Structure prediction by ZEFSAII (Michael W. Deem and Ramdas Pophale) SiO2 
 PCOD9462653
Probable space group: P N M A
;
_chemical_formula_sum "Si O2"
_cell_formula_units_Z 64
_cell_length_a 21.267423
_cell_length_b 9.242913
_cell_length_c 13.518824
_cell_angle_alpha 90.000000
_cell_angle_beta 90.000000
_cell_angle_gamma 90.000000
_cell_volume 2657.434986
_symmetry_space_group_name_H-M "P N M A"
_symmetry_group_IT_number 62
_symmetry_cell_setting 'orthorhombic'
loop_
_space_group_symop_operation_xyz
x,y,z
1/2-x,-y,1/2+z
1/2+x,1/2-y,1/2-z
-x,1/2+y,-z
-x,-y,-z
1/2+x,y,1/2-z
1/2-x,1/2+y,1/2+z
x,1/2-y,z
loop_
_atom_site_type_symbol
_atom_site_label
_atom_site_fract_x
_atom_site_fract_y
_atom_site_fract_z
Si Si1 0.412220 0.416132 0.575724
Si Si2 0.116342 0.083310 0.277642
Si Si3 0.714094 0.093830 0.804839
Si Si4 0.930364 0.912310 0.338120
Si Si5 0.740418 0.907716 0.641327
Si Si6 0.731273 0.909161 0.972733
Si Si7 0.938378 0.917086 0.117322
Si Si8 0.582659 0.584717 0.029668
O O1 0.389751 0.250000 0.574059
O O2 0.387420 0.502342 0.672210
O O3 0.403741 0.495768 0.470001
O O4 0.487869 0.411837 0.589917
O O5 0.094227 0.250000 0.268761
O O6 0.187690 0.089391 0.319158
O O7 0.079448 0.995213 0.363927
O O8 0.746046 0.250000 0.812183
O O9 0.644715 0.106263 0.847742
O O10 0.708192 0.043690 0.692835
O O11 0.740398 0.952722 0.859458
O O12 0.957530 0.750000 0.333956
O O13 0.938146 0.980519 0.229158
O O14 0.946967 0.000044 0.436319
O O15 0.712823 0.750000 0.659491
O O16 0.742443 0.950447 0.527569
O O17 0.757648 0.750000 0.993019
O O18 0.657877 0.904368 0.004195
O O19 0.915625 0.750000 0.122315
O O20 0.560740 0.750000 0.032646
#
# Coordination Sequence:
#
# PCOD9462653 Si02
#       8
#     8   8   8   8   8   8   8   8
#     4  10  20  35  57  82 107 138 179 225 270 317
#     4  10  20  35  55  77 104 140 179 218 266 324
#     4  10  19  32  51  75 102 135 172 214 260 311
#     4   9  18  34  55  78 105 139 176 213 261 322
#     4  10  20  34  51  73 101 137 176 216 261 312
#     4   9  17  31  50  70  96 132 169 208 255 309
#     4   9  19  37  58  79 107 143 179 217 267 325
#     4   9  17  30  52  79 105 133 168 214 259 306
#
# _framework density 24.083373999999999
#
# number of rings (size 3 to 8) (size 9 to 14) (size 15 to 20)
#    0.000    2.500    0.000    2.250    0.000    6.000 
#    2.250    0.625    0.000    0.000    0.000    0.000 
#    0.000    0.000    0.000    0.000    0.000    0.000 
#
# Total GULP energy -357247.257063 kJ/mol
# GULP energy per Si atom -5581.988392 kJ/mol
# Density = 2.402856 g / cm^3
# Si number density = 24.083374 Si / 1000 Ang^3
#
#
#
# Elastic Constant Matrix: (Units=GPa)
#
#
# Indices 1 2 3 4 5 6 
#
# 1 45.4468 3.9789 5.9384 0.0000 0.0000 0.0000
# 2 3.9789 168.2300 89.7011 0.0000 0.0000 0.0000
# 3 5.9384 89.7011 177.6549 0.0000 0.0000 0.0000
# 4 0.0000 0.0000 0.0000 36.8841 0.0000 0.0000
# 5 0.0000 0.0000 0.0000 0.0000 31.6014 0.0000
# 6 0.0000 0.0000 0.0000 0.0000 0.0000 6.8639
#
#
#
# Elastic Compliance Matrix: (Units=1/GPa)
#
#
# Indices 1 2 3 4 5 6 
#
# 1 0.022104 -0.000176 -0.000650 0.000000 0.000000 0.000000
# 2 -0.000176 0.008136 -0.004102 0.000000 0.000000 0.000000
# 3 -0.000650 -0.004102 0.007722 0.000000 0.000000 0.000000
# 4 0.000000 0.000000 0.000000 0.027112 0.000000 0.000000
# 5 0.000000 0.000000 0.000000 0.000000 0.031644 0.000000
# 6 0.000000 0.000000 0.000000 0.000000 0.000000 0.145691
#
#
# Mechanical properties :
#
#
# Convention : Reuss Voigt Hill
#
# Bulk Modulus (GPa) = 35.58045 65.61873 50.59959
# Shear Modulus (GPa) = 19.11077 34.51743 26.81410
#
# Velocity S-wave (km/s) = 2.82001 3.78993 3.34036
# Velocity P-wave (km/s) = 5.04076 6.81594 5.99443
#
# Compressibility (1/GPa) = 0.02810532
#
# Stress axis : x y z
#
# Youngs Moduli (GPa) = 45.24047 122.91708 129.50458
#
# Poissons Ratio (x) = 0.02167 0.08416
# Poissons Ratio (y) = 0.00798 0.53121
# Poissons Ratio (z) = 0.02940 0.50419
#
# Static dielectric constant tensor:
#      x y z
#    x 2.045340 0.000000 0.000000 
#    y 0.000000 1.874700 0.000000 
#    z 0.000000 0.000000 1.872580 
# 
# From -- ./inp_files/15900.got.cif
#   From: 2010.05.17/outbox.cif.g08.bks.cpg/sg62_8_cif.got.tgz:15900.got - 2010.06.03 15:25:27.
