data_PCOD9462259
_publ_section_title
;
Structure prediction by ZEFSAII (Michael W. Deem and Ramdas Pophale) SiO2 
 PCOD9462259
Probable space group: P N M A
;
_chemical_formula_sum "Si O2"
_cell_formula_units_Z 36
_cell_length_a 12.512921
_cell_length_b 13.521273
_cell_length_c 10.458298
_cell_angle_alpha 90.000000
_cell_angle_beta 90.000000
_cell_angle_gamma 90.000000
_cell_volume 1769.445932
_symmetry_space_group_name_H-M "P N M A"
_symmetry_group_IT_number 62
_symmetry_cell_setting 'orthorhombic'
loop_
_space_group_symop_operation_xyz
x,y,z
1/2-x,-y,1/2+z
1/2+x,1/2-y,1/2-z
-x,1/2+y,-z
-x,-y,-z
1/2+x,y,1/2-z
1/2-x,1/2+y,1/2+z
x,1/2-y,z
loop_
_atom_site_type_symbol
_atom_site_label
_atom_site_fract_x
_atom_site_fract_y
_atom_site_fract_z
Si Si1 0.400438 0.939345 0.556256
Si Si2 0.130329 0.250000 0.584929
Si Si3 0.907416 0.250000 0.670831
Si Si4 0.168256 0.035024 0.545382
Si Si5 0.837318 0.750000 0.106801
Si Si6 0.960374 0.468031 0.700056
O O1 0.383981 0.843186 0.469759
O O2 0.431013 0.942908 0.705708
O O3 0.500000 0.000000 0.500000
O O4 0.284658 0.990649 0.557161
O O5 0.179133 0.152083 0.527105
O O6 0.141088 0.250000 0.740284
O O7 0.002392 0.250000 0.566287
O O8 0.791816 0.250000 0.606469
O O9 0.925956 0.355781 0.743249
O O10 0.106519 0.984235 0.428946
O O11 0.086160 0.028096 0.665469
#
# Coordination Sequence:
#
# PCOD9462259 Si02
#       6
#     8   4   4   8   4   8
#     4  12  26  41  66  98 136 173 220 276 336 394
#     4  10  22  39  71  95 125 171 232 269 329 402
#     4  10  18  40  68  91 121 171 223 261 329 387
#     4  10  22  41  66  97 128 172 219 277 323 395
#     4  12  24  43  63  96 132 176 215 282 340 391
#     4  10  22  40  69  97 131 171 225 271 330 392
#
# _framework density 20.34535
#
# number of rings (size 3 to 8) (size 9 to 14) (size 15 to 20)
#    0.000    1.333    2.222    4.000    3.111    1.778 
#    0.000    2.222    0.000    0.000    0.000    0.000 
#    0.000    0.000    0.000    0.000    0.000    0.000 
#
# Total GULP energy -200699.529701 kJ/mol
# GULP energy per Si atom -5574.986936 kJ/mol
# Density = 2.029904 g / cm^3
# Si number density = 20.345350 Si / 1000 Ang^3
#
#
#
# Elastic Constant Matrix: (Units=GPa)
#
#
# Indices 1 2 3 4 5 6 
#
# 1 156.4107 50.3223 30.2107 0.0000 0.0000 0.0000
# 2 50.3223 120.7463 20.7249 0.0000 0.0000 0.0000
# 3 30.2107 20.7249 42.9172 0.0000 0.0000 0.0000
# 4 0.0000 0.0000 0.0000 29.5527 0.0000 0.0000
# 5 0.0000 0.0000 0.0000 0.0000 16.8352 0.0000
# 6 0.0000 0.0000 0.0000 0.0000 0.0000 30.1904
#
#
#
# Elastic Compliance Matrix: (Units=1/GPa)
#
#
# Indices 1 2 3 4 5 6 
#
# 1 0.008090 -0.002610 -0.004434 0.000000 0.000000 0.000000
# 2 -0.002610 0.009873 -0.002930 0.000000 0.000000 0.000000
# 3 -0.004434 -0.002930 0.027837 0.000000 0.000000 0.000000
# 4 0.000000 0.000000 0.000000 0.033838 0.000000 0.000000
# 5 0.000000 0.000000 0.000000 0.000000 0.059399 0.000000
# 6 0.000000 0.000000 0.000000 0.000000 0.000000 0.033123
#
#
# Mechanical properties :
#
#
# Convention : Reuss Voigt Hill
#
# Bulk Modulus (GPa) = 38.68419 58.06555 48.37487
# Shear Modulus (GPa) = 24.90971 29.90343 27.40657
#
# Velocity S-wave (km/s) = 3.50286 3.83795 3.67422
# Velocity P-wave (km/s) = 5.95106 6.94562 6.46749
#
# Compressibility (1/GPa) = 0.02585035
#
# Stress axis : x y z
#
# Youngs Moduli (GPa) = 123.61386 101.28995 35.92362
#
# Poissons Ratio (x) = 0.26441 0.15929
# Poissons Ratio (y) = 0.32268 0.10526
# Poissons Ratio (z) = 0.54811 0.29678
#
# Static dielectric constant tensor:
#      x y z
#    x 1.746100 0.000000 0.000000 
#    y 0.000000 1.763080 0.000000 
#    z 0.000000 0.000000 1.809030 
# 
# From -- ./inp_files/11904.got.cif
#   From: 2010.05.17/outbox.cif.g08.bks.cpg/sg62_6_cif.got.tgz:11904.got - 2010.06.03 15:25:27.
