data_PCOD9462203
_publ_section_title
;
Structure prediction by ZEFSAII (Michael W. Deem and Ramdas Pophale) SiO2 
 PCOD9462203
Probable space group: P N M A
;
_chemical_formula_sum "Si O2"
_cell_formula_units_Z 56
_cell_length_a 9.647517
_cell_length_b 16.422719
_cell_length_c 17.844098
_cell_angle_alpha 90.000000
_cell_angle_beta 90.000000
_cell_angle_gamma 90.000000
_cell_volume 2827.191420
_symmetry_space_group_name_H-M "P N M A"
_symmetry_group_IT_number 62
_symmetry_cell_setting 'orthorhombic'
loop_
_space_group_symop_operation_xyz
x,y,z
1/2-x,-y,1/2+z
1/2+x,1/2-y,1/2-z
-x,1/2+y,-z
-x,-y,-z
1/2+x,y,1/2-z
1/2-x,1/2+y,1/2+z
x,1/2-y,z
loop_
_atom_site_type_symbol
_atom_site_label
_atom_site_fract_x
_atom_site_fract_y
_atom_site_fract_z
Si Si1 0.912047 0.656886 0.702063
Si Si2 0.441233 0.629661 0.636888
Si Si3 0.150690 0.661455 0.582451
Si Si4 0.038867 0.942717 0.169059
Si Si5 0.084629 0.585197 0.007525
Si Si6 0.845984 0.016673 0.526361
Si Si7 0.279664 0.018845 0.803458
O O1 0.858995 0.750000 0.691226
O O2 0.994266 0.655725 0.781523
O O3 0.807565 0.579288 0.705804
O O4 0.021034 0.638890 0.635130
O O5 0.289193 0.666721 0.631283
O O6 0.419294 0.533045 0.642403
O O7 0.531288 0.641237 0.561367
O O8 0.119955 0.750000 0.549232
O O9 0.192763 0.596229 0.520627
O O10 0.058295 0.888691 0.093873
O O11 0.137524 0.931139 0.240331
O O12 0.880477 0.954593 0.195105
O O13 0.242527 0.557670 0.992708
O O14 0.000000 0.500000 0.000000
O O15 0.836004 0.035199 0.613647
O O16 0.000000 0.000000 0.500000
#
# Coordination Sequence:
#
# PCOD9462203 Si02
#       7
#     8   8   8   8   8   8   8
#     4  10  23  35  50  81 123 157 189 225 275 353
#     4  10  19  33  54  74 110 154 185 221 279 331
#     4  11  22  37  54  80 116 154 195 239 290 354
#     4  10  21  33  55  80 115 142 190 242 288 330
#     4  10  18  36  56  76 113 140 187 244 277 330
#     4  12  22  36  58  84 111 151 199 245 291 337
#     4  11  22  35  56  82 112 154 191 242 284 344
#
# _framework density 19.807644
#
# number of rings (size 3 to 8) (size 9 to 14) (size 15 to 20)
#    0.000    1.429    7.143    0.429   10.000    0.000 
#    0.000    0.714    0.000    0.857    0.000    5.000 
#    0.000    0.000    0.000    0.000    0.000    0.000 
#
# Total GULP energy -311930.244188 kJ/mol
# GULP energy per Si atom -5570.182932 kJ/mol
# Density = 1.976256 g / cm^3
# Si number density = 19.807644 Si / 1000 Ang^3
#
#
#
# Elastic Constant Matrix: (Units=GPa)
#
#
# Indices 1 2 3 4 5 6 
#
# 1 86.5703 -17.0185 27.2030 0.0000 0.0000 0.0000
# 2 -17.0185 16.1177 9.1172 0.0000 0.0000 0.0000
# 3 27.2030 9.1172 152.3739 0.0000 0.0000 0.0000
# 4 0.0000 0.0000 0.0000 7.3925 0.0000 0.0000
# 5 0.0000 0.0000 0.0000 0.0000 26.4146 0.0000
# 6 0.0000 0.0000 0.0000 0.0000 0.0000 5.3272
#
#
#
# Elastic Compliance Matrix: (Units=1/GPa)
#
#
# Indices 1 2 3 4 5 6 
#
# 1 0.016839 0.020163 -0.004213 0.000000 0.000000 0.000000
# 2 0.020163 0.088360 -0.008887 0.000000 0.000000 0.000000
# 3 -0.004213 -0.008887 0.007847 0.000000 0.000000 0.000000
# 4 0.000000 0.000000 0.000000 0.135272 0.000000 0.000000
# 5 0.000000 0.000000 0.000000 0.000000 0.037858 0.000000
# 6 0.000000 0.000000 0.000000 0.000000 0.000000 0.187716
#
#
# Mechanical properties :
#
#
# Convention : Reuss Voigt Hill
#
# Bulk Modulus (GPa) = 7.86335 32.62949 20.24642
# Shear Modulus (GPa) = 9.95707 23.54420 16.75064
#
# Velocity S-wave (km/s) = 2.24450 3.45141 2.91119
# Velocity P-wave (km/s) = 3.27040 5.69139 4.64152
#
# Compressibility (1/GPa) = 0.12717233
#
# Stress axis : x y z
#
# Youngs Moduli (GPa) = 59.38677 11.31735 127.44368
#
# Poissons Ratio (x) = -0.22819 0.53687
# Poissons Ratio (y) = -1.19740 1.13254
# Poissons Ratio (z) = 0.25017 0.10057
#
# Static dielectric constant tensor:
#      x y z
#    x 1.742520 0.000000 0.000000 
#    y 0.000000 1.735020 0.000000 
#    z 0.000000 0.000000 1.773900 
# 
# From -- ./inp_files/22523.got.cif
#   From: 2010.05.17/outbox.cif.g08.bks.cpg/sg62_12_cif.got.tgz:22523.got - 2010.06.03 15:25:27.
