data_PCOD9462749
_publ_section_title
;
Structure prediction by ZEFSAII (Michael W. Deem and Ramdas Pophale) SiO2 
 PCOD9462749
Probable space group: P N M A
;
_chemical_formula_sum "Si O2"
_cell_formula_units_Z 64
_cell_length_a 9.734103
_cell_length_b 14.027986
_cell_length_c 25.581687
_cell_angle_alpha 90.000000
_cell_angle_beta 90.000000
_cell_angle_gamma 90.000000
_cell_volume 3493.175794
_symmetry_space_group_name_H-M "P N M A"
_symmetry_group_IT_number 62
_symmetry_cell_setting 'orthorhombic'
loop_
_space_group_symop_operation_xyz
x,y,z
1/2-x,-y,1/2+z
1/2+x,1/2-y,1/2-z
-x,1/2+y,-z
-x,-y,-z
1/2+x,y,1/2-z
1/2-x,1/2+y,1/2+z
x,1/2-y,z
loop_
_atom_site_type_symbol
_atom_site_label
_atom_site_fract_x
_atom_site_fract_y
_atom_site_fract_z
Si Si1 0.772112 0.859485 0.303733
Si Si2 0.676923 0.512829 0.616687
Si Si3 0.553565 0.361160 0.698074
Si Si4 0.168571 0.003401 0.600562
Si Si5 0.438577 0.856405 0.011950
Si Si6 0.421853 0.637878 0.891720
Si Si7 0.746579 0.351584 0.533576
Si Si8 0.943108 0.567437 0.953539
O O1 0.791082 0.750000 0.321611
O O2 0.609675 0.872635 0.293150
O O3 0.861001 0.871735 0.251459
O O4 0.819550 0.930621 0.348743
O O5 0.605409 0.442943 0.658568
O O6 0.803731 0.576380 0.636617
O O7 0.730436 0.438266 0.573053
O O8 0.567139 0.580506 0.586890
O O9 0.573963 0.250000 0.680047
O O10 0.105690 0.064774 0.552931
O O11 0.319770 0.976515 0.580533
O O12 0.068237 0.914968 0.612879
O O13 0.398688 0.750000 0.030334
O O14 0.603528 0.858675 0.008114
O O15 0.383297 0.869073 0.953570
O O16 0.427252 0.750000 0.878278
O O17 0.739038 0.250000 0.561864
O O18 0.632664 0.353784 0.488301
O O19 0.000000 0.500000 0.000000
#
# Coordination Sequence:
#
# PCOD9462749 Si02
#       8
#     8   8   8   8   8   8   8   8
#     4  10  23  40  62  95 125 152 188 238 300 368
#     4  11  21  39  57  84 118 161 198 242 301 354
#     4  10  22  41  63  93 125 150 188 239 298 365
#     4  12  20  38  59  84 120 160 200 240 296 357
#     4  10  19  32  53  84 118 155 198 240 286 346
#     4  11  24  38  57  84 118 160 209 254 286 338
#     4  10  19  32  53  85 119 155 197 240 292 356
#     4  10  21  33  53  81 116 157 197 236 288 347
#
# _framework density 18.321438000000001
#
# number of rings (size 3 to 8) (size 9 to 14) (size 15 to 20)
#    0.000    1.500    3.750    2.625    1.750    0.500 
#    0.000    1.875    0.000    0.750    0.000    0.000 
#    0.000    0.000    0.000    0.000    0.000    0.000 
#
# Total GULP energy -356892.077775 kJ/mol
# GULP energy per Si atom -5576.438715 kJ/mol
# Density = 1.827974 g / cm^3
# Si number density = 18.321438 Si / 1000 Ang^3
#
#
#
# Elastic Constant Matrix: (Units=GPa)
#
#
# Indices 1 2 3 4 5 6 
#
# 1 93.1278 40.1758 21.2736 0.0000 0.0000 0.0000
# 2 40.1758 103.3871 25.9396 0.0000 0.0000 0.0000
# 3 21.2736 25.9396 47.9341 0.0000 0.0000 0.0000
# 4 0.0000 0.0000 0.0000 25.8222 0.0000 0.0000
# 5 0.0000 0.0000 0.0000 0.0000 26.1047 0.0000
# 6 0.0000 0.0000 0.0000 0.0000 0.0000 20.0184
#
#
#
# Elastic Compliance Matrix: (Units=1/GPa)
#
#
# Indices 1 2 3 4 5 6 
#
# 1 0.013424 -0.004307 -0.003627 0.000000 0.000000 0.000000
# 2 -0.004307 0.012574 -0.004893 0.000000 0.000000 0.000000
# 3 -0.003627 -0.004893 0.025120 0.000000 0.000000 0.000000
# 4 0.000000 0.000000 0.000000 0.038726 0.000000 0.000000
# 5 0.000000 0.000000 0.000000 0.000000 0.038307 0.000000
# 6 0.000000 0.000000 0.000000 0.000000 0.000000 0.049954
#
#
# Mechanical properties :
#
#
# Convention : Reuss Voigt Hill
#
# Bulk Modulus (GPa) = 39.27127 46.58077 42.92602
# Shear Modulus (GPa) = 23.55749 24.85975 24.20862
#
# Velocity S-wave (km/s) = 3.58968 3.68756 3.63895
# Velocity P-wave (km/s) = 6.21789 6.60380 6.41375
#
# Compressibility (1/GPa) = 0.02546391
#
# Stress axis : x y z
#
# Youngs Moduli (GPa) = 74.49115 79.53224 39.80955
#
# Poissons Ratio (x) = 0.34251 0.14440
# Poissons Ratio (y) = 0.32080 0.19478
# Poissons Ratio (z) = 0.27021 0.38914
#
# Static dielectric constant tensor:
#      x y z
#    x 1.689420 0.000000 0.000000 
#    y 0.000000 1.649370 0.000000 
#    z 0.000000 0.000000 1.606900 
# 
# From -- ./inp_files/28980.got.cif
#   From: 2010.05.17/outbox.cif.g08.bks.cpg/sg62_15_cif.got.tgz:28980.got - 2010.06.03 15:25:27.
