data_PCOD9462601
_publ_section_title
;
Structure prediction by ZEFSAII (Michael W. Deem and Ramdas Pophale) SiO2 
 PCOD9462601
Probable space group: P N M A
;
_chemical_formula_sum "Si O2"
_cell_formula_units_Z 64
_cell_length_a 12.574429
_cell_length_b 17.607152
_cell_length_c 12.601703
_cell_angle_alpha 90.000000
_cell_angle_beta 90.000000
_cell_angle_gamma 90.000000
_cell_volume 2790.015566
_symmetry_space_group_name_H-M "P N M A"
_symmetry_group_IT_number 62
_symmetry_cell_setting 'orthorhombic'
loop_
_space_group_symop_operation_xyz
x,y,z
1/2-x,-y,1/2+z
1/2+x,1/2-y,1/2-z
-x,1/2+y,-z
-x,-y,-z
1/2+x,y,1/2-z
1/2-x,1/2+y,1/2+z
x,1/2-y,z
loop_
_atom_site_type_symbol
_atom_site_label
_atom_site_fract_x
_atom_site_fract_y
_atom_site_fract_z
Si Si1 0.360450 0.877609 0.245688
Si Si2 0.063835 0.920002 0.372616
Si Si3 0.620687 0.512783 0.466009
Si Si4 0.269860 0.864077 0.450254
Si Si5 0.294252 0.978639 0.761594
Si Si6 0.748377 0.833691 0.474647
Si Si7 0.972609 0.661655 0.564147
Si Si8 0.680505 0.833472 0.816778
O O1 0.352800 0.837415 0.360641
O O2 0.305658 0.839653 0.142151
O O3 0.480953 0.896425 0.216107
O O4 0.297648 0.957531 0.255771
O O5 0.120961 0.000093 0.352457
O O6 0.992921 0.095534 0.516711
O O7 0.162287 0.862353 0.381373
O O8 0.500000 0.500000 0.500000
O O9 0.693711 0.449782 0.522708
O O10 0.635992 0.492970 0.343283
O O11 0.667425 0.596554 0.486073
O O12 0.237978 0.832969 0.566060
O O13 0.235677 0.899126 0.749776
O O14 0.699400 0.750000 0.483497
O O15 0.845404 0.839568 0.559009
O O16 0.997173 0.750000 0.528217
O O17 0.054327 0.652036 0.662119
O O18 0.693091 0.750000 0.769751
#
# Coordination Sequence:
#
# PCOD9462601 Si02
#       8
#     8   8   8   8   8   8   8   8
#     4   9  17  30  50  73  98 128 162 208 259 302
#     4   9  16  29  48  71  97 127 165 206 250 299
#     4  10  19  32  48  68 100 138 172 208 251 305
#     4   9  18  30  47  69  94 129 168 206 249 307
#     4   9  18  30  46  69  95 128 170 209 245 299
#     4   9  18  32  51  77 105 130 164 214 268 315
#     4   8  15  29  50  76 104 131 161 207 267 317
#     4   9  17  30  48  69  96 129 165 208 255 302
#
# _framework density 22.938939000000001
#
# number of rings (size 3 to 8) (size 9 to 14) (size 15 to 20)
#    0.000    3.000    0.000    0.750    0.000    1.500 
#    0.000   13.750    0.000    8.250    0.000    0.000 
#    0.000    0.000    0.000    0.000    0.000    0.000 
#
# Total GULP energy -356664.824984 kJ/mol
# GULP energy per Si atom -5572.887890 kJ/mol
# Density = 2.288673 g / cm^3
# Si number density = 22.938939 Si / 1000 Ang^3
#
#
#
# Elastic Constant Matrix: (Units=GPa)
#
#
# Indices 1 2 3 4 5 6 
#
# 1 93.6639 52.6663 19.7205 0.0000 0.0000 0.0000
# 2 52.6663 151.2578 24.4761 0.0000 0.0000 0.0000
# 3 19.7205 24.4761 64.7383 0.0000 0.0000 0.0000
# 4 0.0000 0.0000 0.0000 11.1093 0.0000 0.0000
# 5 0.0000 0.0000 0.0000 0.0000 30.5515 0.0000
# 6 0.0000 0.0000 0.0000 0.0000 0.0000 6.1826
#
#
#
# Elastic Compliance Matrix: (Units=1/GPa)
#
#
# Indices 1 2 3 4 5 6 
#
# 1 0.013649 -0.004346 -0.002515 0.000000 0.000000 0.000000
# 2 -0.004346 0.008426 -0.001862 0.000000 0.000000 0.000000
# 3 -0.002515 -0.001862 0.016917 0.000000 0.000000 0.000000
# 4 0.000000 0.000000 0.000000 0.090015 0.000000 0.000000
# 5 0.000000 0.000000 0.000000 0.000000 0.032732 0.000000
# 6 0.000000 0.000000 0.000000 0.000000 0.000000 0.161745
#
#
# Mechanical properties :
#
#
# Convention : Reuss Voigt Hill
#
# Bulk Modulus (GPa) = 46.40966 55.93177 51.17072
# Shear Modulus (GPa) = 14.36326 23.75514 19.05920
#
# Velocity S-wave (km/s) = 2.50502 3.22154 2.88560
# Velocity P-wave (km/s) = 5.35187 6.18656 5.78429
#
# Compressibility (1/GPa) = 0.02154724
#
# Stress axis : x y z
#
# Youngs Moduli (GPa) = 73.26282 118.68584 59.11289
#
# Poissons Ratio (x) = 0.51577 0.14866
# Poissons Ratio (y) = 0.31837 0.11005
# Poissons Ratio (z) = 0.18425 0.22097
#
# Static dielectric constant tensor:
#      x y z
#    x 1.884580 0.000000 0.000000 
#    y 0.000000 1.874470 0.000000 
#    z 0.000000 0.000000 1.960420 
# 
# From -- ./inp_files/18286.got.cif
#   From: 2010.05.17/outbox.cif.g08.bks.cpg/sg62_10_cif.got.tgz:18286.got - 2010.06.03 15:25:27.
