data_PCOD9462552
_publ_section_title
;
Structure prediction by ZEFSAII (Michael W. Deem and Ramdas Pophale) SiO2 
 PCOD9462552
Probable space group: P N M A
;
_chemical_formula_sum "Si O2"
_cell_formula_units_Z 40
_cell_length_a 24.456536
_cell_length_b 13.712645
_cell_length_c 5.416692
_cell_angle_alpha 90.000000
_cell_angle_beta 90.000000
_cell_angle_gamma 90.000000
_cell_volume 1816.562391
_symmetry_space_group_name_H-M "P N M A"
_symmetry_group_IT_number 62
_symmetry_cell_setting 'orthorhombic'
loop_
_space_group_symop_operation_xyz
x,y,z
1/2-x,-y,1/2+z
1/2+x,1/2-y,1/2-z
-x,1/2+y,-z
-x,-y,-z
1/2+x,y,1/2-z
1/2-x,1/2+y,1/2+z
x,1/2-y,z
loop_
_atom_site_type_symbol
_atom_site_label
_atom_site_fract_x
_atom_site_fract_y
_atom_site_fract_z
Si Si1 0.514601 0.646673 0.435625
Si Si2 0.693761 0.071200 0.507344
Si Si3 0.452784 0.536301 0.817941
Si Si4 0.101265 0.357067 0.689644
Si Si5 0.756220 0.135517 0.010066
O O1 0.543950 0.750000 0.433633
O O2 0.482047 0.626996 0.687050
O O3 0.551486 0.553600 0.372929
O O4 0.462684 0.651440 0.252980
O O5 0.632822 0.106403 0.569934
O O6 0.719329 0.113445 0.254860
O O7 0.699901 0.953563 0.515028
O O8 0.725162 0.114273 0.750475
O O9 0.500000 0.500000 0.000000
O O10 0.399150 0.565133 0.969252
O O11 0.121752 0.250000 0.616410
O O12 0.773000 0.250000 0.016457
#
# Coordination Sequence:
#
# PCOD9462552 Si02
#       5
#     8   8   8   8   8
#     4   9  18  32  51  74 103 138 173 218 270 320
#     4  10  22  35  57  87 112 144 188 230 274 333
#     4   9  18  32  49  73 103 136 172 215 265 322
#     4  10  19  31  51  80 106 133 173 225 271 312
#     4  10  20  38  57  80 114 152 184 224 278 333
#
# _framework density 22.019611000000001
#
# number of rings (size 3 to 8) (size 9 to 14) (size 15 to 20)
#    0.000    2.400    0.000    2.400    2.800    0.800 
#    0.000    1.000    0.000    6.000    0.000    0.000 
#    0.000    0.000    0.000    0.000    0.000    0.000 
#
# Total GULP energy -222831.539080 kJ/mol
# GULP energy per Si atom -5570.788477 kJ/mol
# Density = 2.196949 g / cm^3
# Si number density = 22.019611 Si / 1000 Ang^3
#
#
#
# Elastic Constant Matrix: (Units=GPa)
#
#
# Indices 1 2 3 4 5 6 
#
# 1 28.2692 19.3994 0.3868 0.0000 0.0000 0.0000
# 2 19.3994 162.1689 6.8040 0.0000 0.0000 0.0000
# 3 0.3868 6.8040 92.5347 0.0000 0.0000 0.0000
# 4 0.0000 0.0000 0.0000 14.9253 0.0000 0.0000
# 5 0.0000 0.0000 0.0000 0.0000 29.2152 0.0000
# 6 0.0000 0.0000 0.0000 0.0000 0.0000 16.2612
#
#
#
# Elastic Compliance Matrix: (Units=1/GPa)
#
#
# Indices 1 2 3 4 5 6 
#
# 1 0.038541 -0.004618 0.000178 0.000000 0.000000 0.000000
# 2 -0.004618 0.006739 -0.000476 0.000000 0.000000 0.000000
# 3 0.000178 -0.000476 0.010841 0.000000 0.000000 0.000000
# 4 0.000000 0.000000 0.000000 0.067000 0.000000 0.000000
# 5 0.000000 0.000000 0.000000 0.000000 0.034229 0.000000
# 6 0.000000 0.000000 0.000000 0.000000 0.000000 0.061496
#
#
# Mechanical properties :
#
#
# Convention : Reuss Voigt Hill
#
# Bulk Modulus (GPa) = 21.60326 37.35034 29.47680
# Shear Modulus (GPa) = 20.48284 29.17252 24.82768
#
# Velocity S-wave (km/s) = 3.05324 3.64379 3.36151
# Velocity P-wave (km/s) = 4.71825 5.89084 5.33685
#
# Compressibility (1/GPa) = 0.04628932
#
# Stress axis : x y z
#
# Youngs Moduli (GPa) = 25.94654 148.39428 92.24223
#
# Poissons Ratio (x) = 0.68527 -0.01646
# Poissons Ratio (y) = 0.11982 0.04393
# Poissons Ratio (z) = -0.00463 0.07066
#
# Static dielectric constant tensor:
#      x y z
#    x 1.878930 0.000000 0.000000 
#    y 0.000000 1.884210 0.000000 
#    z 0.000000 0.000000 1.915530 
# 
# From -- ./inp_files/2657.got.cif
#   From: 2010.05.17/outbox.cif.g08.bks.cpg/sg62_2_cif.got.tgz:2657.got - 2010.06.03 15:25:27.
