data_PCOD9462247
_publ_section_title
;
Structure prediction by ZEFSAII (Michael W. Deem and Ramdas Pophale) SiO2 
 PCOD9462247
Probable space group: P N M A
;
_chemical_formula_sum "Si O2"
_cell_formula_units_Z 32
_cell_length_a 8.647495
_cell_length_b 18.122497
_cell_length_c 7.571992
_cell_angle_alpha 90.000000
_cell_angle_beta 90.000000
_cell_angle_gamma 90.000000
_cell_volume 1186.638685
_symmetry_space_group_name_H-M "P N M A"
_symmetry_group_IT_number 62
_symmetry_cell_setting 'orthorhombic'
loop_
_space_group_symop_operation_xyz
x,y,z
1/2-x,-y,1/2+z
1/2+x,1/2-y,1/2-z
-x,1/2+y,-z
-x,-y,-z
1/2+x,y,1/2-z
1/2-x,1/2+y,1/2+z
x,1/2-y,z
loop_
_atom_site_type_symbol
_atom_site_label
_atom_site_fract_x
_atom_site_fract_y
_atom_site_fract_z
Si Si1 0.792611 0.250000 0.024213
Si Si2 0.099310 0.163501 0.247798
Si Si3 0.554411 0.593360 0.070337
Si Si4 0.469093 0.250000 0.807652
Si Si5 0.880202 0.941648 0.077311
O O1 0.642901 0.250000 0.887767
O O2 0.938792 0.250000 0.899423
O O3 0.762101 0.321287 0.147243
O O4 0.042640 0.250000 0.247171
O O5 0.011036 0.107654 0.376962
O O6 0.113211 0.126633 0.059386
O O7 0.609540 0.675677 0.124392
O O8 0.431924 0.575826 0.223467
O O9 0.698871 0.538506 0.077148
O O10 0.000000 0.000000 0.000000
#
# Coordination Sequence:
#
# PCOD9462247 Si02
#       5
#     4   8   8   4   8
#     4   8  18  36  66 108 142 176 230 300 360 426
#     4   9  23  45  73 109 141 187 245 307 358 434
#     4  11  25  47  75 108 146 190 248 305 375 428
#     4  10  18  38  70 106 134 178 224 306 362 402
#     4  12  30  49  74 105 154 202 243 298 371 455
#
# _framework density 26.966930000000001
#
# number of rings (size 3 to 8) (size 9 to 14) (size 15 to 20)
#    0.750    1.000    1.250    3.000    7.000    5.000 
#    0.000    0.000    0.000    0.000    0.000    0.000 
#    0.000    0.000    0.000    0.000    0.000    0.000 
#
# Total GULP energy -179119.745330 kJ/mol
# GULP energy per Si atom -5597.492042 kJ/mol
# Density = 2.690555 g / cm^3
# Si number density = 26.966930 Si / 1000 Ang^3
#
#
#
# Elastic Constant Matrix: (Units=GPa)
#
#
# Indices 1 2 3 4 5 6 
#
# 1 77.5112 38.6029 92.9983 0.0000 0.0000 0.0000
# 2 38.6029 104.0759 47.4541 0.0000 0.0000 0.0000
# 3 92.9983 47.4541 189.6078 0.0000 0.0000 0.0000
# 4 0.0000 0.0000 0.0000 36.0288 0.0000 0.0000
# 5 0.0000 0.0000 0.0000 0.0000 56.3277 0.0000
# 6 0.0000 0.0000 0.0000 0.0000 0.0000 40.0904
#
#
#
# Elastic Compliance Matrix: (Units=1/GPa)
#
#
# Indices 1 2 3 4 5 6 
#
# 1 0.034072 -0.005664 -0.015294 0.000000 0.000000 0.000000
# 2 -0.005664 0.011788 -0.000172 0.000000 0.000000 0.000000
# 3 -0.015294 -0.000172 0.012818 0.000000 0.000000 0.000000
# 4 0.000000 0.000000 0.000000 0.027756 0.000000 0.000000
# 5 0.000000 0.000000 0.000000 0.000000 0.017753 0.000000
# 6 0.000000 0.000000 0.000000 0.000000 0.000000 0.024944
#
#
# Mechanical properties :
#
#
# Convention : Reuss Voigt Hill
#
# Bulk Modulus (GPa) = 60.90948 81.03393 70.97170
# Shear Modulus (GPa) = 28.27033 39.29868 33.78450
#
# Velocity S-wave (km/s) = 3.24131 3.82159 3.54335
# Velocity P-wave (km/s) = 6.05342 7.04183 6.56625
#
# Compressibility (1/GPa) = 0.01641781
#
# Stress axis : x y z
#
# Youngs Moduli (GPa) = 29.34947 84.83387 78.01271
#
# Poissons Ratio (x) = 0.48053 1.19312
# Poissons Ratio (y) = 0.16625 0.01341
# Poissons Ratio (z) = 0.44887 0.01459
#
# Static dielectric constant tensor:
#      x y z
#    x 2.324990 0.000000 0.000000 
#    y 0.000000 2.127040 0.000000 
#    z 0.000000 0.000000 2.091930 
# 
# From -- ./inp_files/4143.got.cif
#   From: 2010.05.17/outbox.cif.g08.bks.cpg/sg62_3_cif.got.tgz:4143.got - 2010.06.03 15:25:27.
