data_PCOD9462655
_publ_section_title
;
Structure prediction by ZEFSAII (Michael W. Deem and Ramdas Pophale) SiO2 
 PCOD9462655
Probable space group: P N M A
;
_chemical_formula_sum "Si O2"
_cell_formula_units_Z 52
_cell_length_a 5.156299
_cell_length_b 17.570066
_cell_length_c 30.631966
_cell_angle_alpha 90.000000
_cell_angle_beta 90.000000
_cell_angle_gamma 90.000000
_cell_volume 2775.149329
_symmetry_space_group_name_H-M "P N M A"
_symmetry_group_IT_number 62
_symmetry_cell_setting 'orthorhombic'
loop_
_space_group_symop_operation_xyz
x,y,z
1/2-x,-y,1/2+z
1/2+x,1/2-y,1/2-z
-x,1/2+y,-z
-x,-y,-z
1/2+x,y,1/2-z
1/2-x,1/2+y,1/2+z
x,1/2-y,z
loop_
_atom_site_type_symbol
_atom_site_label
_atom_site_fract_x
_atom_site_fract_y
_atom_site_fract_z
Si Si1 0.450120 0.579717 0.218638
Si Si2 0.677824 0.836300 0.733193
Si Si3 0.450716 0.060808 0.037512
Si Si4 0.475860 0.623669 0.642036
Si Si5 0.021240 0.030842 0.363043
Si Si6 0.545768 0.836114 0.544828
Si Si7 0.535434 0.750000 0.223338
O O1 0.692290 0.567558 0.251984
O O2 0.463481 0.529976 0.174690
O O3 0.466780 0.668393 0.203285
O O4 0.952529 0.875705 0.739300
O O5 0.726352 0.750000 0.749422
O O6 0.577642 0.834464 0.684500
O O7 0.457810 0.019508 0.085291
O O8 0.182697 0.106464 0.030708
O O9 0.679535 0.123514 0.036922
O O10 0.500000 0.000000 0.000000
O O11 0.674984 0.552417 0.639170
O O12 0.512084 0.667280 0.597192
O O13 0.177465 0.600304 0.646845
O O14 0.529136 0.750000 0.527303
O O15 0.840772 0.750000 0.234663
#
# Coordination Sequence:
#
# PCOD9462655 Si02
#       7
#     8   8   8   8   8   8   4
#     4  10  19  32  51  75 103 137 176 223 266 320
#     4  10  20  31  43  61  92 136 173 205 251 296
#     4  10  21  38  59  84 112 151 179 225 291 337
#     4  10  20  33  48  72 102 133 174 218 260 302
#     4  10  21  33  51  78 102 135 177 210 265 328
#     4  10  20  36  60  84 107 139 187 230 264 326
#     4   8  16  30  48  68  92 130 172 208 262 322
#
# _framework density 18.737729999999999
#
# number of rings (size 3 to 8) (size 9 to 14) (size 15 to 20)
#    0.000    2.154    0.000    3.231    0.000    3.692 
#    0.000    4.615    3.385    0.000    4.000    0.000 
#    0.000    0.000    0.000    0.000    0.000    0.000 
#
# Total GULP energy -289710.756438 kJ/mol
# GULP energy per Si atom -5571.360701 kJ/mol
# Density = 1.869508 g / cm^3
# Si number density = 18.737730 Si / 1000 Ang^3
#
#
#
# Elastic Constant Matrix: (Units=GPa)
#
#
# Indices 1 2 3 4 5 6 
#
# 1 74.1450 -8.9129 8.8105 0.0000 0.0000 0.0000
# 2 -8.9129 72.8239 27.8305 0.0000 0.0000 0.0000
# 3 8.8105 27.8305 61.7968 0.0000 0.0000 0.0000
# 4 0.0000 0.0000 0.0000 14.8916 0.0000 0.0000
# 5 0.0000 0.0000 0.0000 0.0000 20.0073 0.0000
# 6 0.0000 0.0000 0.0000 0.0000 0.0000 7.3857
#
#
#
# Elastic Compliance Matrix: (Units=1/GPa)
#
#
# Indices 1 2 3 4 5 6 
#
# 1 0.014258 0.003046 -0.003405 0.000000 0.000000 0.000000
# 2 0.003046 0.017237 -0.008197 0.000000 0.000000 0.000000
# 3 -0.003405 -0.008197 0.020359 0.000000 0.000000 0.000000
# 4 0.000000 0.000000 0.000000 0.067152 0.000000 0.000000
# 5 0.000000 0.000000 0.000000 0.000000 0.049982 0.000000
# 6 0.000000 0.000000 0.000000 0.000000 0.000000 0.135397
#
#
# Mechanical properties :
#
#
# Convention : Reuss Voigt Hill
#
# Bulk Modulus (GPa) = 28.78290 29.35799 29.07045
# Shear Modulus (GPa) = 15.01152 20.52608 17.76880
#
# Velocity S-wave (km/s) = 2.83351 3.31334 3.08277
# Velocity P-wave (km/s) = 5.10875 5.50813 5.31219
#
# Compressibility (1/GPa) = 0.03474285
#
# Stress axis : x y z
#
# Youngs Moduli (GPa) = 70.13692 58.01395 49.11800
#
# Poissons Ratio (x) = -0.17672 0.16723
# Poissons Ratio (y) = -0.21365 0.40263
# Poissons Ratio (z) = 0.23879 0.47555
#
# Static dielectric constant tensor:
#      x y z
#    x 1.698250 0.000000 0.000000 
#    y 0.000000 1.668900 0.000000 
#    z 0.000000 0.000000 1.632600 
# 
# From -- ./inp_files/30483.got.cif
#   From: 2010.05.17/outbox.cif.g08.bks.cpg/sg62_16_cif.got.tgz:30483.got - 2010.06.03 15:25:27.
