data_PCOD9462026
_publ_section_title
;
Structure prediction by ZEFSAII (Michael W. Deem and Ramdas Pophale) SiO2 
 PCOD9462026
Probable space group: P N M A
;
_chemical_formula_sum "Si O2"
_cell_formula_units_Z 40
_cell_length_a 7.997387
_cell_length_b 8.337954
_cell_length_c 23.771091
_cell_angle_alpha 90.000000
_cell_angle_beta 90.000000
_cell_angle_gamma 90.000000
_cell_volume 1585.100204
_symmetry_space_group_name_H-M "P N M A"
_symmetry_group_IT_number 62
_symmetry_cell_setting 'orthorhombic'
loop_
_space_group_symop_operation_xyz
x,y,z
1/2-x,-y,1/2+z
1/2+x,1/2-y,1/2-z
-x,1/2+y,-z
-x,-y,-z
1/2+x,y,1/2-z
1/2-x,1/2+y,1/2+z
x,1/2-y,z
loop_
_atom_site_type_symbol
_atom_site_label
_atom_site_fract_x
_atom_site_fract_y
_atom_site_fract_z
Si Si1 0.042884 0.564561 0.832699
Si Si2 0.650893 0.564989 0.237423
Si Si3 0.965629 0.060360 0.366255
Si Si4 0.839699 0.440039 0.536036
Si Si5 0.647018 0.561523 0.435553
O O1 0.089128 0.750000 0.835107
O O2 0.880411 0.542764 0.792192
O O3 0.997807 0.500003 0.894288
O O4 0.183178 0.469077 0.798415
O O5 0.643764 0.750000 0.254253
O O6 0.505967 0.520815 0.192751
O O7 0.935371 0.250000 0.361330
O O8 0.129052 0.032013 0.405845
O O9 0.813517 0.976406 0.398596
O O10 0.848593 0.250000 0.545949
O O11 0.684157 0.477234 0.495235
O O12 0.000000 0.500000 0.500000
O O13 0.631309 0.750000 0.444801
#
# Coordination Sequence:
#
# PCOD9462026 Si02
#       5
#     8   8   8   8   8
#     4  12  25  43  63  88 118 154 195 242 294 351
#     4  12  25  43  63  88 118 154 195 242 294 351
#     4  11  21  37  60  89 121 158 198 243 291 345
#     4  10  18  32  55  86 119 156 197 242 288 342
#     4  11  21  37  60  89 121 158 198 243 291 345
#
# _framework density 25.234997
#
# number of rings (size 3 to 8) (size 9 to 14) (size 15 to 20)
#    0.000    0.800    0.000   12.600    0.000    0.000 
#    0.000    1.000    0.000    0.000    0.000    0.000 
#    0.000    0.000    0.000    0.000    0.000    0.000 
#
# Total GULP energy -224287.302832 kJ/mol
# GULP energy per Si atom -5607.182571 kJ/mol
# Density = 2.517756 g / cm^3
# Si number density = 25.234997 Si / 1000 Ang^3
#
#
#
# Elastic Constant Matrix: (Units=GPa)
#
#
# Indices 1 2 3 4 5 6 
#
# 1 83.5890 -17.3667 -1.1236 0.0000 0.0000 0.0000
# 2 -17.3667 159.9627 1.5154 0.0000 0.0000 0.0000
# 3 -1.1236 1.5154 138.8638 0.0000 0.0000 0.0000
# 4 0.0000 0.0000 0.0000 40.4190 0.0000 0.0000
# 5 0.0000 0.0000 0.0000 0.0000 46.1356 0.0000
# 6 0.0000 0.0000 0.0000 0.0000 0.0000 28.8612
#
#
#
# Elastic Compliance Matrix: (Units=1/GPa)
#
#
# Indices 1 2 3 4 5 6 
#
# 1 0.012240 0.001328 0.000085 0.000000 0.000000 0.000000
# 2 0.001328 0.006396 -0.000059 0.000000 0.000000 0.000000
# 3 0.000085 -0.000059 0.007203 0.000000 0.000000 0.000000
# 4 0.000000 0.000000 0.000000 0.024741 0.000000 0.000000
# 5 0.000000 0.000000 0.000000 0.000000 0.021675 0.000000
# 6 0.000000 0.000000 0.000000 0.000000 0.000000 0.034649
#
#
# Mechanical properties :
#
#
# Convention : Reuss Voigt Hill
#
# Bulk Modulus (GPa) = 35.03071 38.71841 36.87456
# Shear Modulus (GPa) = 43.97066 49.70918 46.83992
#
# Velocity S-wave (km/s) = 4.17879 4.44312 4.31298
# Velocity P-wave (km/s) = 6.09877 6.45741 6.28065
#
# Compressibility (1/GPa) = 0.02854638
#
# Stress axis : x y z
#
# Youngs Moduli (GPa) = 81.69695 156.34269 138.83820
#
# Poissons Ratio (x) = -0.20764 -0.01174
# Poissons Ratio (y) = -0.10850 0.00820
# Poissons Ratio (z) = -0.00691 0.00923
#
# Static dielectric constant tensor:
#      x y z
#    x 1.917650 0.000000 0.000000 
#    y 0.000000 1.812910 0.000000 
#    z 0.000000 0.000000 1.866060 
# 
# From -- ./inp_files/28592.got.cif
#   From: 2010.05.17/outbox.cif.g08.bks.cpg/sg62_15_cif.got.tgz:28592.got - 2010.06.03 15:25:27.
