data_PCOD9462747
_publ_section_title
;
Structure prediction by ZEFSAII (Michael W. Deem and Ramdas Pophale) SiO2 
 PCOD9462747
Probable space group: P N M A
;
_chemical_formula_sum "Si O2"
_cell_formula_units_Z 64
_cell_length_a 10.366939
_cell_length_b 10.125019
_cell_length_c 31.897843
_cell_angle_alpha 90.000000
_cell_angle_beta 90.000000
_cell_angle_gamma 90.000000
_cell_volume 3348.171583
_symmetry_space_group_name_H-M "P N M A"
_symmetry_group_IT_number 62
_symmetry_cell_setting 'orthorhombic'
loop_
_space_group_symop_operation_xyz
x,y,z
1/2-x,-y,1/2+z
1/2+x,1/2-y,1/2-z
-x,1/2+y,-z
-x,-y,-z
1/2+x,y,1/2-z
1/2-x,1/2+y,1/2+z
x,1/2-y,z
loop_
_atom_site_type_symbol
_atom_site_label
_atom_site_fract_x
_atom_site_fract_y
_atom_site_fract_z
Si Si1 0.212997 0.402633 0.600541
Si Si2 0.363590 0.604632 0.004323
Si Si3 0.943746 0.091182 0.206574
Si Si4 0.163517 0.601323 0.437925
Si Si5 0.948698 0.093388 0.649247
Si Si6 0.849219 0.910622 0.723403
Si Si7 0.602207 0.967989 0.535415
Si Si8 0.948839 0.902326 0.882406
O O1 0.257616 0.250000 0.602232
O O2 0.157340 0.423097 0.553534
O O3 0.326998 0.503636 0.609975
O O4 0.095689 0.418249 0.633171
O O5 0.421864 0.750000 0.996813
O O6 0.593489 0.514364 0.026617
O O7 0.215979 0.613455 0.986274
O O8 0.938745 0.250000 0.206657
O O9 0.802754 0.050635 0.223886
O O10 0.065975 0.055556 0.235562
O O11 0.971708 0.051584 0.158599
O O12 0.116079 0.750000 0.438657
O O13 0.136231 0.552642 0.391285
O O14 0.314446 0.593080 0.448565
O O15 0.925174 0.250000 0.658882
O O16 0.913962 0.994260 0.686202
O O17 0.857098 0.750000 0.717213
O O18 0.535443 0.907033 0.575903
O O19 0.500000 0.000000 0.500000
O O20 0.907950 0.750000 0.875293
#
# Coordination Sequence:
#
# PCOD9462747 Si02
#       8
#     8   8   8   8   8   8   8   8
#     4  10  22  38  55  81 118 159 198 243 295 348
#     4   9  19  34  51  77 112 152 195 240 293 342
#     4   9  21  38  64  95 122 149 189 247 300 347
#     4   9  20  35  54  78 108 150 195 237 286 345
#     4  10  22  41  60  82 118 157 194 243 297 352
#     4  10  21  41  66  93 120 152 192 239 298 359
#     4  10  19  32  53  83 113 149 190 241 289 344
#     4  11  21  36  58  86 117 150 198 247 291 348
#
# _framework density 19.114912
#
# number of rings (size 3 to 8) (size 9 to 14) (size 15 to 20)
#    0.750    1.500    1.250    1.125    1.750    4.500 
#    0.000    1.875    0.000    0.000    0.000    0.000 
#    0.000    0.000    0.000    0.000    0.000    0.000 
#
# Total GULP energy -356460.071436 kJ/mol
# GULP energy per Si atom -5569.688616 kJ/mol
# Density = 1.907141 g / cm^3
# Si number density = 19.114912 Si / 1000 Ang^3
#
#
#
# Elastic Constant Matrix: (Units=GPa)
#
#
# Indices 1 2 3 4 5 6 
#
# 1 85.5859 11.4629 42.5565 0.0000 0.0000 0.0000
# 2 11.4629 50.3397 24.3976 0.0000 0.0000 0.0000
# 3 42.5565 24.3976 114.2515 0.0000 0.0000 0.0000
# 4 0.0000 0.0000 0.0000 28.7078 0.0000 0.0000
# 5 0.0000 0.0000 0.0000 0.0000 33.0226 0.0000
# 6 0.0000 0.0000 0.0000 0.0000 0.0000 39.5540
#
#
#
# Elastic Compliance Matrix: (Units=1/GPa)
#
#
# Indices 1 2 3 4 5 6 
#
# 1 0.014366 -0.000756 -0.005190 0.000000 0.000000 0.000000
# 2 -0.000756 0.022198 -0.004459 0.000000 0.000000 0.000000
# 3 -0.005190 -0.004459 0.011638 0.000000 0.000000 0.000000
# 4 0.000000 0.000000 0.000000 0.034834 0.000000 0.000000
# 5 0.000000 0.000000 0.000000 0.000000 0.030282 0.000000
# 6 0.000000 0.000000 0.000000 0.000000 0.000000 0.025282
#
#
# Mechanical properties :
#
#
# Convention : Reuss Voigt Hill
#
# Bulk Modulus (GPa) = 36.50546 45.22347 40.86446
# Shear Modulus (GPa) = 29.66668 31.70755 30.68711
#
# Velocity S-wave (km/s) = 3.94384 4.07724 4.01109
# Velocity P-wave (km/s) = 6.31489 6.77313 6.54802
#
# Compressibility (1/GPa) = 0.02739316
#
# Stress axis : x y z
#
# Youngs Moduli (GPa) = 69.60936 45.04891 85.92733
#
# Poissons Ratio (x) = 0.03406 0.44593
# Poissons Ratio (y) = 0.05263 0.38312
# Poissons Ratio (z) = 0.36124 0.20086
#
# Static dielectric constant tensor:
#      x y z
#    x 1.741840 0.000000 0.000000 
#    y 0.000000 1.692280 0.000000 
#    z 0.000000 0.000000 1.654050 
# 
# From -- ./inp_files/32222.got.cif
#   From: 2010.05.17/outbox.cif.g08.bks.cpg/sg62_17_cif.got.tgz:32222.got - 2010.06.03 15:25:27.
