data_PCOD9462040
_publ_section_title
;
Structure prediction by ZEFSAII (Michael W. Deem and Ramdas Pophale) SiO2 
 PCOD9462040
Probable space group: P N M A
;
_chemical_formula_sum "Si O2"
_cell_formula_units_Z 64
_cell_length_a 24.250665
_cell_length_b 7.590626
_cell_length_c 15.819526
_cell_angle_alpha 90.000000
_cell_angle_beta 90.000000
_cell_angle_gamma 90.000000
_cell_volume 2912.022408
_symmetry_space_group_name_H-M "P N M A"
_symmetry_group_IT_number 62
_symmetry_cell_setting 'orthorhombic'
loop_
_space_group_symop_operation_xyz
x,y,z
1/2-x,-y,1/2+z
1/2+x,1/2-y,1/2-z
-x,1/2+y,-z
-x,-y,-z
1/2+x,y,1/2-z
1/2-x,1/2+y,1/2+z
x,1/2-y,z
loop_
_atom_site_type_symbol
_atom_site_label
_atom_site_fract_x
_atom_site_fract_y
_atom_site_fract_z
Si Si1 0.584953 0.548608 0.756043
Si Si2 0.643121 0.454410 0.925790
Si Si3 0.880230 0.963983 0.607648
Si Si4 0.742762 0.041759 0.150505
Si Si5 0.253397 0.036759 0.654759
Si Si6 0.539686 0.545478 0.258612
Si Si7 0.642730 0.965894 0.585832
Si Si8 0.124567 0.965414 0.100406
O O1 0.604237 0.750000 0.762048
O O2 0.606670 0.462409 0.841735
O O3 0.519261 0.543515 0.750282
O O4 0.610669 0.474394 0.669514
O O5 0.653674 0.250000 0.945782
O O6 0.703305 0.530361 0.903137
O O7 0.614014 0.523001 0.010251
O O8 0.883372 0.750000 0.614357
O O9 0.818746 0.025453 0.634248
O O10 0.925096 0.033110 0.672866
O O11 0.739646 0.250000 0.133985
O O12 0.793615 0.975476 0.094495
O O13 0.757651 0.012735 0.248282
O O14 0.253496 0.250000 0.650118
O O15 0.314412 0.976863 0.629368
O O16 0.528279 0.750000 0.276681
O O17 0.578222 0.473967 0.334070
O O18 0.642367 0.750000 0.585886
O O19 0.617032 0.019924 0.496669
O O20 0.124517 0.750000 0.103669
#
# Coordination Sequence:
#
# PCOD9462040 Si02
#       8
#     8   8   8   8   8   8   8   8
#     4  11  23  39  59  82 110 148 190 236 281 327
#     4  10  21  37  59  86 115 148 185 228 279 334
#     4  10  21  37  59  86 115 148 185 228 279 334
#     4  10  18  32  57  86 116 147 180 221 274 333
#     4  10  18  32  57  86 116 147 180 221 274 333
#     4  11  23  39  59  82 110 148 190 236 281 327
#     4   9  18  34  57  84 113 147 184 221 271 334
#     4   9  18  34  57  84 113 147 184 221 271 334
#
# _framework density 21.977854000000001
#
# number of rings (size 3 to 8) (size 9 to 14) (size 15 to 20)
#    0.000    2.000    2.500    1.500    0.000    4.500 
#    0.000    0.000    0.000    7.500    0.000    0.000 
#    0.000    0.000    0.000    0.000    0.000    0.000 
#
# Total GULP energy -357559.939895 kJ/mol
# GULP energy per Si atom -5586.874061 kJ/mol
# Density = 2.192783 g / cm^3
# Si number density = 21.977854 Si / 1000 Ang^3
#
#
#
# Elastic Constant Matrix: (Units=GPa)
#
#
# Indices 1 2 3 4 5 6 
#
# 1 99.8230 -5.6625 27.7369 0.0000 0.0000 0.0000
# 2 -5.6625 47.6916 -10.9708 0.0000 0.0000 0.0000
# 3 27.7369 -10.9708 115.2346 0.0000 0.0000 0.0000
# 4 0.0000 0.0000 0.0000 14.3028 0.0000 0.0000
# 5 0.0000 0.0000 0.0000 0.0000 2.1790 0.0000
# 6 0.0000 0.0000 0.0000 0.0000 0.0000 -17.3483
#
#
#
# Elastic Compliance Matrix: (Units=1/GPa)
#
#
# Indices 1 2 3 4 5 6 
#
# 1 0.010758 0.000697 -0.002523 0.000000 0.000000 0.000000
# 2 0.000697 0.021483 0.001877 0.000000 0.000000 0.000000
# 3 -0.002523 0.001877 0.009464 0.000000 0.000000 0.000000
# 4 0.000000 0.000000 0.000000 0.069916 0.000000 0.000000
# 5 0.000000 0.000000 0.000000 0.000000 0.458934 0.000000
# 6 0.000000 0.000000 0.000000 0.000000 0.000000 -0.057642
#
#
# Mechanical properties :
#
#
# Convention : Reuss Voigt Hill
#
# Bulk Modulus (GPa) = 23.91915 31.66184 27.79050
# Shear Modulus (GPa) = 9.49223 16.60307 13.04765
#
# Velocity S-wave (km/s) = 2.08047 2.75152 2.43918
# Velocity P-wave (km/s) = 4.08388 4.95298 4.53928
#
# Compressibility (1/GPa) = 0.04180751
#
# Stress axis : x y z
#
# Youngs Moduli (GPa) = 92.95104 46.54914 105.66335
#
# Poissons Ratio (x) = -0.03244 0.26661
# Poissons Ratio (y) = -0.06478 -0.19838
# Poissons Ratio (z) = 0.23453 -0.08739
#
# Static dielectric constant tensor:
#      x y z
#    x 1.773950 0.000000 0.000000 
#    y 0.000000 1.890190 0.000000 
#    z 0.000000 0.000000 1.798270 
# 
# From -- ./inp_files/20756.got.cif
#   From: 2010.05.17/outbox.cif.g08.bks.cpg/sg62_11_cif.got.tgz:20756.got - 2010.06.03 15:25:27.
