data_PCOD9462486
_publ_section_title
;
Structure prediction by ZEFSAII (Michael W. Deem and Ramdas Pophale) SiO2 
 PCOD9462486
Probable space group: P N M A
;
_chemical_formula_sum "Si O2"
_cell_formula_units_Z 48
_cell_length_a 17.413899
_cell_length_b 9.268508
_cell_length_c 16.804694
_cell_angle_alpha 90.000000
_cell_angle_beta 90.000000
_cell_angle_gamma 90.000000
_cell_volume 2712.292100
_symmetry_space_group_name_H-M "P N M A"
_symmetry_group_IT_number 62
_symmetry_cell_setting 'orthorhombic'
loop_
_space_group_symop_operation_xyz
x,y,z
1/2-x,-y,1/2+z
1/2+x,1/2-y,1/2-z
-x,1/2+y,-z
-x,-y,-z
1/2+x,y,1/2-z
1/2-x,1/2+y,1/2+z
x,1/2-y,z
loop_
_atom_site_type_symbol
_atom_site_label
_atom_site_fract_x
_atom_site_fract_y
_atom_site_fract_z
Si Si1 0.440624 0.577911 0.605377
Si Si2 0.614206 0.077703 0.225524
Si Si3 0.882212 0.085818 0.478659
Si Si4 0.733041 0.575889 0.111568
Si Si5 0.595772 0.422890 0.574802
Si Si6 0.493449 0.585520 0.123214
O O1 0.453535 0.750000 0.605860
O O2 0.387776 0.544262 0.680845
O O3 0.522273 0.499194 0.612389
O O4 0.405803 0.540004 0.519410
O O5 0.616493 0.250000 0.213877
O O6 0.683744 0.002812 0.178838
O O7 0.536073 0.013434 0.187439
O O8 0.873297 0.250000 0.449282
O O9 0.805950 0.040227 0.526039
O O10 0.946893 0.088975 0.548593
O O11 0.915450 0.982890 0.410833
O O12 0.725015 0.750000 0.120070
O O13 0.822249 0.536968 0.111218
O O14 0.587640 0.250000 0.581373
O O15 0.483609 0.750000 0.150836
#
# Coordination Sequence:
#
# PCOD9462486 Si02
#       6
#     8   8   8   8   8   8
#     4   9  19  35  54  76  99 128 167 205 245 293
#     4  10  19  31  49  73 103 134 164 203 248 296
#     4   8  14  25  41  63  93 128 162 195 236 289
#     4   9  18  32  51  75 102 131 163 202 250 299
#     4   9  18  35  57  76  97 128 166 207 247 290
#     4   9  16  26  42  65  94 128 166 202 238 287
#
# _framework density 17.697208
#
# number of rings (size 3 to 8) (size 9 to 14) (size 15 to 20)
#    0.000    3.000    0.000    2.000    0.000    6.000 
#    0.000    1.667    0.000    4.000    0.000    0.000 
#    0.000    0.000    0.000    0.000    0.000    0.000 
#
# Total GULP energy -267428.194085 kJ/mol
# GULP energy per Si atom -5571.420710 kJ/mol
# Density = 1.765693 g / cm^3
# Si number density = 17.697208 Si / 1000 Ang^3
#
#
#
# Elastic Constant Matrix: (Units=GPa)
#
#
# Indices 1 2 3 4 5 6 
#
# 1 85.5242 32.4624 37.4259 0.0000 0.0000 0.0000
# 2 32.4624 41.8499 31.0653 0.0000 0.0000 0.0000
# 3 37.4259 31.0653 60.5487 0.0000 0.0000 0.0000
# 4 0.0000 0.0000 0.0000 20.9026 0.0000 0.0000
# 5 0.0000 0.0000 0.0000 0.0000 9.8018 0.0000
# 6 0.0000 0.0000 0.0000 0.0000 0.0000 24.4733
#
#
#
# Elastic Compliance Matrix: (Units=1/GPa)
#
#
# Indices 1 2 3 4 5 6 
#
# 1 0.017984 -0.009204 -0.006394 0.000000 0.000000 0.000000
# 2 -0.009204 0.043303 -0.016528 0.000000 0.000000 0.000000
# 3 -0.006394 -0.016528 0.028948 0.000000 0.000000 0.000000
# 4 0.000000 0.000000 0.000000 0.047841 0.000000 0.000000
# 5 0.000000 0.000000 0.000000 0.000000 0.102022 0.000000
# 6 0.000000 0.000000 0.000000 0.000000 0.000000 0.040861
#
#
# Mechanical properties :
#
#
# Convention : Reuss Voigt Hill
#
# Bulk Modulus (GPa) = 38.48673 43.31443 40.90058
# Shear Modulus (GPa) = 14.12939 16.83350 15.48145
#
# Velocity S-wave (km/s) = 2.82866 3.08749 2.96090
# Velocity P-wave (km/s) = 5.69763 6.10234 5.90345
#
# Compressibility (1/GPa) = 0.02598298
#
# Stress axis : x y z
#
# Youngs Moduli (GPa) = 55.60453 23.09301 34.54466
#
# Poissons Ratio (x) = 0.21254 0.22088
# Poissons Ratio (y) = 0.51176 0.57097
# Poissons Ratio (z) = 0.35554 0.38169
#
# Static dielectric constant tensor:
#      x y z
#    x 1.596710 0.000000 0.000000 
#    y 0.000000 1.594380 0.000000 
#    z 0.000000 0.000000 1.614140 
# 
# From -- ./inp_files/24188.got.cif
#   From: 2010.05.17/outbox.cif.g08.bks.cpg/sg62_13_cif.got.tgz:24188.got - 2010.06.03 15:25:27.
