data_PCOD9462689
_publ_section_title
;
Structure prediction by ZEFSAII (Michael W. Deem and Ramdas Pophale) SiO2 
 PCOD9462689
Probable space group: P N M A
;
_chemical_formula_sum "Si O2"
_cell_formula_units_Z 64
_cell_length_a 22.651063
_cell_length_b 7.662570
_cell_length_c 17.358432
_cell_angle_alpha 90.000000
_cell_angle_beta 90.000000
_cell_angle_gamma 90.000000
_cell_volume 3012.822426
_symmetry_space_group_name_H-M "P N M A"
_symmetry_group_IT_number 62
_symmetry_cell_setting 'orthorhombic'
loop_
_space_group_symop_operation_xyz
x,y,z
1/2-x,-y,1/2+z
1/2+x,1/2-y,1/2-z
-x,1/2+y,-z
-x,-y,-z
1/2+x,y,1/2-z
1/2-x,1/2+y,1/2+z
x,1/2-y,z
loop_
_atom_site_type_symbol
_atom_site_label
_atom_site_fract_x
_atom_site_fract_y
_atom_site_fract_z
Si Si1 0.053044 0.548212 0.893619
Si Si2 0.925007 0.956823 0.940127
Si Si3 0.845587 0.460003 0.212793
Si Si4 0.526857 0.542908 0.168477
Si Si5 0.896997 0.539958 0.369619
Si Si6 0.220681 0.455486 0.340540
Si Si7 0.374411 0.041021 0.715868
Si Si8 0.123030 0.038192 0.457333
O O1 0.043030 0.750000 0.872727
O O2 0.095870 0.469231 0.829779
O O3 0.988105 0.471212 0.908509
O O4 0.085303 0.538826 0.976486
O O5 0.930881 0.750000 0.952835
O O6 0.878466 0.989426 0.872921
O O7 0.845803 0.250000 0.203024
O O8 0.850771 0.496987 0.303038
O O9 0.785536 0.529121 0.174816
O O10 0.521094 0.750000 0.181320
O O11 0.461316 0.471002 0.156962
O O12 0.567134 0.473367 0.238541
O O13 0.565577 0.514711 0.091727
O O14 0.901301 0.750000 0.374776
O O15 0.880874 0.476957 0.454938
O O16 0.227815 0.250000 0.356250
O O17 0.181478 0.474653 0.263493
O O18 0.179978 0.527103 0.409549
O O19 0.373958 0.250000 0.721064
O O20 0.124590 0.250000 0.456927
#
# Coordination Sequence:
#
# PCOD9462689 Si02
#       8
#     8   8   8   8   8   8   8   8
#     4   9  19  35  53  76 106 140 176 216 268 320
#     4  10  19  32  53  80 108 136 173 220 266 316
#     4  10  21  37  55  74 102 140 179 219 261 309
#     4   9  18  31  50  78 110 139 167 210 261 310
#     4  10  20  33  51  79 110 135 169 214 262 316
#     4   9  19  37  55  71 100 137 176 217 257 302
#     4  10  19  32  52  77 104 137 175 214 260 312
#     4   9  18  33  53  76 103 138 173 211 257 310
#
# _framework density 21.242540000000002
#
# number of rings (size 3 to 8) (size 9 to 14) (size 15 to 20)
#    0.000    2.500    0.000    1.875    0.000    3.000 
#    2.250    0.000    0.000    0.000    0.000    0.000 
#    0.000    0.000    0.000    0.000    0.000    0.000 
#
# Total GULP energy -357261.057981 kJ/mol
# GULP energy per Si atom -5582.204031 kJ/mol
# Density = 2.119419 g / cm^3
# Si number density = 21.242540 Si / 1000 Ang^3
#
#
#
# Elastic Constant Matrix: (Units=GPa)
#
#
# Indices 1 2 3 4 5 6 
#
# 1 57.2661 -3.6997 15.7716 0.0000 0.0000 0.0000
# 2 -3.6997 38.5464 -19.6970 0.0000 0.0000 0.0000
# 3 15.7716 -19.6970 82.1814 0.0000 0.0000 0.0000
# 4 0.0000 0.0000 0.0000 13.7846 0.0000 0.0000
# 5 0.0000 0.0000 0.0000 0.0000 11.6799 0.0000
# 6 0.0000 0.0000 0.0000 0.0000 0.0000 8.2177
#
#
#
# Elastic Compliance Matrix: (Units=1/GPa)
#
#
# Indices 1 2 3 4 5 6 
#
# 1 0.018437 -0.000044 -0.003549 0.000000 0.000000 0.000000
# 2 -0.000044 0.029564 0.007094 0.000000 0.000000 0.000000
# 3 -0.003549 0.007094 0.014550 0.000000 0.000000 0.000000
# 4 0.000000 0.000000 0.000000 0.072545 0.000000 0.000000
# 5 0.000000 0.000000 0.000000 0.000000 0.085618 0.000000
# 6 0.000000 0.000000 0.000000 0.000000 0.000000 0.121688
#
#
# Mechanical properties :
#
#
# Convention : Reuss Voigt Hill
#
# Bulk Modulus (GPa) = 14.37750 18.08263 16.23007
# Shear Modulus (GPa) = 13.94381 19.11102 16.52742
#
# Velocity S-wave (km/s) = 2.56483 3.00268 2.79235
# Velocity P-wave (km/s) = 3.94387 4.53348 4.24891
#
# Compressibility (1/GPa) = 0.06955313
#
# Stress axis : x y z
#
# Youngs Moduli (GPa) = 54.23910 33.82537 68.73067
#
# Poissons Ratio (x) = 0.00148 0.24391
# Poissons Ratio (y) = 0.00238 -0.48758
# Poissons Ratio (z) = 0.19248 -0.23996
#
# Static dielectric constant tensor:
#      x y z
#    x 1.771950 0.000000 0.000000 
#    y 0.000000 1.761040 0.000000 
#    z 0.000000 0.000000 1.759050 
# 
# From -- ./inp_files/20825.got.cif
#   From: 2010.05.17/outbox.cif.g08.bks.cpg/sg62_11_cif.got.tgz:20825.got - 2010.06.03 15:25:27.
