data_PCOD9462872
_publ_section_title
;
Structure prediction by ZEFSAII (Michael W. Deem and Ramdas Pophale) SiO2 
 PCOD9462872
Probable space group: P N M A
;
_chemical_formula_sum "Si O2"
_cell_formula_units_Z 48
_cell_length_a 16.919731
_cell_length_b 8.577057
_cell_length_c 18.927008
_cell_angle_alpha 90.000000
_cell_angle_beta 90.000000
_cell_angle_gamma 90.000000
_cell_volume 2746.715739
_symmetry_space_group_name_H-M "P N M A"
_symmetry_group_IT_number 62
_symmetry_cell_setting 'orthorhombic'
loop_
_space_group_symop_operation_xyz
x,y,z
1/2-x,-y,1/2+z
1/2+x,1/2-y,1/2-z
-x,1/2+y,-z
-x,-y,-z
1/2+x,y,1/2-z
1/2-x,1/2+y,1/2+z
x,1/2-y,z
loop_
_atom_site_type_symbol
_atom_site_label
_atom_site_fract_x
_atom_site_fract_y
_atom_site_fract_z
Si Si1 0.429401 0.063984 0.790934
Si Si2 0.994697 0.064244 0.421055
Si Si3 0.164951 0.936843 0.158156
Si Si4 0.488429 0.563369 0.578167
Si Si5 0.419098 0.065570 0.289513
Si Si6 0.341072 0.563961 0.159260
O O1 0.445635 0.250000 0.788331
O O2 0.354231 0.033188 0.741182
O O3 0.436478 0.007956 0.871206
O O4 0.499378 0.970656 0.751840
O O5 0.000601 0.250000 0.420321
O O6 0.911076 0.013268 0.386032
O O7 0.000000 0.000000 0.500000
O O8 0.161772 0.750000 0.148988
O O9 0.253044 0.989614 0.139252
O O10 0.094393 0.007556 0.111882
O O11 0.500000 0.500000 0.500000
O O12 0.488724 0.750000 0.577671
O O13 0.559622 0.513332 0.631166
O O14 0.402900 0.250000 0.288516
O O15 0.355697 0.977157 0.241714
O O16 0.346786 0.750000 0.150479
#
# Coordination Sequence:
#
# PCOD9462872 Si02
#       6
#     8   8   8   8   8   8
#     4   9  16  30  51  73  96 127 163 201 243 293
#     4  11  21  34  52  75 102 135 171 209 251 301
#     4   9  19  34  53  76 103 131 165 208 254 302
#     4  10  20  33  52  75 102 136 173 210 253 301
#     4   9  17  30  48  72  97 126 164 203 241 291
#     4  10  19  33  53  77 102 131 165 207 255 302
#
# _framework density 17.475415999999999
#
# number of rings (size 3 to 8) (size 9 to 14) (size 15 to 20)
#    0.000    2.333    0.000    5.500    0.000    4.000 
#    0.000    1.667    0.000    4.000    0.000    0.000 
#    0.000    0.000    0.000    0.000    0.000    0.000 
#
# Total GULP energy -267388.367824 kJ/mol
# GULP energy per Si atom -5570.590996 kJ/mol
# Density = 1.743564 g / cm^3
# Si number density = 17.475416 Si / 1000 Ang^3
#
#
#
# Elastic Constant Matrix: (Units=GPa)
#
#
# Indices 1 2 3 4 5 6 
#
# 1 76.6465 19.8052 35.6765 0.0000 0.0000 0.0000
# 2 19.8052 38.3732 21.5568 0.0000 0.0000 0.0000
# 3 35.6765 21.5568 137.2818 0.0000 0.0000 0.0000
# 4 0.0000 0.0000 0.0000 31.2264 0.0000 0.0000
# 5 0.0000 0.0000 0.0000 0.0000 15.5775 0.0000
# 6 0.0000 0.0000 0.0000 0.0000 0.0000 16.3924
#
#
#
# Elastic Compliance Matrix: (Units=1/GPa)
#
#
# Indices 1 2 3 4 5 6 
#
# 1 0.016231 -0.006589 -0.003184 0.000000 0.000000 0.000000
# 2 -0.006589 0.031256 -0.003196 0.000000 0.000000 0.000000
# 3 -0.003184 -0.003196 0.008613 0.000000 0.000000 0.000000
# 4 0.000000 0.000000 0.000000 0.032024 0.000000 0.000000
# 5 0.000000 0.000000 0.000000 0.000000 0.064195 0.000000
# 6 0.000000 0.000000 0.000000 0.000000 0.000000 0.061004
#
#
# Mechanical properties :
#
#
# Convention : Reuss Voigt Hill
#
# Bulk Modulus (GPa) = 33.15181 45.15318 39.15249
# Shear Modulus (GPa) = 20.05496 24.32343 22.18920
#
# Velocity S-wave (km/s) = 3.39131 3.73482 3.56720
# Velocity P-wave (km/s) = 5.86058 6.67029 6.27850
#
# Compressibility (1/GPa) = 0.03016427
#
# Stress axis : x y z
#
# Youngs Moduli (GPa) = 61.60934 31.99416 116.09796
#
# Poissons Ratio (x) = 0.21081 0.36960
# Poissons Ratio (y) = 0.40594 0.37101
# Poissons Ratio (z) = 0.19614 0.10224
#
# Static dielectric constant tensor:
#      x y z
#    x 1.606290 0.000000 0.000000 
#    y 0.000000 1.588010 0.000000 
#    z 0.000000 0.000000 1.626290 
# 
# From -- ./inp_files/24216.got.cif
#   From: 2010.05.17/outbox.cif.g08.bks.cpg/sg62_13_cif.got.tgz:24216.got - 2010.06.03 15:25:27.
