data_PCOD9462038
_publ_section_title
;
Structure prediction by ZEFSAII (Michael W. Deem and Ramdas Pophale) SiO2 
 PCOD9462038
Probable space group: P N M A
;
_chemical_formula_sum "Si O2"
_cell_formula_units_Z 48
_cell_length_a 13.891410
_cell_length_b 20.077726
_cell_length_c 7.528798
_cell_angle_alpha 90.000000
_cell_angle_beta 90.000000
_cell_angle_gamma 90.000000
_cell_volume 2099.841418
_symmetry_space_group_name_H-M "P N M A"
_symmetry_group_IT_number 62
_symmetry_cell_setting 'orthorhombic'
loop_
_space_group_symop_operation_xyz
x,y,z
1/2-x,-y,1/2+z
1/2+x,1/2-y,1/2-z
-x,1/2+y,-z
-x,-y,-z
1/2+x,y,1/2-z
1/2-x,1/2+y,1/2+z
x,1/2-y,z
loop_
_atom_site_type_symbol
_atom_site_label
_atom_site_fract_x
_atom_site_fract_y
_atom_site_fract_z
Si Si1 0.691121 0.325356 0.228902
Si Si2 0.458663 0.045642 0.659624
Si Si3 0.900379 0.468322 0.394194
Si Si4 0.268624 0.446471 0.460819
Si Si5 0.396622 0.322045 0.131919
Si Si6 0.517291 0.174106 0.478237
O O1 0.670144 0.250000 0.168572
O O2 0.719255 0.374853 0.072257
O O3 0.781695 0.322304 0.361588
O O4 0.602731 0.349624 0.347979
O O5 0.344416 0.049706 0.622904
O O6 0.498446 0.120089 0.627731
O O7 0.500000 0.000000 0.500000
O O8 0.507083 0.010676 0.829137
O O9 0.820450 0.503990 0.514144
O O10 0.834719 0.459565 0.212421
O O11 0.927038 0.392424 0.448234
O O12 0.430512 0.250000 0.059933
O O13 0.428867 0.323550 0.339200
O O14 0.536409 0.250000 0.537365
#
# Coordination Sequence:
#
# PCOD9462038 Si02
#       6
#     8   8   8   8   8   8
#     4   9  18  32  56  82 108 143 192 235 275 331
#     4  10  19  34  55  76 114 146 186 228 288 340
#     4  10  21  34  56  83 112 150 190 237 278 345
#     4  10  21  36  57  79 113 151 186 234 288 338
#     4   9  17  31  51  78 106 142 187 232 275 322
#     4  10  18  32  57  85 106 142 193 237 273 336
#
# _framework density 22.85887
#
# number of rings (size 3 to 8) (size 9 to 14) (size 15 to 20)
#    0.000    2.333    5.000    0.000    9.333    0.000 
#    0.000    4.167    0.000    1.000    0.000    0.000 
#    0.000    0.000    0.000    0.000    0.000    0.000 
#
# Total GULP energy -267849.962949 kJ/mol
# GULP energy per Si atom -5580.207561 kJ/mol
# Density = 2.280684 g / cm^3
# Si number density = 22.858870 Si / 1000 Ang^3
#
#
#
# Elastic Constant Matrix: (Units=GPa)
#
#
# Indices 1 2 3 4 5 6 
#
# 1 111.3133 58.3136 27.3343 0.0000 0.0000 0.0000
# 2 58.3136 183.3221 40.7600 0.0000 0.0000 0.0000
# 3 27.3343 40.7600 66.9746 0.0000 0.0000 0.0000
# 4 0.0000 0.0000 0.0000 31.7767 0.0000 0.0000
# 5 0.0000 0.0000 0.0000 0.0000 25.3592 0.0000
# 6 0.0000 0.0000 0.0000 0.0000 0.0000 30.9523
#
#
#
# Elastic Compliance Matrix: (Units=1/GPa)
#
#
# Indices 1 2 3 4 5 6 
#
# 1 0.011211 -0.002948 -0.002782 0.000000 0.000000 0.000000
# 2 -0.002948 0.007084 -0.003108 0.000000 0.000000 0.000000
# 3 -0.002782 -0.003108 0.017958 0.000000 0.000000 0.000000
# 4 0.000000 0.000000 0.000000 0.031470 0.000000 0.000000
# 5 0.000000 0.000000 0.000000 0.000000 0.039433 0.000000
# 6 0.000000 0.000000 0.000000 0.000000 0.000000 0.032308
#
#
# Mechanical properties :
#
#
# Convention : Reuss Voigt Hill
#
# Bulk Modulus (GPa) = 53.82762 68.26952 61.04857
# Shear Modulus (GPa) = 30.61288 33.29778 31.95533
#
# Velocity S-wave (km/s) = 3.66350 3.82077 3.74296
# Velocity P-wave (km/s) = 6.44157 7.02815 6.74124
#
# Compressibility (1/GPa) = 0.01857782
#
# Stress axis : x y z
#
# Youngs Moduli (GPa) = 89.19895 141.17254 55.68629
#
# Poissons Ratio (x) = 0.41613 0.15490
# Poissons Ratio (y) = 0.26293 0.17307
# Poissons Ratio (z) = 0.24811 0.43875
#
# Static dielectric constant tensor:
#      x y z
#    x 1.880260 0.000000 0.000000 
#    y 0.000000 1.905830 0.000000 
#    z 0.000000 0.000000 1.916910 
# 
# From -- ./inp_files/6607.got.cif
#   From: 2010.05.17/outbox.cif.g08.bks.cpg/sg62_4_cif.got.tgz:6607.got - 2010.06.03 15:25:27.
