data_PCOD9462564
_publ_section_title
;
Structure prediction by ZEFSAII (Michael W. Deem and Ramdas Pophale) SiO2 
 PCOD9462564
Probable space group: P N M A
;
_chemical_formula_sum "Si O2"
_cell_formula_units_Z 40
_cell_length_a 10.591351
_cell_length_b 13.632218
_cell_length_c 14.824157
_cell_angle_alpha 90.000000
_cell_angle_beta 90.000000
_cell_angle_gamma 90.000000
_cell_volume 2140.365240
_symmetry_space_group_name_H-M "P N M A"
_symmetry_group_IT_number 62
_symmetry_cell_setting 'orthorhombic'
loop_
_space_group_symop_operation_xyz
x,y,z
1/2-x,-y,1/2+z
1/2+x,1/2-y,1/2-z
-x,1/2+y,-z
-x,-y,-z
1/2+x,y,1/2-z
1/2-x,1/2+y,1/2+z
x,1/2-y,z
loop_
_atom_site_type_symbol
_atom_site_label
_atom_site_fract_x
_atom_site_fract_y
_atom_site_fract_z
Si Si1 0.758543 0.859418 0.949698
Si Si2 0.866765 0.633451 0.463116
Si Si3 0.500613 0.137343 0.316626
Si Si4 0.012527 0.543823 0.629743
Si Si5 0.861773 0.035108 0.032546
O O1 0.736923 0.750000 0.982143
O O2 0.640585 0.897409 0.893290
O O3 0.878541 0.860779 0.882809
O O4 0.783808 0.933962 0.031474
O O5 0.883061 0.750000 0.456115
O O6 0.949814 0.568497 0.393501
O O7 0.718332 0.602941 0.463365
O O8 0.913551 0.590445 0.559547
O O9 0.475480 0.250000 0.288740
O O10 0.524450 0.068714 0.231108
O O11 0.385962 0.093520 0.375701
O O12 0.000000 0.000000 0.000000
#
# Coordination Sequence:
#
# PCOD9462564 Si02
#       5
#     8   8   8   8   8
#     4   9  18  33  51  74 108 144 178 224 277 326
#     4  10  20  36  57  79 110 151 184 220 275 332
#     4  10  19  31  52  79 107 138 182 233 278 318
#     4  10  21  34  53  82 111 140 183 231 269 325
#     4   9  19  34  52  80 109 139 179 223 269 329
#
# _framework density 18.688397999999999
#
# number of rings (size 3 to 8) (size 9 to 14) (size 15 to 20)
#    0.000    2.400    0.000    2.400    2.800    0.800 
#    0.000    1.000    0.000    6.000    0.000    0.000 
#    0.000    0.000    0.000    0.000    0.000    0.000 
#
# Total GULP energy -222785.239477 kJ/mol
# GULP energy per Si atom -5569.630987 kJ/mol
# Density = 1.864586 g / cm^3
# Si number density = 18.688398 Si / 1000 Ang^3
#
#
#
# Elastic Constant Matrix: (Units=GPa)
#
#
# Indices 1 2 3 4 5 6 
#
# 1 53.0878 29.7452 0.8901 0.0000 0.0000 0.0000
# 2 29.7452 171.3744 29.1130 0.0000 0.0000 0.0000
# 3 0.8901 29.1130 48.5330 0.0000 0.0000 0.0000
# 4 0.0000 0.0000 0.0000 21.7974 0.0000 0.0000
# 5 0.0000 0.0000 0.0000 0.0000 14.9731 0.0000
# 6 0.0000 0.0000 0.0000 0.0000 0.0000 20.2327
#
#
#
# Elastic Compliance Matrix: (Units=1/GPa)
#
#
# Indices 1 2 3 4 5 6 
#
# 1 0.021040 -0.003993 0.002010 0.000000 0.000000 0.000000
# 2 -0.003993 0.007255 -0.004279 0.000000 0.000000 0.000000
# 3 0.002010 -0.004279 0.023134 0.000000 0.000000 0.000000
# 4 0.000000 0.000000 0.000000 0.045877 0.000000 0.000000
# 5 0.000000 0.000000 0.000000 0.000000 0.066786 0.000000
# 6 0.000000 0.000000 0.000000 0.000000 0.000000 0.049425
#
#
# Mechanical properties :
#
#
# Convention : Reuss Voigt Hill
#
# Bulk Modulus (GPa) = 25.70378 43.61021 34.65699
# Shear Modulus (GPa) = 20.91944 25.61709 23.26827
#
# Velocity S-wave (km/s) = 3.34935 3.70638 3.53238
# Velocity P-wave (km/s) = 5.36108 6.45774 5.93480
#
# Compressibility (1/GPa) = 0.03890479
#
# Stress axis : x y z
#
# Youngs Moduli (GPa) = 47.52739 137.83238 43.22566
#
# Poissons Ratio (x) = 0.55041 -0.08686
# Poissons Ratio (y) = 0.18979 0.18496
# Poissons Ratio (z) = -0.09551 0.58977
#
# Static dielectric constant tensor:
#      x y z
#    x 1.754070 0.000000 0.000000 
#    y 0.000000 1.669440 0.000000 
#    z 0.000000 0.000000 1.635660 
# 
# From -- ./inp_files/17773.got.cif
#   From: 2010.05.17/outbox.cif.g08.bks.cpg/sg62_9_cif.got.tgz:17773.got - 2010.06.03 15:25:27.
