data_PCOD9462695
_publ_section_title
;
Structure prediction by ZEFSAII (Michael W. Deem and Ramdas Pophale) SiO2 
 PCOD9462695
Probable space group: P N M A
;
_chemical_formula_sum "Si O2"
_cell_formula_units_Z 48
_cell_length_a 16.428731
_cell_length_b 18.065364
_cell_length_c 9.545161
_cell_angle_alpha 90.000000
_cell_angle_beta 90.000000
_cell_angle_gamma 90.000000
_cell_volume 2832.917932
_symmetry_space_group_name_H-M "P N M A"
_symmetry_group_IT_number 62
_symmetry_cell_setting 'orthorhombic'
loop_
_space_group_symop_operation_xyz
x,y,z
1/2-x,-y,1/2+z
1/2+x,1/2-y,1/2-z
-x,1/2+y,-z
-x,-y,-z
1/2+x,y,1/2-z
1/2-x,1/2+y,1/2+z
x,1/2-y,z
loop_
_atom_site_type_symbol
_atom_site_label
_atom_site_fract_x
_atom_site_fract_y
_atom_site_fract_z
Si Si1 0.991416 0.562344 0.310415
Si Si2 0.941159 0.834381 0.776403
Si Si3 0.255993 0.431790 0.991658
Si Si4 0.894016 0.663611 0.097351
Si Si5 0.426508 0.405923 0.100386
Si Si6 0.653904 0.020825 0.248710
O O1 0.022362 0.597839 0.455729
O O2 0.072396 0.528515 0.238440
O O3 0.944686 0.618513 0.211591
O O4 0.936168 0.491161 0.348734
O O5 0.919207 0.750000 0.741917
O O6 0.878936 0.896265 0.718143
O O7 0.028888 0.854822 0.713083
O O8 0.936771 0.842547 0.944528
O O9 0.194139 0.373987 0.921862
O O10 0.293799 0.486507 0.876500
O O11 0.332630 0.392153 0.066276
O O12 0.205311 0.475093 0.109724
O O13 0.887649 0.750000 0.132493
#
# Coordination Sequence:
#
# PCOD9462695 Si02
#       6
#     8   8   8   8   8   8
#     4   9  18  34  52  73 100 132 173 206 242 303
#     4   9  19  34  51  74 102 133 171 209 251 304
#     4  10  19  32  52  78 104 129 167 212 255 301
#     4  10  21  35  51  74 104 136 169 209 257 304
#     4   9  18  32  53  77  99 130 170 210 248 295
#     4   9  19  33  53  76 101 133 168 209 251 298
#
# _framework density 16.943660999999999
#
# number of rings (size 3 to 8) (size 9 to 14) (size 15 to 20)
#    0.000    2.667    0.000    2.000    0.000    8.667 
#    0.000    2.500    0.000    1.000    0.000    0.000 
#    0.000    0.000    0.000    0.000    0.000    0.000 
#
# Total GULP energy -267600.396052 kJ/mol
# GULP energy per Si atom -5575.008251 kJ/mol
# Density = 1.690510 g / cm^3
# Si number density = 16.943661 Si / 1000 Ang^3
#
#
#
# Elastic Constant Matrix: (Units=GPa)
#
#
# Indices 1 2 3 4 5 6 
#
# 1 114.7238 67.9324 68.0649 0.0000 0.0000 0.0000
# 2 67.9324 103.6694 73.1376 0.0000 0.0000 0.0000
# 3 68.0649 73.1376 68.3965 0.0000 0.0000 0.0000
# 4 0.0000 0.0000 0.0000 23.2011 0.0000 0.0000
# 5 0.0000 0.0000 0.0000 0.0000 34.0588 0.0000
# 6 0.0000 0.0000 0.0000 0.0000 0.0000 12.3679
#
#
#
# Elastic Compliance Matrix: (Units=1/GPa)
#
#
# Indices 1 2 3 4 5 6 
#
# 1 0.021708 0.004135 -0.026025 0.000000 0.000000 0.000000
# 2 0.004135 0.040062 -0.046954 0.000000 0.000000 0.000000
# 3 -0.026025 -0.046954 0.090728 0.000000 0.000000 0.000000
# 4 0.000000 0.000000 0.000000 0.043101 0.000000 0.000000
# 5 0.000000 0.000000 0.000000 0.000000 0.029361 0.000000
# 6 0.000000 0.000000 0.000000 0.000000 0.000000 0.080855
#
#
# Mechanical properties :
#
#
# Convention : Reuss Voigt Hill
#
# Bulk Modulus (GPa) = 67.51808 78.33994 72.92901
# Shear Modulus (GPa) = 11.14976 19.10255 15.12616
#
# Velocity S-wave (km/s) = 2.56803 3.36134 2.99110
# Velocity P-wave (km/s) = 6.98055 7.83586 7.42054
#
# Compressibility (1/GPa) = 0.01481085
#
# Stress axis : x y z
#
# Youngs Moduli (GPa) = 46.06502 24.96151 11.02191
#
# Poissons Ratio (x) = -0.10323 0.28685
# Poissons Ratio (y) = -0.19050 0.51752
# Poissons Ratio (z) = 1.19885 1.17204
#
# Static dielectric constant tensor:
#      x y z
#    x 1.574100 0.000000 0.000000 
#    y 0.000000 1.558520 0.000000 
#    z 0.000000 0.000000 1.573730 
# 
# From -- ./inp_files/6456.got.cif
#   From: 2010.05.17/outbox.cif.g08.bks.cpg/sg62_4_cif.got.tgz:6456.got - 2010.06.03 15:25:27.
