data_PCOD9462384
_publ_section_title
;
Structure prediction by ZEFSAII (Michael W. Deem and Ramdas Pophale) SiO2 
 PCOD9462384
Probable space group: P N M A
;
_chemical_formula_sum "Si O2"
_cell_formula_units_Z 56
_cell_length_a 19.215647
_cell_length_b 9.069038
_cell_length_c 18.278673
_cell_angle_alpha 90.000000
_cell_angle_beta 90.000000
_cell_angle_gamma 90.000000
_cell_volume 3185.377419
_symmetry_space_group_name_H-M "P N M A"
_symmetry_group_IT_number 62
_symmetry_cell_setting 'orthorhombic'
loop_
_space_group_symop_operation_xyz
x,y,z
1/2-x,-y,1/2+z
1/2+x,1/2-y,1/2-z
-x,1/2+y,-z
-x,-y,-z
1/2+x,y,1/2-z
1/2-x,1/2+y,1/2+z
x,1/2-y,z
loop_
_atom_site_type_symbol
_atom_site_label
_atom_site_fract_x
_atom_site_fract_y
_atom_site_fract_z
Si Si1 0.108058 0.075365 0.116914
Si Si2 0.346608 0.573117 0.450528
Si Si3 0.743251 0.581419 0.343666
Si Si4 0.291956 0.920313 0.985816
Si Si5 0.394561 0.927440 0.183157
Si Si6 0.965258 0.573330 0.164360
Si Si7 0.929619 0.073363 0.470858
O O1 0.102391 0.250000 0.123472
O O2 0.175353 0.018045 0.161019
O O3 0.122778 0.040094 0.031350
O O4 0.037505 0.000447 0.143055
O O5 0.335977 0.750000 0.446204
O O6 0.272575 0.492772 0.443514
O O7 0.403402 0.528289 0.390691
O O8 0.724959 0.750000 0.325466
O O9 0.768156 0.577851 0.428653
O O10 0.813218 0.538062 0.300916
O O11 0.303355 0.750000 0.965397
O O12 0.363064 0.012524 0.983960
O O13 0.397060 0.750000 0.167675
O O14 0.441335 0.959325 0.253241
O O15 0.418047 0.016656 0.112084
O O16 0.972571 0.750000 0.157535
O O17 0.932535 0.250000 0.474006
O O18 0.000000 0.000000 0.500000
#
# Coordination Sequence:
#
# PCOD9462384 Si02
#       7
#     8   8   8   8   8   8   8
#     4  10  19  30  48  75 104 134 176 220 256 300
#     4   9  18  32  50  75 105 140 179 217 257 305
#     4   8  15  30  51  70  91 123 165 208 253 305
#     4   9  17  31  52  77 102 130 166 208 253 303
#     4   9  19  36  55  76 101 134 175 215 259 314
#     4  10  20  34  52  74 106 143 176 212 260 314
#     4  11  21  35  57  81 105 134 170 216 264 311
#
# _framework density 17.580334000000001
#
# number of rings (size 3 to 8) (size 9 to 14) (size 15 to 20)
#    0.000    2.571    0.000    3.429    0.000    5.143 
#    0.000    1.429    0.000    6.857    0.000    0.000 
#    0.000    0.000    0.000    0.000    0.000    0.000 
#
# Total GULP energy -312288.071240 kJ/mol
# GULP energy per Si atom -5576.572701 kJ/mol
# Density = 1.754032 g / cm^3
# Si number density = 17.580334 Si / 1000 Ang^3
#
#
#
# Elastic Constant Matrix: (Units=GPa)
#
#
# Indices 1 2 3 4 5 6 
#
# 1 175.5477 86.3973 54.8813 0.0000 0.0000 0.0000
# 2 86.3973 84.3969 43.6689 0.0000 0.0000 0.0000
# 3 54.8813 43.6689 40.5418 0.0000 0.0000 0.0000
# 4 0.0000 0.0000 0.0000 17.6968 0.0000 0.0000
# 5 0.0000 0.0000 0.0000 0.0000 10.6587 0.0000
# 6 0.0000 0.0000 0.0000 0.0000 0.0000 35.7433
#
#
#
# Elastic Compliance Matrix: (Units=1/GPa)
#
#
# Indices 1 2 3 4 5 6 
#
# 1 0.012295 -0.008979 -0.006973 0.000000 0.000000 0.000000
# 2 -0.008979 0.033324 -0.023739 0.000000 0.000000 0.000000
# 3 -0.006973 -0.023739 0.059675 0.000000 0.000000 0.000000
# 4 0.000000 0.000000 0.000000 0.056507 0.000000 0.000000
# 5 0.000000 0.000000 0.000000 0.000000 0.093820 0.000000
# 6 0.000000 0.000000 0.000000 0.000000 0.000000 0.027977
#
#
# Mechanical properties :
#
#
# Convention : Reuss Voigt Hill
#
# Bulk Modulus (GPa) = 38.59152 74.48683 56.53918
# Shear Modulus (GPa) = 13.45462 20.52234 16.98848
#
# Velocity S-wave (km/s) = 2.76945 3.42035 3.11196
# Velocity P-wave (km/s) = 5.67676 7.61970 6.71883
#
# Compressibility (1/GPa) = 0.02591243
#
# Stress axis : x y z
#
# Youngs Moduli (GPa) = 81.33095 30.00844 16.75735
#
# Poissons Ratio (x) = 0.26945 0.11684
# Poissons Ratio (y) = 0.73027 0.39781
# Poissons Ratio (z) = 0.56710 0.71238
#
# Static dielectric constant tensor:
#      x y z
#    x 1.591610 0.000000 0.000000 
#    y 0.000000 1.590330 0.000000 
#    z 0.000000 0.000000 1.595550 
# 
# From -- ./inp_files/27558.got.cif
#   From: 2010.05.17/outbox.cif.g08.bks.cpg/sg62_14_cif.got.tgz:27558.got - 2010.06.03 15:25:27.
