data_PCOD9462029
_publ_section_title
;
Structure prediction by ZEFSAII (Michael W. Deem and Ramdas Pophale) SiO2 
 PCOD9462029
Probable space group: P N M A
;
_chemical_formula_sum "Si O2"
_cell_formula_units_Z 64
_cell_length_a 9.398284
_cell_length_b 10.490282
_cell_length_c 35.699725
_cell_angle_alpha 90.000000
_cell_angle_beta 90.000000
_cell_angle_gamma 90.000000
_cell_volume 3519.659074
_symmetry_space_group_name_H-M "P N M A"
_symmetry_group_IT_number 62
_symmetry_cell_setting 'orthorhombic'
loop_
_space_group_symop_operation_xyz
x,y,z
1/2-x,-y,1/2+z
1/2+x,1/2-y,1/2-z
-x,1/2+y,-z
-x,-y,-z
1/2+x,y,1/2-z
1/2-x,1/2+y,1/2+z
x,1/2-y,z
loop_
_atom_site_type_symbol
_atom_site_label
_atom_site_fract_x
_atom_site_fract_y
_atom_site_fract_z
Si Si1 0.598947 0.101090 0.299101
Si Si2 0.700439 0.599535 0.417971
Si Si3 0.701492 0.891426 0.177862
Si Si4 0.001689 0.598897 0.389079
Si Si5 0.373155 0.398538 0.499703
Si Si6 0.287437 0.607576 0.921188
Si Si7 0.801042 0.401397 0.237012
Si Si8 0.943783 0.995110 0.129089
O O1 0.612346 0.250000 0.307680
O O2 0.469432 0.085282 0.269377
O O3 0.741260 0.060620 0.277639
O O4 0.544815 0.036762 0.336799
O O5 0.693231 0.750000 0.411967
O O6 0.715150 0.576807 0.462293
O O7 0.551007 0.547844 0.403112
O O8 0.839783 0.556056 0.395575
O O9 0.699812 0.750000 0.195260
O O10 0.559756 0.910193 0.153306
O O11 0.832240 0.897354 0.147940
O O12 0.729193 0.006018 0.206498
O O13 0.014936 0.750000 0.399558
O O14 0.102399 0.505106 0.412717
O O15 0.500000 0.500000 0.500000
O O16 0.423272 0.250000 0.501560
O O17 0.282378 0.410333 0.461924
O O18 0.350146 0.750000 0.919113
O O19 0.162359 0.596632 0.889959
O O20 0.767297 0.250000 0.231110
#
# Coordination Sequence:
#
# PCOD9462029 Si02
#       8
#     8   8   8   8   8   8   8   8
#     4   9  18  32  50  73  99 132 169 209 255 309
#     4  10  20  35  54  78 108 140 178 222 266 315
#     4   9  18  33  52  75 101 134 175 212 254 312
#     4   9  20  36  54  77 107 144 180 215 263 320
#     4  10  20  35  55  80 108 140 179 223 266 314
#     4  10  20  35  55  80 109 141 179 223 268 314
#     4   9  18  33  52  72  99 133 169 206 254 312
#     4  10  18  32  56  77 105 136 175 219 264 314
#
# _framework density 18.183579000000002
#
# number of rings (size 3 to 8) (size 9 to 14) (size 15 to 20)
#    0.000    2.500    1.250    0.750    0.000    5.500 
#    0.000    5.000    0.000    0.000    0.000    0.000 
#    0.000    0.000    0.000    0.000    0.000    0.000 
#
# Total GULP energy -356303.462272 kJ/mol
# GULP energy per Si atom -5567.241598 kJ/mol
# Density = 1.814219 g / cm^3
# Si number density = 18.183579 Si / 1000 Ang^3
#
#
#
# Elastic Constant Matrix: (Units=GPa)
#
#
# Indices 1 2 3 4 5 6 
#
# 1 33.9758 12.0055 -0.5870 0.0000 0.0000 0.0000
# 2 12.0055 43.3473 1.5369 0.0000 0.0000 0.0000
# 3 -0.5870 1.5369 42.5431 0.0000 0.0000 0.0000
# 4 0.0000 0.0000 0.0000 18.4947 0.0000 0.0000
# 5 0.0000 0.0000 0.0000 0.0000 26.0586 0.0000
# 6 0.0000 0.0000 0.0000 0.0000 0.0000 15.1714
#
#
#
# Elastic Compliance Matrix: (Units=1/GPa)
#
#
# Indices 1 2 3 4 5 6 
#
# 1 0.032651 -0.009071 0.000778 0.000000 0.000000 0.000000
# 2 -0.009071 0.025619 -0.001051 0.000000 0.000000 0.000000
# 3 0.000778 -0.001051 0.023554 0.000000 0.000000 0.000000
# 4 0.000000 0.000000 0.000000 0.054069 0.000000 0.000000
# 5 0.000000 0.000000 0.000000 0.000000 0.038375 0.000000
# 6 0.000000 0.000000 0.000000 0.000000 0.000000 0.065913
#
#
# Mechanical properties :
#
#
# Convention : Reuss Voigt Hill
#
# Bulk Modulus (GPa) = 15.83829 16.19746 16.01787
# Shear Modulus (GPa) = 17.86255 19.07233 18.46744
#
# Velocity S-wave (km/s) = 3.13764 3.24215 3.19032
# Velocity P-wave (km/s) = 4.67499 4.78983 4.73276
#
# Compressibility (1/GPa) = 0.06313814
#
# Stress axis : x y z
#
# Youngs Moduli (GPa) = 30.62657 39.03350 42.45520
#
# Poissons Ratio (x) = 0.35406 -0.03304
# Poissons Ratio (y) = 0.27781 0.04461
# Poissons Ratio (z) = -0.02383 0.04101
#
# Static dielectric constant tensor:
#      x y z
#    x 1.630460 0.000000 0.000000 
#    y 0.000000 1.625880 0.000000 
#    z 0.000000 0.000000 1.635860 
# 
# From -- ./inp_files/32270.got.cif
#   From: 2010.05.17/outbox.cif.g08.bks.cpg/sg62_17_cif.got.tgz:32270.got - 2010.06.03 15:25:27.
