data_PCOD9462487
_publ_section_title
;
Structure prediction by ZEFSAII (Michael W. Deem and Ramdas Pophale) SiO2 
 PCOD9462487
Probable space group: P N M A
;
_chemical_formula_sum "Si O2"
_cell_formula_units_Z 64
_cell_length_a 20.676838
_cell_length_b 7.405358
_cell_length_c 19.319538
_cell_angle_alpha 90.000000
_cell_angle_beta 90.000000
_cell_angle_gamma 90.000000
_cell_volume 2958.195829
_symmetry_space_group_name_H-M "P N M A"
_symmetry_group_IT_number 62
_symmetry_cell_setting 'orthorhombic'
loop_
_space_group_symop_operation_xyz
x,y,z
1/2-x,-y,1/2+z
1/2+x,1/2-y,1/2-z
-x,1/2+y,-z
-x,-y,-z
1/2+x,y,1/2-z
1/2-x,1/2+y,1/2+z
x,1/2-y,z
loop_
_atom_site_type_symbol
_atom_site_label
_atom_site_fract_x
_atom_site_fract_y
_atom_site_fract_z
Si Si1 0.979349 0.029003 0.210608
Si Si2 0.944997 0.034334 0.056320
Si Si3 0.406082 0.529423 0.805817
Si Si4 0.200037 0.970158 0.967036
Si Si5 0.241159 0.029738 0.318584
Si Si6 0.149499 0.964871 0.713470
Si Si7 0.817125 0.966450 0.445209
Si Si8 0.066004 0.034368 0.459541
O O1 0.980161 0.250000 0.209997
O O2 0.965651 0.968043 0.132406
O O3 0.919906 0.969936 0.259500
O O4 0.046784 0.970481 0.244413
O O5 0.938456 0.250000 0.063190
O O6 0.874063 0.966561 0.033816
O O7 0.000000 0.000000 0.000000
O O8 0.406148 0.750000 0.804862
O O9 0.331639 0.471228 0.802426
O O10 0.433650 0.470328 0.880474
O O11 0.198285 0.750000 0.968594
O O12 0.246848 0.030533 0.029115
O O13 0.234532 0.021660 0.894923
O O14 0.240432 0.250000 0.318113
O O15 0.292896 0.966401 0.262181
O O16 0.147890 0.750000 0.723989
O O17 0.164340 0.995365 0.633439
O O18 0.816369 0.750000 0.452181
O O19 0.873032 0.035597 0.496656
O O20 0.073819 0.250000 0.455363
O O21 0.000000 0.000000 0.500000
#
# Coordination Sequence:
#
# PCOD9462487 Si02
#       8
#     8   8   8   8   8   8   8   8
#     4   9  17  30  49  73 103 135 168 211 259 304
#     4  10  20  35  56  79 105 138 176 216 262 312
#     4   9  16  27  47  75 100 126 167 214 250 291
#     4   9  16  32  54  72  98 139 180 212 248 311
#     4   9  15  28  51  73  94 130 177 213 245 294
#     4  10  19  32  53  79 103 131 171 219 264 302
#     4  10  20  33  51  76 105 138 174 209 256 319
#     4  10  19  31  49  73 103 136 170 209 254 306
#
# _framework density 21.634810000000002
#
# number of rings (size 3 to 8) (size 9 to 14) (size 15 to 20)
#    0.000    2.500    2.500    0.750    0.000    2.500 
#    0.000    2.500    0.000    2.250    0.000    0.000 
#    0.000    0.000    0.000    0.000    0.000    0.000 
#
# Total GULP energy -357495.032505 kJ/mol
# GULP energy per Si atom -5585.859883 kJ/mol
# Density = 2.158557 g / cm^3
# Si number density = 21.634810 Si / 1000 Ang^3
#
#
#
# Elastic Constant Matrix: (Units=GPa)
#
#
# Indices 1 2 3 4 5 6 
#
# 1 204.9352 1.9446 83.7905 0.0000 0.0000 0.0000
# 2 1.9446 69.0938 -3.5719 0.0000 0.0000 0.0000
# 3 83.7905 -3.5719 131.2374 0.0000 0.0000 0.0000
# 4 0.0000 0.0000 0.0000 12.2934 0.0000 0.0000
# 5 0.0000 0.0000 0.0000 0.0000 44.1782 0.0000
# 6 0.0000 0.0000 0.0000 0.0000 0.0000 24.0433
#
#
#
# Elastic Compliance Matrix: (Units=1/GPa)
#
#
# Indices 1 2 3 4 5 6 
#
# 1 0.006615 -0.000405 -0.004234 0.000000 0.000000 0.000000
# 2 -0.000405 0.014518 0.000654 0.000000 0.000000 0.000000
# 3 -0.004234 0.000654 0.010341 0.000000 0.000000 0.000000
# 4 0.000000 0.000000 0.000000 0.081344 0.000000 0.000000
# 5 0.000000 0.000000 0.000000 0.000000 0.022636 0.000000
# 6 0.000000 0.000000 0.000000 0.000000 0.000000 0.041592
#
#
# Mechanical properties :
#
#
# Convention : Reuss Voigt Hill
#
# Bulk Modulus (GPa) = 42.54807 63.28809 52.91808
# Shear Modulus (GPa) = 25.92678 37.64318 31.78498
#
# Velocity S-wave (km/s) = 3.46552 4.17578 3.83712
# Velocity P-wave (km/s) = 5.97681 7.25024 6.64410
#
# Compressibility (1/GPa) = 0.02350283
#
# Stress axis : x y z
#
# Youngs Moduli (GPa) = 151.17921 68.87867 96.70253
#
# Poissons Ratio (x) = 0.02790 0.40946
# Poissons Ratio (y) = 0.06124 -0.06322
# Poissons Ratio (z) = 0.64013 -0.04503
#
# Static dielectric constant tensor:
#      x y z
#    x 1.770240 0.000000 0.000000 
#    y 0.000000 1.865310 0.000000 
#    z 0.000000 0.000000 1.746500 
# 
# From -- ./inp_files/19892.got.cif
#   From: 2010.05.17/outbox.cif.g08.bks.cpg/sg62_10_cif.got.tgz:19892.got - 2010.06.03 15:25:27.
