data_PCOD9462907
_publ_section_title
;
Structure prediction by ZEFSAII (Michael W. Deem and Ramdas Pophale) SiO2 
 PCOD9462907
Probable space group: P N M A
;
_chemical_formula_sum "Si O2"
_cell_formula_units_Z 40
_cell_length_a 18.349362
_cell_length_b 13.535607
_cell_length_c 8.093997
_cell_angle_alpha 90.000000
_cell_angle_beta 90.000000
_cell_angle_gamma 90.000000
_cell_volume 2010.304034
_symmetry_space_group_name_H-M "P N M A"
_symmetry_group_IT_number 62
_symmetry_cell_setting 'orthorhombic'
loop_
_space_group_symop_operation_xyz
x,y,z
1/2-x,-y,1/2+z
1/2+x,1/2-y,1/2-z
-x,1/2+y,-z
-x,-y,-z
1/2+x,y,1/2-z
1/2-x,1/2+y,1/2+z
x,1/2-y,z
loop_
_atom_site_type_symbol
_atom_site_label
_atom_site_fract_x
_atom_site_fract_y
_atom_site_fract_z
Si Si1 0.586187 0.141688 0.642187
Si Si2 0.256994 0.638779 0.189042
Si Si3 0.818269 0.483069 0.534931
Si Si4 0.095296 0.140548 0.243376
Si Si5 0.041785 0.539653 0.660859
O O1 0.550147 0.250000 0.660341
O O2 0.658636 0.143022 0.753774
O O3 0.607980 0.130319 0.451637
O O4 0.541134 0.048881 0.706296
O O5 0.235579 0.750000 0.136718
O O6 0.212903 0.602049 0.348812
O O7 0.257071 0.551237 0.053475
O O8 0.862094 0.559164 0.652479
O O9 0.875631 0.441759 0.399144
O O10 0.118037 0.250000 0.297558
O O11 0.008725 0.126719 0.272641
O O12 0.000000 0.500000 0.500000
#
# Coordination Sequence:
#
# PCOD9462907 Si02
#       5
#     8   8   8   8   8
#     4   9  18  33  54  77 101 134 174 216 267 323
#     4  10  20  35  55  78 107 142 179 223 273 323
#     4  10  20  35  54  79 108 141 180 224 267 321
#     4  10  19  33  54  77 103 138 178 220 268 321
#     4   9  19  32  50  75 104 135 170 213 258 310
#
# _framework density 19.897489
#
# number of rings (size 3 to 8) (size 9 to 14) (size 15 to 20)
#    0.000    2.400    0.000    2.400    0.000    5.600 
#    0.000    4.000    0.000   18.000    0.000    0.000 
#    0.000    0.000    0.000    0.000    0.000    0.000 
#
# Total GULP energy -222955.901954 kJ/mol
# GULP energy per Si atom -5573.897549 kJ/mol
# Density = 1.985220 g / cm^3
# Si number density = 19.897489 Si / 1000 Ang^3
#
#
#
# Elastic Constant Matrix: (Units=GPa)
#
#
# Indices 1 2 3 4 5 6 
#
# 1 17.7996 10.3715 -5.8938 0.0000 0.0000 0.0000
# 2 10.3715 43.6777 3.4149 0.0000 0.0000 0.0000
# 3 -5.8938 3.4149 39.7686 0.0000 0.0000 0.0000
# 4 0.0000 0.0000 0.0000 20.6346 0.0000 0.0000
# 5 0.0000 0.0000 0.0000 0.0000 26.3084 0.0000
# 6 0.0000 0.0000 0.0000 0.0000 0.0000 24.2176
#
#
#
# Elastic Compliance Matrix: (Units=1/GPa)
#
#
# Indices 1 2 3 4 5 6 
#
# 1 0.070428 -0.017658 0.011954 0.000000 0.000000 0.000000
# 2 -0.017658 0.027477 -0.004976 0.000000 0.000000 0.000000
# 3 0.011954 -0.004976 0.027344 0.000000 0.000000 0.000000
# 4 0.000000 0.000000 0.000000 0.048462 0.000000 0.000000
# 5 0.000000 0.000000 0.000000 0.000000 0.038011 0.000000
# 6 0.000000 0.000000 0.000000 0.000000 0.000000 0.041292
#
#
# Mechanical properties :
#
#
# Convention : Reuss Voigt Hill
#
# Bulk Modulus (GPa) = 9.62570 13.00346 11.31458
# Shear Modulus (GPa) = 16.18091 20.45568 18.31830
#
# Velocity S-wave (km/s) = 2.85478 3.20981 3.03749
# Velocity P-wave (km/s) = 3.96416 4.50406 4.24270
#
# Compressibility (1/GPa) = 0.10388854
#
# Stress axis : x y z
#
# Youngs Moduli (GPa) = 14.19881 36.39389 36.57054
#
# Poissons Ratio (x) = 0.64265 -0.43716
# Poissons Ratio (y) = 0.25073 0.18199
# Poissons Ratio (z) = -0.16973 0.18111
#
# Static dielectric constant tensor:
#      x y z
#    x 1.740110 0.000000 0.000000 
#    y 0.000000 1.962260 0.000000 
#    z 0.000000 0.000000 1.713240 
# 
# From -- ./inp_files/7262.got.cif
#   From: 2010.05.17/outbox.cif.g08.bks.cpg/sg62_4_cif.got.tgz:7262.got - 2010.06.03 15:25:27.
