data_PCOD9462787
_publ_section_title
;
Structure prediction by ZEFSAII (Michael W. Deem and Ramdas Pophale) SiO2 
 PCOD9462787
Probable space group: P N M A
;
_chemical_formula_sum "Si O2"
_cell_formula_units_Z 64
_cell_length_a 11.868032
_cell_length_b 7.880723
_cell_length_c 34.373297
_cell_angle_alpha 90.000000
_cell_angle_beta 90.000000
_cell_angle_gamma 90.000000
_cell_volume 3214.888846
_symmetry_space_group_name_H-M "P N M A"
_symmetry_group_IT_number 62
_symmetry_cell_setting 'orthorhombic'
loop_
_space_group_symop_operation_xyz
x,y,z
1/2-x,-y,1/2+z
1/2+x,1/2-y,1/2-z
-x,1/2+y,-z
-x,-y,-z
1/2+x,y,1/2-z
1/2-x,1/2+y,1/2+z
x,1/2-y,z
loop_
_atom_site_type_symbol
_atom_site_label
_atom_site_fract_x
_atom_site_fract_y
_atom_site_fract_z
Si Si1 0.778070 0.958741 0.869047
Si Si2 0.802189 0.451710 0.591744
Si Si3 0.580632 0.051544 0.442168
Si Si4 0.101935 0.046446 0.286672
Si Si5 0.347140 0.449738 0.476394
Si Si6 0.477975 0.455096 0.135963
Si Si7 0.177342 0.453122 0.830814
Si Si8 0.933540 0.952741 0.799982
O O1 0.777844 0.750000 0.869655
O O2 0.854601 0.019626 0.905012
O O3 0.648659 0.013431 0.871937
O O4 0.836306 0.014717 0.828969
O O5 0.789708 0.250000 0.589769
O O6 0.759205 0.524766 0.551202
O O7 0.929242 0.492892 0.604311
O O8 0.722960 0.516646 0.627318
O O9 0.562426 0.250000 0.433742
O O10 0.457580 0.980308 0.453398
O O11 0.654123 0.033551 0.481313
O O12 0.087599 0.250000 0.285801
O O13 0.023952 0.982387 0.322081
O O14 0.073720 0.978561 0.243909
O O15 0.229817 0.008957 0.299281
O O16 0.364760 0.250000 0.483127
O O17 0.476971 0.250000 0.137135
O O18 0.176378 0.250000 0.832193
O O19 0.054216 0.514641 0.819406
O O20 0.918937 0.750000 0.797199
#
# Coordination Sequence:
#
# PCOD9462787 Si02
#       8
#     8   8   8   8   8   8   8   8
#     4   9  18  33  54  78 106 138 174 216 264 318
#     4  10  20  35  54  76 103 139 178 216 261 313
#     4   9  18  33  52  78 110 141 169 210 266 318
#     4   9  19  33  54  78 102 135 177 223 263 306
#     4  10  19  32  55  82 107 135 173 219 264 313
#     4   9  18  34  54  76 103 137 177 220 263 309
#     4  10  21  35  51  74 107 139 172 216 263 315
#     4  10  20  33  55  81 105 136 177 223 267 314
#
# _framework density 19.907375999999999
#
# number of rings (size 3 to 8) (size 9 to 14) (size 15 to 20)
#    0.000    2.500    0.000    1.875    1.750    3.500 
#    0.000    2.500    0.000    0.000    0.000    0.000 
#    0.000    0.000    0.000    0.000    0.000    0.000 
#
# Total GULP energy -357177.983841 kJ/mol
# GULP energy per Si atom -5580.905998 kJ/mol
# Density = 1.986207 g / cm^3
# Si number density = 19.907376 Si / 1000 Ang^3
#
#
#
# Elastic Constant Matrix: (Units=GPa)
#
#
# Indices 1 2 3 4 5 6 
#
# 1 56.4211 -6.0375 18.1205 0.0000 0.0000 0.0000
# 2 -6.0375 16.8384 1.9850 0.0000 0.0000 0.0000
# 3 18.1205 1.9850 63.8076 0.0000 0.0000 0.0000
# 4 0.0000 0.0000 0.0000 11.8493 0.0000 0.0000
# 5 0.0000 0.0000 0.0000 0.0000 17.3419 0.0000
# 6 0.0000 0.0000 0.0000 0.0000 0.0000 9.2856
#
#
#
# Elastic Compliance Matrix: (Units=1/GPa)
#
#
# Indices 1 2 3 4 5 6 
#
# 1 0.020543 0.008083 -0.006085 0.000000 0.000000 0.000000
# 2 0.008083 0.062787 -0.004249 0.000000 0.000000 0.000000
# 3 -0.006085 -0.004249 0.017532 0.000000 0.000000 0.000000
# 4 0.000000 0.000000 0.000000 0.084393 0.000000 0.000000
# 5 0.000000 0.000000 0.000000 0.000000 0.057664 0.000000
# 6 0.000000 0.000000 0.000000 0.000000 0.000000 0.107694
#
#
# Mechanical properties :
#
#
# Convention : Reuss Voigt Hill
#
# Bulk Modulus (GPa) = 10.37761 18.35589 14.36675
# Shear Modulus (GPa) = 12.91202 15.89531 14.40366
#
# Velocity S-wave (km/s) = 2.54953 2.82877 2.69278
# Velocity P-wave (km/s) = 3.72708 4.46206 4.11102
#
# Compressibility (1/GPa) = 0.09636128
#
# Stress axis : x y z
#
# Youngs Moduli (GPa) = 48.67772 15.92677 57.03704
#
# Poissons Ratio (x) = -0.12874 0.34710
# Poissons Ratio (y) = -0.39348 0.24234
# Poissons Ratio (z) = 0.29623 0.06767
#
# Static dielectric constant tensor:
#      x y z
#    x 1.677580 0.000000 0.000000 
#    y 0.000000 1.717870 0.000000 
#    z 0.000000 0.000000 1.701940 
# 
# From -- ./inp_files/32484.got.cif
#   From: 2010.05.17/outbox.cif.g08.bks.cpg/sg62_17_cif.got.tgz:32484.got - 2010.06.03 15:25:27.
