data_PCOD9462433
_publ_section_title
;
Structure prediction by ZEFSAII (Michael W. Deem and Ramdas Pophale) SiO2 
 PCOD9462433
Probable space group: P N M A
;
_chemical_formula_sum "Si O2"
_cell_formula_units_Z 64
_cell_length_a 29.476523
_cell_length_b 7.564799
_cell_length_c 14.601740
_cell_angle_alpha 90.000000
_cell_angle_beta 90.000000
_cell_angle_gamma 90.000000
_cell_volume 3255.953979
_symmetry_space_group_name_H-M "P N M A"
_symmetry_group_IT_number 62
_symmetry_cell_setting 'orthorhombic'
loop_
_space_group_symop_operation_xyz
x,y,z
1/2-x,-y,1/2+z
1/2+x,1/2-y,1/2-z
-x,1/2+y,-z
-x,-y,-z
1/2+x,y,1/2-z
1/2-x,1/2+y,1/2+z
x,1/2-y,z
loop_
_atom_site_type_symbol
_atom_site_label
_atom_site_fract_x
_atom_site_fract_y
_atom_site_fract_z
Si Si1 0.500889 0.461223 0.893177
Si Si2 0.755367 0.458536 0.381907
Si Si3 0.573827 0.466703 0.749244
Si Si4 0.824802 0.544454 0.225404
Si Si5 0.574215 0.533554 0.249265
Si Si6 0.001291 0.539016 0.106690
Si Si7 0.751781 0.466951 0.590240
Si Si8 0.822602 0.036788 0.742502
O O1 0.500837 0.250000 0.883518
O O2 0.545747 0.524488 0.839151
O O3 0.456546 0.523226 0.837164
O O4 0.500000 0.500000 0.000000
O O5 0.764134 0.250000 0.385759
O O6 0.794306 0.536139 0.316767
O O7 0.754523 0.526348 0.485631
O O8 0.707770 0.487184 0.330029
O O9 0.575068 0.250000 0.751538
O O10 0.625258 0.531458 0.741102
O O11 0.542900 0.522168 0.662960
O O12 0.831594 0.750000 0.202046
O O13 0.793209 0.470593 0.144166
O O14 0.575626 0.750000 0.249004
O O15 0.546061 0.476349 0.339130
O O16 0.625914 0.471800 0.246178
O O17 0.001455 0.750000 0.116415
O O18 0.000000 0.500000 0.000000
O O19 0.750946 0.250000 0.590354
O O20 0.794493 0.521252 0.652773
O O21 0.823747 0.250000 0.739710
#
# Coordination Sequence:
#
# PCOD9462433 Si02
#       8
#     8   8   8   8   8   8   8   8
#     4   9  17  31  49  71  96 124 155 192 232 273
#     4  10  19  31  46  71 100 119 143 194 246 276
#     4   8  16  31  50  68  92 125 161 192 224 271
#     4   9  17  33  52  67  87 126 167 190 217 277
#     4   8  16  31  50  68  92 125 161 192 224 271
#     4   9  17  31  49  71  96 124 155 192 232 273
#     4   8  16  29  46  65  88 117 151 186 228 276
#     4   9  17  33  52  67  87 126 167 190 217 277
#
# _framework density 19.656296000000001
#
# number of rings (size 3 to 8) (size 9 to 14) (size 15 to 20)
#    0.000    3.250    0.000    2.625    0.000    2.000 
#    0.000   12.500    0.000    0.000    0.000    0.000 
#    0.000    0.000    0.000    0.000    0.000    0.000 
#
# Total GULP energy -356770.822398 kJ/mol
# GULP energy per Si atom -5574.544100 kJ/mol
# Density = 1.961156 g / cm^3
# Si number density = 19.656296 Si / 1000 Ang^3
#
#
#
# Elastic Constant Matrix: (Units=GPa)
#
#
# Indices 1 2 3 4 5 6 
#
# 1 173.7862 -4.7137 74.9817 0.0000 0.0000 0.0000
# 2 -4.7137 39.5723 -12.5087 0.0000 0.0000 0.0000
# 3 74.9817 -12.5087 169.7064 0.0000 0.0000 0.0000
# 4 0.0000 0.0000 0.0000 23.8037 0.0000 0.0000
# 5 0.0000 0.0000 0.0000 0.0000 6.8157 0.0000
# 6 0.0000 0.0000 0.0000 0.0000 0.0000 5.4333
#
#
#
# Elastic Compliance Matrix: (Units=1/GPa)
#
#
# Indices 1 2 3 4 5 6 
#
# 1 0.007110 -0.000150 -0.003153 0.000000 0.000000 0.000000
# 2 -0.000150 0.025876 0.001973 0.000000 0.000000 0.000000
# 3 -0.003153 0.001973 0.007431 0.000000 0.000000 0.000000
# 4 0.000000 0.000000 0.000000 0.042010 0.000000 0.000000
# 5 0.000000 0.000000 0.000000 0.000000 0.146719 0.000000
# 6 0.000000 0.000000 0.000000 0.000000 0.000000 0.184050
#
#
# Mechanical properties :
#
#
# Convention : Reuss Voigt Hill
#
# Bulk Modulus (GPa) = 26.48319 55.39817 40.94068
# Shear Modulus (GPa) = 11.67021 28.89758 20.28389
#
# Velocity S-wave (km/s) = 2.43927 3.83840 3.21585
# Velocity P-wave (km/s) = 4.62988 6.92019 5.88748
#
# Compressibility (1/GPa) = 0.03775980
#
# Stress axis : x y z
#
# Youngs Moduli (GPa) = 140.63980 38.64558 134.57313
#
# Poissons Ratio (x) = 0.00578 0.42426
# Poissons Ratio (y) = 0.02104 -0.26556
# Poissons Ratio (z) = 0.44338 -0.07626
#
# Static dielectric constant tensor:
#      x y z
#    x 1.681410 0.000000 0.000000 
#    y 0.000000 1.739810 0.000000 
#    z 0.000000 0.000000 1.671220 
# 
# From -- ./inp_files/21263.got.cif
#   From: 2010.05.17/outbox.cif.g08.bks.cpg/sg62_11_cif.got.tgz:21263.got - 2010.06.03 15:25:27.
