data_PCOD9462139
_publ_section_title
;
Structure prediction by ZEFSAII (Michael W. Deem and Ramdas Pophale) SiO2 
 PCOD9462139
Probable space group: P N M A
;
_chemical_formula_sum "Si O2"
_cell_formula_units_Z 36
_cell_length_a 14.266372
_cell_length_b 15.086647
_cell_length_c 7.383879
_cell_angle_alpha 90.000000
_cell_angle_beta 90.000000
_cell_angle_gamma 90.000000
_cell_volume 1589.244965
_symmetry_space_group_name_H-M "P N M A"
_symmetry_group_IT_number 62
_symmetry_cell_setting 'orthorhombic'
loop_
_space_group_symop_operation_xyz
x,y,z
1/2-x,-y,1/2+z
1/2+x,1/2-y,1/2-z
-x,1/2+y,-z
-x,-y,-z
1/2+x,y,1/2-z
1/2-x,1/2+y,1/2+z
x,1/2-y,z
loop_
_atom_site_type_symbol
_atom_site_label
_atom_site_fract_x
_atom_site_fract_y
_atom_site_fract_z
Si Si1 0.355862 0.250000 0.869640
Si Si2 0.780049 0.750000 0.463397
Si Si3 0.275989 0.438260 0.486874
Si Si4 0.441161 0.750000 0.288774
Si Si5 0.060314 0.450890 0.845665
Si Si6 0.381080 0.440119 0.877283
O O1 0.266088 0.250000 0.738852
O O2 0.446992 0.250000 0.738371
O O3 0.364072 0.344016 0.968273
O O4 0.744709 0.837105 0.562592
O O5 0.889134 0.750000 0.407224
O O6 0.344327 0.493939 0.358118
O O7 0.327706 0.436028 0.681402
O O8 0.174993 0.484713 0.481028
O O9 0.419303 0.654162 0.378297
O O10 0.989807 0.453204 0.674296
O O11 0.000000 0.500000 0.000000
#
# Coordination Sequence:
#
# PCOD9462139 Si02
#       6
#     4   4   8   4   8   8
#     4   8  16  32  53  76 101 136 176 216 264 326
#     4  10  20  34  54  76 110 150 182 222 272 330
#     4  10  19  35  53  76 105 143 183 225 274 327
#     4  10  18  34  57  80 103 140 188 222 262 328
#     4   9  18  32  55  82 107 140 183 231 276 328
#     4   9  18  33  54  77 105 138 180 225 276 333
#
# _framework density 22.652266000000001
#
# number of rings (size 3 to 8) (size 9 to 14) (size 15 to 20)
#    0.000    2.667    0.000    4.000    0.000    0.000 
#    0.000   16.667    0.000    0.000    0.000    0.000 
#    0.000    0.000    0.000    0.000    0.000    0.000 
#
# Total GULP energy -200660.853294 kJ/mol
# GULP energy per Si atom -5573.912592 kJ/mol
# Density = 2.260071 g / cm^3
# Si number density = 22.652266 Si / 1000 Ang^3
#
#
#
# Elastic Constant Matrix: (Units=GPa)
#
#
# Indices 1 2 3 4 5 6 
#
# 1 139.7877 57.4216 14.7874 0.0000 0.0000 0.0000
# 2 57.4216 231.7471 40.6830 0.0000 0.0000 0.0000
# 3 14.7874 40.6830 43.2929 0.0000 0.0000 0.0000
# 4 0.0000 0.0000 0.0000 -4.1168 0.0000 0.0000
# 5 0.0000 0.0000 0.0000 0.0000 26.5474 0.0000
# 6 0.0000 0.0000 0.0000 0.0000 0.0000 37.3521
#
#
#
# Elastic Compliance Matrix: (Units=1/GPa)
#
#
# Indices 1 2 3 4 5 6 
#
# 1 0.008003 -0.001800 -0.001042 0.000000 0.000000 0.000000
# 2 -0.001800 0.005572 -0.004622 0.000000 0.000000 0.000000
# 3 -0.001042 -0.004622 0.027797 0.000000 0.000000 0.000000
# 4 0.000000 0.000000 0.000000 -0.242908 0.000000 0.000000
# 5 0.000000 0.000000 0.000000 0.000000 0.037668 0.000000
# 6 0.000000 0.000000 0.000000 0.000000 0.000000 0.026772
#
#
# Mechanical properties :
#
#
# Convention : Reuss Voigt Hill
#
# Bulk Modulus (GPa) = 37.81349 71.17910 54.49629
# Shear Modulus (GPa) = -44.11077 32.08559 -6.01259
#
# Velocity S-wave (km/s) = -4.41761 3.76765 -1.63097
# Velocity P-wave (km/s) = 3.04813 7.10053 4.53467
#
# Compressibility (1/GPa) = 0.02644559
#
# Stress axis : x y z
#
# Youngs Moduli (GPa) = 124.94702 179.45597 35.97452
#
# Poissons Ratio (x) = 0.32304 0.03749
# Poissons Ratio (y) = 0.22492 0.16626
# Poissons Ratio (z) = 0.13021 0.82938
#
# Static dielectric constant tensor:
#      x y z
#    x 1.814300 0.000000 0.000000 
#    y 0.000000 1.863750 0.000000 
#    z 0.000000 0.000000 1.847570 
# 
# From -- ./inp_files/6040.got.cif
#   From: 2010.05.17/outbox.cif.g08.bks.cpg/sg62_4_cif.got.tgz:6040.got - 2010.06.03 15:25:27.
