data_PCOD9462255
_publ_section_title
;
Structure prediction by ZEFSAII (Michael W. Deem and Ramdas Pophale) SiO2 
 PCOD9462255
Probable space group: P N M A
;
_chemical_formula_sum "Si O2"
_cell_formula_units_Z 48
_cell_length_a 9.756557
_cell_length_b 17.450780
_cell_length_c 12.481782
_cell_angle_alpha 90.000000
_cell_angle_beta 90.000000
_cell_angle_gamma 90.000000
_cell_volume 2125.142334
_symmetry_space_group_name_H-M "P N M A"
_symmetry_group_IT_number 62
_symmetry_cell_setting 'orthorhombic'
loop_
_space_group_symop_operation_xyz
x,y,z
1/2-x,-y,1/2+z
1/2+x,1/2-y,1/2-z
-x,1/2+y,-z
-x,-y,-z
1/2+x,y,1/2-z
1/2-x,1/2+y,1/2+z
x,1/2-y,z
loop_
_atom_site_type_symbol
_atom_site_label
_atom_site_fract_x
_atom_site_fract_y
_atom_site_fract_z
Si Si1 0.026137 0.404861 0.742461
Si Si2 0.729800 0.509194 0.188507
Si Si3 0.080896 0.621420 0.852078
Si Si4 0.514257 0.250000 0.888659
Si Si5 0.902223 0.750000 0.749099
Si Si6 0.762733 0.250000 0.033487
Si Si7 0.242463 0.750000 0.540415
Si Si8 0.391618 0.593430 0.474732
O O1 0.927712 0.473355 0.704449
O O2 0.993326 0.327325 0.679834
O O3 0.183730 0.433218 0.734849
O O4 0.514000 0.394373 0.629870
O O5 0.797431 0.426240 0.201891
O O6 0.776734 0.534930 0.068808
O O7 0.144457 0.676519 0.942925
O O8 0.995196 0.675950 0.774200
O O9 0.973893 0.569738 0.919353
O O10 0.407600 0.250000 0.987966
O O11 0.671166 0.250000 0.928797
O O12 0.843670 0.750000 0.631939
O O13 0.774101 0.750000 0.832578
O O14 0.318560 0.673928 0.499078
#
# Coordination Sequence:
#
# PCOD9462255 Si02
#       8
#     8   8   8   4   4   4   4   8
#     4  10  23  37  63  98 130 165 203 247 332 371
#     4  10  22  39  62  92 129 167 208 251 320 373
#     4  10  22  43  63  86 122 161 227 253 308 389
#     4  12  22  39  60  98 135 155 200 268 310 392
#     4   9  23  43  61  85 106 171 216 264 313 366
#     4  11  27  38  65  91 121 163 216 269 323 349
#     4  10  18  40  64  84 122 163 212 249 306 383
#     4   9  20  38  63  88 120 171 200 250 305 383
#
# _framework density 22.586722999999999
#
# number of rings (size 3 to 8) (size 9 to 14) (size 15 to 20)
#    1.000    1.000    1.667    1.500    7.000    0.667 
#    0.000    2.500    0.000    0.000    0.000    0.000 
#    0.000    0.000    0.000    0.000    0.000    0.000 
#
# Total GULP energy -267938.513541 kJ/mol
# GULP energy per Si atom -5582.052365 kJ/mol
# Density = 2.253531 g / cm^3
# Si number density = 22.586723 Si / 1000 Ang^3
#
#
#
# Elastic Constant Matrix: (Units=GPa)
#
#
# Indices 1 2 3 4 5 6 
#
# 1 50.5450 -0.8187 3.7874 0.0000 0.0000 0.0000
# 2 -0.8187 64.9247 10.9204 0.0000 0.0000 0.0000
# 3 3.7874 10.9204 47.6816 0.0000 0.0000 0.0000
# 4 0.0000 0.0000 0.0000 19.6796 0.0000 0.0000
# 5 0.0000 0.0000 0.0000 0.0000 32.4557 0.0000
# 6 0.0000 0.0000 0.0000 0.0000 0.0000 23.0020
#
#
#
# Elastic Compliance Matrix: (Units=1/GPa)
#
#
# Indices 1 2 3 4 5 6 
#
# 1 0.019921 0.000538 -0.001706 0.000000 0.000000 0.000000
# 2 0.000538 0.016034 -0.003715 0.000000 0.000000 0.000000
# 3 -0.001706 -0.003715 0.021959 0.000000 0.000000 0.000000
# 4 0.000000 0.000000 0.000000 0.050814 0.000000 0.000000
# 5 0.000000 0.000000 0.000000 0.000000 0.030811 0.000000
# 6 0.000000 0.000000 0.000000 0.000000 0.000000 0.043474
#
#
# Mechanical properties :
#
#
# Convention : Reuss Voigt Hill
#
# Bulk Modulus (GPa) = 20.76893 21.21436 20.99164
# Shear Modulus (GPa) = 23.94315 24.97829 24.46072
#
# Velocity S-wave (km/s) = 3.25938 3.32909 3.29442
# Velocity P-wave (km/s) = 4.83528 4.91832 4.87698
#
# Compressibility (1/GPa) = 0.04814885
#
# Stress axis : x y z
#
# Youngs Moduli (GPa) = 50.19858 62.36704 45.53991
#
# Poissons Ratio (x) = -0.03356 0.07767
# Poissons Ratio (y) = -0.02701 0.16918
# Poissons Ratio (z) = 0.08562 0.23169
#
# Static dielectric constant tensor:
#      x y z
#    x 1.858100 0.000000 0.000000 
#    y 0.000000 1.872770 0.000000 
#    z 0.000000 0.000000 1.798600 
# 
# From -- ./inp_files/17030.got.cif
#   From: 2010.05.17/outbox.cif.g08.bks.cpg/sg62_9_cif.got.tgz:17030.got - 2010.06.03 15:25:27.
