data_PCOD9462479
_publ_section_title
;
Structure prediction by ZEFSAII (Michael W. Deem and Ramdas Pophale) SiO2 
 PCOD9462479
Probable space group: P N M A
;
_chemical_formula_sum "Si O2"
_cell_formula_units_Z 64
_cell_length_a 17.784652
_cell_length_b 7.394787
_cell_length_c 20.824367
_cell_angle_alpha 90.000000
_cell_angle_beta 90.000000
_cell_angle_gamma 90.000000
_cell_volume 2738.689834
_symmetry_space_group_name_H-M "P N M A"
_symmetry_group_IT_number 62
_symmetry_cell_setting 'orthorhombic'
loop_
_space_group_symop_operation_xyz
x,y,z
1/2-x,-y,1/2+z
1/2+x,1/2-y,1/2-z
-x,1/2+y,-z
-x,-y,-z
1/2+x,y,1/2-z
1/2-x,1/2+y,1/2+z
x,1/2-y,z
loop_
_atom_site_type_symbol
_atom_site_label
_atom_site_fract_x
_atom_site_fract_y
_atom_site_fract_z
Si Si1 0.277578 0.032653 0.013964
Si Si2 0.922671 0.471473 0.258911
Si Si3 0.387993 0.459569 0.659333
Si Si4 0.611435 0.528659 0.618200
Si Si5 0.399773 0.459029 0.520482
Si Si6 0.924714 0.546561 0.700039
Si Si7 0.787715 0.468437 0.346092
Si Si8 0.715843 0.042997 0.126537
O O1 0.275762 0.250000 0.010141
O O2 0.310185 0.961421 0.947512
O O3 0.314013 0.981532 0.081855
O O4 0.191379 0.965444 0.016810
O O5 0.924189 0.250000 0.259356
O O6 0.927628 0.526218 0.184358
O O7 0.844412 0.527993 0.290963
O O8 0.992260 0.535317 0.302383
O O9 0.410297 0.250000 0.662939
O O10 0.415709 0.538404 0.590933
O O11 0.412764 0.556096 0.723572
O O12 0.297240 0.465785 0.660411
O O13 0.611676 0.750000 0.614855
O O14 0.578481 0.464863 0.549497
O O15 0.699080 0.468801 0.625650
O O16 0.422801 0.250000 0.521942
O O17 0.928947 0.750000 0.672679
O O18 0.850611 0.460109 0.669056
O O19 0.784023 0.250000 0.343457
O O20 0.725316 0.250000 0.149712
#
# Coordination Sequence:
#
# PCOD9462479 Si02
#       8
#     8   8   8   8   8   8   8   8
#     4   9  16  26  45  72  97 119 149 196 243 279
#     4   9  17  30  49  71  94 123 162 203 237 275
#     4  10  19  31  49  72  98 127 158 196 241 288
#     4   8  13  25  47  69  87 114 154 194 227 268
#     4   8  15  28  46  69  96 124 154 189 235 288
#     4  10  20  33  49  69  94 127 165 201 237 281
#     4   9  17  31  51  74  98 123 157 200 241 284
#     4   9  17  30  48  68  92 123 157 193 236 289
#
# _framework density 23.368839000000001
#
# number of rings (size 3 to 8) (size 9 to 14) (size 15 to 20)
#    0.000    3.000    0.000    2.250    0.000    3.500 
#    0.000    1.875    0.000    3.000    0.000    0.000 
#    0.000    0.000    0.000    0.000    0.000    0.000 
#
# Total GULP energy -357077.437364 kJ/mol
# GULP energy per Si atom -5579.334959 kJ/mol
# Density = 2.331565 g / cm^3
# Si number density = 23.368839 Si / 1000 Ang^3
#
#
#
# Elastic Constant Matrix: (Units=GPa)
#
#
# Indices 1 2 3 4 5 6 
#
# 1 53.1170 5.7346 16.6699 0.0000 0.0000 0.0000
# 2 5.7346 90.2425 0.4703 0.0000 0.0000 0.0000
# 3 16.6699 0.4703 100.4201 0.0000 0.0000 0.0000
# 4 0.0000 0.0000 0.0000 107.0215 0.0000 0.0000
# 5 0.0000 0.0000 0.0000 0.0000 -10.4531 0.0000
# 6 0.0000 0.0000 0.0000 0.0000 0.0000 -1.2920
#
#
#
# Elastic Compliance Matrix: (Units=1/GPa)
#
#
# Indices 1 2 3 4 5 6 
#
# 1 0.020002 -0.001254 -0.003314 0.000000 0.000000 0.000000
# 2 -0.001254 0.011160 0.000156 0.000000 0.000000 0.000000
# 3 -0.003314 0.000156 0.010508 0.000000 0.000000 0.000000
# 4 0.000000 0.000000 0.000000 0.009344 0.000000 0.000000
# 5 0.000000 0.000000 0.000000 0.000000 -0.095665 0.000000
# 6 0.000000 0.000000 0.000000 0.000000 0.000000 -0.773992
#
#
# Mechanical properties :
#
#
# Convention : Reuss Voigt Hill
#
# Bulk Modulus (GPa) = 30.44610 32.16988 31.30799
# Shear Modulus (GPa) = -6.25884 33.78226 13.76171
#
# Velocity S-wave (km/s) = -1.63832 3.80624 2.42934
# Velocity P-wave (km/s) = 3.07863 5.75436 4.61469
#
# Compressibility (1/GPa) = 0.03284492
#
# Stress axis : x y z
#
# Youngs Moduli (GPa) = 49.99520 89.60478 95.16883
#
# Poissons Ratio (x) = 0.11234 0.31543
# Poissons Ratio (y) = 0.06268 -0.01483
# Poissons Ratio (z) = 0.16571 -0.01397
#
# Static dielectric constant tensor:
#      x y z
#    x 1.874840 0.000000 0.000000 
#    y 0.000000 1.871970 0.000000 
#    z 0.000000 0.000000 1.896480 
# 
# From -- ./inp_files/27912.got.cif
#   From: 2010.05.17/outbox.cif.g08.bks.cpg/sg62_14_cif.got.tgz:27912.got - 2010.06.03 15:25:27.
