data_PCOD9462056
_publ_section_title
;
Structure prediction by ZEFSAII (Michael W. Deem and Ramdas Pophale) SiO2 
 PCOD9462056
Probable space group: P N M A
;
_chemical_formula_sum "Si O2"
_cell_formula_units_Z 64
_cell_length_a 11.823114
_cell_length_b 15.178126
_cell_length_c 14.681116
_cell_angle_alpha 90.000000
_cell_angle_beta 90.000000
_cell_angle_gamma 90.000000
_cell_volume 2634.566111
_symmetry_space_group_name_H-M "P N M A"
_symmetry_group_IT_number 62
_symmetry_cell_setting 'orthorhombic'
loop_
_space_group_symop_operation_xyz
x,y,z
1/2-x,-y,1/2+z
1/2+x,1/2-y,1/2-z
-x,1/2+y,-z
-x,-y,-z
1/2+x,y,1/2-z
1/2-x,1/2+y,1/2+z
x,1/2-y,z
loop_
_atom_site_type_symbol
_atom_site_label
_atom_site_fract_x
_atom_site_fract_y
_atom_site_fract_z
Si Si1 0.503996 0.144443 0.082760
Si Si2 0.538407 0.074226 0.343099
Si Si3 0.081182 0.347558 0.610742
Si Si4 0.224329 0.521391 0.077112
Si Si5 0.106772 0.401338 0.804627
Si Si6 0.971110 0.151309 0.966392
Si Si7 0.718454 0.022339 0.131843
Si Si8 0.641944 0.652424 0.759550
O O1 0.532045 0.250000 0.098987
O O2 0.597034 0.070855 0.115119
O O3 0.388623 0.125360 0.136954
O O4 0.493990 0.138067 0.972428
O O5 0.503907 0.095841 0.445640
O O6 0.487394 0.150325 0.281324
O O7 0.669313 0.050012 0.354741
O O8 0.470210 0.989488 0.307816
O O9 0.131662 0.250000 0.590990
O O10 0.161811 0.431572 0.605109
O O11 0.059404 0.349264 0.717911
O O12 0.133460 0.601314 0.078280
O O13 0.237614 0.500048 0.970043
O O14 0.237790 0.435638 0.811253
O O15 0.073659 0.350236 0.895658
O O16 0.941101 0.250000 0.993225
O O17 0.787301 0.098473 0.185409
O O18 0.689427 0.750000 0.762583
#
# Coordination Sequence:
#
# PCOD9462056 Si02
#       8
#     8   8   8   8   8   8   8   8
#     4   9  20  35  52  78 106 141 188 227 268 327
#     4  10  19  32  49  81 108 134 170 221 276 324
#     4  10  21  35  52  74 103 141 182 221 264 316
#     4  10  18  33  51  74 107 135 175 220 270 320
#     4  10  19  33  48  75 107 136 174 218 266 324
#     4  11  18  30  53  80 108 137 174 222 277 328
#     4  10  18  33  52  77 108 142 174 229 277 322
#     4  10  19  31  52  80 108 138 179 227 275 327
#
# _framework density 24.292425000000001
#
# number of rings (size 3 to 8) (size 9 to 14) (size 15 to 20)
#    0.000    2.000    3.750    2.250    1.750    1.000 
#    0.000    2.500    0.000    0.000    6.500    0.000 
#    0.000    0.000    0.000    0.000    0.000    0.000 
#
# Total GULP energy -356538.949319 kJ/mol
# GULP energy per Si atom -5570.921083 kJ/mol
# Density = 2.423713 g / cm^3
# Si number density = 24.292425 Si / 1000 Ang^3
#
#
#
# Elastic Constant Matrix: (Units=GPa)
#
#
# Indices 1 2 3 4 5 6 
#
# 1 37.8798 7.0862 -1.8665 0.0000 0.0000 0.0000
# 2 7.0862 62.2907 2.9261 0.0000 0.0000 0.0000
# 3 -1.8665 2.9261 109.3243 0.0000 0.0000 0.0000
# 4 0.0000 0.0000 0.0000 37.3157 0.0000 0.0000
# 5 0.0000 0.0000 0.0000 0.0000 26.6802 0.0000
# 6 0.0000 0.0000 0.0000 0.0000 0.0000 9.8562
#
#
#
# Elastic Compliance Matrix: (Units=1/GPa)
#
#
# Indices 1 2 3 4 5 6 
#
# 1 0.027006 -0.003098 0.000544 0.000000 0.000000 0.000000
# 2 -0.003098 0.016429 -0.000493 0.000000 0.000000 0.000000
# 3 0.000544 -0.000493 0.009170 0.000000 0.000000 0.000000
# 4 0.000000 0.000000 0.000000 0.026798 0.000000 0.000000
# 5 0.000000 0.000000 0.000000 0.000000 0.037481 0.000000
# 6 0.000000 0.000000 0.000000 0.000000 0.000000 0.101458
#
#
# Mechanical properties :
#
#
# Convention : Reuss Voigt Hill
#
# Bulk Modulus (GPa) = 21.49993 25.08737 23.29365
# Shear Modulus (GPa) = 20.83863 28.19368 24.51615
#
# Velocity S-wave (km/s) = 2.93204 3.41045 3.18025
# Velocity P-wave (km/s) = 4.50912 5.08506 4.80573
#
# Compressibility (1/GPa) = 0.04651177
#
# Stress axis : x y z
#
# Youngs Moduli (GPa) = 37.02933 60.86684 109.05636
#
# Poissons Ratio (x) = 0.18855 -0.05932
# Poissons Ratio (y) = 0.11471 0.05372
# Poissons Ratio (z) = -0.02014 0.02998
#
# Static dielectric constant tensor:
#      x y z
#    x 2.018920 0.000000 0.000000 
#    y 0.000000 1.950420 0.000000 
#    z 0.000000 0.000000 2.021410 
# 
# From -- ./inp_files/19246.got.cif
#   From: 2010.05.17/outbox.cif.g08.bks.cpg/sg62_10_cif.got.tgz:19246.got - 2010.06.03 15:25:27.
