data_PCOD9462616
_publ_section_title
;
Structure prediction by ZEFSAII (Michael W. Deem and Ramdas Pophale) SiO2 
 PCOD9462616
Probable space group: P N M A
;
_chemical_formula_sum "Si O2"
_cell_formula_units_Z 64
_cell_length_a 21.644318
_cell_length_b 7.476188
_cell_length_c 17.420579
_cell_angle_alpha 90.000000
_cell_angle_beta 90.000000
_cell_angle_gamma 90.000000
_cell_volume 2818.945667
_symmetry_space_group_name_H-M "P N M A"
_symmetry_group_IT_number 62
_symmetry_cell_setting 'orthorhombic'
loop_
_space_group_symop_operation_xyz
x,y,z
1/2-x,-y,1/2+z
1/2+x,1/2-y,1/2-z
-x,1/2+y,-z
-x,-y,-z
1/2+x,y,1/2-z
1/2-x,1/2+y,1/2+z
x,1/2-y,z
loop_
_atom_site_type_symbol
_atom_site_label
_atom_site_fract_x
_atom_site_fract_y
_atom_site_fract_z
Si Si1 0.107183 0.964003 0.276421
Si Si2 0.803539 0.468388 0.599337
Si Si3 0.286882 0.033104 0.178171
Si Si4 0.386223 0.957201 0.294026
Si Si5 0.665341 0.030276 0.552226
Si Si6 0.021946 0.464606 0.662459
Si Si7 0.654966 0.463141 0.380091
Si Si8 0.119372 0.963056 0.544664
O O1 0.107713 0.750000 0.283966
O O2 0.169356 0.029901 0.318933
O O3 0.046545 0.031063 0.320387
O O4 0.105362 0.003043 0.186108
O O5 0.800935 0.250000 0.599947
O O6 0.735654 0.525713 0.572359
O O7 0.854847 0.526099 0.536553
O O8 0.286943 0.250000 0.180994
O O9 0.219339 0.968158 0.155542
O O10 0.332788 0.974054 0.109985
O O11 0.318051 0.966181 0.255990
O O12 0.403856 0.750000 0.302215
O O13 0.379204 0.032565 0.379216
O O14 0.432498 0.035139 0.230128
O O15 0.664930 0.250000 0.553611
O O16 0.646844 0.971116 0.466791
O O17 0.020708 0.250000 0.668617
O O18 0.052214 0.500082 0.579742
O O19 0.661725 0.250000 0.386843
O O20 0.124578 0.750000 0.541200
#
# Coordination Sequence:
#
# PCOD9462616 Si02
#       8
#     8   8   8   8   8   8   8   8
#     4  10  21  35  50  69  98 135 168 200 239 288
#     4   9  16  29  50  74  97 125 163 198 238 297
#     4   9  16  28  47  71  98 121 146 194 253 291
#     4   9  17  30  51  72  93 128 169 200 230 284
#     4   9  16  29  50  74  95 120 160 203 241 291
#     4   9  19  34  48  69 102 133 165 204 242 278
#     4  10  19  32  50  71  96 122 156 204 250 288
#     4   9  16  29  51  74  94 124 162 198 236 287
#
# _framework density 22.703526
#
# number of rings (size 3 to 8) (size 9 to 14) (size 15 to 20)
#    0.000    2.750    1.250    0.750    0.000    2.500 
#    0.000    1.875    0.000    1.500    0.000    0.000 
#    0.000    0.000    0.000    0.000    0.000    0.000 
#
# Total GULP energy -357122.148736 kJ/mol
# GULP energy per Si atom -5580.033574 kJ/mol
# Density = 2.265185 g / cm^3
# Si number density = 22.703526 Si / 1000 Ang^3
#
#
#
# Elastic Constant Matrix: (Units=GPa)
#
#
# Indices 1 2 3 4 5 6 
#
# 1 31.2306 -2.0906 3.0564 0.0000 0.0000 0.0000
# 2 -2.0906 61.3638 -3.0876 0.0000 0.0000 0.0000
# 3 3.0564 -3.0876 121.3573 0.0000 0.0000 0.0000
# 4 0.0000 0.0000 0.0000 5.3144 0.0000 0.0000
# 5 0.0000 0.0000 0.0000 0.0000 25.9464 0.0000
# 6 0.0000 0.0000 0.0000 0.0000 0.0000 1.6875
#
#
#
# Elastic Compliance Matrix: (Units=1/GPa)
#
#
# Indices 1 2 3 4 5 6 
#
# 1 0.032167 0.001057 -0.000783 0.000000 0.000000 0.000000
# 2 0.001057 0.016352 0.000389 0.000000 0.000000 0.000000
# 3 -0.000783 0.000389 0.008270 0.000000 0.000000 0.000000
# 4 0.000000 0.000000 0.000000 0.188168 0.000000 0.000000
# 5 0.000000 0.000000 0.000000 0.000000 0.038541 0.000000
# 6 0.000000 0.000000 0.000000 0.000000 0.000000 0.592609
#
#
# Mechanical properties :
#
#
# Convention : Reuss Voigt Hill
#
# Bulk Modulus (GPa) = 17.20750 23.30089 20.25419
# Shear Modulus (GPa) = 5.59188 20.99456 13.29322
#
# Velocity S-wave (km/s) = 1.57110 3.04423 2.42236
# Velocity P-wave (km/s) = 3.29952 4.75835 4.09443
#
# Compressibility (1/GPa) = 0.05811421
#
# Stress axis : x y z
#
# Youngs Moduli (GPa) = 31.08752 61.15522 120.92247
#
# Poissons Ratio (x) = -0.06461 0.09471
# Poissons Ratio (y) = -0.03284 -0.04709
# Poissons Ratio (z) = 0.02435 -0.02382
#
# Static dielectric constant tensor:
#      x y z
#    x 1.847730 0.000000 0.000000 
#    y 0.000000 1.861390 0.000000 
#    z 0.000000 0.000000 1.862840 
# 
# From -- ./inp_files/20860.got.cif
#   From: 2010.05.17/outbox.cif.g08.bks.cpg/sg62_11_cif.got.tgz:20860.got - 2010.06.03 15:25:27.
