data_PCOD9462859
_publ_section_title
;
Structure prediction by ZEFSAII (Michael W. Deem and Ramdas Pophale) SiO2 
 PCOD9462859
Probable space group: P N M A
;
_chemical_formula_sum "Si O2"
_cell_formula_units_Z 56
_cell_length_a 19.794798
_cell_length_b 8.812068
_cell_length_c 19.692425
_cell_angle_alpha 90.000000
_cell_angle_beta 90.000000
_cell_angle_gamma 90.000000
_cell_volume 3435.010858
_symmetry_space_group_name_H-M "P N M A"
_symmetry_group_IT_number 62
_symmetry_cell_setting 'orthorhombic'
loop_
_space_group_symop_operation_xyz
x,y,z
1/2-x,-y,1/2+z
1/2+x,1/2-y,1/2-z
-x,1/2+y,-z
-x,-y,-z
1/2+x,y,1/2-z
1/2-x,1/2+y,1/2+z
x,1/2-y,z
loop_
_atom_site_type_symbol
_atom_site_label
_atom_site_fract_x
_atom_site_fract_y
_atom_site_fract_z
Si Si1 0.268031 0.566808 0.867367
Si Si2 0.706529 0.432921 0.977550
Si Si3 0.978875 0.932718 0.291121
Si Si4 0.154500 0.931669 0.764468
Si Si5 0.231933 0.431514 0.154003
Si Si6 0.051802 0.433201 0.554393
Si Si7 0.369438 0.067779 0.758026
O O1 0.275124 0.750000 0.862076
O O2 0.273764 0.524156 0.945865
O O3 0.197165 0.525926 0.831428
O O4 0.326878 0.492696 0.822360
O O5 0.710621 0.250000 0.971809
O O6 0.753520 0.506449 0.920550
O O7 0.628732 0.477361 0.963075
O O8 0.976787 0.750000 0.290894
O O9 0.966790 0.982527 0.369158
O O10 0.052795 0.980165 0.265879
O O11 0.917611 0.993301 0.245931
O O12 0.146757 0.750000 0.763877
O O13 0.203508 0.973646 0.701348
O O14 0.226581 0.250000 0.154250
O O15 0.167411 0.501817 0.191713
O O16 0.048051 0.250000 0.551788
O O17 0.000000 0.500000 0.500000
O O18 0.366245 0.250000 0.756792
#
# Coordination Sequence:
#
# PCOD9462859 Si02
#       7
#     8   8   8   8   8   8   8
#     4   9  19  34  51  76 105 133 171 211 252 305
#     4  10  19  33  53  74 103 139 169 208 259 305
#     4  10  20  33  49  73 102 131 170 210 247 301
#     4   9  18  32  50  72  98 131 169 209 251 297
#     4  10  20  34  52  75 101 131 174 217 252 306
#     4  10  20  31  46  72 105 138 167 198 245 305
#     4  10  20  33  51  74 102 135 169 211 256 300
#
# _framework density 16.302714000000002
#
# number of rings (size 3 to 8) (size 9 to 14) (size 15 to 20)
#    0.000    2.286    1.429    2.571    0.000    5.143 
#    0.000    0.000    0.000    0.857    0.000    0.000 
#    0.000    0.000    0.000    0.000    0.000    0.000 
#
# Total GULP energy -312447.540634 kJ/mol
# GULP energy per Si atom -5579.420368 kJ/mol
# Density = 1.626561 g / cm^3
# Si number density = 16.302714 Si / 1000 Ang^3
#
#
#
# Elastic Constant Matrix: (Units=GPa)
#
#
# Indices 1 2 3 4 5 6 
#
# 1 157.6109 39.5349 96.7322 0.0000 0.0000 0.0000
# 2 39.5349 18.5854 34.4389 0.0000 0.0000 0.0000
# 3 96.7322 34.4389 115.9311 0.0000 0.0000 0.0000
# 4 0.0000 0.0000 0.0000 23.7059 0.0000 0.0000
# 5 0.0000 0.0000 0.0000 0.0000 22.9735 0.0000
# 6 0.0000 0.0000 0.0000 0.0000 0.0000 23.3029
#
#
#
# Elastic Compliance Matrix: (Units=1/GPa)
#
#
# Indices 1 2 3 4 5 6 
#
# 1 0.015888 -0.020537 -0.007156 0.000000 0.000000 0.000000
# 2 -0.020537 0.146235 -0.026305 0.000000 0.000000 0.000000
# 3 -0.007156 -0.026305 0.022411 0.000000 0.000000 0.000000
# 4 0.000000 0.000000 0.000000 0.042184 0.000000 0.000000
# 5 0.000000 0.000000 0.000000 0.000000 0.043528 0.000000
# 6 0.000000 0.000000 0.000000 0.000000 0.000000 0.042913
#
#
# Mechanical properties :
#
#
# Convention : Reuss Voigt Hill
#
# Bulk Modulus (GPa) = 13.06540 70.39325 41.72932
# Shear Modulus (GPa) = 11.19394 22.09122 16.64258
#
# Velocity S-wave (km/s) = 2.62321 3.68511 3.19854
# Velocity P-wave (km/s) = 4.14808 7.83450 6.26841
#
# Compressibility (1/GPa) = 0.07653802
#
# Stress axis : x y z
#
# Youngs Moduli (GPa) = 62.93936 6.83829 44.62005
#
# Poissons Ratio (x) = 0.14044 0.31932
# Poissons Ratio (y) = 1.29257 1.17375
# Poissons Ratio (z) = 0.45042 0.17988
#
# Static dielectric constant tensor:
#      x y z
#    x 1.530450 0.000000 0.000000 
#    y 0.000000 1.550920 0.000000 
#    z 0.000000 0.000000 1.534410 
# 
# From -- ./inp_files/27555.got.cif
#   From: 2010.05.17/outbox.cif.g08.bks.cpg/sg62_14_cif.got.tgz:27555.got - 2010.06.03 15:25:27.
