data_PCOD9462496
_publ_section_title
;
Structure prediction by ZEFSAII (Michael W. Deem and Ramdas Pophale) SiO2 
 PCOD9462496
Probable space group: P N M A
;
_chemical_formula_sum "Si O2"
_cell_formula_units_Z 60
_cell_length_a 5.272068
_cell_length_b 26.413237
_cell_length_c 20.862191
_cell_angle_alpha 90.000000
_cell_angle_beta 90.000000
_cell_angle_gamma 90.000000
_cell_volume 2905.109781
_symmetry_space_group_name_H-M "P N M A"
_symmetry_group_IT_number 62
_symmetry_cell_setting 'orthorhombic'
loop_
_space_group_symop_operation_xyz
x,y,z
1/2-x,-y,1/2+z
1/2+x,1/2-y,1/2-z
-x,1/2+y,-z
-x,-y,-z
1/2+x,y,1/2-z
1/2-x,1/2+y,1/2+z
x,1/2-y,z
loop_
_atom_site_type_symbol
_atom_site_label
_atom_site_fract_x
_atom_site_fract_y
_atom_site_fract_z
Si Si1 0.796797 0.342908 0.895459
Si Si2 0.791292 0.306069 0.666810
Si Si3 0.082940 0.750000 0.793245
Si Si4 0.706237 0.854666 0.708615
Si Si5 0.771644 0.486889 0.579786
Si Si6 0.616884 0.533971 0.708988
Si Si7 0.233622 0.565271 0.028099
Si Si8 0.202297 0.598528 0.232604
O O1 0.547913 0.312814 0.873631
O O2 0.766894 0.374324 0.960562
O O3 0.816601 0.386046 0.840252
O O4 0.053902 0.312776 0.881014
O O5 0.782164 0.250000 0.696574
O O6 0.785055 0.350437 0.721444
O O7 0.299869 0.750000 0.736613
O O8 0.139305 0.697084 0.828420
O O9 0.496274 0.852892 0.766547
O O10 0.653546 0.909178 0.679363
O O11 0.689915 0.496878 0.651860
O O12 0.544921 0.454233 0.548339
O O13 0.787095 0.539663 0.540504
O O14 0.038296 0.458233 0.571158
O O15 0.329965 0.531739 0.735162
O O16 0.458545 0.569905 0.244261
#
# Coordination Sequence:
#
# PCOD9462496 Si02
#       8
#     8   8   4   8   8   8   8   8
#     4  10  19  32  49  72 100 131 177 224 266 300
#     4  10  19  31  49  75 107 143 180 218 259 316
#     4   8  12  20  34  58  86 120 152 182 224 272
#     4   8  14  23  39  62  95 124 153 190 227 294
#     4  10  21  38  58  78 103 138 182 225 277 320
#     4  10  19  33  51  79 110 134 167 210 268 336
#     4  10  21  38  58  77 102 137 190 237 256 320
#     4   8  16  27  41  64  96 131 165 211 255 303
#
# _framework density 20.653265999999999
#
# number of rings (size 3 to 8) (size 9 to 14) (size 15 to 20)
#    0.000    2.667    0.000    2.000    0.000    4.800 
#    0.000   12.000    0.000    0.000    3.467    0.000 
#   16.000    0.000    0.000    0.000    0.000    0.000 
#
# Total GULP energy -334433.317471 kJ/mol
# GULP energy per Si atom -5573.888625 kJ/mol
# Density = 2.060626 g / cm^3
# Si number density = 20.653266 Si / 1000 Ang^3
#
#
#
# Elastic Constant Matrix: (Units=GPa)
#
#
# Indices 1 2 3 4 5 6 
#
# 1 137.3389 6.5737 2.0448 0.0000 0.0000 0.0000
# 2 6.5737 81.0298 16.1509 0.0000 0.0000 0.0000
# 3 2.0448 16.1509 32.9402 0.0000 0.0000 0.0000
# 4 0.0000 0.0000 0.0000 20.8703 0.0000 0.0000
# 5 0.0000 0.0000 0.0000 0.0000 14.6546 0.0000
# 6 0.0000 0.0000 0.0000 0.0000 0.0000 8.1745
#
#
#
# Elastic Compliance Matrix: (Units=1/GPa)
#
#
# Indices 1 2 3 4 5 6 
#
# 1 0.007311 -0.000557 -0.000181 0.000000 0.000000 0.000000
# 2 -0.000557 0.013720 -0.006693 0.000000 0.000000 0.000000
# 3 -0.000181 -0.006693 0.033651 0.000000 0.000000 0.000000
# 4 0.000000 0.000000 0.000000 0.047915 0.000000 0.000000
# 5 0.000000 0.000000 0.000000 0.000000 0.068238 0.000000
# 6 0.000000 0.000000 0.000000 0.000000 0.000000 0.122332
#
#
# Mechanical properties :
#
#
# Convention : Reuss Voigt Hill
#
# Bulk Modulus (GPa) = 25.11245 33.42752 29.26998
# Shear Modulus (GPa) = 15.56176 23.84253 19.70215
#
# Velocity S-wave (km/s) = 2.74793 3.40136 3.09196
# Velocity P-wave (km/s) = 4.71738 5.62547 5.19132
#
# Compressibility (1/GPa) = 0.03982089
#
# Stress axis : x y z
#
# Youngs Moduli (GPa) = 136.78743 72.88473 29.71710
#
# Poissons Ratio (x) = 0.04060 0.00537
# Poissons Ratio (y) = 0.07620 0.19888
# Poissons Ratio (z) = 0.02471 0.48779
#
# Static dielectric constant tensor:
#      x y z
#    x 1.777700 0.000000 0.000000 
#    y 0.000000 1.856020 0.000000 
#    z 0.000000 0.000000 1.716240 
# 
# From -- ./inp_files/21656.got.cif
#   From: 2010.05.17/outbox.cif.g08.bks.cpg/sg62_11_cif.got.tgz:21656.got - 2010.06.03 15:25:27.
