data_PCOD9462096
_publ_section_title
;
Structure prediction by ZEFSAII (Michael W. Deem and Ramdas Pophale) SiO2 
 PCOD9462096
Probable space group: P N M A
;
_chemical_formula_sum "Si O2"
_cell_formula_units_Z 40
_cell_length_a 13.450136
_cell_length_b 17.270847
_cell_length_c 7.309920
_cell_angle_alpha 90.000000
_cell_angle_beta 90.000000
_cell_angle_gamma 90.000000
_cell_volume 1698.059628
_symmetry_space_group_name_H-M "P N M A"
_symmetry_group_IT_number 62
_symmetry_cell_setting 'orthorhombic'
loop_
_space_group_symop_operation_xyz
x,y,z
1/2-x,-y,1/2+z
1/2+x,1/2-y,1/2-z
-x,1/2+y,-z
-x,-y,-z
1/2+x,y,1/2-z
1/2-x,1/2+y,1/2+z
x,1/2-y,z
loop_
_atom_site_type_symbol
_atom_site_label
_atom_site_fract_x
_atom_site_fract_y
_atom_site_fract_z
Si Si1 0.922393 0.070753 0.508990
Si Si2 0.881426 0.663677 0.818380
Si Si3 0.307782 0.928929 0.009198
Si Si4 0.446534 0.657187 0.280441
Si Si5 0.835007 0.336807 0.209097
O O1 0.918657 0.125386 0.332014
O O2 0.956193 0.121641 0.681896
O O3 0.819441 0.021020 0.500557
O O4 0.000000 0.000000 0.500000
O O5 0.911179 0.750000 0.755912
O O6 0.938262 0.643984 0.002958
O O7 0.760998 0.669407 0.845269
O O8 0.877404 0.604090 0.653887
O O9 0.353907 0.888405 0.187240
O O10 0.201840 0.893446 0.952336
O O11 0.439389 0.750000 0.249124
O O12 0.855685 0.250000 0.141944
#
# Coordination Sequence:
#
# PCOD9462096 Si02
#       5
#     8   8   8   8   8
#     4  10  21  32  52  86 111 141 181 229 285 330
#     4   8  17  33  57  79 102 140 187 226 266 328
#     4   9  19  35  55  78 109 147 188 225 276 327
#     4  10  18  33  58  82 110 146 183 228 284 333
#     4   9  18  37  58  77 108 148 188 228 268 329
#
# _framework density 23.556301000000001
#
# number of rings (size 3 to 8) (size 9 to 14) (size 15 to 20)
#    1.200    1.600    0.000    1.800    0.000    4.000 
#    0.000    0.000    8.800    0.000    0.000    0.000 
#    0.000    0.000    0.000    0.000    0.000    0.000 
#
# Total GULP energy -222878.106654 kJ/mol
# GULP energy per Si atom -5571.952666 kJ/mol
# Density = 2.350269 g / cm^3
# Si number density = 23.556301 Si / 1000 Ang^3
#
#
#
# Elastic Constant Matrix: (Units=GPa)
#
#
# Indices 1 2 3 4 5 6 
#
# 1 47.3079 0.4103 -11.5634 0.0000 0.0000 0.0000
# 2 0.4103 89.4895 25.7736 0.0000 0.0000 0.0000
# 3 -11.5634 25.7736 88.4117 0.0000 0.0000 0.0000
# 4 0.0000 0.0000 0.0000 57.8268 0.0000 0.0000
# 5 0.0000 0.0000 0.0000 0.0000 36.9268 0.0000
# 6 0.0000 0.0000 0.0000 0.0000 0.0000 29.9067
#
#
#
# Elastic Compliance Matrix: (Units=1/GPa)
#
#
# Indices 1 2 3 4 5 6 
#
# 1 0.021920 -0.001011 0.003162 0.000000 0.000000 0.000000
# 2 -0.001011 0.012245 -0.003702 0.000000 0.000000 0.000000
# 3 0.003162 -0.003702 0.012803 0.000000 0.000000 0.000000
# 4 0.000000 0.000000 0.000000 0.017293 0.000000 0.000000
# 5 0.000000 0.000000 0.000000 0.000000 0.027081 0.000000
# 6 0.000000 0.000000 0.000000 0.000000 0.000000 0.033437
#
#
# Mechanical properties :
#
#
# Convention : Reuss Voigt Hill
#
# Bulk Modulus (GPa) = 22.79690 28.27223 25.53456
# Shear Modulus (GPa) = 35.08670 38.97129 37.02899
#
# Velocity S-wave (km/s) = 3.86357 4.07183 3.96907
# Velocity P-wave (km/s) = 5.44073 5.84247 5.64517
#
# Compressibility (1/GPa) = 0.04386562
#
# Stress axis : x y z
#
# Youngs Moduli (GPa) = 45.62108 81.66385 78.10408
#
# Poissons Ratio (x) = 0.08257 -0.24694
# Poissons Ratio (y) = 0.04613 0.28914
# Poissons Ratio (z) = -0.14424 0.30232
#
# Static dielectric constant tensor:
#      x y z
#    x 2.128690 0.000000 0.000000 
#    y 0.000000 1.831540 0.000000 
#    z 0.000000 0.000000 1.822040 
# 
# From -- ./inp_files/6256.got.cif
#   From: 2010.05.17/outbox.cif.g08.bks.cpg/sg62_4_cif.got.tgz:6256.got - 2010.06.03 15:25:27.
