data_PCOD9462358
_publ_section_title
;
Structure prediction by ZEFSAII (Michael W. Deem and Ramdas Pophale) SiO2 
 PCOD9462358
Probable space group: P N M A
;
_chemical_formula_sum "Si O2"
_cell_formula_units_Z 64
_cell_length_a 12.091171
_cell_length_b 24.383828
_cell_length_c 13.273284
_cell_angle_alpha 90.000000
_cell_angle_beta 90.000000
_cell_angle_gamma 90.000000
_cell_volume 3913.349499
_symmetry_space_group_name_H-M "P N M A"
_symmetry_group_IT_number 62
_symmetry_cell_setting 'orthorhombic'
loop_
_space_group_symop_operation_xyz
x,y,z
1/2-x,-y,1/2+z
1/2+x,1/2-y,1/2-z
-x,1/2+y,-z
-x,-y,-z
1/2+x,y,1/2-z
1/2-x,1/2+y,1/2+z
x,1/2-y,z
loop_
_atom_site_type_symbol
_atom_site_label
_atom_site_fract_x
_atom_site_fract_y
_atom_site_fract_z
Si Si1 0.164610 0.977683 0.426117
Si Si2 0.575336 0.809869 0.151291
Si Si3 0.598611 0.982703 0.630474
Si Si4 0.642875 0.814191 0.386667
Si Si5 0.983272 0.592718 0.026438
Si Si6 0.277650 0.867746 0.387228
Si Si7 0.916619 0.499259 0.359563
Si Si8 0.137330 0.374404 0.663409
O O1 0.199859 0.920913 0.374246
O O2 0.048835 0.998187 0.380169
O O3 0.275342 0.013836 0.410805
O O4 0.140014 0.970510 0.544809
O O5 0.529239 0.750000 0.131169
O O6 0.606149 0.813967 0.269404
O O7 0.691804 0.819339 0.096808
O O8 0.481035 0.853058 0.128168
O O9 0.530389 0.936582 0.571951
O O10 0.538148 0.041354 0.604338
O O11 0.601975 0.974602 0.749646
O O12 0.638692 0.750000 0.420008
O O13 0.564023 0.858618 0.439648
O O14 0.765004 0.840611 0.389454
O O15 0.862231 0.619825 0.023765
O O16 0.345663 0.862049 0.283019
O O17 0.864371 0.560612 0.354791
#
# Coordination Sequence:
#
# PCOD9462358 Si02
#       8
#     8   8   8   8   8   8   8   8
#     4  10  21  32  48  78 102 138 179 211 266 323
#     4  10  19  30  47  71 102 138 172 208 264 324
#     4  10  21  34  53  76 104 145 181 218 278 324
#     4  10  20  30  46  72 103 138 174 216 264 320
#     4  10  19  34  49  74 101 137 182 216 263 330
#     4  10  19  32  47  70 102 137 173 211 252 313
#     4  11  20  33  52  74 107 139 174 226 266 323
#     4  11  18  31  50  67 104 142 170 209 263 317
#
# _framework density 16.354275999999999
#
# number of rings (size 3 to 8) (size 9 to 14) (size 15 to 20)
#    0.000    1.750    5.000    1.125    1.750    4.000 
#    0.000    0.000    0.000    0.000    0.000    0.875 
#    0.000    3.000    0.000    0.000    0.000    0.000 
#
# Total GULP energy -356410.443859 kJ/mol
# GULP energy per Si atom -5568.913185 kJ/mol
# Density = 1.631705 g / cm^3
# Si number density = 16.354276 Si / 1000 Ang^3
#
#
#
# Elastic Constant Matrix: (Units=GPa)
#
#
# Indices 1 2 3 4 5 6 
#
# 1 100.8731 29.6519 31.7494 0.0000 0.0000 0.0000
# 2 29.6519 59.5494 7.4709 0.0000 0.0000 0.0000
# 3 31.7494 7.4709 67.2230 0.0000 0.0000 0.0000
# 4 0.0000 0.0000 0.0000 14.2325 0.0000 0.0000
# 5 0.0000 0.0000 0.0000 0.0000 18.3684 0.0000
# 6 0.0000 0.0000 0.0000 0.0000 0.0000 17.2809
#
#
#
# Elastic Compliance Matrix: (Units=1/GPa)
#
#
# Indices 1 2 3 4 5 6 
#
# 1 0.013467 -0.005991 -0.005695 0.000000 0.000000 0.000000
# 2 -0.005991 0.019696 0.000641 0.000000 0.000000 0.000000
# 3 -0.005695 0.000641 0.017494 0.000000 0.000000 0.000000
# 4 0.000000 0.000000 0.000000 0.070262 0.000000 0.000000
# 5 0.000000 0.000000 0.000000 0.000000 0.054441 0.000000
# 6 0.000000 0.000000 0.000000 0.000000 0.000000 0.057867
#
#
# Mechanical properties :
#
#
# Convention : Reuss Voigt Hill
#
# Bulk Modulus (GPa) = 35.00589 40.59889 37.80239
# Shear Modulus (GPa) = 18.87935 20.56124 19.72029
#
# Velocity S-wave (km/s) = 3.40133 3.54960 3.47626
# Velocity P-wave (km/s) = 6.07261 6.45586 6.26716
#
# Compressibility (1/GPa) = 0.02856662
#
# Stress axis : x y z
#
# Youngs Moduli (GPa) = 74.25591 50.77263 57.16181
#
# Poissons Ratio (x) = 0.30419 0.32551
# Poissons Ratio (y) = 0.44489 -0.03663
# Poissons Ratio (z) = 0.42286 -0.03253
#
# Static dielectric constant tensor:
#      x y z
#    x 1.588440 0.000000 0.000000 
#    y 0.000000 1.574440 0.000000 
#    z 0.000000 0.000000 1.527650 
# 
# From -- ./inp_files/12561.got.cif
#   From: 2010.05.17/outbox.cif.g08.bks.cpg/sg62_7_cif.got.tgz:12561.got - 2010.06.03 15:25:27.
