data_PCOD9462768
_publ_section_title
;
Structure prediction by ZEFSAII (Michael W. Deem and Ramdas Pophale) SiO2 
 PCOD9462768
Probable space group: P N M A
;
_chemical_formula_sum "Si O2"
_cell_formula_units_Z 64
_cell_length_a 11.662974
_cell_length_b 9.407181
_cell_length_c 29.665473
_cell_angle_alpha 90.000000
_cell_angle_beta 90.000000
_cell_angle_gamma 90.000000
_cell_volume 3254.768356
_symmetry_space_group_name_H-M "P N M A"
_symmetry_group_IT_number 62
_symmetry_cell_setting 'orthorhombic'
loop_
_space_group_symop_operation_xyz
x,y,z
1/2-x,-y,1/2+z
1/2+x,1/2-y,1/2-z
-x,1/2+y,-z
-x,-y,-z
1/2+x,y,1/2-z
1/2-x,1/2+y,1/2+z
x,1/2-y,z
loop_
_atom_site_type_symbol
_atom_site_label
_atom_site_fract_x
_atom_site_fract_y
_atom_site_fract_z
Si Si1 0.796478 0.916916 0.023377
Si Si2 0.669345 0.583954 0.154907
Si Si3 0.683640 0.579219 0.936730
Si Si4 0.962732 0.914061 0.813491
Si Si5 0.040551 0.911287 0.436133
Si Si6 0.512829 0.419399 0.773587
Si Si7 0.698130 0.916802 0.832380
Si Si8 0.873625 0.081896 0.107210
O O1 0.828145 0.750000 0.025435
O O2 0.664731 0.928978 0.041169
O O3 0.870254 0.006252 0.058686
O O4 0.782932 0.965831 0.971704
O O5 0.706288 0.750000 0.155080
O O6 0.570014 0.572770 0.116880
O O7 0.609126 0.547543 0.201957
O O8 0.771904 0.485688 0.137711
O O9 0.679512 0.750000 0.939865
O O10 0.559496 0.517162 0.949687
O O11 0.702276 0.539303 0.884873
O O12 0.992537 0.750000 0.802233
O O13 0.012592 0.940512 0.863322
O O14 0.826418 0.928246 0.813794
O O15 0.014697 0.017228 0.776275
O O16 0.001825 0.750000 0.444753
O O17 0.525581 0.250000 0.773573
O O18 0.611247 0.491299 0.803314
O O19 0.663526 0.750000 0.831000
O O20 0.854875 0.250000 0.101489
#
# Coordination Sequence:
#
# PCOD9462768 Si02
#       8
#     8   8   8   8   8   8   8   8
#     4   9  19  34  52  79 116 152 189 234 290 343
#     4   9  19  35  54  81 116 148 178 228 288 337
#     4  10  19  32  54  82 111 150 193 234 284 341
#     4  10  24  43  60  82 115 153 194 241 288 339
#     4   9  16  29  48  74 114 150 176 225 284 334
#     4  11  23  39  61  88 116 146 187 237 291 349
#     4  10  22  41  62  85 118 154 192 238 289 346
#     4  10  21  37  58  82 110 150 198 239 278 334
#
# _framework density 19.663457000000001
#
# number of rings (size 3 to 8) (size 9 to 14) (size 15 to 20)
#    0.000    2.250    1.250    1.875    1.750    5.000 
#    0.000    0.625    0.000    0.000    0.000    0.000 
#    0.000    0.000    0.000    0.000    0.000    0.000 
#
# Total GULP energy -357176.176832 kJ/mol
# GULP energy per Si atom -5580.877763 kJ/mol
# Density = 1.961870 g / cm^3
# Si number density = 19.663457 Si / 1000 Ang^3
#
#
#
# Elastic Constant Matrix: (Units=GPa)
#
#
# Indices 1 2 3 4 5 6 
#
# 1 18.4559 13.6022 -4.9099 0.0000 0.0000 0.0000
# 2 13.6022 39.0201 24.9138 0.0000 0.0000 0.0000
# 3 -4.9099 24.9138 74.2488 0.0000 0.0000 0.0000
# 4 0.0000 0.0000 0.0000 25.1646 0.0000 0.0000
# 5 0.0000 0.0000 0.0000 0.0000 13.9774 0.0000
# 6 0.0000 0.0000 0.0000 0.0000 0.0000 14.0161
#
#
#
# Elastic Compliance Matrix: (Units=1/GPa)
#
#
# Indices 1 2 3 4 5 6 
#
# 1 0.094819 -0.047161 0.022095 0.000000 0.000000 0.000000
# 2 -0.047161 0.056072 -0.021933 0.000000 0.000000 0.000000
# 3 0.022095 -0.021933 0.022289 0.000000 0.000000 0.000000
# 4 0.000000 0.000000 0.000000 0.039738 0.000000 0.000000
# 5 0.000000 0.000000 0.000000 0.000000 0.071544 0.000000
# 6 0.000000 0.000000 0.000000 0.000000 0.000000 0.071347
#
#
# Mechanical properties :
#
#
# Convention : Reuss Voigt Hill
#
# Bulk Modulus (GPa) = 12.62923 22.10411 17.36667
# Shear Modulus (GPa) = 10.49975 17.17286 13.83630
#
# Velocity S-wave (km/s) = 2.31329 2.95844 2.65553
# Velocity P-wave (km/s) = 3.68398 4.78909 4.27242
#
# Compressibility (1/GPa) = 0.07918142
#
# Stress axis : x y z
#
# Youngs Moduli (GPa) = 10.54638 17.83422 44.86541
#
# Poissons Ratio (x) = 0.84108 -0.99129
# Poissons Ratio (y) = 0.49738 0.98404
# Poissons Ratio (z) = -0.23302 0.39116
#
# Static dielectric constant tensor:
#      x y z
#    x 1.671030 0.000000 0.000000 
#    y 0.000000 1.659880 0.000000 
#    z 0.000000 0.000000 1.739730 
# 
# From -- ./inp_files/32492.got.cif
#   From: 2010.05.17/outbox.cif.g08.bks.cpg/sg62_17_cif.got.tgz:32492.got - 2010.06.03 15:25:27.
