data_PCOD9462150
_publ_section_title
;
Structure prediction by ZEFSAII (Michael W. Deem and Ramdas Pophale) SiO2 
 PCOD9462150
Probable space group: P N M A
;
_chemical_formula_sum "Si O2"
_cell_formula_units_Z 60
_cell_length_a 9.356784
_cell_length_b 12.010231
_cell_length_c 30.544751
_cell_angle_alpha 90.000000
_cell_angle_beta 90.000000
_cell_angle_gamma 90.000000
_cell_volume 3432.531676
_symmetry_space_group_name_H-M "P N M A"
_symmetry_group_IT_number 62
_symmetry_cell_setting 'orthorhombic'
loop_
_space_group_symop_operation_xyz
x,y,z
1/2-x,-y,1/2+z
1/2+x,1/2-y,1/2-z
-x,1/2+y,-z
-x,-y,-z
1/2+x,y,1/2-z
1/2-x,1/2+y,1/2+z
x,1/2-y,z
loop_
_atom_site_type_symbol
_atom_site_label
_atom_site_fract_x
_atom_site_fract_y
_atom_site_fract_z
Si Si1 0.202110 0.750000 0.140624
Si Si2 0.657378 0.381743 0.371304
Si Si3 0.424060 0.448434 0.699545
Si Si4 0.675327 0.618501 0.118084
Si Si5 0.758134 0.617787 0.216559
Si Si6 0.435368 0.508218 0.431296
Si Si7 0.182640 0.618549 0.014859
Si Si8 0.128599 0.050235 0.590097
O O1 0.109781 0.652091 0.165956
O O2 0.299625 0.847536 0.116762
O O3 0.667024 0.250000 0.369183
O O4 0.620488 0.439155 0.325104
O O5 0.530974 0.421936 0.403894
O O6 0.800412 0.438807 0.390541
O O7 0.589965 0.441934 0.711867
O O8 0.330862 0.427045 0.742700
O O9 0.667925 0.750000 0.108373
O O10 0.675402 0.605625 0.170629
O O11 0.822199 0.569845 0.099216
O O12 0.539675 0.558200 0.096952
O O13 0.783690 0.750000 0.223790
O O14 0.354360 0.445089 0.470389
O O15 0.547473 0.595014 0.452824
O O16 0.199383 0.750000 0.008577
O O17 0.317817 0.567955 0.040460
#
# Coordination Sequence:
#
# PCOD9462150 Si02
#       8
#     4   8   8   8   8   8   8   8
#     4  10  18  34  58  88 122 158 190 236 308 370
#     4  10  22  42  61  79 116 164 210 243 286 356
#     4  11  22  35  60  86 121 154 195 246 303 358
#     4  11  22  36  58  91 127 153 189 249 314 369
#     4  11  22  34  57  92 121 148 188 247 306 361
#     4  10  21  36  60  87 116 157 203 253 302 360
#     4  10  19  35  59  86 115 154 206 253 301 360
#     4  10  21  35  61  87 120 159 198 241 310 364
#
# _framework density 17.479808999999999
#
# number of rings (size 3 to 8) (size 9 to 14) (size 15 to 20)
#    0.000    1.600    4.000    0.800    3.733    0.533 
#    0.000    2.667    0.000    0.000    0.000    0.000 
#    0.000    0.000    0.000    0.000    0.000    0.000 
#
# Total GULP energy -334016.756362 kJ/mol
# GULP energy per Si atom -5566.945939 kJ/mol
# Density = 1.744002 g / cm^3
# Si number density = 17.479809 Si / 1000 Ang^3
#
#
#
# Elastic Constant Matrix: (Units=GPa)
#
#
# Indices 1 2 3 4 5 6 
#
# 1 41.7892 17.3680 14.2247 0.0000 0.0000 0.0000
# 2 17.3680 99.9735 21.8821 0.0000 0.0000 0.0000
# 3 14.2247 21.8821 55.5392 0.0000 0.0000 0.0000
# 4 0.0000 0.0000 0.0000 6.3111 0.0000 0.0000
# 5 0.0000 0.0000 0.0000 0.0000 19.0377 0.0000
# 6 0.0000 0.0000 0.0000 0.0000 0.0000 12.3329
#
#
#
# Elastic Compliance Matrix: (Units=1/GPa)
#
#
# Indices 1 2 3 4 5 6 
#
# 1 0.027299 -0.003515 -0.005607 0.000000 0.000000 0.000000
# 2 -0.003515 0.011399 -0.003591 0.000000 0.000000 0.000000
# 3 -0.005607 -0.003591 0.020856 0.000000 0.000000 0.000000
# 4 0.000000 0.000000 0.000000 0.158451 0.000000 0.000000
# 5 0.000000 0.000000 0.000000 0.000000 0.052527 0.000000
# 6 0.000000 0.000000 0.000000 0.000000 0.000000 0.081084
#
#
# Mechanical properties :
#
#
# Convention : Reuss Voigt Hill
#
# Bulk Modulus (GPa) = 29.30112 33.80574 31.55343
# Shear Modulus (GPa) = 12.87267 17.12479 14.99873
#
# Velocity S-wave (km/s) = 2.71667 3.13340 2.93244
# Velocity P-wave (km/s) = 5.16136 5.69849 5.43656
#
# Compressibility (1/GPa) = 0.03412839
#
# Stress axis : x y z
#
# Youngs Moduli (GPa) = 36.63113 87.72437 47.94755
#
# Poissons Ratio (x) = 0.30838 0.26883
# Poissons Ratio (y) = 0.12877 0.17218
# Poissons Ratio (z) = 0.20539 0.31501
#
# Static dielectric constant tensor:
#      x y z
#    x 1.593580 0.000000 0.000000 
#    y 0.000000 1.557150 0.000000 
#    z 0.000000 0.000000 1.619650 
# 
# From -- ./inp_files/32192.got.cif
#   From: 2010.05.17/outbox.cif.g08.bks.cpg/sg62_17_cif.got.tgz:32192.got - 2010.06.03 15:25:27.
