data_PCOD9462374
_publ_section_title
;
Structure prediction by ZEFSAII (Michael W. Deem and Ramdas Pophale) SiO2 
 PCOD9462374
Probable space group: P N M A
;
_chemical_formula_sum "Si O2"
_cell_formula_units_Z 48
_cell_length_a 24.295759
_cell_length_b 8.854939
_cell_length_c 14.083785
_cell_angle_alpha 90.000000
_cell_angle_beta 90.000000
_cell_angle_gamma 90.000000
_cell_volume 3029.949787
_symmetry_space_group_name_H-M "P N M A"
_symmetry_group_IT_number 62
_symmetry_cell_setting 'orthorhombic'
loop_
_space_group_symop_operation_xyz
x,y,z
1/2-x,-y,1/2+z
1/2+x,1/2-y,1/2-z
-x,1/2+y,-z
-x,-y,-z
1/2+x,y,1/2-z
1/2-x,1/2+y,1/2+z
x,1/2-y,z
loop_
_atom_site_type_symbol
_atom_site_label
_atom_site_fract_x
_atom_site_fract_y
_atom_site_fract_z
Si Si1 0.831621 0.568430 0.718455
Si Si2 0.562604 0.431605 0.101284
Si Si3 0.662366 0.430120 0.786539
Si Si4 0.774398 0.068765 0.897239
Si Si5 0.730803 0.431441 0.603353
Si Si6 0.063243 0.569740 0.604515
O O1 0.827153 0.750000 0.723703
O O2 0.891758 0.527656 0.678802
O O3 0.816523 0.496313 0.819517
O O4 0.786436 0.505415 0.644527
O O5 0.564002 0.250000 0.090300
O O6 0.499970 0.475572 0.126357
O O7 0.576441 0.503481 0.999507
O O8 0.654441 0.250000 0.791743
O O9 0.713409 0.468238 0.856396
O O10 0.683656 0.467638 0.680963
O O11 0.607444 0.510224 0.820860
O O12 0.778793 0.250000 0.901701
O O13 0.781501 0.995797 0.999927
O O14 0.737140 0.250000 0.601199
O O15 0.065576 0.750000 0.600299
#
# Coordination Sequence:
#
# PCOD9462374 Si02
#       6
#     8   8   8   8   8   8
#     4  10  19  32  50  70  96 128 158 192 236 281
#     4   9  19  33  47  68  98 127 154 190 236 278
#     4   9  19  33  47  67  97 127 152 188 236 279
#     4  10  20  33  49  71  98 125 157 196 237 281
#     4  10  20  33  49  71  98 126 158 194 235 282
#     4  10  19  30  48  72  95 123 159 194 228 275
#
# _framework density 15.841847
#
# number of rings (size 3 to 8) (size 9 to 14) (size 15 to 20)
#    0.000    2.333    0.000    4.000    0.000   10.000 
#    0.000    0.000    0.000    1.000    0.000    0.000 
#    0.000    0.000    0.000    0.000    0.000    0.000 
#
# Total GULP energy -267787.548607 kJ/mol
# GULP energy per Si atom -5578.907263 kJ/mol
# Density = 1.580579 g / cm^3
# Si number density = 15.841847 Si / 1000 Ang^3
#
#
#
# Elastic Constant Matrix: (Units=GPa)
#
#
# Indices 1 2 3 4 5 6 
#
# 1 94.3278 39.7068 74.9899 0.0000 0.0000 0.0000
# 2 39.7068 41.4453 46.5095 0.0000 0.0000 0.0000
# 3 74.9899 46.5095 137.4437 0.0000 0.0000 0.0000
# 4 0.0000 0.0000 0.0000 30.5544 0.0000 0.0000
# 5 0.0000 0.0000 0.0000 0.0000 20.8733 0.0000
# 6 0.0000 0.0000 0.0000 0.0000 0.0000 25.9595
#
#
#
# Elastic Compliance Matrix: (Units=1/GPa)
#
#
# Indices 1 2 3 4 5 6 
#
# 1 0.022015 -0.012273 -0.007858 0.000000 0.000000 0.000000
# 2 -0.012273 0.045742 -0.008782 0.000000 0.000000 0.000000
# 3 -0.007858 -0.008782 0.014535 0.000000 0.000000 0.000000
# 4 0.000000 0.000000 0.000000 0.032729 0.000000 0.000000
# 5 0.000000 0.000000 0.000000 0.000000 0.047908 0.000000
# 6 0.000000 0.000000 0.000000 0.000000 0.000000 0.038521
#
#
# Mechanical properties :
#
#
# Convention : Reuss Voigt Hill
#
# Bulk Modulus (GPa) = 40.87557 66.18101 53.52829
# Shear Modulus (GPa) = 18.69634 22.94482 20.82058
#
# Velocity S-wave (km/s) = 3.43911 3.80987 3.62923
# Velocity P-wave (km/s) = 6.45200 7.82434 7.17107
#
# Compressibility (1/GPa) = 0.02446449
#
# Stress axis : x y z
#
# Youngs Moduli (GPa) = 45.42382 21.86190 68.79851
#
# Poissons Ratio (x) = 0.26831 0.54065
# Poissons Ratio (y) = 0.55748 0.60422
# Poissons Ratio (z) = 0.35696 0.19200
#
# Static dielectric constant tensor:
#      x y z
#    x 1.526260 0.000000 0.000000 
#    y 0.000000 1.529040 0.000000 
#    z 0.000000 0.000000 1.506540 
# 
# From -- ./inp_files/15115.got.cif
#   From: 2010.05.17/outbox.cif.g08.bks.cpg/sg62_8_cif.got.tgz:15115.got - 2010.06.03 15:25:27.
