data_PCOD9462341
_publ_section_title
;
Structure prediction by ZEFSAII (Michael W. Deem and Ramdas Pophale) SiO2 
 PCOD9462341
Probable space group: P N M A
;
_chemical_formula_sum "Si O2"
_cell_formula_units_Z 48
_cell_length_a 14.992889
_cell_length_b 12.869806
_cell_length_c 11.208459
_cell_angle_alpha 90.000000
_cell_angle_beta 90.000000
_cell_angle_gamma 90.000000
_cell_volume 2162.734627
_symmetry_space_group_name_H-M "P N M A"
_symmetry_group_IT_number 62
_symmetry_cell_setting 'orthorhombic'
loop_
_space_group_symop_operation_xyz
x,y,z
1/2-x,-y,1/2+z
1/2+x,1/2-y,1/2-z
-x,1/2+y,-z
-x,-y,-z
1/2+x,y,1/2-z
1/2-x,1/2+y,1/2+z
x,1/2-y,z
loop_
_atom_site_type_symbol
_atom_site_label
_atom_site_fract_x
_atom_site_fract_y
_atom_site_fract_z
Si Si1 0.660279 0.130491 0.952822
Si Si2 0.825865 0.920888 0.188058
Si Si3 0.324367 0.971480 0.562557
Si Si4 0.825249 0.132487 0.301414
Si Si5 0.621567 0.872177 0.252881
Si Si6 0.029881 0.873957 0.492353
O O1 0.681521 0.250000 0.986072
O O2 0.637849 0.129329 0.810006
O O3 0.743719 0.053544 0.970640
O O4 0.570852 0.088880 0.016356
O O5 0.721827 0.889042 0.200222
O O6 0.839718 0.043831 0.205590
O O7 0.856839 0.907840 0.052642
O O8 0.388779 0.045541 0.639615
O O9 0.273392 0.890059 0.647642
O O10 0.835397 0.250000 0.261087
O O11 0.895330 0.110070 0.407812
O O12 0.613459 0.750000 0.287335
O O13 0.559325 0.896840 0.141921
O O14 0.018428 0.750000 0.492090
#
# Coordination Sequence:
#
# PCOD9462341 Si02
#       6
#     8   8   8   8   8   8
#     4   9  19  33  52  76  99 124 162 204 243 280
#     4  10  19  30  45  74  99 129 160 193 245 289
#     4  10  19  30  47  74  98 128 162 194 245 289
#     4   9  18  30  47  69  96 128 161 198 239 284
#     4   9  17  31  50  69  97 129 163 202 239 287
#     4   9  16  31  53  75  93 125 165 202 243 280
#
# _framework density 22.194123999999999
#
# number of rings (size 3 to 8) (size 9 to 14) (size 15 to 20)
#    0.000    3.000    1.667    2.000    0.000    4.667 
#    0.000    0.833    0.000    0.000    0.000    0.000 
#    0.000    0.000    0.000    0.000    0.000    0.000 
#
# Total GULP energy -267493.294741 kJ/mol
# GULP energy per Si atom -5572.776974 kJ/mol
# Density = 2.214361 g / cm^3
# Si number density = 22.194124 Si / 1000 Ang^3
#
#
#
# Elastic Constant Matrix: (Units=GPa)
#
#
# Indices 1 2 3 4 5 6 
#
# 1 36.9865 18.7380 -14.3589 0.0000 0.0000 0.0000
# 2 18.7380 38.1566 24.6724 0.0000 0.0000 0.0000
# 3 -14.3589 24.6724 7.6376 0.0000 0.0000 0.0000
# 4 0.0000 0.0000 0.0000 24.3699 0.0000 0.0000
# 5 0.0000 0.0000 0.0000 0.0000 6.1991 0.0000
# 6 0.0000 0.0000 0.0000 0.0000 0.0000 8.0921
#
#
#
# Elastic Compliance Matrix: (Units=1/GPa)
#
#
# Indices 1 2 3 4 5 6 
#
# 1 0.008923 0.013987 -0.028407 0.000000 0.000000 0.000000
# 2 0.013987 -0.002146 0.033227 0.000000 0.000000 0.000000
# 3 -0.028407 0.033227 -0.029813 0.000000 0.000000 0.000000
# 4 0.000000 0.000000 0.000000 0.041034 0.000000 0.000000
# 5 0.000000 0.000000 0.000000 0.000000 0.161315 0.000000
# 6 0.000000 0.000000 0.000000 0.000000 0.000000 0.123577
#
#
# Mechanical properties :
#
#
# Convention : Reuss Voigt Hill
#
# Bulk Modulus (GPa) = 68.59832 15.65373 42.12602
# Shear Modulus (GPa) = 18.50924 11.31417 14.91171
#
# Velocity S-wave (km/s) = 2.89099 2.26029 2.59487
# Velocity P-wave (km/s) = 6.48993 3.72562 5.29148
#
# Compressibility (1/GPa) = 0.01457762
#
# Stress axis : x y z
#
# Youngs Moduli (GPa) = 112.07337 -466.00488 -33.54288
#
# Poissons Ratio (x) = 6.51786 -0.95287
# Poissons Ratio (y) = -1.56753 1.11454
# Poissons Ratio (z) = 3.18371 15.48412
#
# Static dielectric constant tensor:
#      x y z
#    x 1.906130 0.000000 0.000000 
#    y 0.000000 1.870260 0.000000 
#    z 0.000000 0.000000 1.819720 
# 
# From -- ./inp_files/14204.got.cif
#   From: 2010.05.17/outbox.cif.g08.bks.cpg/sg62_8_cif.got.tgz:14204.got - 2010.06.03 15:25:27.
