data_PCOD9462187
_publ_section_title
;
Structure prediction by ZEFSAII (Michael W. Deem and Ramdas Pophale) SiO2 
 PCOD9462187
Probable space group: P N M A
;
_chemical_formula_sum "Si O2"
_cell_formula_units_Z 32
_cell_length_a 13.653114
_cell_length_b 17.742686
_cell_length_c 7.165812
_cell_angle_alpha 90.000000
_cell_angle_beta 90.000000
_cell_angle_gamma 90.000000
_cell_volume 1735.867185
_symmetry_space_group_name_H-M "P N M A"
_symmetry_group_IT_number 62
_symmetry_cell_setting 'orthorhombic'
loop_
_space_group_symop_operation_xyz
x,y,z
1/2-x,-y,1/2+z
1/2+x,1/2-y,1/2-z
-x,1/2+y,-z
-x,-y,-z
1/2+x,y,1/2-z
1/2-x,1/2+y,1/2+z
x,1/2-y,z
loop_
_atom_site_type_symbol
_atom_site_label
_atom_site_fract_x
_atom_site_fract_y
_atom_site_fract_z
Si Si1 0.209645 0.837381 0.526647
Si Si2 0.147258 0.080163 0.775164
Si Si3 0.775409 0.560990 0.645025
Si Si4 0.942549 0.453049 0.656794
O O1 0.184873 0.750000 0.533961
O O2 0.301895 0.854347 0.392502
O O3 0.239968 0.870906 0.727276
O O4 0.122390 0.888203 0.440012
O O5 0.188122 0.083197 0.561380
O O6 0.029791 0.079806 0.780890
O O7 0.189083 0.000952 0.853639
O O8 0.865975 0.514044 0.735889
O O9 0.000000 0.500000 0.500000
#
# Coordination Sequence:
#
# PCOD9462187 Si02
#       4
#     8   8   8   8
#     4  11  23  37  54  86 121 144 185 243 284 324
#     4  10  19  37  61  84 107 147 194 229 277 346
#     4  10  18  35  61  84 104 149 189 230 278 337
#     4   9  18  36  62  82 107 151 194 227 275 342
#
# _framework density 18.43459
#
# number of rings (size 3 to 8) (size 9 to 14) (size 15 to 20)
#    0.000    2.000    7.500    0.000    0.000    3.000 
#    0.000    3.750    0.000    0.000    0.000    0.000 
#    0.000    0.000    0.000    0.000    0.000    0.000 
#
# Total GULP energy -178327.075866 kJ/mol
# GULP energy per Si atom -5572.721121 kJ/mol
# Density = 1.839263 g / cm^3
# Si number density = 18.434590 Si / 1000 Ang^3
#
#
#
# Elastic Constant Matrix: (Units=GPa)
#
#
# Indices 1 2 3 4 5 6 
#
# 1 45.4861 19.1808 -11.3526 0.0000 0.0000 0.0000
# 2 19.1808 101.1168 0.0878 0.0000 0.0000 0.0000
# 3 -11.3526 0.0878 52.3111 0.0000 0.0000 0.0000
# 4 0.0000 0.0000 0.0000 23.9127 0.0000 0.0000
# 5 0.0000 0.0000 0.0000 0.0000 27.4675 0.0000
# 6 0.0000 0.0000 0.0000 0.0000 0.0000 11.3284
#
#
#
# Elastic Compliance Matrix: (Units=1/GPa)
#
#
# Indices 1 2 3 4 5 6 
#
# 1 0.025396 -0.004822 0.005519 0.000000 0.000000 0.000000
# 2 -0.004822 0.010805 -0.001065 0.000000 0.000000 0.000000
# 3 0.005519 -0.001065 0.020316 0.000000 0.000000 0.000000
# 4 0.000000 0.000000 0.000000 0.041819 0.000000 0.000000
# 5 0.000000 0.000000 0.000000 0.000000 0.036407 0.000000
# 6 0.000000 0.000000 0.000000 0.000000 0.000000 0.088274
#
#
# Mechanical properties :
#
#
# Convention : Reuss Voigt Hill
#
# Bulk Modulus (GPa) = 17.92678 23.86065 20.89372
# Shear Modulus (GPa) = 20.63178 25.27491 22.95335
#
# Velocity S-wave (km/s) = 3.34906 3.70680 3.53246
# Velocity P-wave (km/s) = 4.96997 5.59392 5.29115
#
# Compressibility (1/GPa) = 0.05578246
#
# Stress axis : x y z
#
# Youngs Moduli (GPa) = 39.37670 92.54821 49.22227
#
# Poissons Ratio (x) = 0.44628 -0.27168
# Poissons Ratio (y) = 0.18988 0.05240
# Poissons Ratio (z) = -0.21734 0.09853
#
# Static dielectric constant tensor:
#      x y z
#    x 1.694490 0.000000 0.000000 
#    y 0.000000 1.603090 0.000000 
#    z 0.000000 0.000000 1.689670 
# 
# From -- ./inp_files/4808.got.cif
#   From: 2010.05.17/outbox.cif.g08.bks.cpg/sg62_3_cif.got.tgz:4808.got - 2010.06.03 15:25:27.
