data_PCOD9462460
_publ_section_title
;
Structure prediction by ZEFSAII (Michael W. Deem and Ramdas Pophale) SiO2 
 PCOD9462460
Probable space group: P N M A
;
_chemical_formula_sum "Si O2"
_cell_formula_units_Z 64
_cell_length_a 27.423706
_cell_length_b 9.146665
_cell_length_c 15.093038
_cell_angle_alpha 90.000000
_cell_angle_beta 90.000000
_cell_angle_gamma 90.000000
_cell_volume 3785.869006
_symmetry_space_group_name_H-M "P N M A"
_symmetry_group_IT_number 62
_symmetry_cell_setting 'orthorhombic'
loop_
_space_group_symop_operation_xyz
x,y,z
1/2-x,-y,1/2+z
1/2+x,1/2-y,1/2-z
-x,1/2+y,-z
-x,-y,-z
1/2+x,y,1/2-z
1/2-x,1/2+y,1/2+z
x,1/2-y,z
loop_
_atom_site_type_symbol
_atom_site_label
_atom_site_fract_x
_atom_site_fract_y
_atom_site_fract_z
Si Si1 0.441312 0.423758 0.915588
Si Si2 0.142391 0.575392 0.276418
Si Si3 0.669362 0.423505 0.399500
Si Si4 0.167414 0.923354 0.916400
Si Si5 0.783370 0.577663 0.594508
Si Si6 0.444500 0.923776 0.099452
Si Si7 0.215641 0.576515 0.589467
Si Si8 0.130609 0.925518 0.726416
O O1 0.437199 0.250000 0.933966
O O2 0.405187 0.458875 0.835448
O O3 0.497673 0.455292 0.892766
O O4 0.428389 0.509656 0.005016
O O5 0.146886 0.750000 0.269289
O O6 0.141999 0.503237 0.180132
O O7 0.187651 0.508928 0.330781
O O8 0.661905 0.250000 0.396061
O O9 0.655629 0.487413 0.495327
O O10 0.727689 0.451338 0.388234
O O11 0.159841 0.750000 0.932065
O O12 0.225143 0.942248 0.896999
O O13 0.138513 0.968123 0.828381
O O14 0.794041 0.750000 0.600740
O O15 0.797168 0.514518 0.498128
O O16 0.437739 0.750000 0.099338
O O17 0.413638 0.996575 0.177197
O O18 0.210983 0.750000 0.569514
O O19 0.179516 0.541831 0.669806
O O20 0.124127 0.750000 0.723512
#
# Coordination Sequence:
#
# PCOD9462460 Si02
#       8
#     8   8   8   8   8   8   8   8
#     4   9  20  37  53  72 101 133 160 192 243 301
#     4  11  21  33  51  72  97 132 168 200 243 298
#     4  10  20  34  51  72  99 130 167 210 246 280
#     4   9  19  35  51  69  99 137 169 199 242 293
#     4  10  19  31  48  73 103 132 166 205 239 279
#     4  10  20  34  53  77 102 126 158 202 245 287
#     4   9  18  32  48  70 103 137 163 193 240 292
#     4  10  19  32  51  72  98 133 167 197 238 295
#
# _framework density 16.904969999999999
#
# number of rings (size 3 to 8) (size 9 to 14) (size 15 to 20)
#    0.000    2.250    0.000    3.000    0.000    8.500 
#    0.000    1.250    0.000    0.750    0.000    0.000 
#    0.000    0.000    0.000    0.000    0.000    0.000 
#
# Total GULP energy -357315.736088 kJ/mol
# GULP energy per Si atom -5583.058376 kJ/mol
# Density = 1.686649 g / cm^3
# Si number density = 16.904970 Si / 1000 Ang^3
#
#
#
# Elastic Constant Matrix: (Units=GPa)
#
#
# Indices 1 2 3 4 5 6 
#
# 1 52.4570 44.9674 66.5646 0.0000 0.0000 0.0000
# 2 44.9674 57.3777 76.0806 0.0000 0.0000 0.0000
# 3 66.5646 76.0806 163.5429 0.0000 0.0000 0.0000
# 4 0.0000 0.0000 0.0000 29.6954 0.0000 0.0000
# 5 0.0000 0.0000 0.0000 0.0000 23.7939 0.0000
# 6 0.0000 0.0000 0.0000 0.0000 0.0000 22.0870
#
#
#
# Elastic Compliance Matrix: (Units=1/GPa)
#
#
# Indices 1 2 3 4 5 6 
#
# 1 0.060801 -0.038722 -0.006733 0.000000 0.000000 0.000000
# 2 -0.038722 0.070147 -0.016872 0.000000 0.000000 0.000000
# 3 -0.006733 -0.016872 0.016704 0.000000 0.000000 0.000000
# 4 0.000000 0.000000 0.000000 0.033675 0.000000 0.000000
# 5 0.000000 0.000000 0.000000 0.000000 0.042028 0.000000
# 6 0.000000 0.000000 0.000000 0.000000 0.000000 0.045275
#
#
# Mechanical properties :
#
#
# Convention : Reuss Voigt Hill
#
# Bulk Modulus (GPa) = 43.48392 72.06699 57.77546
# Shear Modulus (GPa) = 12.47037 20.83292 16.65164
#
# Velocity S-wave (km/s) = 2.71896 3.51430 3.14190
# Velocity P-wave (km/s) = 5.96954 7.69352 6.88570
#
# Compressibility (1/GPa) = 0.02299701
#
# Stress axis : x y z
#
# Youngs Moduli (GPa) = 16.44708 14.25585 59.86565
#
# Poissons Ratio (x) = 0.55202 0.40310
# Poissons Ratio (y) = 0.63687 1.01005
# Poissons Ratio (z) = 0.11075 0.24052
#
# Static dielectric constant tensor:
#      x y z
#    x 1.565320 0.000000 0.000000 
#    y 0.000000 1.559300 0.000000 
#    z 0.000000 0.000000 1.554230 
# 
# From -- ./inp_files/20820.got.cif
#   From: 2010.05.17/outbox.cif.g08.bks.cpg/sg62_11_cif.got.tgz:20820.got - 2010.06.03 15:25:27.
