data_PCOD9462664
_publ_section_title
;
Structure prediction by ZEFSAII (Michael W. Deem and Ramdas Pophale) SiO2 
 PCOD9462664
Probable space group: P N M A
;
_chemical_formula_sum "Si O2"
_cell_formula_units_Z 64
_cell_length_a 11.873001
_cell_length_b 7.475829
_cell_length_c 30.261019
_cell_angle_alpha 90.000000
_cell_angle_beta 90.000000
_cell_angle_gamma 90.000000
_cell_volume 2685.983939
_symmetry_space_group_name_H-M "P N M A"
_symmetry_group_IT_number 62
_symmetry_cell_setting 'orthorhombic'
loop_
_space_group_symop_operation_xyz
x,y,z
1/2-x,-y,1/2+z
1/2+x,1/2-y,1/2-z
-x,1/2+y,-z
-x,-y,-z
1/2+x,y,1/2-z
1/2-x,1/2+y,1/2+z
x,1/2-y,z
loop_
_atom_site_type_symbol
_atom_site_label
_atom_site_fract_x
_atom_site_fract_y
_atom_site_fract_z
Si Si1 0.572061 0.033043 0.562062
Si Si2 0.182099 0.034715 0.162681
Si Si3 0.983280 0.037954 0.223607
Si Si4 0.675400 0.537794 0.440616
Si Si5 0.808191 0.544956 0.517036
Si Si6 0.184156 0.462711 0.848857
Si Si7 0.069140 0.530730 0.681032
Si Si8 0.416248 0.957560 0.895764
O O1 0.575304 0.250000 0.558723
O O2 0.449503 0.967197 0.547093
O O3 0.592788 0.984819 0.613553
O O4 0.681516 0.958707 0.537581
O O5 0.176446 0.250000 0.163660
O O6 0.078530 0.962505 0.191196
O O7 0.300970 0.979716 0.182804
O O8 0.183833 0.984394 0.111477
O O9 0.001796 0.250000 0.227026
O O10 0.987021 0.968554 0.273444
O O11 0.864038 0.014514 0.198641
O O12 0.673576 0.750000 0.449455
O O13 0.780282 0.463709 0.469058
O O14 0.846123 0.750000 0.511238
O O15 0.885447 0.463631 0.555926
O O16 0.195501 0.250000 0.850303
O O17 0.302539 0.537617 0.865976
O O18 0.062943 0.750000 0.679949
O O19 0.011531 0.464730 0.635956
O O20 0.443905 0.750000 0.903672
#
# Coordination Sequence:
#
# PCOD9462664 Si02
#       8
#     8   8   8   8   8   8   8   8
#     4   9  17  29  46  70 106 142 169 211 268 314
#     4  10  21  36  55  81 107 137 181 224 266 322
#     4  10  20  34  56  80 102 133 176 221 268 323
#     4  10  19  33  50  73 109 147 178 217 270 320
#     4   9  18  30  50  78 105 139 184 221 262 320
#     4  10  19  32  51  78 110 141 170 210 264 321
#     4   9  20  37  58  80 105 137 178 229 274 312
#     4   9  18  35  57  79 107 142 180 225 268 312
#
# _framework density 23.827394999999999
#
# number of rings (size 3 to 8) (size 9 to 14) (size 15 to 20)
#    0.000    2.500    1.250    0.750    1.750    1.500 
#    0.000    2.500    0.000    0.000    0.000    0.000 
#    0.000    0.000    0.000    0.000    0.000    0.000 
#
# Total GULP energy -357317.595558 kJ/mol
# GULP energy per Si atom -5583.087431 kJ/mol
# Density = 2.377316 g / cm^3
# Si number density = 23.827395 Si / 1000 Ang^3
#
#
#
# Elastic Constant Matrix: (Units=GPa)
#
#
# Indices 1 2 3 4 5 6 
#
# 1 22.1852 -8.0064 -1.6156 0.0000 0.0000 0.0000
# 2 -8.0064 72.3214 -3.1801 0.0000 0.0000 0.0000
# 3 -1.6156 -3.1801 86.9915 0.0000 0.0000 0.0000
# 4 0.0000 0.0000 0.0000 0.2591 0.0000 0.0000
# 5 0.0000 0.0000 0.0000 0.0000 21.6055 0.0000
# 6 0.0000 0.0000 0.0000 0.0000 0.0000 -5.1057
#
#
#
# Elastic Compliance Matrix: (Units=1/GPa)
#
#
# Indices 1 2 3 4 5 6 
#
# 1 0.047049 0.005256 0.001066 0.000000 0.000000 0.000000
# 2 0.005256 0.014436 0.000625 0.000000 0.000000 0.000000
# 3 0.001066 0.000625 0.011538 0.000000 0.000000 0.000000
# 4 0.000000 0.000000 0.000000 3.859983 0.000000 0.000000
# 5 0.000000 0.000000 0.000000 0.000000 0.046285 0.000000
# 6 0.000000 0.000000 0.000000 0.000000 0.000000 -0.195861
#
#
# Mechanical properties :
#
#
# Convention : Reuss Voigt Hill
#
# Bulk Modulus (GPa) = 11.50518 17.32156 14.41337
# Shear Modulus (GPa) = 1.31631 16.30512 8.81071
#
# Velocity S-wave (km/s) = 0.74407 2.61875 1.92503
# Velocity P-wave (km/s) = 2.36161 4.05330 3.31711
#
# Compressibility (1/GPa) = 0.08691736
#
# Stress axis : x y z
#
# Youngs Moduli (GPa) = 21.25428 69.26893 86.66992
#
# Poissons Ratio (x) = -0.36404 -0.09238
# Poissons Ratio (y) = -0.11170 -0.05420
# Poissons Ratio (z) = -0.02265 -0.04332
#
# Static dielectric constant tensor:
#      x y z
#    x 1.897570 0.000000 0.000000 
#    y 0.000000 1.772140 0.000000 
#    z 0.000000 0.000000 1.955770 
# 
# From -- ./inp_files/32504.got.cif
#   From: 2010.05.17/outbox.cif.g08.bks.cpg/sg62_17_cif.got.tgz:32504.got - 2010.06.03 15:25:27.
