data_PCOD9462879
_publ_section_title
;
Structure prediction by ZEFSAII (Michael W. Deem and Ramdas Pophale) SiO2 
 PCOD9462879
Probable space group: P N M A
;
_chemical_formula_sum "Si O2"
_cell_formula_units_Z 40
_cell_length_a 15.086135
_cell_length_b 7.476479
_cell_length_c 15.023145
_cell_angle_alpha 90.000000
_cell_angle_beta 90.000000
_cell_angle_gamma 90.000000
_cell_volume 1694.478124
_symmetry_space_group_name_H-M "P N M A"
_symmetry_group_IT_number 62
_symmetry_cell_setting 'orthorhombic'
loop_
_space_group_symop_operation_xyz
x,y,z
1/2-x,-y,1/2+z
1/2+x,1/2-y,1/2-z
-x,1/2+y,-z
-x,-y,-z
1/2+x,y,1/2-z
1/2-x,1/2+y,1/2+z
x,1/2-y,z
loop_
_atom_site_type_symbol
_atom_site_label
_atom_site_fract_x
_atom_site_fract_y
_atom_site_fract_z
Si Si1 0.300937 0.468800 0.757117
Si Si2 0.221595 0.964667 0.052330
Si Si3 0.586342 0.463225 0.942620
Si Si4 0.365073 0.538029 0.374400
Si Si5 0.500491 0.531693 0.235971
O O1 0.298869 0.250000 0.758994
O O2 0.290500 0.523670 0.653977
O O3 0.221312 0.531977 0.820462
O O4 0.399708 0.527878 0.783654
O O5 0.221451 0.750000 0.054996
O O6 0.319373 0.031347 0.022588
O O7 0.149416 0.011574 0.978708
O O8 0.595038 0.250000 0.937772
O O9 0.564950 0.525452 0.842916
O O10 0.500000 0.500000 0.000000
O O11 0.365175 0.750000 0.359351
O O12 0.455443 0.472595 0.328216
O O13 0.504571 0.750000 0.235510
#
# Coordination Sequence:
#
# PCOD9462879 Si02
#       5
#     8   8   8   8   8
#     4   9  17  32  53  75 103 138 174 212 258 308
#     4  10  20  34  52  76 108 140 168 213 271 312
#     4  10  19  33  53  79 106 133 174 221 263 307
#     4  10  19  34  55  78 102 136 181 218 252 309
#     4   9  17  31  53  76 100 136 179 215 248 305
#
# _framework density 23.606086999999999
#
# number of rings (size 3 to 8) (size 9 to 14) (size 15 to 20)
#    0.000    2.400    2.000    1.200    0.000    3.200 
#    0.000    2.000    0.000    2.400    0.000    0.000 
#    0.000    0.000    0.000    0.000    0.000    0.000 
#
# Total GULP energy -223397.759749 kJ/mol
# GULP energy per Si atom -5584.943994 kJ/mol
# Density = 2.355236 g / cm^3
# Si number density = 23.606087 Si / 1000 Ang^3
#
#
#
# Elastic Constant Matrix: (Units=GPa)
#
#
# Indices 1 2 3 4 5 6 
#
# 1 27.5423 4.3196 -30.6704 0.0000 0.0000 0.0000
# 2 4.3196 61.3062 -7.1613 0.0000 0.0000 0.0000
# 3 -30.6704 -7.1613 46.1728 0.0000 0.0000 0.0000
# 4 0.0000 0.0000 0.0000 14.5888 0.0000 0.0000
# 5 0.0000 0.0000 0.0000 0.0000 39.3787 0.0000
# 6 0.0000 0.0000 0.0000 0.0000 0.0000 3.1133
#
#
#
# Elastic Compliance Matrix: (Units=1/GPa)
#
#
# Indices 1 2 3 4 5 6 
#
# 1 0.139544 0.001014 0.092850 0.000000 0.000000 0.000000
# 2 0.001014 0.016620 0.003251 0.000000 0.000000 0.000000
# 3 0.092850 0.003251 0.083838 0.000000 0.000000 0.000000
# 4 0.000000 0.000000 0.000000 0.068546 0.000000 0.000000
# 5 0.000000 0.000000 0.000000 0.000000 0.025394 0.000000
# 6 0.000000 0.000000 0.000000 0.000000 0.000000 0.321202
#
#
# Mechanical properties :
#
#
# Convention : Reuss Voigt Hill
#
# Bulk Modulus (GPa) = 2.30292 7.55523 4.92908
# Shear Modulus (GPa) = 8.25548 22.65171 15.45360
#
# Velocity S-wave (km/s) = 1.87210 3.10105 2.56138
# Velocity P-wave (km/s) = 2.37712 4.00369 3.29244
#
# Compressibility (1/GPa) = 0.43423087
#
# Stress axis : x y z
#
# Youngs Moduli (GPa) = 7.16620 60.16881 11.92781
#
# Poissons Ratio (x) = -0.06100 -1.10749
# Poissons Ratio (y) = -0.00726 -0.03878
# Poissons Ratio (z) = -0.66538 -0.19561
#
# Static dielectric constant tensor:
#      x y z
#    x 1.804560 0.000000 0.000000 
#    y 0.000000 1.933730 0.000000 
#    z 0.000000 0.000000 1.867240 
# 
# From -- ./inp_files/12977.got.cif
#   From: 2010.05.17/outbox.cif.g08.bks.cpg/sg62_7_cif.got.tgz:12977.got - 2010.06.03 15:25:27.
