data_PCOD9462526
_publ_section_title
;
Structure prediction by ZEFSAII (Michael W. Deem and Ramdas Pophale) SiO2 
 PCOD9462526
Probable space group: P N M A
;
_chemical_formula_sum "Si O2"
_cell_formula_units_Z 56
_cell_length_a 21.417929
_cell_length_b 8.876722
_cell_length_c 14.871043
_cell_angle_alpha 90.000000
_cell_angle_beta 90.000000
_cell_angle_gamma 90.000000
_cell_volume 2827.297589
_symmetry_space_group_name_H-M "P N M A"
_symmetry_group_IT_number 62
_symmetry_cell_setting 'orthorhombic'
loop_
_space_group_symop_operation_xyz
x,y,z
1/2-x,-y,1/2+z
1/2+x,1/2-y,1/2-z
-x,1/2+y,-z
-x,-y,-z
1/2+x,y,1/2-z
1/2-x,1/2+y,1/2+z
x,1/2-y,z
loop_
_atom_site_type_symbol
_atom_site_label
_atom_site_fract_x
_atom_site_fract_y
_atom_site_fract_z
Si Si1 0.757576 0.569417 0.298859
Si Si2 0.042536 0.924937 0.074292
Si Si3 0.150101 0.921307 0.942233
Si Si4 0.237110 0.574032 0.507790
Si Si5 0.608488 0.926447 0.752089
Si Si6 0.979340 0.067541 0.723084
Si Si7 0.153292 0.566489 0.348540
O O1 0.759379 0.750000 0.294834
O O2 0.749481 0.516239 0.401572
O O3 0.825242 0.502116 0.273640
O O4 0.701813 0.518513 0.230862
O O5 0.024951 0.750000 0.077638
O O6 0.036596 0.982595 0.174838
O O7 0.111711 0.934557 0.034004
O O8 0.000000 0.000000 0.000000
O O9 0.175751 0.750000 0.935740
O O10 0.105026 0.940009 0.856707
O O11 0.203811 0.044211 0.943198
O O12 0.230272 0.750000 0.528873
O O13 0.179251 0.521829 0.446420
O O14 0.610839 0.750000 0.775085
O O15 0.547678 0.001076 0.796500
O O16 0.982908 0.250000 0.719556
O O17 0.918250 0.019732 0.667210
O O18 0.154343 0.750000 0.346004
#
# Coordination Sequence:
#
# PCOD9462526 Si02
#       7
#     8   8   8   8   8   8   8
#     4  11  22  41  65  89 120 160 201 243 302 362
#     4  10  19  31  50  78 113 150 190 232 289 356
#     4  10  20  35  55  81 118 156 190 236 295 354
#     4  11  22  38  61  90 117 149 200 253 297 347
#     4  11  22  37  58  87 121 154 196 246 292 347
#     4  10  20  36  58  82 114 158 199 239 296 362
#     4   9  20  39  62  86 118 155 197 245 296 357
#
# _framework density 19.806899999999999
#
# number of rings (size 3 to 8) (size 9 to 14) (size 15 to 20)
#    0.000    1.714    2.857    2.143    0.000    3.429 
#    0.000    5.000    0.000    0.000    0.000    0.000 
#    0.000    0.000    0.000    0.000    0.000    0.000 
#
# Total GULP energy -312335.353468 kJ/mol
# GULP energy per Si atom -5577.417026 kJ/mol
# Density = 1.976182 g / cm^3
# Si number density = 19.806900 Si / 1000 Ang^3
#
#
#
# Elastic Constant Matrix: (Units=GPa)
#
#
# Indices 1 2 3 4 5 6 
#
# 1 89.8888 32.2475 7.4318 0.0000 0.0000 0.0000
# 2 32.2475 29.6136 8.2012 0.0000 0.0000 0.0000
# 3 7.4318 8.2012 34.1426 0.0000 0.0000 0.0000
# 4 0.0000 0.0000 0.0000 23.5389 0.0000 0.0000
# 5 0.0000 0.0000 0.0000 0.0000 20.8830 0.0000
# 6 0.0000 0.0000 0.0000 0.0000 0.0000 23.8173
#
#
#
# Elastic Compliance Matrix: (Units=1/GPa)
#
#
# Indices 1 2 3 4 5 6 
#
# 1 0.018281 -0.020145 0.000860 0.000000 0.000000 0.000000
# 2 -0.020145 0.058373 -0.009637 0.000000 0.000000 0.000000
# 3 0.000860 -0.009637 0.031417 0.000000 0.000000 0.000000
# 4 0.000000 0.000000 0.000000 0.042483 0.000000 0.000000
# 5 0.000000 0.000000 0.000000 0.000000 0.047886 0.000000
# 6 0.000000 0.000000 0.000000 0.000000 0.000000 0.041986
#
#
# Mechanical properties :
#
#
# Convention : Reuss Voigt Hill
#
# Bulk Modulus (GPa) = 19.90947 27.71178 23.81063
# Shear Modulus (GPa) = 15.87245 20.69881 18.28563
#
# Velocity S-wave (km/s) = 2.83390 3.23620 3.04171
# Velocity P-wave (km/s) = 4.55868 5.29012 4.93796
#
# Compressibility (1/GPa) = 0.05022736
#
# Stress axis : x y z
#
# Youngs Moduli (GPa) = 54.70268 17.13108 31.83031
#
# Poissons Ratio (x) = 0.34510 -0.02736
# Poissons Ratio (y) = 1.10197 0.30674
# Poissons Ratio (z) = -0.04703 0.16509
#
# Static dielectric constant tensor:
#      x y z
#    x 1.739430 0.000000 0.000000 
#    y 0.000000 1.669180 0.000000 
#    z 0.000000 0.000000 1.745530 
# 
# From -- ./inp_files/20255.got.cif
#   From: 2010.05.17/outbox.cif.g08.bks.cpg/sg62_11_cif.got.tgz:20255.got - 2010.06.03 15:25:27.
