data_PCOD9462024
_publ_section_title
;
Structure prediction by ZEFSAII (Michael W. Deem and Ramdas Pophale) SiO2 
 PCOD9462024
Probable space group: P N M A
;
_chemical_formula_sum "Si O2"
_cell_formula_units_Z 64
_cell_length_a 15.051418
_cell_length_b 13.588662
_cell_length_c 17.951909
_cell_angle_alpha 90.000000
_cell_angle_beta 90.000000
_cell_angle_gamma 90.000000
_cell_volume 3671.679386
_symmetry_space_group_name_H-M "P N M A"
_symmetry_group_IT_number 62
_symmetry_cell_setting 'orthorhombic'
loop_
_space_group_symop_operation_xyz
x,y,z
1/2-x,-y,1/2+z
1/2+x,1/2-y,1/2-z
-x,1/2+y,-z
-x,-y,-z
1/2+x,y,1/2-z
1/2-x,1/2+y,1/2+z
x,1/2-y,z
loop_
_atom_site_type_symbol
_atom_site_label
_atom_site_fract_x
_atom_site_fract_y
_atom_site_fract_z
Si Si1 0.538074 0.532754 0.393366
Si Si2 0.226955 0.552107 0.440050
Si Si3 0.532517 0.632261 0.074636
Si Si4 0.789787 0.364397 0.871419
Si Si5 0.779606 0.635147 0.216731
Si Si6 0.512740 0.134239 0.756388
Si Si7 0.648520 0.364459 0.995507
Si Si8 0.903720 0.631859 0.991198
O O1 0.632042 0.581907 0.414153
O O2 0.523850 0.562920 0.307902
O O3 0.551915 0.420291 0.418941
O O4 0.460706 0.585197 0.440715
O O5 0.130953 0.602956 0.449399
O O6 0.261265 0.574488 0.357100
O O7 0.204549 0.437791 0.453282
O O8 0.302187 0.597100 0.494360
O O9 0.526058 0.750000 0.076801
O O10 0.514234 0.601457 0.160543
O O11 0.452465 0.602105 0.019592
O O12 0.813022 0.250000 0.867454
O O13 0.777203 0.399977 0.787204
O O14 0.697951 0.370950 0.915764
O O15 0.757579 0.750000 0.200531
O O16 0.881283 0.633167 0.243674
O O17 0.484891 0.250000 0.746039
O O18 0.650763 0.250000 0.019077
O O19 0.908896 0.750000 0.991129
#
# Coordination Sequence:
#
# PCOD9462024 Si02
#       8
#     8   8   8   8   8   8   8   8
#     4  11  21  34  52  77 107 146 178 216 278 327
#     4  12  21  35  55  85 113 149 182 223 283 330
#     4  10  20  35  58  85 112 142 181 232 285 328
#     4  10  18  33  55  79 107 140 179 222 274 327
#     4  10  19  32  55  83 113 140 176 235 284 327
#     4  10  18  32  55  83 111 138 175 230 284 332
#     4  10  21  37  55  82 113 144 185 227 270 332
#     4  11  23  36  51  78 112 142 183 226 265 328
#
# _framework density 17.430716
#
# number of rings (size 3 to 8) (size 9 to 14) (size 15 to 20)
#    0.000    1.500    3.750    3.375    0.000    2.000 
#    0.000    0.000    0.000    3.000    0.000    1.750 
#    0.000    0.000    0.000    0.000    0.000    0.000 
#
# Total GULP energy -356814.047416 kJ/mol
# GULP energy per Si atom -5575.219491 kJ/mol
# Density = 1.739104 g / cm^3
# Si number density = 17.430716 Si / 1000 Ang^3
#
#
#
# Elastic Constant Matrix: (Units=GPa)
#
#
# Indices 1 2 3 4 5 6 
#
# 1 104.0103 40.5951 18.7514 0.0000 0.0000 0.0000
# 2 40.5951 87.7570 35.8916 0.0000 0.0000 0.0000
# 3 18.7514 35.8916 48.5807 0.0000 0.0000 0.0000
# 4 0.0000 0.0000 0.0000 16.6779 0.0000 0.0000
# 5 0.0000 0.0000 0.0000 0.0000 24.9004 0.0000
# 6 0.0000 0.0000 0.0000 0.0000 0.0000 24.4572
#
#
#
# Elastic Compliance Matrix: (Units=1/GPa)
#
#
# Indices 1 2 3 4 5 6 
#
# 1 0.011752 -0.005131 -0.000745 0.000000 0.000000 0.000000
# 2 -0.005131 0.018570 -0.011739 0.000000 0.000000 0.000000
# 3 -0.000745 -0.011739 0.029544 0.000000 0.000000 0.000000
# 4 0.000000 0.000000 0.000000 0.059960 0.000000 0.000000
# 5 0.000000 0.000000 0.000000 0.000000 0.040160 0.000000
# 6 0.000000 0.000000 0.000000 0.000000 0.000000 0.040888
#
#
# Mechanical properties :
#
#
# Convention : Reuss Voigt Hill
#
# Bulk Modulus (GPa) = 40.59145 47.86938 44.23041
# Shear Modulus (GPa) = 20.46535 22.88109 21.67322
#
# Velocity S-wave (km/s) = 3.43023 3.62703 3.53000
# Velocity P-wave (km/s) = 6.24712 6.71288 6.48418
#
# Compressibility (1/GPa) = 0.02463573
#
# Stress axis : x y z
#
# Youngs Moduli (GPa) = 85.09545 53.85054 33.84729
#
# Poissons Ratio (x) = 0.27633 0.02521
# Poissons Ratio (y) = 0.43667 0.39733
# Poissons Ratio (z) = 0.06337 0.63214
#
# Static dielectric constant tensor:
#      x y z
#    x 1.647810 0.000000 0.000000 
#    y 0.000000 1.588220 0.000000 
#    z 0.000000 0.000000 1.606700 
# 
# From -- ./inp_files/24105.got.cif
#   From: 2010.05.17/outbox.cif.g08.bks.cpg/sg62_13_cif.got.tgz:24105.got - 2010.06.03 15:25:27.
