data_PCOD9462368
_publ_section_title
;
Structure prediction by ZEFSAII (Michael W. Deem and Ramdas Pophale) SiO2 
 PCOD9462368
Probable space group: P N M A
;
_chemical_formula_sum "Si O2"
_cell_formula_units_Z 64
_cell_length_a 19.082379
_cell_length_b 8.510589
_cell_length_c 21.476201
_cell_angle_alpha 90.000000
_cell_angle_beta 90.000000
_cell_angle_gamma 90.000000
_cell_volume 3487.784111
_symmetry_space_group_name_H-M "P N M A"
_symmetry_group_IT_number 62
_symmetry_cell_setting 'orthorhombic'
loop_
_space_group_symop_operation_xyz
x,y,z
1/2-x,-y,1/2+z
1/2+x,1/2-y,1/2-z
-x,1/2+y,-z
-x,-y,-z
1/2+x,y,1/2-z
1/2-x,1/2+y,1/2+z
x,1/2-y,z
loop_
_atom_site_type_symbol
_atom_site_label
_atom_site_fract_x
_atom_site_fract_y
_atom_site_fract_z
Si Si1 0.424602 0.438868 0.483873
Si Si2 0.909625 0.438368 0.156845
Si Si3 0.617486 0.438143 0.166355
Si Si4 0.221551 0.937671 0.509863
Si Si5 0.169544 0.939652 0.098256
Si Si6 0.071757 0.062226 0.471356
Si Si7 0.059259 0.938610 0.204925
Si Si8 0.732642 0.437455 0.628805
O O1 0.500000 0.500000 0.500000
O O2 0.422086 0.250000 0.483615
O O3 0.410433 0.494616 0.414806
O O4 0.374951 0.494420 0.538466
O O5 0.912164 0.250000 0.160586
O O6 0.830669 0.494510 0.171081
O O7 0.981297 0.502164 0.186700
O O8 0.624857 0.250000 0.170235
O O9 0.577158 0.475839 0.102190
O O10 0.578675 0.501748 0.226859
O O11 0.693939 0.514848 0.159781
O O12 0.226892 0.750000 0.509707
O O13 0.258675 0.995429 0.444222
O O14 0.254983 0.000439 0.574511
O O15 0.140934 0.988913 0.502762
O O16 0.172787 0.750000 0.100988
O O17 0.122239 0.990686 0.157416
O O18 0.075449 0.250000 0.477924
O O19 0.000000 0.000000 0.500000
O O20 0.057861 0.750000 0.202444
O O21 0.725274 0.250000 0.626396
#
# Coordination Sequence:
#
# PCOD9462368 Si02
#       8
#     8   8   8   8   8   8   8   8
#     4  10  19  30  47  74 111 150 188 230 273 320
#     4  11  21  33  53  81 113 150 192 236 280 330
#     4  10  22  41  62  84 112 148 188 232 286 346
#     4  10  20  33  55  86 116 146 183 228 280 336
#     4  10  20  34  51  77 115 154 190 228 275 328
#     4  10  21  39  65  91 115 141 179 236 294 344
#     4  11  23  38  56  80 116 159 197 235 281 340
#     4  10  20  35  57  83 110 142 184 233 282 334
#
# _framework density 18.349758999999999
#
# number of rings (size 3 to 8) (size 9 to 14) (size 15 to 20)
#    0.000    1.750    2.500    2.250    0.000    4.500 
#    0.000    1.250    0.000    6.000    0.000    0.000 
#    0.000    0.000    0.000    0.000    0.000    0.000 
#
# Total GULP energy -356611.131610 kJ/mol
# GULP energy per Si atom -5572.048931 kJ/mol
# Density = 1.830799 g / cm^3
# Si number density = 18.349759 Si / 1000 Ang^3
#
#
#
# Elastic Constant Matrix: (Units=GPa)
#
#
# Indices 1 2 3 4 5 6 
#
# 1 133.6205 30.4424 65.0350 0.0000 0.0000 0.0000
# 2 30.4424 40.6526 30.7721 0.0000 0.0000 0.0000
# 3 65.0350 30.7721 84.5138 0.0000 0.0000 0.0000
# 4 0.0000 0.0000 0.0000 24.7959 0.0000 0.0000
# 5 0.0000 0.0000 0.0000 0.0000 24.1124 0.0000
# 6 0.0000 0.0000 0.0000 0.0000 0.0000 36.9337
#
#
#
# Elastic Compliance Matrix: (Units=1/GPa)
#
#
# Indices 1 2 3 4 5 6 
#
# 1 0.012192 -0.002800 -0.008362 0.000000 0.000000 0.000000
# 2 -0.002800 0.034601 -0.010444 0.000000 0.000000 0.000000
# 3 -0.008362 -0.010444 0.022070 0.000000 0.000000 0.000000
# 4 0.000000 0.000000 0.000000 0.040329 0.000000 0.000000
# 5 0.000000 0.000000 0.000000 0.000000 0.041473 0.000000
# 6 0.000000 0.000000 0.000000 0.000000 0.000000 0.027076
#
#
# Mechanical properties :
#
#
# Convention : Reuss Voigt Hill
#
# Bulk Modulus (GPa) = 38.98558 56.80954 47.89756
# Shear Modulus (GPa) = 21.78625 26.00422 23.89524
#
# Velocity S-wave (km/s) = 3.44943 3.76858 3.61253
# Velocity P-wave (km/s) = 6.09563 7.06843 6.59998
#
# Compressibility (1/GPa) = 0.02565051
#
# Stress axis : x y z
#
# Youngs Moduli (GPa) = 82.02184 28.90109 45.31008
#
# Poissons Ratio (x) = 0.08092 0.37890
# Poissons Ratio (y) = 0.22965 0.47321
# Poissons Ratio (z) = 0.68590 0.30184
#
# Static dielectric constant tensor:
#      x y z
#    x 1.663750 0.000000 0.000000 
#    y 0.000000 1.627800 0.000000 
#    z 0.000000 0.000000 1.628500 
# 
# From -- ./inp_files/27782.got.cif
#   From: 2010.05.17/outbox.cif.g08.bks.cpg/sg62_14_cif.got.tgz:27782.got - 2010.06.03 15:25:27.
