data_PCOD9462866
_publ_section_title
;
Structure prediction by ZEFSAII (Michael W. Deem and Ramdas Pophale) SiO2 
 PCOD9462866
Probable space group: P N M A
;
_chemical_formula_sum "Si O2"
_cell_formula_units_Z 56
_cell_length_a 20.516311
_cell_length_b 9.809792
_cell_length_c 14.256546
_cell_angle_alpha 90.000000
_cell_angle_beta 90.000000
_cell_angle_gamma 90.000000
_cell_volume 2869.283048
_symmetry_space_group_name_H-M "P N M A"
_symmetry_group_IT_number 62
_symmetry_cell_setting 'orthorhombic'
loop_
_space_group_symop_operation_xyz
x,y,z
1/2-x,-y,1/2+z
1/2+x,1/2-y,1/2-z
-x,1/2+y,-z
-x,-y,-z
1/2+x,y,1/2-z
1/2-x,1/2+y,1/2+z
x,1/2-y,z
loop_
_atom_site_type_symbol
_atom_site_label
_atom_site_fract_x
_atom_site_fract_y
_atom_site_fract_z
Si Si1 0.054460 0.097891 0.959300
Si Si2 0.158815 0.908709 0.204135
Si Si3 0.152706 0.901254 0.896142
Si Si4 0.263893 0.401727 0.887869
Si Si5 0.410967 0.096908 0.195028
Si Si6 0.486504 0.402755 0.739341
Si Si7 0.227303 0.589801 0.611039
O O1 0.057803 0.250000 0.000446
O O2 0.032946 0.112764 0.851250
O O3 0.120671 0.012065 0.964740
O O4 0.000000 0.000000 0.000000
O O5 0.161887 0.750000 0.171793
O O6 0.177418 0.908051 0.314685
O O7 0.083444 0.954984 0.201581
O O8 0.213200 0.998808 0.150751
O O9 0.160711 0.750000 0.935985
O O10 0.107051 0.889744 0.805253
O O11 0.218397 0.971527 0.862638
O O12 0.232813 0.250000 0.873356
O O13 0.277159 0.414159 0.998133
O O14 0.423586 0.250000 0.158811
O O15 0.343758 0.044387 0.149091
O O16 0.473879 0.000547 0.191042
O O17 0.475543 0.250000 0.777842
O O18 0.235932 0.750000 0.638729
#
# Coordination Sequence:
#
# PCOD9462866 Si02
#       7
#     8   8   8   8   8   8   8
#     4  10  20  33  49  74 108 143 183 225 274 333
#     4  10  21  38  58  83 114 147 183 232 284 332
#     4  10  19  33  53  75 105 143 182 223 269 326
#     4  10  21  36  56  82 112 145 183 228 285 336
#     4   9  18  35  56  78 105 142 183 224 271 323
#     4   9  20  36  54  76 106 144 185 227 276 329
#     4  10  21  37  57  83 112 146 186 229 278 336
#
# _framework density 19.517071000000001
#
# number of rings (size 3 to 8) (size 9 to 14) (size 15 to 20)
#    0.000    2.286    1.429    0.857    2.000    2.857 
#    0.000    0.714    0.000    0.000    0.000    0.000 
#    0.000    0.000    0.000    0.000    0.000    0.000 
#
# Total GULP energy -311893.962702 kJ/mol
# GULP energy per Si atom -5569.535048 kJ/mol
# Density = 1.947265 g / cm^3
# Si number density = 19.517071 Si / 1000 Ang^3
#
#
#
# Elastic Constant Matrix: (Units=GPa)
#
#
# Indices 1 2 3 4 5 6 
#
# 1 70.8118 39.0122 15.4021 0.0000 0.0000 0.0000
# 2 39.0122 107.3203 15.7842 0.0000 0.0000 0.0000
# 3 15.4021 15.7842 46.1264 0.0000 0.0000 0.0000
# 4 0.0000 0.0000 0.0000 11.8463 0.0000 0.0000
# 5 0.0000 0.0000 0.0000 0.0000 23.8630 0.0000
# 6 0.0000 0.0000 0.0000 0.0000 0.0000 32.6836
#
#
#
# Elastic Compliance Matrix: (Units=1/GPa)
#
#
# Indices 1 2 3 4 5 6 
#
# 1 0.018349 -0.006075 -0.004048 0.000000 0.000000 0.000000
# 2 -0.006075 0.011823 -0.002017 0.000000 0.000000 0.000000
# 3 -0.004048 -0.002017 0.023722 0.000000 0.000000 0.000000
# 4 0.000000 0.000000 0.000000 0.084415 0.000000 0.000000
# 5 0.000000 0.000000 0.000000 0.000000 0.041906 0.000000
# 6 0.000000 0.000000 0.000000 0.000000 0.000000 0.030596
#
#
# Mechanical properties :
#
#
# Convention : Reuss Voigt Hill
#
# Bulk Modulus (GPa) = 33.76886 40.51729 37.14307
# Shear Modulus (GPa) = 20.41133 23.94926 22.18029
#
# Velocity S-wave (km/s) = 3.23742 3.50679 3.37479
# Velocity P-wave (km/s) = 5.59592 6.09932 5.85304
#
# Compressibility (1/GPa) = 0.02961309
#
# Stress axis : x y z
#
# Youngs Moduli (GPa) = 54.49823 84.58203 42.15563
#
# Poissons Ratio (x) = 0.51382 0.17066
# Poissons Ratio (y) = 0.33106 0.08504
# Poissons Ratio (z) = 0.22062 0.17063
#
# Static dielectric constant tensor:
#      x y z
#    x 1.714870 0.000000 0.000000 
#    y 0.000000 1.731460 0.000000 
#    z 0.000000 0.000000 1.728550 
# 
# From -- ./inp_files/20328.got.cif
#   From: 2010.05.17/outbox.cif.g08.bks.cpg/sg62_11_cif.got.tgz:20328.got - 2010.06.03 15:25:27.
