data_PCOD9462485
_publ_section_title
;
Structure prediction by ZEFSAII (Michael W. Deem and Ramdas Pophale) SiO2 
 PCOD9462485
Probable space group: P N M A
;
_chemical_formula_sum "Si O2"
_cell_formula_units_Z 64
_cell_length_a 14.821923
_cell_length_b 8.806645
_cell_length_c 31.112575
_cell_angle_alpha 90.000000
_cell_angle_beta 90.000000
_cell_angle_gamma 90.000000
_cell_volume 4061.168410
_symmetry_space_group_name_H-M "P N M A"
_symmetry_group_IT_number 62
_symmetry_cell_setting 'orthorhombic'
loop_
_space_group_symop_operation_xyz
x,y,z
1/2-x,-y,1/2+z
1/2+x,1/2-y,1/2-z
-x,1/2+y,-z
-x,-y,-z
1/2+x,y,1/2-z
1/2-x,1/2+y,1/2+z
x,1/2-y,z
loop_
_atom_site_type_symbol
_atom_site_label
_atom_site_fract_x
_atom_site_fract_y
_atom_site_fract_z
Si Si1 0.605849 0.931600 0.452375
Si Si2 0.487415 0.076335 0.326214
Si Si3 0.804101 0.931997 0.295092
Si Si4 0.182066 0.430033 0.866747
Si Si5 0.181867 0.070065 0.131687
Si Si6 0.394913 0.566249 0.454537
Si Si7 0.996307 0.426615 0.276595
Si Si8 0.308761 0.434083 0.790566
O O1 0.611819 0.750000 0.451483
O O2 0.499938 0.973357 0.444359
O O3 0.668595 0.001751 0.415630
O O4 0.627757 0.994121 0.499669
O O5 0.461961 0.250000 0.337970
O O6 0.585403 0.045012 0.345288
O O7 0.492005 0.065926 0.275108
O O8 0.413300 0.963088 0.344189
O O9 0.804761 0.750000 0.295071
O O10 0.747588 0.981491 0.252245
O O11 0.754929 0.992756 0.337617
O O12 0.905681 0.993608 0.292935
O O13 0.196010 0.250000 0.869977
O O14 0.168860 0.486809 0.915471
O O15 0.257122 0.488777 0.833597
O O16 0.198284 0.250000 0.129426
O O17 0.390954 0.750000 0.457704
O O18 0.996726 0.250000 0.289345
O O19 0.089947 0.504497 0.289615
O O20 0.310110 0.250000 0.790401
#
# Coordination Sequence:
#
# PCOD9462485 Si02
#       8
#     8   8   8   8   8   8   8   8
#     4  10  19  31  49  73 101 134 171 210 254 306
#     4  10  20  30  46  71 101 135 170 209 250 295
#     4  11  22  35  53  75 101 135 175 214 254 300
#     4  10  19  33  51  73 100 135 175 210 251 300
#     4  11  21  34  50  73 104 138 175 211 255 304
#     4   9  18  31  48  71 102 135 167 209 256 304
#     4  11  22  36  51  71 102 137 173 214 255 297
#     4  10  21  34  51  74 100 133 172 212 251 297
#
# _framework density 15.759012999999999
#
# number of rings (size 3 to 8) (size 9 to 14) (size 15 to 20)
#    0.000    1.750    3.750    1.500    0.000    3.000 
#    0.000    0.000    0.000    0.000    0.000    0.875 
#    0.000    0.000    0.000    0.000    0.000    0.000 
#
# Total GULP energy -357029.822183 kJ/mol
# GULP energy per Si atom -5578.590972 kJ/mol
# Density = 1.572314 g / cm^3
# Si number density = 15.759013 Si / 1000 Ang^3
#
#
#
# Elastic Constant Matrix: (Units=GPa)
#
#
# Indices 1 2 3 4 5 6 
#
# 1 93.8170 35.3662 67.7458 0.0000 0.0000 0.0000
# 2 35.3662 27.4562 35.8666 0.0000 0.0000 0.0000
# 3 67.7458 35.8666 122.4128 0.0000 0.0000 0.0000
# 4 0.0000 0.0000 0.0000 23.3973 0.0000 0.0000
# 5 0.0000 0.0000 0.0000 0.0000 22.4982 0.0000
# 6 0.0000 0.0000 0.0000 0.0000 0.0000 20.0623
#
#
#
# Elastic Compliance Matrix: (Units=1/GPa)
#
#
# Indices 1 2 3 4 5 6 
#
# 1 0.023743 -0.021739 -0.006770 0.000000 0.000000 0.000000
# 2 -0.021739 0.078910 -0.011090 0.000000 0.000000 0.000000
# 3 -0.006770 -0.011090 0.015165 0.000000 0.000000 0.000000
# 4 0.000000 0.000000 0.000000 0.042740 0.000000 0.000000
# 5 0.000000 0.000000 0.000000 0.000000 0.044448 0.000000
# 6 0.000000 0.000000 0.000000 0.000000 0.000000 0.049845
#
#
# Mechanical properties :
#
#
# Convention : Reuss Voigt Hill
#
# Bulk Modulus (GPa) = 25.89312 57.96034 41.92673
# Shear Modulus (GPa) = 14.41247 20.17204 17.29225
#
# Velocity S-wave (km/s) = 3.02744 3.58164 3.31614
# Velocity P-wave (km/s) = 5.35601 7.34596 6.42845
#
# Compressibility (1/GPa) = 0.03862030
#
# Stress axis : x y z
#
# Youngs Moduli (GPa) = 42.11793 12.67268 65.94043
#
# Poissons Ratio (x) = 0.27549 0.44644
# Poissons Ratio (y) = 0.91559 0.73126
# Poissons Ratio (z) = 0.28516 0.14054
#
# Static dielectric constant tensor:
#      x y z
#    x 1.499440 0.000000 0.000000 
#    y 0.000000 1.535240 0.000000 
#    z 0.000000 0.000000 1.532090 
# 
# From -- ./inp_files/32686.got.cif
#   From: 2010.05.17/outbox.cif.g08.bks.cpg/sg62_17_cif.got.tgz:32686.got - 2010.06.03 15:25:27.
