data_PCOD9462489
_publ_section_title
;
Structure prediction by ZEFSAII (Michael W. Deem and Ramdas Pophale) SiO2 
 PCOD9462489
Probable space group: P N M A
;
_chemical_formula_sum "Si O2"
_cell_formula_units_Z 64
_cell_length_a 31.211263
_cell_length_b 8.394660
_cell_length_c 14.845319
_cell_angle_alpha 90.000000
_cell_angle_beta 90.000000
_cell_angle_gamma 90.000000
_cell_volume 3889.591466
_symmetry_space_group_name_H-M "P N M A"
_symmetry_group_IT_number 62
_symmetry_cell_setting 'orthorhombic'
loop_
_space_group_symop_operation_xyz
x,y,z
1/2-x,-y,1/2+z
1/2+x,1/2-y,1/2-z
-x,1/2+y,-z
-x,-y,-z
1/2+x,y,1/2-z
1/2-x,1/2+y,1/2+z
x,1/2-y,z
loop_
_atom_site_type_symbol
_atom_site_label
_atom_site_fract_x
_atom_site_fract_y
_atom_site_fract_z
Si Si1 0.206161 0.442326 0.311315
Si Si2 0.231672 0.940150 0.497162
Si Si3 0.047456 0.443220 0.898157
Si Si4 0.869163 0.934084 0.191613
Si Si5 0.449436 0.059754 0.602097
Si Si6 0.863290 0.938361 0.837166
Si Si7 0.173685 0.567369 0.979579
Si Si8 0.290223 0.059605 0.198559
O O1 0.208675 0.250000 0.320412
O O2 0.203838 0.518534 0.409779
O O3 0.165136 0.479694 0.249519
O O4 0.249612 0.497596 0.258812
O O5 0.239480 0.750000 0.500484
O O6 0.214003 0.991651 0.594641
O O7 0.276249 0.030226 0.481648
O O8 0.049812 0.250000 0.904422
O O9 0.082718 0.497088 0.825464
O O10 0.998452 0.486721 0.876368
O O11 0.057663 0.510909 0.997493
O O12 0.872045 0.750000 0.217221
O O13 0.848107 0.953460 0.093029
O O14 0.835563 0.014718 0.258345
O O15 0.445534 0.250000 0.609175
O O16 0.413488 0.978495 0.663411
O O17 0.857255 0.750000 0.853866
O O18 0.844657 0.033318 0.922120
O O19 0.165900 0.750000 0.952548
O O20 0.286741 0.250000 0.199140
#
# Coordination Sequence:
#
# PCOD9462489 Si02
#       8
#     8   8   8   8   8   8   8   8
#     4  10  21  36  52  72 102 134 169 208 251 298
#     4  11  22  37  53  71 100 135 171 211 254 292
#     4   9  19  33  48  70 104 136 165 205 252 300
#     4  11  21  33  51  74 100 136 173 205 247 298
#     4  10  19  31  49  74 101 133 169 206 249 301
#     4  11  21  35  51  71 102 138 171 209 253 297
#     4  12  22  31  48  73 102 135 172 210 246 292
#     4  10  21  36  51  72 102 134 167 208 249 293
#
# _framework density 16.454170000000001
#
# number of rings (size 3 to 8) (size 9 to 14) (size 15 to 20)
#    0.000    1.500    3.750    2.625    0.000    3.000 
#    0.000    0.000    0.000    0.000    0.000    0.875 
#    0.000    0.000    0.000    0.000    0.000    0.000 
#
# Total GULP energy -357158.498792 kJ/mol
# GULP energy per Si atom -5580.601544 kJ/mol
# Density = 1.641672 g / cm^3
# Si number density = 16.454170 Si / 1000 Ang^3
#
#
#
# Elastic Constant Matrix: (Units=GPa)
#
#
# Indices 1 2 3 4 5 6 
#
# 1 102.1824 6.2796 33.9965 0.0000 0.0000 0.0000
# 2 6.2796 18.1470 3.6288 0.0000 0.0000 0.0000
# 3 33.9965 3.6288 79.5806 0.0000 0.0000 0.0000
# 4 0.0000 0.0000 0.0000 22.2140 0.0000 0.0000
# 5 0.0000 0.0000 0.0000 0.0000 21.4306 0.0000
# 6 0.0000 0.0000 0.0000 0.0000 0.0000 21.9112
#
#
#
# Elastic Compliance Matrix: (Units=1/GPa)
#
#
# Indices 1 2 3 4 5 6 
#
# 1 0.011572 -0.003044 -0.004805 0.000000 0.000000 0.000000
# 2 -0.003044 0.056413 -0.001272 0.000000 0.000000 0.000000
# 3 -0.004805 -0.001272 0.014676 0.000000 0.000000 0.000000
# 4 0.000000 0.000000 0.000000 0.045017 0.000000 0.000000
# 5 0.000000 0.000000 0.000000 0.000000 0.046662 0.000000
# 6 0.000000 0.000000 0.000000 0.000000 0.000000 0.045639
#
#
# Mechanical properties :
#
#
# Convention : Reuss Voigt Hill
#
# Bulk Modulus (GPa) = 15.52297 31.96884 23.74591
# Shear Modulus (GPa) = 19.25346 23.51152 21.38249
#
# Velocity S-wave (km/s) = 3.42442 3.78419 3.60879
# Velocity P-wave (km/s) = 5.00900 6.21005 5.64158
#
# Compressibility (1/GPa) = 0.06442065
#
# Stress axis : x y z
#
# Youngs Moduli (GPa) = 86.41531 17.72637 68.13636
#
# Poissons Ratio (x) = 0.05395 0.32738
# Poissons Ratio (y) = 0.26301 0.08668
# Poissons Ratio (z) = 0.41520 0.02255
#
# Static dielectric constant tensor:
#      x y z
#    x 1.587820 0.000000 0.000000 
#    y 0.000000 1.566670 0.000000 
#    z 0.000000 0.000000 1.539770 
# 
# From -- ./inp_files/21251.got.cif
#   From: 2010.05.17/outbox.cif.g08.bks.cpg/sg62_11_cif.got.tgz:21251.got - 2010.06.03 15:25:27.
