data_PCOD9462850
_publ_section_title
;
Structure prediction by ZEFSAII (Michael W. Deem and Ramdas Pophale) SiO2 
 PCOD9462850
Probable space group: P N M A
;
_chemical_formula_sum "Si O2"
_cell_formula_units_Z 48
_cell_length_a 16.701945
_cell_length_b 16.844059
_cell_length_c 9.212841
_cell_angle_alpha 90.000000
_cell_angle_beta 90.000000
_cell_angle_gamma 90.000000
_cell_volume 2591.835172
_symmetry_space_group_name_H-M "P N M A"
_symmetry_group_IT_number 62
_symmetry_cell_setting 'orthorhombic'
loop_
_space_group_symop_operation_xyz
x,y,z
1/2-x,-y,1/2+z
1/2+x,1/2-y,1/2-z
-x,1/2+y,-z
-x,-y,-z
1/2+x,y,1/2-z
1/2-x,1/2+y,1/2+z
x,1/2-y,z
loop_
_atom_site_type_symbol
_atom_site_label
_atom_site_fract_x
_atom_site_fract_y
_atom_site_fract_z
Si Si1 0.518635 0.090097 0.544881
Si Si2 0.178420 0.072801 0.109783
Si Si3 0.308051 0.841697 0.909934
Si Si4 0.398046 0.841535 0.194036
Si Si5 0.267842 0.338917 0.876000
Si Si6 0.846320 0.383557 0.907833
O O1 0.596108 0.113225 0.449960
O O2 0.545629 0.101620 0.712114
O O3 0.434282 0.134478 0.530612
O O4 0.500000 0.000000 0.500000
O O5 0.191612 0.100960 0.272915
O O6 0.168005 0.978583 0.095592
O O7 0.250926 0.101081 0.006531
O O8 0.320508 0.750000 0.865716
O O9 0.375982 0.862861 0.029269
O O10 0.223387 0.847377 0.993475
O O11 0.427089 0.750000 0.199164
O O12 0.312812 0.842438 0.278046
O O13 0.276272 0.250000 0.934579
O O14 0.336455 0.356175 0.758897
#
# Coordination Sequence:
#
# PCOD9462850 Si02
#       6
#     8   8   8   8   8   8
#     4   9  19  34  52  76 104 135 175 215 257 310
#     4  10  19  34  54  77 104 138 174 213 262 316
#     4  10  20  35  54  78 105 137 176 218 261 313
#     4   8  16  31  51  70  96 135 171 201 250 315
#     4   9  17  31  50  72  97 131 172 210 248 303
#     4  10  19  33  52  77 104 136 173 215 260 307
#
# _framework density 18.519696
#
# number of rings (size 3 to 8) (size 9 to 14) (size 15 to 20)
#    0.000    2.667    0.000    3.000    0.000    3.333 
#    0.000    5.000    0.000    2.000    0.000    0.000 
#    0.000    0.000    0.000    0.000    0.000    0.000 
#
# Total GULP energy -267341.361011 kJ/mol
# GULP energy per Si atom -5569.611688 kJ/mol
# Density = 1.847754 g / cm^3
# Si number density = 18.519696 Si / 1000 Ang^3
#
#
#
# Elastic Constant Matrix: (Units=GPa)
#
#
# Indices 1 2 3 4 5 6 
#
# 1 56.1271 -5.1087 4.8466 0.0000 0.0000 0.0000
# 2 -5.1087 40.5360 8.7369 0.0000 0.0000 0.0000
# 3 4.8466 8.7369 73.9060 0.0000 0.0000 0.0000
# 4 0.0000 0.0000 0.0000 13.2408 0.0000 0.0000
# 5 0.0000 0.0000 0.0000 0.0000 23.1741 0.0000
# 6 0.0000 0.0000 0.0000 0.0000 0.0000 19.6301
#
#
#
# Elastic Compliance Matrix: (Units=1/GPa)
#
#
# Indices 1 2 3 4 5 6 
#
# 1 0.018184 0.002615 -0.001502 0.000000 0.000000 0.000000
# 2 0.002615 0.025691 -0.003209 0.000000 0.000000 0.000000
# 3 -0.001502 -0.003209 0.014008 0.000000 0.000000 0.000000
# 4 0.000000 0.000000 0.000000 0.075524 0.000000 0.000000
# 5 0.000000 0.000000 0.000000 0.000000 0.043152 0.000000
# 6 0.000000 0.000000 0.000000 0.000000 0.000000 0.050942
#
#
# Mechanical properties :
#
#
# Convention : Reuss Voigt Hill
#
# Bulk Modulus (GPa) = 18.62411 20.83542 19.72977
# Shear Modulus (GPa) = 20.03295 22.01531 21.02413
#
# Velocity S-wave (km/s) = 3.29251 3.45157 3.37297
# Velocity P-wave (km/s) = 4.95301 5.21145 5.08388
#
# Compressibility (1/GPa) = 0.05369383
#
# Stress axis : x y z
#
# Youngs Moduli (GPa) = 54.99214 38.92476 71.38528
#
# Poissons Ratio (x) = -0.10180 0.10720
# Poissons Ratio (y) = -0.14383 0.22904
# Poissons Ratio (z) = 0.08258 0.12489
#
# Static dielectric constant tensor:
#      x y z
#    x 1.671060 0.000000 0.000000 
#    y 0.000000 1.642790 0.000000 
#    z 0.000000 0.000000 1.630460 
# 
# From -- ./inp_files/7824.got.cif
#   From: 2010.05.17/outbox.cif.g08.bks.cpg/sg62_4_cif.got.tgz:7824.got - 2010.06.03 15:25:27.
