data_PCOD9462592
_publ_section_title
;
Structure prediction by ZEFSAII (Michael W. Deem and Ramdas Pophale) SiO2 
 PCOD9462592
Probable space group: P N M A
;
_chemical_formula_sum "Si O2"
_cell_formula_units_Z 56
_cell_length_a 20.110986
_cell_length_b 7.556633
_cell_length_c 16.483003
_cell_angle_alpha 90.000000
_cell_angle_beta 90.000000
_cell_angle_gamma 90.000000
_cell_volume 2504.944061
_symmetry_space_group_name_H-M "P N M A"
_symmetry_group_IT_number 62
_symmetry_cell_setting 'orthorhombic'
loop_
_space_group_symop_operation_xyz
x,y,z
1/2-x,-y,1/2+z
1/2+x,1/2-y,1/2-z
-x,1/2+y,-z
-x,-y,-z
1/2+x,y,1/2-z
1/2-x,1/2+y,1/2+z
x,1/2-y,z
loop_
_atom_site_type_symbol
_atom_site_label
_atom_site_fract_x
_atom_site_fract_y
_atom_site_fract_z
Si Si1 0.061513 0.542253 0.556937
Si Si2 0.088325 0.466334 0.044046
Si Si3 0.799959 0.947533 0.511591
Si Si4 0.449290 0.550098 0.379149
Si Si5 0.165257 0.960780 0.305034
Si Si6 0.281412 0.454544 0.638737
Si Si7 0.487462 0.039014 0.779939
O O1 0.076484 0.750000 0.554344
O O2 0.125416 0.445526 0.522583
O O3 0.000000 0.500000 0.500000
O O4 0.035274 0.488314 0.644317
O O5 0.084859 0.250000 0.047309
O O6 0.144387 0.534707 0.103672
O O7 0.020078 0.550338 0.074842
O O8 0.098877 0.520167 0.949766
O O9 0.772008 0.750000 0.519066
O O10 0.760168 0.036886 0.436456
O O11 0.806229 0.014433 0.604182
O O12 0.426085 0.750000 0.361390
O O13 0.471716 0.460939 0.296009
O O14 0.161404 0.750000 0.292743
O O15 0.211049 0.029288 0.230319
O O16 0.088187 0.027778 0.296410
O O17 0.258285 0.250000 0.646892
O O18 0.480281 0.250000 0.765297
#
# Coordination Sequence:
#
# PCOD9462592 Si02
#       7
#     8   8   8   8   8   8   8
#     4  12  24  39  61  88 119 150 189 244 302 355
#     4  10  19  31  55  87 116 151 194 244 290 340
#     4  11  24  42  64  88 118 156 199 248 301 356
#     4   9  18  34  54  81 118 156 194 237 291 348
#     4  10  20  38  65  88 112 154 200 240 291 352
#     4  10  22  42  63  84 118 163 201 241 298 362
#     4  10  19  35  61  86 115 152 193 238 289 352
#
# _framework density 22.355788
#
# number of rings (size 3 to 8) (size 9 to 14) (size 15 to 20)
#    0.000    1.714    2.857    2.143    0.000    2.857 
#    2.571    0.000    0.000    0.000    0.000    0.000 
#    0.000    0.000    0.000    0.000    0.000    0.000 
#
# Total GULP energy -312035.775846 kJ/mol
# GULP energy per Si atom -5572.067426 kJ/mol
# Density = 2.230491 g / cm^3
# Si number density = 22.355788 Si / 1000 Ang^3
#
#
#
# Elastic Constant Matrix: (Units=GPa)
#
#
# Indices 1 2 3 4 5 6 
#
# 1 29.1663 -9.6807 30.9959 0.0000 0.0000 0.0000
# 2 -9.6807 72.1309 0.0747 0.0000 0.0000 0.0000
# 3 30.9959 0.0747 227.9006 0.0000 0.0000 0.0000
# 4 0.0000 0.0000 0.0000 13.5762 0.0000 0.0000
# 5 0.0000 0.0000 0.0000 0.0000 35.3319 0.0000
# 6 0.0000 0.0000 0.0000 0.0000 0.0000 7.8599
#
#
#
# Elastic Compliance Matrix: (Units=1/GPa)
#
#
# Indices 1 2 3 4 5 6 
#
# 1 0.042286 0.005681 -0.005753 0.000000 0.000000 0.000000
# 2 0.005681 0.014627 -0.000777 0.000000 0.000000 0.000000
# 3 -0.005753 -0.000777 0.005171 0.000000 0.000000 0.000000
# 4 0.000000 0.000000 0.000000 0.073658 0.000000 0.000000
# 5 0.000000 0.000000 0.000000 0.000000 0.028303 0.000000
# 6 0.000000 0.000000 0.000000 0.000000 0.000000 0.127227
#
#
# Mechanical properties :
#
#
# Convention : Reuss Voigt Hill
#
# Bulk Modulus (GPa) = 16.56052 41.33085 28.94569
# Shear Modulus (GPa) = 15.96940 31.87413 23.92177
#
# Velocity S-wave (km/s) = 2.67559 3.78003 3.27471
# Velocity P-wave (km/s) = 4.11933 6.13020 5.22246
#
# Compressibility (1/GPa) = 0.06038457
#
# Stress axis : x y z
#
# Youngs Moduli (GPa) = 23.64866 68.36695 193.40208
#
# Poissons Ratio (x) = -0.38840 1.11264
# Poissons Ratio (y) = -0.13435 0.15036
# Poissons Ratio (z) = 0.13605 0.05315
#
# Static dielectric constant tensor:
#      x y z
#    x 1.798410 0.000000 0.000000 
#    y 0.000000 1.871310 0.000000 
#    z 0.000000 0.000000 1.904160 
# 
# From -- ./inp_files/20312.got.cif
#   From: 2010.05.17/outbox.cif.g08.bks.cpg/sg62_11_cif.got.tgz:20312.got - 2010.06.03 15:25:27.
