data_PCOD9462739
_publ_section_title
;
Structure prediction by ZEFSAII (Michael W. Deem and Ramdas Pophale) SiO2 
 PCOD9462739
Probable space group: P N M A
;
_chemical_formula_sum "Si O2"
_cell_formula_units_Z 48
_cell_length_a 20.520792
_cell_length_b 8.514262
_cell_length_c 15.426443
_cell_angle_alpha 90.000000
_cell_angle_beta 90.000000
_cell_angle_gamma 90.000000
_cell_volume 2695.298858
_symmetry_space_group_name_H-M "P N M A"
_symmetry_group_IT_number 62
_symmetry_cell_setting 'orthorhombic'
loop_
_space_group_symop_operation_xyz
x,y,z
1/2-x,-y,1/2+z
1/2+x,1/2-y,1/2-z
-x,1/2+y,-z
-x,-y,-z
1/2+x,y,1/2-z
1/2-x,1/2+y,1/2+z
x,1/2-y,z
loop_
_atom_site_type_symbol
_atom_site_label
_atom_site_fract_x
_atom_site_fract_y
_atom_site_fract_z
Si Si1 0.480932 0.060524 0.727239
Si Si2 0.163360 0.060537 0.196162
Si Si3 0.041733 0.561787 0.420295
Si Si4 0.197548 0.059936 0.007307
Si Si5 0.556759 0.439702 0.562988
Si Si6 0.185772 0.061765 0.389570
O O1 0.478023 0.250000 0.726052
O O2 0.487911 0.010606 0.827111
O O3 0.536697 0.010887 0.660176
O O4 0.411280 0.997296 0.694715
O O5 0.162246 0.250000 0.195715
O O6 0.198845 0.008994 0.108177
O O7 0.192703 0.009304 0.288682
O O8 0.042797 0.750000 0.422343
O O9 0.115743 0.500319 0.421206
O O10 0.000000 0.500000 0.500000
O O11 0.199211 0.250000 0.005481
O O12 0.127915 0.007889 0.967917
O O13 0.256568 0.997824 0.950102
O O14 0.500000 0.500000 0.500000
O O15 0.556489 0.250000 0.559408
O O16 0.184553 0.250000 0.390689
#
# Coordination Sequence:
#
# PCOD9462739 Si02
#       6
#     8   8   8   8   8   8
#     4   9  18  32  53  80 108 136 174 219 263 317
#     4   9  18  34  55  76 103 139 177 215 264 321
#     4  10  20  37  59  81 109 142 180 223 269 319
#     4  10  20  35  54  77 110 145 177 219 271 322
#     4  10  19  32  53  81 110 139 173 215 265 321
#     4  10  21  37  56  79 107 140 183 225 265 320
#
# _framework density 17.808785
#
# number of rings (size 3 to 8) (size 9 to 14) (size 15 to 20)
#    0.000    2.333    1.667    1.000    0.000    2.667 
#    3.000    0.000    0.000    0.000    0.000    0.000 
#    0.000    0.000    0.000    0.000    0.000    0.000 
#
# Total GULP energy -267716.643328 kJ/mol
# GULP energy per Si atom -5577.430069 kJ/mol
# Density = 1.776825 g / cm^3
# Si number density = 17.808785 Si / 1000 Ang^3
#
#
#
# Elastic Constant Matrix: (Units=GPa)
#
#
# Indices 1 2 3 4 5 6 
#
# 1 114.7915 24.5727 112.7478 0.0000 0.0000 0.0000
# 2 24.5727 14.0696 33.6853 0.0000 0.0000 0.0000
# 3 112.7478 33.6853 190.5150 0.0000 0.0000 0.0000
# 4 0.0000 0.0000 0.0000 22.2000 0.0000 0.0000
# 5 0.0000 0.0000 0.0000 0.0000 35.5163 0.0000
# 6 0.0000 0.0000 0.0000 0.0000 0.0000 28.8998
#
#
#
# Elastic Compliance Matrix: (Units=1/GPa)
#
#
# Indices 1 2 3 4 5 6 
#
# 1 0.022019 -0.012585 -0.010806 0.000000 0.000000 0.000000
# 2 -0.012585 0.130442 -0.015616 0.000000 0.000000 0.000000
# 3 -0.010806 -0.015616 0.014405 0.000000 0.000000 0.000000
# 4 0.000000 0.000000 0.000000 0.045045 0.000000 0.000000
# 5 0.000000 0.000000 0.000000 0.000000 0.028156 0.000000
# 6 0.000000 0.000000 0.000000 0.000000 0.000000 0.034602
#
#
# Mechanical properties :
#
#
# Convention : Reuss Voigt Hill
#
# Bulk Modulus (GPa) = 11.25460 73.48753 42.37106
# Shear Modulus (GPa) = 13.07874 27.21456 20.14665
#
# Velocity S-wave (km/s) = 2.71292 3.91340 3.36709
# Velocity P-wave (km/s) = 4.01829 7.85964 6.24182
#
# Compressibility (1/GPa) = 0.08885259
#
# Stress axis : x y z
#
# Youngs Moduli (GPa) = 45.41594 7.66623 69.42158
#
# Poissons Ratio (x) = 0.09648 0.75014
# Poissons Ratio (y) = 0.57158 1.08406
# Poissons Ratio (z) = 0.49074 0.11971
#
# Static dielectric constant tensor:
#      x y z
#    x 1.560340 0.000000 0.000000 
#    y 0.000000 1.605350 0.000000 
#    z 0.000000 0.000000 1.642770 
# 
# From -- ./inp_files/19583.got.cif
#   From: 2010.05.17/outbox.cif.g08.bks.cpg/sg62_10_cif.got.tgz:19583.got - 2010.06.03 15:25:27.
