data_PCOD9462586
_publ_section_title
;
Structure prediction by ZEFSAII (Michael W. Deem and Ramdas Pophale) SiO2 
 PCOD9462586
Probable space group: P N M A
;
_chemical_formula_sum "Si O2"
_cell_formula_units_Z 56
_cell_length_a 10.236533
_cell_length_b 13.542125
_cell_length_c 15.649585
_cell_angle_alpha 90.000000
_cell_angle_beta 90.000000
_cell_angle_gamma 90.000000
_cell_volume 2169.414479
_symmetry_space_group_name_H-M "P N M A"
_symmetry_group_IT_number 62
_symmetry_cell_setting 'orthorhombic'
loop_
_space_group_symop_operation_xyz
x,y,z
1/2-x,-y,1/2+z
1/2+x,1/2-y,1/2-z
-x,1/2+y,-z
-x,-y,-z
1/2+x,y,1/2-z
1/2-x,1/2+y,1/2+z
x,1/2-y,z
loop_
_atom_site_type_symbol
_atom_site_label
_atom_site_fract_x
_atom_site_fract_y
_atom_site_fract_z
Si Si1 0.202389 0.637644 0.467202
Si Si2 0.112264 0.467936 0.701031
Si Si3 0.981865 0.250000 0.852729
Si Si4 0.010300 0.134625 0.414966
Si Si5 0.925106 0.643059 0.893119
Si Si6 0.695689 0.250000 0.795173
Si Si7 0.215396 0.359317 0.281733
Si Si8 0.437637 0.553473 0.380901
O O1 0.208000 0.750000 0.436699
O O2 0.051990 0.618501 0.491190
O O3 0.288169 0.631980 0.555223
O O4 0.285876 0.572084 0.402945
O O5 0.050194 0.542014 0.634648
O O6 0.161845 0.360847 0.668084
O O7 0.208404 0.543708 0.752008
O O8 0.020843 0.441877 0.781142
O O9 0.852098 0.250000 0.795706
O O10 0.111205 0.250000 0.792149
O O11 0.991674 0.346971 0.911689
O O12 0.968136 0.250000 0.396141
O O13 0.156245 0.134234 0.377009
O O14 0.980195 0.750000 0.913338
O O15 0.896405 0.643842 0.791493
O O16 0.012664 0.549851 0.913960
O O17 0.281140 0.250000 0.274502
#
# Coordination Sequence:
#
# PCOD9462586 Si02
#       8
#     8   8   4   8   8   4   8   8
#     4  10  20  36  55  81 115 153 196 235 292 371
#     4  11  21  35  56  86 114 156 196 250 294 359
#     4  10  22  40  58  88 116 166 210 254 298 356
#     4  10  20  35  60  86 114 149 192 252 302 357
#     4  10  19  31  54  85 114 142 182 240 301 353
#     4  10  24  36  58  84 126 160 208 248 302 354
#     4  10  19  34  57  89 113 140 192 253 310 347
#     4  11  21  36  56  80 120 155 197 236 302 365
#
# _framework density 25.813419
#
# number of rings (size 3 to 8) (size 9 to 14) (size 15 to 20)
#    0.000    1.714    3.571    1.714    2.000    0.571 
#    0.000    0.714    0.000    0.000    0.000    0.000 
#    0.000    0.000    0.000    0.000    0.000    0.000 
#
# Total GULP energy -312047.075830 kJ/mol
# GULP energy per Si atom -5572.269211 kJ/mol
# Density = 2.575467 g / cm^3
# Si number density = 25.813419 Si / 1000 Ang^3
#
#
#
# Elastic Constant Matrix: (Units=GPa)
#
#
# Indices 1 2 3 4 5 6 
#
# 1 43.7443 48.8516 23.5494 0.0000 0.0000 0.0000
# 2 48.8516 249.0386 24.9559 0.0000 0.0000 0.0000
# 3 23.5494 24.9559 44.7411 0.0000 0.0000 0.0000
# 4 0.0000 0.0000 0.0000 33.7109 0.0000 0.0000
# 5 0.0000 0.0000 0.0000 0.0000 40.7001 0.0000
# 6 0.0000 0.0000 0.0000 0.0000 0.0000 42.2247
#
#
#
# Elastic Compliance Matrix: (Units=1/GPa)
#
#
# Indices 1 2 3 4 5 6 
#
# 1 0.038575 -0.005860 -0.017035 0.000000 0.000000 0.000000
# 2 -0.005860 0.005143 0.000215 0.000000 0.000000 0.000000
# 3 -0.017035 0.000215 0.031197 0.000000 0.000000 0.000000
# 4 0.000000 0.000000 0.000000 0.029664 0.000000 0.000000
# 5 0.000000 0.000000 0.000000 0.000000 0.024570 0.000000
# 6 0.000000 0.000000 0.000000 0.000000 0.000000 0.023683
#
#
# Mechanical properties :
#
#
# Convention : Reuss Voigt Hill
#
# Bulk Modulus (GPa) = 33.83406 59.13752 46.48579
# Shear Modulus (GPa) = 24.03346 39.33828 31.68587
#
# Velocity S-wave (km/s) = 3.05461 3.90801 3.50737
# Velocity P-wave (km/s) = 5.05732 6.58200 5.86938
#
# Compressibility (1/GPa) = 0.02955601
#
# Stress axis : x y z
#
# Youngs Moduli (GPa) = 25.92364 194.42723 32.05428
#
# Poissons Ratio (x) = 1.13930 0.54605
# Poissons Ratio (y) = 0.15191 -0.00690
# Poissons Ratio (z) = 0.44162 -0.04188
#
# Static dielectric constant tensor:
#      x y z
#    x 2.110390 0.000000 0.000000 
#    y 0.000000 2.129790 0.000000 
#    z 0.000000 0.000000 2.112350 
# 
# From -- ./inp_files/26664.got.cif
#   From: 2010.05.17/outbox.cif.g08.bks.cpg/sg62_14_cif.got.tgz:26664.got - 2010.06.03 15:25:27.
