data_PCOD9462808
_publ_section_title
;
Structure prediction by ZEFSAII (Michael W. Deem and Ramdas Pophale) SiO2 
 PCOD9462808
Probable space group: P N M A
;
_chemical_formula_sum "Si O2"
_cell_formula_units_Z 64
_cell_length_a 26.090447
_cell_length_b 9.086069
_cell_length_c 14.293609
_cell_angle_alpha 90.000000
_cell_angle_beta 90.000000
_cell_angle_gamma 90.000000
_cell_volume 3388.437256
_symmetry_space_group_name_H-M "P N M A"
_symmetry_group_IT_number 62
_symmetry_cell_setting 'orthorhombic'
loop_
_space_group_symop_operation_xyz
x,y,z
1/2-x,-y,1/2+z
1/2+x,1/2-y,1/2-z
-x,1/2+y,-z
-x,-y,-z
1/2+x,y,1/2-z
1/2-x,1/2+y,1/2+z
x,1/2-y,z
loop_
_atom_site_type_symbol
_atom_site_label
_atom_site_fract_x
_atom_site_fract_y
_atom_site_fract_z
Si Si1 0.339070 0.426968 0.499272
Si Si2 0.221769 0.924416 0.806616
Si Si3 0.175835 0.587264 0.305660
Si Si4 0.449475 0.574682 0.544279
Si Si5 0.917986 0.922234 0.751129
Si Si6 0.549663 0.423502 0.039031
Si Si7 0.855341 0.088151 0.484941
Si Si8 0.735658 0.074884 0.890199
O O1 0.346834 0.250000 0.503992
O O2 0.313915 0.459997 0.396299
O O3 0.393993 0.506473 0.513444
O O4 0.293688 0.463192 0.575108
O O5 0.216858 0.750000 0.788169
O O6 0.280417 0.968774 0.826807
O O7 0.217010 0.019872 0.711959
O O8 0.194922 0.750000 0.274762
O O9 0.132374 0.522480 0.239335
O O10 0.148748 0.606841 0.404308
O O11 0.500000 0.500000 0.500000
O O12 0.449197 0.750000 0.524376
O O13 0.451866 0.555513 0.657071
O O14 0.902349 0.750000 0.749129
O O15 0.943312 0.953760 0.650437
O O16 0.546478 0.250000 0.029621
O O17 0.596308 0.483360 0.976084
O O18 0.500000 0.500000 0.000000
O O19 0.861633 0.250000 0.441232
O O20 0.803317 0.012119 0.455150
O O21 0.730106 0.250000 0.900478
#
# Coordination Sequence:
#
# PCOD9462808 Si02
#       8
#     8   8   8   8   8   8   8   8
#     4  10  23  42  63  88 123 162 201 250 309 368
#     4  11  22  37  57  85 121 161 196 236 297 362
#     4  10  19  32  56  88 119 151 193 244 289 346
#     4  11  24  43  66  89 116 156 207 261 311 364
#     4   9  20  38  61  88 117 157 201 245 304 365
#     4  10  20  37  60  87 120 156 199 249 302 364
#     4  10  20  35  56  83 117 156 194 238 295 357
#     4  11  22  38  60  90 124 159 200 247 300 362
#
# _framework density 18.887764000000001
#
# number of rings (size 3 to 8) (size 9 to 14) (size 15 to 20)
#    0.000    1.750    1.250    3.000    0.000    6.500 
#    2.250    0.000    0.000    0.000    0.000    0.000 
#    0.000    0.000    0.000    0.000    0.000    0.000 
#
# Total GULP energy -356485.572653 kJ/mol
# GULP energy per Si atom -5570.087073 kJ/mol
# Density = 1.884477 g / cm^3
# Si number density = 18.887764 Si / 1000 Ang^3
#
#
#
# Elastic Constant Matrix: (Units=GPa)
#
#
# Indices 1 2 3 4 5 6 
#
# 1 130.8060 73.4828 42.3815 0.0000 0.0000 0.0000
# 2 73.4828 100.4542 57.0706 0.0000 0.0000 0.0000
# 3 42.3815 57.0706 78.6103 0.0000 0.0000 0.0000
# 4 0.0000 0.0000 0.0000 27.7367 0.0000 0.0000
# 5 0.0000 0.0000 0.0000 0.0000 33.2311 0.0000
# 6 0.0000 0.0000 0.0000 0.0000 0.0000 33.0292
#
#
#
# Elastic Compliance Matrix: (Units=1/GPa)
#
#
# Indices 1 2 3 4 5 6 
#
# 1 0.012980 -0.009393 -0.000178 0.000000 0.000000 0.000000
# 2 -0.009393 0.023741 -0.012172 0.000000 0.000000 0.000000
# 3 -0.000178 -0.012172 0.021653 0.000000 0.000000 0.000000
# 4 0.000000 0.000000 0.000000 0.036053 0.000000 0.000000
# 5 0.000000 0.000000 0.000000 0.000000 0.030092 0.000000
# 6 0.000000 0.000000 0.000000 0.000000 0.000000 0.030276
#
#
# Mechanical properties :
#
#
# Convention : Reuss Voigt Hill
#
# Bulk Modulus (GPa) = 67.16878 72.86005 70.01441
# Shear Modulus (GPa) = 24.60088 27.92846 26.26467
#
# Velocity S-wave (km/s) = 3.61290 3.84950 3.73307
# Velocity P-wave (km/s) = 7.28308 7.64311 7.46527
#
# Compressibility (1/GPa) = 0.01488787
#
# Stress axis : x y z
#
# Youngs Moduli (GPa) = 77.04421 42.12113 46.18191
#
# Poissons Ratio (x) = 0.39566 0.00823
# Poissons Ratio (y) = 0.72371 0.56211
# Poissons Ratio (z) = 0.01373 0.51268
#
# Static dielectric constant tensor:
#      x y z
#    x 1.647220 0.000000 0.000000 
#    y 0.000000 1.673700 0.000000 
#    z 0.000000 0.000000 1.759330 
# 
# From -- ./inp_files/20975.got.cif
#   From: 2010.05.17/outbox.cif.g08.bks.cpg/sg62_11_cif.got.tgz:20975.got - 2010.06.03 15:25:27.
