data_PCOD9462015
_publ_section_title
;
Structure prediction by ZEFSAII (Michael W. Deem and Ramdas Pophale) SiO2 
 PCOD9462015
Probable space group: P N M A
;
_chemical_formula_sum "Si O2"
_cell_formula_units_Z 40
_cell_length_a 15.980228
_cell_length_b 8.667415
_cell_length_c 15.801003
_cell_angle_alpha 90.000000
_cell_angle_beta 90.000000
_cell_angle_gamma 90.000000
_cell_volume 2188.553755
_symmetry_space_group_name_H-M "P N M A"
_symmetry_group_IT_number 62
_symmetry_cell_setting 'orthorhombic'
loop_
_space_group_symop_operation_xyz
x,y,z
1/2-x,-y,1/2+z
1/2+x,1/2-y,1/2-z
-x,1/2+y,-z
-x,-y,-z
1/2+x,y,1/2-z
1/2-x,1/2+y,1/2+z
x,1/2-y,z
loop_
_atom_site_type_symbol
_atom_site_label
_atom_site_fract_x
_atom_site_fract_y
_atom_site_fract_z
Si Si1 0.459731 0.433615 0.369619
Si Si2 0.125012 0.565681 0.049205
Si Si3 0.939557 0.933474 0.310639
Si Si4 0.565919 0.434578 0.068950
Si Si5 0.308598 0.065913 0.053649
O O1 0.462024 0.250000 0.355820
O O2 0.403015 0.464716 0.452147
O O3 0.551947 0.494956 0.393111
O O4 0.427646 0.516984 0.285803
O O5 0.128546 0.750000 0.061209
O O6 0.214489 0.490828 0.065952
O O7 0.939831 0.750000 0.320688
O O8 0.867549 0.003902 0.370646
O O9 0.028374 0.001063 0.343982
O O10 0.564931 0.250000 0.068843
O O11 0.500000 0.500000 0.000000
O O12 0.653663 0.496545 0.033741
O O13 0.314088 0.250000 0.050940
#
# Coordination Sequence:
#
# PCOD9462015 Si02
#       5
#     8   8   8   8   8
#     4  10  21  39  61  84 113 150 190 232 283 339
#     4  10  21  39  61  84 113 150 191 232 282 339
#     4  11  21  36  58  85 117 150 190 235 284 337
#     4  10  18  32  54  80 112 148 185 225 281 337
#     4  11  21  36  58  85 117 150 190 235 286 337
#
# _framework density 18.276910000000001
#
# number of rings (size 3 to 8) (size 9 to 14) (size 15 to 20)
#    0.000    1.600    0.000    9.000    0.000    2.400 
#    3.600    0.000    0.000    0.000    0.000    0.000 
#    0.000    0.000    0.000    0.000    0.000    0.000 
#
# Total GULP energy -223395.573327 kJ/mol
# GULP energy per Si atom -5584.889333 kJ/mol
# Density = 1.823531 g / cm^3
# Si number density = 18.276910 Si / 1000 Ang^3
#
#
#
# Elastic Constant Matrix: (Units=GPa)
#
#
# Indices 1 2 3 4 5 6 
#
# 1 110.4188 52.3058 32.7552 0.0000 0.0000 0.0000
# 2 52.3058 150.4760 41.5823 0.0000 0.0000 0.0000
# 3 32.7552 41.5823 64.0148 0.0000 0.0000 0.0000
# 4 0.0000 0.0000 0.0000 31.9818 0.0000 0.0000
# 5 0.0000 0.0000 0.0000 0.0000 10.6857 0.0000
# 6 0.0000 0.0000 0.0000 0.0000 0.0000 30.7609
#
#
#
# Elastic Compliance Matrix: (Units=1/GPa)
#
#
# Indices 1 2 3 4 5 6 
#
# 1 0.011647 -0.002927 -0.004058 0.000000 0.000000 0.000000
# 2 -0.002927 0.008835 -0.004241 0.000000 0.000000 0.000000
# 3 -0.004058 -0.004241 0.020453 0.000000 0.000000 0.000000
# 4 0.000000 0.000000 0.000000 0.031268 0.000000 0.000000
# 5 0.000000 0.000000 0.000000 0.000000 0.093583 0.000000
# 6 0.000000 0.000000 0.000000 0.000000 0.000000 0.032509
#
#
# Mechanical properties :
#
#
# Convention : Reuss Voigt Hill
#
# Bulk Modulus (GPa) = 54.10727 64.24402 59.17564
# Shear Modulus (GPa) = 22.03535 27.90342 24.96938
#
# Velocity S-wave (km/s) = 3.47600 3.91154 3.70018
# Velocity P-wave (km/s) = 6.76598 7.45835 7.12058
#
# Compressibility (1/GPa) = 0.01848180
#
# Stress axis : x y z
#
# Youngs Moduli (GPa) = 85.86045 113.18548 48.89286
#
# Poissons Ratio (x) = 0.33130 0.19841
# Poissons Ratio (y) = 0.25132 0.20737
# Poissons Ratio (z) = 0.34843 0.48005
#
# Static dielectric constant tensor:
#      x y z
#    x 1.633240 0.000000 0.000000 
#    y 0.000000 1.605540 0.000000 
#    z 0.000000 0.000000 1.652780 
# 
# From -- ./inp_files/18633.got.cif
#   From: 2010.05.17/outbox.cif.g08.bks.cpg/sg62_10_cif.got.tgz:18633.got - 2010.06.03 15:25:27.
