data_PCOD9462590
_publ_section_title
;
Structure prediction by ZEFSAII (Michael W. Deem and Ramdas Pophale) SiO2 
 PCOD9462590
Probable space group: P N M A
;
_chemical_formula_sum "Si O2"
_cell_formula_units_Z 32
_cell_length_a 5.317898
_cell_length_b 10.024501
_cell_length_c 29.082750
_cell_angle_alpha 90.000000
_cell_angle_beta 90.000000
_cell_angle_gamma 90.000000
_cell_volume 1550.380283
_symmetry_space_group_name_H-M "P N M A"
_symmetry_group_IT_number 62
_symmetry_cell_setting 'orthorhombic'
loop_
_space_group_symop_operation_xyz
x,y,z
1/2-x,-y,1/2+z
1/2+x,1/2-y,1/2-z
-x,1/2+y,-z
-x,-y,-z
1/2+x,y,1/2-z
1/2-x,1/2+y,1/2+z
x,1/2-y,z
loop_
_atom_site_type_symbol
_atom_site_label
_atom_site_fract_x
_atom_site_fract_y
_atom_site_fract_z
Si Si1 0.359022 0.599309 0.465136
Si Si2 0.620286 0.408152 0.279439
Si Si3 0.454316 0.892321 0.922347
Si Si4 0.462545 0.523270 0.621282
O O1 0.500000 0.500000 0.500000
O O2 0.339750 0.750000 0.481806
O O3 0.100049 0.522386 0.453008
O O4 0.499220 0.595437 0.415503
O O5 0.384474 0.431492 0.245831
O O6 0.612950 0.250000 0.292710
O O7 0.588988 0.495435 0.325318
O O8 0.422323 0.750000 0.946782
O O9 0.723475 0.899552 0.899054
O O10 0.228538 0.901330 0.885135
#
# Coordination Sequence:
#
# PCOD9462590 Si02
#       4
#     8   8   8   8
#     4  10  24  42  65  94 126 165 211 257 309 374
#     4  10  19  31  54  88 123 157 201 253 307 361
#     4  10  20  36  62  89 122 164 203 247 305 363
#     4  10  22  37  61  89 129 160 206 252 314 364
#
# _framework density 20.640097000000001
#
# number of rings (size 3 to 8) (size 9 to 14) (size 15 to 20)
#    1.500    0.500    0.000    4.500    0.000    4.000 
#    0.000    0.000    0.000    1.500    0.000    0.000 
#    0.000    0.000    0.000    0.000    0.000    0.000 
#
# Total GULP energy -178169.774198 kJ/mol
# GULP energy per Si atom -5567.805444 kJ/mol
# Density = 2.059312 g / cm^3
# Si number density = 20.640097 Si / 1000 Ang^3
#
#
#
# Elastic Constant Matrix: (Units=GPa)
#
#
# Indices 1 2 3 4 5 6 
#
# 1 91.9483 5.6007 -0.3150 0.0000 0.0000 0.0000
# 2 5.6007 109.2040 25.2631 0.0000 0.0000 0.0000
# 3 -0.3150 25.2631 94.4102 0.0000 0.0000 0.0000
# 4 0.0000 0.0000 0.0000 12.3539 0.0000 0.0000
# 5 0.0000 0.0000 0.0000 0.0000 32.4958 0.0000
# 6 0.0000 0.0000 0.0000 0.0000 0.0000 -16.9260
#
#
#
# Elastic Compliance Matrix: (Units=1/GPa)
#
#
# Indices 1 2 3 4 5 6 
#
# 1 0.010913 -0.000606 0.000198 0.000000 0.000000 0.000000
# 2 -0.000606 0.009795 -0.002623 0.000000 0.000000 0.000000
# 3 0.000198 -0.002623 0.011295 0.000000 0.000000 0.000000
# 4 0.000000 0.000000 0.000000 0.080946 0.000000 0.000000
# 5 0.000000 0.000000 0.000000 0.000000 0.030773 0.000000
# 6 0.000000 0.000000 0.000000 0.000000 0.000000 -0.059081
#
#
# Mechanical properties :
#
#
# Convention : Reuss Voigt Hill
#
# Bulk Modulus (GPa) = 38.54679 39.62891 39.08785
# Shear Modulus (GPa) = 50.32722 23.25230 36.78976
#
# Velocity S-wave (km/s) = 4.94329 3.36007 4.22648
# Velocity P-wave (km/s) = 7.16225 5.85620 6.54190
#
# Compressibility (1/GPa) = 0.02594250
#
# Stress axis : x y z
#
# Youngs Moduli (GPa) = 91.63181 102.09235 88.53751
#
# Poissons Ratio (x) = 0.06183 -0.01757
# Poissons Ratio (y) = 0.05549 0.23224
# Poissons Ratio (z) = -0.01819 0.26780
#
# Static dielectric constant tensor:
#      x y z
#    x 1.748300 0.000000 0.000000 
#    y 0.000000 1.751800 0.000000 
#    z 0.000000 0.000000 1.772860 
# 
# From -- ./inp_files/31449.got.cif
#   From: 2010.05.17/outbox.cif.g08.bks.cpg/sg62_16_cif.got.tgz:31449.got - 2010.06.03 15:25:27.
