data_PCOD9462266
_publ_section_title
;
Structure prediction by ZEFSAII (Michael W. Deem and Ramdas Pophale) SiO2 
 PCOD9462266
Probable space group: P N M A
;
_chemical_formula_sum "Si O2"
_cell_formula_units_Z 40
_cell_length_a 12.696529
_cell_length_b 14.743451
_cell_length_c 9.432212
_cell_angle_alpha 90.000000
_cell_angle_beta 90.000000
_cell_angle_gamma 90.000000
_cell_volume 1765.621925
_symmetry_space_group_name_H-M "P N M A"
_symmetry_group_IT_number 62
_symmetry_cell_setting 'orthorhombic'
loop_
_space_group_symop_operation_xyz
x,y,z
1/2-x,-y,1/2+z
1/2+x,1/2-y,1/2-z
-x,1/2+y,-z
-x,-y,-z
1/2+x,y,1/2-z
1/2-x,1/2+y,1/2+z
x,1/2-y,z
loop_
_atom_site_type_symbol
_atom_site_label
_atom_site_fract_x
_atom_site_fract_y
_atom_site_fract_z
Si Si1 0.985183 0.592353 0.142731
Si Si2 0.929371 0.750000 0.326156
Si Si3 0.114356 0.750000 0.020221
Si Si4 0.248061 0.935848 0.468512
Si Si5 0.334484 0.750000 0.862155
Si Si6 0.145101 0.056577 0.246583
Si Si7 0.715702 0.750000 0.164761
O O1 0.043607 0.658378 0.027448
O O2 0.051073 0.503261 0.182012
O O3 0.984011 0.656054 0.283190
O O4 0.867839 0.567704 0.092752
O O5 0.891032 0.750000 0.485378
O O6 0.837801 0.750000 0.207953
O O7 0.166908 0.750000 0.177925
O O8 0.208811 0.750000 0.905129
O O9 0.260126 0.952805 0.633980
O O10 0.198013 0.839532 0.426688
O O11 0.182335 0.013306 0.393227
O O12 0.368905 0.837754 0.774128
#
# Coordination Sequence:
#
# PCOD9462266 Si02
#       7
#     8   4   4   8   4   8   4
#     4  10  21  41  71  95 126 174 224 263 329 399
#     4   8  20  38  63  96 120 167 211 269 317 387
#     4  10  18  41  70  97 124 173 213 266 326 398
#     4  11  24  42  67  98 129 174 219 274 326 395
#     4  11  25  41  62  95 139 169 215 274 330 374
#     4  12  25  42  66  95 136 171 222 271 329 388
#     4   9  17  38  65  88 129 159 215 255 329 375
#
# _framework density 22.654907000000001
#
# number of rings (size 3 to 8) (size 9 to 14) (size 15 to 20)
#    0.000    1.600    2.000    3.000    5.600    0.800 
#    0.000    1.000    0.000    0.000    0.000    0.000 
#    0.000    0.000    0.000    0.000    0.000    0.000 
#
# Total GULP energy -223451.233693 kJ/mol
# GULP energy per Si atom -5586.280842 kJ/mol
# Density = 2.260334 g / cm^3
# Si number density = 22.654907 Si / 1000 Ang^3
#
#
#
# Elastic Constant Matrix: (Units=GPa)
#
#
# Indices 1 2 3 4 5 6 
#
# 1 54.2880 19.4478 -25.4746 0.0000 0.0000 0.0000
# 2 19.4478 155.9722 2.2124 0.0000 0.0000 0.0000
# 3 -25.4746 2.2124 44.0056 0.0000 0.0000 0.0000
# 4 0.0000 0.0000 0.0000 29.4340 0.0000 0.0000
# 5 0.0000 0.0000 0.0000 0.0000 21.7649 0.0000
# 6 0.0000 0.0000 0.0000 0.0000 0.0000 -35.1523
#
#
#
# Elastic Compliance Matrix: (Units=1/GPa)
#
#
# Indices 1 2 3 4 5 6 
#
# 1 0.027186 -0.003616 0.015919 0.000000 0.000000 0.000000
# 2 -0.003616 0.006897 -0.002440 0.000000 0.000000 0.000000
# 3 0.015919 -0.002440 0.032063 0.000000 0.000000 0.000000
# 4 0.000000 0.000000 0.000000 0.033974 0.000000 0.000000
# 5 0.000000 0.000000 0.000000 0.000000 0.045946 0.000000
# 6 0.000000 0.000000 0.000000 0.000000 0.000000 -0.028448
#
#
# Mechanical properties :
#
#
# Convention : Reuss Voigt Hill
#
# Bulk Modulus (GPa) = 11.64506 27.40412 19.52459
# Shear Modulus (GPa) = 39.52142 20.41466 29.96804
#
# Velocity S-wave (km/s) = 4.18125 3.00511 3.64099
# Velocity P-wave (km/s) = 5.33496 4.91564 5.12959
#
# Compressibility (1/GPa) = 0.08587334
#
# Stress axis : x y z
#
# Youngs Moduli (GPa) = 36.78410 144.99442 31.18894
#
# Poissons Ratio (x) = 0.52423 -0.49651
# Poissons Ratio (y) = 0.13299 0.07609
# Poissons Ratio (z) = -0.58558 0.35375
#
# Static dielectric constant tensor:
#      x y z
#    x 1.910880 0.000000 0.000000 
#    y 0.000000 1.877180 0.000000 
#    z 0.000000 0.000000 1.805090 
# 
# From -- ./inp_files/6164.got.cif
#   From: 2010.05.17/outbox.cif.g08.bks.cpg/sg62_4_cif.got.tgz:6164.got - 2010.06.03 15:25:27.
