data_PCOD9462402
_publ_section_title
;
Structure prediction by ZEFSAII (Michael W. Deem and Ramdas Pophale) SiO2 
 PCOD9462402
Probable space group: P N M A
;
_chemical_formula_sum "Si O2"
_cell_formula_units_Z 64
_cell_length_a 21.935173
_cell_length_b 7.631888
_cell_length_c 17.892060
_cell_angle_alpha 90.000000
_cell_angle_beta 90.000000
_cell_angle_gamma 90.000000
_cell_volume 2995.252217
_symmetry_space_group_name_H-M "P N M A"
_symmetry_group_IT_number 62
_symmetry_cell_setting 'orthorhombic'
loop_
_space_group_symop_operation_xyz
x,y,z
1/2-x,-y,1/2+z
1/2+x,1/2-y,1/2-z
-x,1/2+y,-z
-x,-y,-z
1/2+x,y,1/2-z
1/2-x,1/2+y,1/2+z
x,1/2-y,z
loop_
_atom_site_type_symbol
_atom_site_label
_atom_site_fract_x
_atom_site_fract_y
_atom_site_fract_z
Si Si1 0.374293 0.458555 0.533819
Si Si2 0.449194 0.957806 0.088906
Si Si3 0.850863 0.037525 0.290418
Si Si4 0.913123 0.950481 0.568364
Si Si5 0.113885 0.952483 0.868675
Si Si6 0.120519 0.462074 0.274698
Si Si7 0.720707 0.038682 0.344066
Si Si8 0.475339 0.458216 0.651143
O O1 0.384723 0.250000 0.528230
O O2 0.373946 0.531981 0.450197
O O3 0.312243 0.486257 0.579451
O O4 0.429487 0.525800 0.586270
O O5 0.460064 0.750000 0.078320
O O6 0.409603 0.984786 0.162143
O O7 0.515156 0.045918 0.090027
O O8 0.412779 0.025575 0.015395
O O9 0.850304 0.250000 0.288192
O O10 0.855330 0.971174 0.205443
O O11 0.789208 0.977087 0.330810
O O12 0.891582 0.750000 0.561768
O O13 0.880105 0.030123 0.640483
O O14 0.134277 0.750000 0.872576
O O15 0.041358 0.957740 0.854600
O O16 0.122247 0.250000 0.277987
O O17 0.176635 0.522265 0.223388
O O18 0.059562 0.510509 0.229051
O O19 0.721014 0.250000 0.341923
O O20 0.483451 0.250000 0.642204
#
# Coordination Sequence:
#
# PCOD9462402 Si02
#       8
#     8   8   8   8   8   8   8   8
#     4   9  19  35  53  76 104 134 168 208 254 300
#     4  10  20  33  51  77 105 135 167 207 259 307
#     4  10  21  37  53  72 101 137 173 211 253 299
#     4   9  18  33  52  77 104 131 168 211 254 304
#     4  10  20  34  52  76 103 135 172 206 247 302
#     4   9  17  32  53  74  98 132 172 211 248 297
#     4   9  19  36  55  72  96 132 172 210 252 298
#     4  10  19  30  49  79 111 136 162 204 257 305
#
# _framework density 21.367149000000001
#
# number of rings (size 3 to 8) (size 9 to 14) (size 15 to 20)
#    0.000    2.500    0.000    1.875    0.000    6.000 
#    2.250    0.000    0.000    0.000    0.000    0.000 
#    0.000    0.000    0.000    0.000    0.000    0.000 
#
# Total GULP energy -357212.998311 kJ/mol
# GULP energy per Si atom -5581.453099 kJ/mol
# Density = 2.131852 g / cm^3
# Si number density = 21.367149 Si / 1000 Ang^3
#
#
#
# Elastic Constant Matrix: (Units=GPa)
#
#
# Indices 1 2 3 4 5 6 
#
# 1 34.6081 -11.1971 -5.9681 0.0000 0.0000 0.0000
# 2 -11.1971 48.7723 -3.7864 0.0000 0.0000 0.0000
# 3 -5.9681 -3.7864 92.0203 0.0000 0.0000 0.0000
# 4 0.0000 0.0000 0.0000 15.7627 0.0000 0.0000
# 5 0.0000 0.0000 0.0000 0.0000 6.3319 0.0000
# 6 0.0000 0.0000 0.0000 0.0000 0.0000 7.9317
#
#
#
# Elastic Compliance Matrix: (Units=1/GPa)
#
#
# Indices 1 2 3 4 5 6 
#
# 1 0.031718 0.007465 0.002364 0.000000 0.000000 0.000000
# 2 0.007465 0.022326 0.001403 0.000000 0.000000 0.000000
# 3 0.002364 0.001403 0.011078 0.000000 0.000000 0.000000
# 4 0.000000 0.000000 0.000000 0.063441 0.000000 0.000000
# 5 0.000000 0.000000 0.000000 0.000000 0.157931 0.000000
# 6 0.000000 0.000000 0.000000 0.000000 0.000000 0.126076
#
#
# Mechanical properties :
#
#
# Convention : Reuss Voigt Hill
#
# Bulk Modulus (GPa) = 11.41715 14.83305 13.12510
# Shear Modulus (GPa) = 11.92459 19.09542 15.51001
#
# Velocity S-wave (km/s) = 2.36494 2.99269 2.69714
# Velocity P-wave (km/s) = 3.57941 4.34726 3.98189
#
# Compressibility (1/GPa) = 0.08758752
#
# Stress axis : x y z
#
# Youngs Moduli (GPa) = 31.52781 44.79032 90.26715
#
# Poissons Ratio (x) = -0.33438 -0.21342
# Poissons Ratio (y) = -0.23537 -0.12663
# Poissons Ratio (z) = -0.07454 -0.06283
#
# Static dielectric constant tensor:
#      x y z
#    x 1.723380 0.000000 0.000000 
#    y 0.000000 1.815780 0.000000 
#    z 0.000000 0.000000 1.801220 
# 
# From -- ./inp_files/24828.got.cif
#   From: 2010.05.17/outbox.cif.g08.bks.cpg/sg62_13_cif.got.tgz:24828.got - 2010.06.03 15:25:27.
