data_PCOD9462875
_publ_section_title
;
Structure prediction by ZEFSAII (Michael W. Deem and Ramdas Pophale) SiO2 
 PCOD9462875
Probable space group: P N M A
;
_chemical_formula_sum "Si O2"
_cell_formula_units_Z 48
_cell_length_a 12.926189
_cell_length_b 7.392713
_cell_length_c 22.229162
_cell_angle_alpha 90.000000
_cell_angle_beta 90.000000
_cell_angle_gamma 90.000000
_cell_volume 2124.209950
_symmetry_space_group_name_H-M "P N M A"
_symmetry_group_IT_number 62
_symmetry_cell_setting 'orthorhombic'
loop_
_space_group_symop_operation_xyz
x,y,z
1/2-x,-y,1/2+z
1/2+x,1/2-y,1/2-z
-x,1/2+y,-z
-x,-y,-z
1/2+x,y,1/2-z
1/2-x,1/2+y,1/2+z
x,1/2-y,z
loop_
_atom_site_type_symbol
_atom_site_label
_atom_site_fract_x
_atom_site_fract_y
_atom_site_fract_z
Si Si1 0.380511 0.535518 0.514780
Si Si2 0.858734 0.528578 0.328296
Si Si3 0.483766 0.033774 0.929179
Si Si4 0.246395 0.971014 0.400286
Si Si5 0.134148 0.954792 0.150359
Si Si6 0.085302 0.470615 0.804623
O O1 0.500000 0.500000 0.500000
O O2 0.365708 0.750000 0.521200
O O3 0.308626 0.473746 0.460173
O O4 0.356060 0.449498 0.578537
O O5 0.854786 0.750000 0.331013
O O6 0.740772 0.461904 0.327335
O O7 0.909940 0.479393 0.265058
O O8 0.924054 0.466950 0.386107
O O9 0.482059 0.250000 0.922317
O O10 0.371880 0.967598 0.906039
O O11 0.500000 0.000000 0.000000
O O12 0.245015 0.750000 0.399410
O O13 0.315059 0.029520 0.343284
O O14 0.131409 0.750000 0.174950
O O15 0.022711 0.034553 0.166653
O O16 0.086775 0.250000 0.808197
#
# Coordination Sequence:
#
# PCOD9462875 Si02
#       6
#     8   8   8   8   8   8
#     4  11  20  33  52  78 106 137 175 216 264 314
#     4   9  19  31  51  81 106 135 176 221 259 302
#     4  10  20  35  54  78 105 135 175 216 260 314
#     4   9  18  31  50  75 104 136 171 211 262 314
#     4  10  19  33  53  78 107 136 172 216 263 310
#     4   9  17  30  49  77 106 133 170 216 260 302
#
# _framework density 22.596637999999999
#
# number of rings (size 3 to 8) (size 9 to 14) (size 15 to 20)
#    0.000    2.333    1.667    1.500    2.333    0.000 
#    0.000    0.833    0.000    2.000    0.000    0.000 
#    0.000    0.000    0.000    0.000    0.000    0.000 
#
# Total GULP energy -268167.726213 kJ/mol
# GULP energy per Si atom -5586.827629 kJ/mol
# Density = 2.254521 g / cm^3
# Si number density = 22.596638 Si / 1000 Ang^3
#
#
#
# Elastic Constant Matrix: (Units=GPa)
#
#
# Indices 1 2 3 4 5 6 
#
# 1 161.0350 6.1215 61.7652 0.0000 0.0000 0.0000
# 2 6.1215 80.3114 -3.9122 0.0000 0.0000 0.0000
# 3 61.7652 -3.9122 134.2380 0.0000 0.0000 0.0000
# 4 0.0000 0.0000 0.0000 10.5890 0.0000 0.0000
# 5 0.0000 0.0000 0.0000 0.0000 17.7823 0.0000
# 6 0.0000 0.0000 0.0000 0.0000 0.0000 -1.2198
#
#
#
# Elastic Compliance Matrix: (Units=1/GPa)
#
#
# Indices 1 2 3 4 5 6 
#
# 1 0.007585 -0.000749 -0.003512 0.000000 0.000000 0.000000
# 2 -0.000749 0.012543 0.000710 0.000000 0.000000 0.000000
# 3 -0.003512 0.000710 0.009086 0.000000 0.000000 0.000000
# 4 0.000000 0.000000 0.000000 0.094438 0.000000 0.000000
# 5 0.000000 0.000000 0.000000 0.000000 0.056236 0.000000
# 6 0.000000 0.000000 0.000000 0.000000 0.000000 -0.819802
#
#
# Mechanical properties :
#
#
# Convention : Reuss Voigt Hill
#
# Bulk Modulus (GPa) = 45.22267 55.94815 50.58541
# Shear Modulus (GPa) = -7.99436 26.20429 9.10497
#
# Velocity S-wave (km/s) = -1.88296 3.40906 2.00950
# Velocity P-wave (km/s) = 3.91524 6.34893 5.27437
#
# Compressibility (1/GPa) = 0.02211280
#
# Stress axis : x y z
#
# Youngs Moduli (GPa) = 131.83335 79.72425 110.05850
#
# Poissons Ratio (x) = 0.05973 0.38652
# Poissons Ratio (y) = 0.09878 -0.07817
# Poissons Ratio (z) = 0.46300 -0.05663
#
# Static dielectric constant tensor:
#      x y z
#    x 1.842920 0.000000 0.000000 
#    y 0.000000 1.919160 0.000000 
#    z 0.000000 0.000000 1.781520 
# 
# From -- ./inp_files/26536.got.cif
#   From: 2010.05.17/outbox.cif.g08.bks.cpg/sg62_14_cif.got.tgz:26536.got - 2010.06.03 15:25:27.
