data_PCOD9462679
_publ_section_title
;
Structure prediction by ZEFSAII (Michael W. Deem and Ramdas Pophale) SiO2 
 PCOD9462679
Probable space group: P N M A
;
_chemical_formula_sum "Si O2"
_cell_formula_units_Z 48
_cell_length_a 8.451549
_cell_length_b 16.406356
_cell_length_c 20.415227
_cell_angle_alpha 90.000000
_cell_angle_beta 90.000000
_cell_angle_gamma 90.000000
_cell_volume 2830.757444
_symmetry_space_group_name_H-M "P N M A"
_symmetry_group_IT_number 62
_symmetry_cell_setting 'orthorhombic'
loop_
_space_group_symop_operation_xyz
x,y,z
1/2-x,-y,1/2+z
1/2+x,1/2-y,1/2-z
-x,1/2+y,-z
-x,-y,-z
1/2+x,y,1/2-z
1/2-x,1/2+y,1/2+z
x,1/2-y,z
loop_
_atom_site_type_symbol
_atom_site_label
_atom_site_fract_x
_atom_site_fract_y
_atom_site_fract_z
Si Si1 0.864561 0.659850 0.153093
Si Si2 0.990628 0.995591 0.077629
Si Si3 0.224551 0.005288 0.674211
Si Si4 0.608104 0.658061 0.649516
Si Si5 0.935690 0.399594 0.725076
Si Si6 0.227220 0.159823 0.222299
O O1 0.886789 0.750000 0.124364
O O2 0.689276 0.649885 0.182593
O O3 0.900284 0.584358 0.104984
O O4 0.980413 0.649421 0.216015
O O5 0.164865 0.988867 0.110799
O O6 0.910996 0.079482 0.103764
O O7 0.000000 0.000000 0.000000
O O8 0.336420 0.031196 0.735860
O O9 0.072430 0.061978 0.680352
O O10 0.180439 0.911981 0.686336
O O11 0.612736 0.750000 0.620052
O O12 0.752590 0.649152 0.700044
O O13 0.451298 0.655485 0.695643
O O14 0.288920 0.250000 0.206921
#
# Coordination Sequence:
#
# PCOD9462679 Si02
#       6
#     8   8   8   8   8   8
#     4  10  19  32  52  76 100 126 159 206 256 303
#     4  10  21  34  47  68  98 138 176 198 229 283
#     4   9  16  29  48  71  99 127 157 200 248 297
#     4   9  17  29  48  71  95 119 149 194 243 289
#     4   9  17  30  51  76  97 120 154 203 263 307
#     4   9  15  24  42  70  94 114 144 187 242 289
#
# _framework density 16.956593000000002
#
# number of rings (size 3 to 8) (size 9 to 14) (size 15 to 20)
#    0.000    2.667    0.000    4.500    0.000    0.667 
#    0.000    1.667    0.000    0.000    0.000    7.000 
#    0.000    0.000    0.000    0.000    0.000    0.000 
#
# Total GULP energy -267303.519842 kJ/mol
# GULP energy per Si atom -5568.823330 kJ/mol
# Density = 1.691800 g / cm^3
# Si number density = 16.956593 Si / 1000 Ang^3
#
#
#
# Elastic Constant Matrix: (Units=GPa)
#
#
# Indices 1 2 3 4 5 6 
#
# 1 47.7446 33.0899 19.9172 0.0000 0.0000 0.0000
# 2 33.0899 145.5529 57.6748 0.0000 0.0000 0.0000
# 3 19.9172 57.6748 86.4493 0.0000 0.0000 0.0000
# 4 0.0000 0.0000 0.0000 10.1882 0.0000 0.0000
# 5 0.0000 0.0000 0.0000 0.0000 11.9443 0.0000
# 6 0.0000 0.0000 0.0000 0.0000 0.0000 11.6849
#
#
#
# Elastic Compliance Matrix: (Units=1/GPa)
#
#
# Indices 1 2 3 4 5 6 
#
# 1 0.025320 -0.004683 -0.002710 0.000000 0.000000 0.000000
# 2 -0.004683 0.010205 -0.005730 0.000000 0.000000 0.000000
# 3 -0.002710 -0.005730 0.016014 0.000000 0.000000 0.000000
# 4 0.000000 0.000000 0.000000 0.098153 0.000000 0.000000
# 5 0.000000 0.000000 0.000000 0.000000 0.083722 0.000000
# 6 0.000000 0.000000 0.000000 0.000000 0.000000 0.085580
#
#
# Mechanical properties :
#
#
# Convention : Reuss Voigt Hill
#
# Bulk Modulus (GPa) = 39.53148 55.67893 47.60520
# Shear Modulus (GPa) = 14.13743 18.03447 16.08595
#
# Velocity S-wave (km/s) = 2.89059 3.26478 3.08336
# Velocity P-wave (km/s) = 5.87407 6.86434 6.38842
#
# Compressibility (1/GPa) = 0.02529629
#
# Stress axis : x y z
#
# Youngs Moduli (GPa) = 39.49370 97.98885 62.44440
#
# Poissons Ratio (x) = 0.45885 0.16920
# Poissons Ratio (y) = 0.18494 0.35778
# Poissons Ratio (z) = 0.10701 0.56144
#
# Static dielectric constant tensor:
#      x y z
#    x 1.597110 0.000000 0.000000 
#    y 0.000000 1.646070 0.000000 
#    z 0.000000 0.000000 1.530570 
# 
# From -- ./inp_files/22337.got.cif
#   From: 2010.05.17/outbox.cif.g08.bks.cpg/sg62_12_cif.got.tgz:22337.got - 2010.06.03 15:25:27.
