data_PCOD9462134
_publ_section_title
;
Structure prediction by ZEFSAII (Michael W. Deem and Ramdas Pophale) SiO2 
 PCOD9462134
Probable space group: P N M A
;
_chemical_formula_sum "Si O2"
_cell_formula_units_Z 56
_cell_length_a 19.608133
_cell_length_b 7.585619
_cell_length_c 17.565152
_cell_angle_alpha 90.000000
_cell_angle_beta 90.000000
_cell_angle_gamma 90.000000
_cell_volume 2612.637656
_symmetry_space_group_name_H-M "P N M A"
_symmetry_group_IT_number 62
_symmetry_cell_setting 'orthorhombic'
loop_
_space_group_symop_operation_xyz
x,y,z
1/2-x,-y,1/2+z
1/2+x,1/2-y,1/2-z
-x,1/2+y,-z
-x,-y,-z
1/2+x,y,1/2-z
1/2-x,1/2+y,1/2+z
x,1/2-y,z
loop_
_atom_site_type_symbol
_atom_site_label
_atom_site_fract_x
_atom_site_fract_y
_atom_site_fract_z
Si Si1 0.651893 0.962519 0.033164
Si Si2 0.297236 0.965968 0.410983
Si Si3 0.903368 0.958789 0.367307
Si Si4 0.279145 0.966093 0.235515
Si Si5 0.945700 0.033836 0.670616
Si Si6 0.368722 0.038296 0.679855
Si Si7 0.920827 0.956685 0.988829
O O1 0.652529 0.750000 0.034741
O O2 0.730064 0.021776 0.042193
O O3 0.607337 0.021737 0.105363
O O4 0.617346 0.016979 0.954697
O O5 0.297596 0.750000 0.410681
O O6 0.287531 0.019175 0.323321
O O7 0.366374 0.032405 0.450588
O O8 0.906706 0.750000 0.352228
O O9 0.842930 0.028806 0.314224
O O10 0.978400 0.028887 0.348692
O O11 0.278344 0.750000 0.234476
O O12 0.207585 0.025151 0.199167
O O13 0.945865 0.250000 0.669789
O O14 0.919048 0.976944 0.753104
O O15 0.366642 0.250000 0.684941
O O16 0.395167 0.995308 0.596231
O O17 0.916575 0.750000 0.000012
O O18 0.000000 0.000000 0.000000
#
# Coordination Sequence:
#
# PCOD9462134 Si02
#       7
#     8   8   8   8   8   8   8
#     4  10  18  34  56  78 107 141 179 219 267 329
#     4   9  18  34  57  81 105 142 190 228 265 328
#     4  10  20  31  50  80 109 136 175 223 269 320
#     4   9  17  32  56  82 106 140 188 228 262 319
#     4   9  18  32  54  81 106 141 183 219 263 330
#     4  10  19  36  60  82 107 143 188 232 275 325
#     4  11  24  39  58  84 115 150 190 235 283 334
#
# _framework density 21.434277999999999
#
# number of rings (size 3 to 8) (size 9 to 14) (size 15 to 20)
#    0.000    2.286    1.429    1.714    2.000    0.000 
#    0.000    2.143    0.000    2.571    0.000    0.000 
#    0.000    0.000    0.000    0.000    0.000    0.000 
#
# Total GULP energy -312861.121407 kJ/mol
# GULP energy per Si atom -5586.805739 kJ/mol
# Density = 2.138549 g / cm^3
# Si number density = 21.434278 Si / 1000 Ang^3
#
#
#
# Elastic Constant Matrix: (Units=GPa)
#
#
# Indices 1 2 3 4 5 6 
#
# 1 217.2957 11.1124 109.8579 0.0000 0.0000 0.0000
# 2 11.1124 43.6440 -4.1055 0.0000 0.0000 0.0000
# 3 109.8579 -4.1055 91.1999 0.0000 0.0000 0.0000
# 4 0.0000 0.0000 0.0000 19.9035 0.0000 0.0000
# 5 0.0000 0.0000 0.0000 0.0000 -2.6994 0.0000
# 6 0.0000 0.0000 0.0000 0.0000 0.0000 -128.0151
#
#
#
# Elastic Compliance Matrix: (Units=1/GPa)
#
#
# Indices 1 2 3 4 5 6 
#
# 1 0.012654 -0.004675 -0.015453 0.000000 0.000000 0.000000
# 2 -0.004675 0.024738 0.006746 0.000000 0.000000 0.000000
# 3 -0.015453 0.006746 0.029883 0.000000 0.000000 0.000000
# 4 0.000000 0.000000 0.000000 0.050242 0.000000 0.000000
# 5 0.000000 0.000000 0.000000 0.000000 -0.370447 0.000000
# 6 0.000000 0.000000 0.000000 0.000000 0.000000 -0.007812
#
#
# Mechanical properties :
#
#
# Convention : Reuss Voigt Hill
#
# Bulk Modulus (GPa) = 24.68609 65.09658 44.89134
# Shear Modulus (GPa) = -22.67837 -6.47722 -14.57780
#
# Velocity S-wave (km/s) = -3.25628 -1.74025 -2.61073
# Velocity P-wave (km/s) = 1.61113 5.13793 3.44982
#
# Compressibility (1/GPa) = 0.04050865
#
# Stress axis : x y z
#
# Youngs Moduli (GPa) = 79.02925 40.42425 33.46418
#
# Poissons Ratio (x) = 0.18900 0.51711
# Poissons Ratio (y) = 0.36949 -0.22573
# Poissons Ratio (z) = 1.22122 -0.27268
#
# Static dielectric constant tensor:
#      x y z
#    x 1.749610 0.000000 0.000000 
#    y 0.000000 1.830350 0.000000 
#    z 0.000000 0.000000 1.718860 
# 
# From -- ./inp_files/20296.got.cif
#   From: 2010.05.17/outbox.cif.g08.bks.cpg/sg62_11_cif.got.tgz:20296.got - 2010.06.03 15:25:27.
