data_PCOD9462043
_publ_section_title
;
Structure prediction by ZEFSAII (Michael W. Deem and Ramdas Pophale) SiO2 
 PCOD9462043
Probable space group: P N M A
;
_chemical_formula_sum "Si O2"
_cell_formula_units_Z 48
_cell_length_a 11.808949
_cell_length_b 18.372834
_cell_length_c 12.389515
_cell_angle_alpha 90.000000
_cell_angle_beta 90.000000
_cell_angle_gamma 90.000000
_cell_volume 2688.076994
_symmetry_space_group_name_H-M "P N M A"
_symmetry_group_IT_number 62
_symmetry_cell_setting 'orthorhombic'
loop_
_space_group_symop_operation_xyz
x,y,z
1/2-x,-y,1/2+z
1/2+x,1/2-y,1/2-z
-x,1/2+y,-z
-x,-y,-z
1/2+x,y,1/2-z
1/2-x,1/2+y,1/2+z
x,1/2-y,z
loop_
_atom_site_type_symbol
_atom_site_label
_atom_site_fract_x
_atom_site_fract_y
_atom_site_fract_z
Si Si1 0.465327 0.553335 0.402752
Si Si2 0.304792 0.044597 0.269082
Si Si3 0.895426 0.094791 0.447312
Si Si4 0.344376 0.570644 0.972978
Si Si5 0.269671 0.667738 0.399005
Si Si6 0.298616 0.098072 0.677042
O O1 0.500000 0.500000 0.500000
O O2 0.413189 0.501676 0.309896
O O3 0.365403 0.609243 0.431628
O O4 0.572772 0.598982 0.362673
O O5 0.344900 0.096335 0.173182
O O6 0.241021 0.076955 0.372402
O O7 0.220557 0.984351 0.219570
O O8 0.836474 0.153193 0.523528
O O9 0.030806 0.099712 0.447774
O O10 0.861823 0.015127 0.497043
O O11 0.286836 0.607044 0.077203
O O12 0.310383 0.750000 0.407091
O O13 0.231624 0.649325 0.276852
#
# Coordination Sequence:
#
# PCOD9462043 Si02
#       6
#     8   8   8   8   8   8
#     4  11  19  36  61  91 120 152 203 262 305 353
#     4  10  18  32  57  91 116 143 194 256 308 342
#     4  10  20  34  56  82 119 154 192 243 301 359
#     4  10  18  34  56  88 114 144 195 255 300 345
#     4  11  25  40  56  85 124 167 202 244 315 382
#     4  10  20  33  54  84 120 152 196 242 299 363
#
# _framework density 17.856632000000001
#
# number of rings (size 3 to 8) (size 9 to 14) (size 15 to 20)
#    0.000    1.667    5.000    2.000    7.000    0.667 
#    0.000    0.000    0.000    5.000    0.000    0.000 
#    0.000    0.000    0.000    0.000    0.000    0.000 
#
# Total GULP energy -267839.001052 kJ/mol
# GULP energy per Si atom -5579.979189 kJ/mol
# Density = 1.781599 g / cm^3
# Si number density = 17.856632 Si / 1000 Ang^3
#
#
#
# Elastic Constant Matrix: (Units=GPa)
#
#
# Indices 1 2 3 4 5 6 
#
# 1 100.8631 20.9492 40.8295 0.0000 0.0000 0.0000
# 2 20.9492 45.6105 29.6755 0.0000 0.0000 0.0000
# 3 40.8295 29.6755 117.8498 0.0000 0.0000 0.0000
# 4 0.0000 0.0000 0.0000 9.2119 0.0000 0.0000
# 5 0.0000 0.0000 0.0000 0.0000 25.8697 0.0000
# 6 0.0000 0.0000 0.0000 0.0000 0.0000 9.1086
#
#
#
# Elastic Compliance Matrix: (Units=1/GPa)
#
#
# Indices 1 2 3 4 5 6 
#
# 1 0.011943 -0.003341 -0.003296 0.000000 0.000000 0.000000
# 2 -0.003341 0.027155 -0.005680 0.000000 0.000000 0.000000
# 3 -0.003296 -0.005680 0.011058 0.000000 0.000000 0.000000
# 4 0.000000 0.000000 0.000000 0.108555 0.000000 0.000000
# 5 0.000000 0.000000 0.000000 0.000000 0.038655 0.000000
# 6 0.000000 0.000000 0.000000 0.000000 0.000000 0.109787
#
#
# Mechanical properties :
#
#
# Convention : Reuss Voigt Hill
#
# Bulk Modulus (GPa) = 39.18415 49.69241 44.43828
# Shear Modulus (GPa) = 14.69316 20.36266 17.52791
#
# Velocity S-wave (km/s) = 2.87163 3.38056 3.13643
# Velocity P-wave (km/s) = 5.74338 6.56708 6.16899
#
# Compressibility (1/GPa) = 0.02552052
#
# Stress axis : x y z
#
# Youngs Moduli (GPa) = 83.73352 36.82563 90.43388
#
# Poissons Ratio (x) = 0.12302 0.29810
# Poissons Ratio (y) = 0.27972 0.51371
# Poissons Ratio (z) = 0.27602 0.20919
#
# Static dielectric constant tensor:
#      x y z
#    x 1.635530 0.000000 0.000000 
#    y 0.000000 1.580400 0.000000 
#    z 0.000000 0.000000 1.630650 
# 
# From -- ./inp_files/12233.got.cif
#   From: 2010.05.17/outbox.cif.g08.bks.cpg/sg62_7_cif.got.tgz:12233.got - 2010.06.03 15:25:27.
