data_PCOD9462240
_publ_section_title
;
Structure prediction by ZEFSAII (Michael W. Deem and Ramdas Pophale) SiO2 
 PCOD9462240
Probable space group: P N M A
;
_chemical_formula_sum "Si O2"
_cell_formula_units_Z 48
_cell_length_a 13.311046
_cell_length_b 18.467759
_cell_length_c 7.674023
_cell_angle_alpha 90.000000
_cell_angle_beta 90.000000
_cell_angle_gamma 90.000000
_cell_volume 1886.468159
_symmetry_space_group_name_H-M "P N M A"
_symmetry_group_IT_number 62
_symmetry_cell_setting 'orthorhombic'
loop_
_space_group_symop_operation_xyz
x,y,z
1/2-x,-y,1/2+z
1/2+x,1/2-y,1/2-z
-x,1/2+y,-z
-x,-y,-z
1/2+x,y,1/2-z
1/2-x,1/2+y,1/2+z
x,1/2-y,z
loop_
_atom_site_type_symbol
_atom_site_label
_atom_site_fract_x
_atom_site_fract_y
_atom_site_fract_z
Si Si1 0.986295 0.750000 0.102851
Si Si2 0.306624 0.014748 0.188930
Si Si3 0.040772 0.250000 0.529486
Si Si4 0.829081 0.096746 0.637357
Si Si5 0.654395 0.750000 0.786413
Si Si6 0.447942 0.902429 0.988294
Si Si7 0.434978 0.119292 0.367471
Si Si8 0.747896 0.250000 0.649199
O O1 0.010005 0.827167 0.007159
O O2 0.870708 0.750000 0.156205
O O3 0.028427 0.750000 0.298479
O O4 0.368959 0.045067 0.357024
O O5 0.211837 0.968339 0.246317
O O6 0.379135 0.963401 0.071595
O O7 0.283121 0.079550 0.054570
O O8 0.958105 0.250000 0.374377
O O9 0.100475 0.176230 0.513174
O O10 0.789896 0.172623 0.711633
O O11 0.947966 0.097519 0.599859
O O12 0.652255 0.677331 0.679572
O O13 0.729078 0.750000 0.943052
O O14 0.485639 0.901434 0.787521
#
# Coordination Sequence:
#
# PCOD9462240 Si02
#       8
#     4   8   4   8   4   8   8   4
#     4  11  24  32  66  95 116 147 212 263 303 349
#     4  11  23  39  61  91 123 158 208 256 310 373
#     4  10  18  38  60  86 114 156 198 249 294 359
#     4  11  23  40  64  90 124 164 207 256 306 367
#     4   9  16  38  66  67 116 166 195 218 304 373
#     4  10  20  41  66  80 121 174 204 232 317 393
#     4   9  19  40  58  85 115 158 195 249 307 362
#     4  12  20  40  60  90 120 165 201 248 301 371
#
# _framework density 25.444372000000001
#
# number of rings (size 3 to 8) (size 9 to 14) (size 15 to 20)
#    0.000    1.667    5.000    3.500    0.000    4.000 
#    0.000    2.500    0.000    1.000    0.000    0.000 
#    0.000    0.000    0.000    0.000    0.000    0.000 
#
# Total GULP energy -267512.065061 kJ/mol
# GULP energy per Si atom -5573.168022 kJ/mol
# Density = 2.538646 g / cm^3
# Si number density = 25.444372 Si / 1000 Ang^3
#
#
#
# Elastic Constant Matrix: (Units=GPa)
#
#
# Indices 1 2 3 4 5 6 
#
# 1 26.5521 5.1410 4.7687 0.0000 0.0000 0.0000
# 2 5.1410 133.7897 3.9433 0.0000 0.0000 0.0000
# 3 4.7687 3.9433 56.9869 0.0000 0.0000 0.0000
# 4 0.0000 0.0000 0.0000 38.5359 0.0000 0.0000
# 5 0.0000 0.0000 0.0000 0.0000 20.6355 0.0000
# 6 0.0000 0.0000 0.0000 0.0000 0.0000 16.3716
#
#
#
# Elastic Compliance Matrix: (Units=1/GPa)
#
#
# Indices 1 2 3 4 5 6 
#
# 1 0.038492 -0.001387 -0.003125 0.000000 0.000000 0.000000
# 2 -0.001387 0.007540 -0.000406 0.000000 0.000000 0.000000
# 3 -0.003125 -0.000406 0.017837 0.000000 0.000000 0.000000
# 4 0.000000 0.000000 0.000000 0.025950 0.000000 0.000000
# 5 0.000000 0.000000 0.000000 0.000000 0.048460 0.000000
# 6 0.000000 0.000000 0.000000 0.000000 0.000000 0.061081
#
#
# Mechanical properties :
#
#
# Convention : Reuss Voigt Hill
#
# Bulk Modulus (GPa) = 18.50706 27.22607 22.86656
# Shear Modulus (GPa) = 22.00644 28.67367 25.34005
#
# Velocity S-wave (km/s) = 2.94408 3.36060 3.15921
# Velocity P-wave (km/s) = 4.34122 5.07756 4.72376
#
# Compressibility (1/GPa) = 0.05403344
#
# Stress axis : x y z
#
# Youngs Moduli (GPa) = 25.97974 132.63181 56.06177
#
# Poissons Ratio (x) = 0.18396 0.17519
# Poissons Ratio (y) = 0.03603 0.02274
# Poissons Ratio (z) = 0.08119 0.05380
#
# Static dielectric constant tensor:
#      x y z
#    x 1.994650 0.000000 0.000000 
#    y 0.000000 2.089620 0.000000 
#    z 0.000000 0.000000 2.204470 
# 
# From -- ./inp_files/6653.got.cif
#   From: 2010.05.17/outbox.cif.g08.bks.cpg/sg62_4_cif.got.tgz:6653.got - 2010.06.03 15:25:27.
