data_PCOD9462737
_publ_section_title
;
Structure prediction by ZEFSAII (Michael W. Deem and Ramdas Pophale) SiO2 
 PCOD9462737
Probable space group: P N M A
;
_chemical_formula_sum "Si O2"
_cell_formula_units_Z 64
_cell_length_a 20.169516
_cell_length_b 8.480091
_cell_length_c 21.243684
_cell_angle_alpha 90.000000
_cell_angle_beta 90.000000
_cell_angle_gamma 90.000000
_cell_volume 3633.505502
_symmetry_space_group_name_H-M "P N M A"
_symmetry_group_IT_number 62
_symmetry_cell_setting 'orthorhombic'
loop_
_space_group_symop_operation_xyz
x,y,z
1/2-x,-y,1/2+z
1/2+x,1/2-y,1/2-z
-x,1/2+y,-z
-x,-y,-z
1/2+x,y,1/2-z
1/2-x,1/2+y,1/2+z
x,1/2-y,z
loop_
_atom_site_type_symbol
_atom_site_label
_atom_site_fract_x
_atom_site_fract_y
_atom_site_fract_z
Si Si1 0.782327 0.938081 0.563251
Si Si2 0.207583 0.940193 0.570319
Si Si3 0.420759 0.558772 0.881135
Si Si4 0.932892 0.060437 0.385534
Si Si5 0.420647 0.061246 0.737862
Si Si6 0.294181 0.561587 0.316372
Si Si7 0.430768 0.559727 0.256901
Si Si8 0.214670 0.438470 0.195448
O O1 0.783653 0.750000 0.561005
O O2 0.857160 0.995162 0.579748
O O3 0.763049 0.002840 0.495286
O O4 0.735406 0.990241 0.620175
O O5 0.206854 0.750000 0.570611
O O6 0.131425 0.998477 0.577335
O O7 0.248323 0.991499 0.631950
O O8 0.420505 0.750000 0.879521
O O9 0.493412 0.504917 0.904717
O O10 0.413067 0.498089 0.809766
O O11 0.933043 0.250000 0.389757
O O12 0.923490 0.014015 0.312449
O O13 0.414147 0.250000 0.736988
O O14 0.495828 0.018528 0.718664
O O15 0.362121 0.986425 0.697463
O O16 0.292541 0.750000 0.321688
O O17 0.369343 0.511220 0.300173
O O18 0.249716 0.511546 0.256711
O O19 0.428466 0.750000 0.249773
O O20 0.220600 0.250000 0.200114
#
# Coordination Sequence:
#
# PCOD9462737 Si02
#       8
#     8   8   8   8   8   8   8   8
#     4  11  23  36  52  77 110 144 183 225 265 319
#     4  10  22  37  53  75 107 145 184 223 268 318
#     4   9  18  32  50  74 107 143 180 218 258 309
#     4   9  17  32  52  74 104 145 182 215 258 311
#     4  10  19  32  53  81 109 139 175 219 269 319
#     4  11  21  35  57  81 108 141 178 223 270 317
#     4   9  19  33  52  81 110 136 174 221 268 317
#     4  11  21  35  55  81 109 140 181 225 267 316
#
# _framework density 17.613845000000001
#
# number of rings (size 3 to 8) (size 9 to 14) (size 15 to 20)
#    0.000    2.000    2.500    1.500    0.000    3.500 
#    0.000    0.000    0.000    0.750    0.000    0.000 
#    0.000    0.000    0.000    0.000    0.000    0.000 
#
# Total GULP energy -357148.914460 kJ/mol
# GULP energy per Si atom -5580.451788 kJ/mol
# Density = 1.757376 g / cm^3
# Si number density = 17.613845 Si / 1000 Ang^3
#
#
#
# Elastic Constant Matrix: (Units=GPa)
#
#
# Indices 1 2 3 4 5 6 
#
# 1 89.3899 5.8575 31.9942 0.0000 0.0000 0.0000
# 2 5.8575 7.3844 5.7030 0.0000 0.0000 0.0000
# 3 31.9942 5.7030 73.4256 0.0000 0.0000 0.0000
# 4 0.0000 0.0000 0.0000 22.3304 0.0000 0.0000
# 5 0.0000 0.0000 0.0000 0.0000 19.6571 0.0000
# 6 0.0000 0.0000 0.0000 0.0000 0.0000 21.1720
#
#
#
# Elastic Compliance Matrix: (Units=1/GPa)
#
#
# Indices 1 2 3 4 5 6 
#
# 1 0.013548 -0.006582 -0.005392 0.000000 0.000000 0.000000
# 2 -0.006582 0.147261 -0.008570 0.000000 0.000000 0.000000
# 3 -0.005392 -0.008570 0.016634 0.000000 0.000000 0.000000
# 4 0.000000 0.000000 0.000000 0.044782 0.000000 0.000000
# 5 0.000000 0.000000 0.000000 0.000000 0.050872 0.000000
# 6 0.000000 0.000000 0.000000 0.000000 0.000000 0.047232
#
#
# Mechanical properties :
#
#
# Convention : Reuss Voigt Hill
#
# Bulk Modulus (GPa) = 7.33380 28.58991 17.96185
# Shear Modulus (GPa) = 12.28894 21.07491 16.68193
#
# Velocity S-wave (km/s) = 2.64424 3.46279 3.08082
# Velocity P-wave (km/s) = 3.67360 5.67932 4.78278
#
# Compressibility (1/GPa) = 0.13635503
#
# Stress axis : x y z
#
# Youngs Moduli (GPa) = 73.81035 6.79067 60.11643
#
# Poissons Ratio (x) = 0.04470 0.32416
# Poissons Ratio (y) = 0.48586 0.51517
# Poissons Ratio (z) = 0.39800 0.05819
#
# Static dielectric constant tensor:
#      x y z
#    x 1.640400 0.000000 0.000000 
#    y 0.000000 1.597330 0.000000 
#    z 0.000000 0.000000 1.566720 
# 
# From -- ./inp_files/24683.got.cif
#   From: 2010.05.17/outbox.cif.g08.bks.cpg/sg62_13_cif.got.tgz:24683.got - 2010.06.03 15:25:27.
