data_PCOD9462678
_publ_section_title
;
Structure prediction by ZEFSAII (Michael W. Deem and Ramdas Pophale) SiO2 
 PCOD9462678
Probable space group: P N M A
;
_chemical_formula_sum "Si O2"
_cell_formula_units_Z 56
_cell_length_a 19.743396
_cell_length_b 7.543795
_cell_length_c 18.456737
_cell_angle_alpha 90.000000
_cell_angle_beta 90.000000
_cell_angle_gamma 90.000000
_cell_volume 2748.948846
_symmetry_space_group_name_H-M "P N M A"
_symmetry_group_IT_number 62
_symmetry_cell_setting 'orthorhombic'
loop_
_space_group_symop_operation_xyz
x,y,z
1/2-x,-y,1/2+z
1/2+x,1/2-y,1/2-z
-x,1/2+y,-z
-x,-y,-z
1/2+x,y,1/2-z
1/2-x,1/2+y,1/2+z
x,1/2-y,z
loop_
_atom_site_type_symbol
_atom_site_label
_atom_site_fract_x
_atom_site_fract_y
_atom_site_fract_z
Si Si1 0.188586 0.963567 0.070418
Si Si2 0.572100 0.962689 0.537244
Si Si3 0.123318 0.539314 0.215246
Si Si4 0.534267 0.535818 0.693246
Si Si5 0.896989 0.462355 0.625613
Si Si6 0.841562 0.462231 0.473832
Si Si7 0.445687 0.463206 0.146659
O O1 0.181670 0.750000 0.072761
O O2 0.170098 0.031401 0.150822
O O3 0.264190 0.004639 0.046321
O O4 0.132966 0.030483 0.012814
O O5 0.579194 0.750000 0.540992
O O6 0.569396 0.029572 0.619911
O O7 0.500000 0.000000 0.500000
O O8 0.135170 0.750000 0.219932
O O9 0.129350 0.466594 0.296909
O O10 0.045187 0.512550 0.191904
O O11 0.537834 0.750000 0.693363
O O12 0.562647 0.471809 0.770560
O O13 0.887614 0.250000 0.627284
O O14 0.861620 0.531926 0.553247
O O15 0.977529 0.495457 0.623193
O O16 0.851676 0.250000 0.476391
O O17 0.891804 0.531510 0.411377
O O18 0.439627 0.250000 0.149133
#
# Coordination Sequence:
#
# PCOD9462678 Si02
#       7
#     8   8   8   8   8   8   8
#     4  10  21  35  50  71 102 137 170 206 249 297
#     4  10  19  32  52  75  99 129 166 207 249 294
#     4   9  17  32  52  73  99 128 162 204 248 294
#     4   9  17  30  51  77 101 124 159 205 251 296
#     4   9  18  33  55  78 100 129 167 210 252 296
#     4  10  21  36  51  73 104 136 169 206 252 300
#     4   9  18  33  53  77 103 130 164 209 253 298
#
# _framework density 20.371423
#
# number of rings (size 3 to 8) (size 9 to 14) (size 15 to 20)
#    0.000    2.571    1.429    0.429    0.000    2.286 
#    2.571    0.000    0.000    0.000    0.000    0.000 
#    0.000    0.000    0.000    0.000    0.000    0.000 
#
# Total GULP energy -312483.364522 kJ/mol
# GULP energy per Si atom -5580.060081 kJ/mol
# Density = 2.032506 g / cm^3
# Si number density = 20.371423 Si / 1000 Ang^3
#
#
#
# Elastic Constant Matrix: (Units=GPa)
#
#
# Indices 1 2 3 4 5 6 
#
# 1 119.7794 -3.6711 133.9668 0.0000 0.0000 0.0000
# 2 -3.6711 47.9270 8.6996 0.0000 0.0000 0.0000
# 3 133.9668 8.6996 246.2794 0.0000 0.0000 0.0000
# 4 0.0000 0.0000 0.0000 12.0207 0.0000 0.0000
# 5 0.0000 0.0000 0.0000 0.0000 14.2177 0.0000
# 6 0.0000 0.0000 0.0000 0.0000 0.0000 24.5444
#
#
#
# Elastic Compliance Matrix: (Units=1/GPa)
#
#
# Indices 1 2 3 4 5 6 
#
# 1 0.022015 0.003885 -0.012113 0.000000 0.000000 0.000000
# 2 0.003885 0.021685 -0.002879 0.000000 0.000000 0.000000
# 3 -0.012113 -0.002879 0.010751 0.000000 0.000000 0.000000
# 4 0.000000 0.000000 0.000000 0.083190 0.000000 0.000000
# 5 0.000000 0.000000 0.000000 0.000000 0.070335 0.000000
# 6 0.000000 0.000000 0.000000 0.000000 0.000000 0.040742
#
#
# Mechanical properties :
#
#
# Convention : Reuss Voigt Hill
#
# Bulk Modulus (GPa) = 31.01987 76.88626 53.95306
# Shear Modulus (GPa) = 17.75076 28.48926 23.12001
#
# Velocity S-wave (km/s) = 2.95508 3.74370 3.37252
# Velocity P-wave (km/s) = 5.18686 7.51739 6.45812
#
# Compressibility (1/GPa) = 0.03223741
#
# Stress axis : x y z
#
# Youngs Moduli (GPa) = 45.42355 46.11424 93.01529
#
# Poissons Ratio (x) = -0.17915 1.12665
# Poissons Ratio (y) = -0.17647 0.26782
# Poissons Ratio (z) = 0.55020 0.13278
#
# Static dielectric constant tensor:
#      x y z
#    x 1.651520 0.000000 0.000000 
#    y 0.000000 1.746440 0.000000 
#    z 0.000000 0.000000 1.775710 
# 
# From -- ./inp_files/24574.got.cif
#   From: 2010.05.17/outbox.cif.g08.bks.cpg/sg62_13_cif.got.tgz:24574.got - 2010.06.03 15:25:27.
