data_PCOD9462008
_publ_section_title
;
Structure prediction by ZEFSAII (Michael W. Deem and Ramdas Pophale) SiO2 
 PCOD9462008
Probable space group: P N M A
;
_chemical_formula_sum "Si O2"
_cell_formula_units_Z 56
_cell_length_a 16.280843
_cell_length_b 8.826694
_cell_length_c 22.107913
_cell_angle_alpha 90.000000
_cell_angle_beta 90.000000
_cell_angle_gamma 90.000000
_cell_volume 3177.040171
_symmetry_space_group_name_H-M "P N M A"
_symmetry_group_IT_number 62
_symmetry_cell_setting 'orthorhombic'
loop_
_space_group_symop_operation_xyz
x,y,z
1/2-x,-y,1/2+z
1/2+x,1/2-y,1/2-z
-x,1/2+y,-z
-x,-y,-z
1/2+x,y,1/2-z
1/2-x,1/2+y,1/2+z
x,1/2-y,z
loop_
_atom_site_type_symbol
_atom_site_label
_atom_site_fract_x
_atom_site_fract_y
_atom_site_fract_z
Si Si1 0.053911 0.071548 0.947325
Si Si2 0.740238 0.930457 0.690371
Si Si3 0.554671 0.566320 0.684809
Si Si4 0.503049 0.925274 0.097364
Si Si5 0.226275 0.572969 0.951781
Si Si6 0.081437 0.066288 0.283119
Si Si7 0.372894 0.075806 0.016933
O O1 0.040890 0.250000 0.943749
O O2 0.038026 0.996435 0.882016
O O3 0.148023 0.031481 0.962050
O O4 0.000000 0.000000 0.000000
O O5 0.737508 0.750000 0.701485
O O6 0.647344 0.986382 0.703830
O O7 0.753133 0.952140 0.618121
O O8 0.823448 0.987440 0.722495
O O9 0.557087 0.750000 0.681889
O O10 0.482085 0.521906 0.730399
O O11 0.484600 0.750000 0.110735
O O12 0.565741 0.928037 0.040702
O O13 0.544755 0.004200 0.154385
O O14 0.422772 0.012905 0.074004
O O15 0.203894 0.750000 0.956771
O O16 0.297525 0.528493 0.997587
O O17 0.082746 0.250000 0.285642
O O18 0.347839 0.250000 0.026184
#
# Coordination Sequence:
#
# PCOD9462008 Si02
#       7
#     8   8   8   8   8   8   8
#     4  11  22  38  59  81 107 138 179 225 274 325
#     4   8  15  29  50  75 100 133 175 219 265 317
#     4   9  19  35  55  80 107 138 180 225 271 327
#     4  10  20  31  47  73 109 144 179 222 266 314
#     4  10  18  32  55  80 108 137 177 226 274 325
#     4  10  18  32  54  76 104 143 182 222 272 328
#     4  10  19  31  48  75 107 142 183 221 263 316
#
# _framework density 17.626469
#
# number of rings (size 3 to 8) (size 9 to 14) (size 15 to 20)
#    0.000    2.286    1.429    3.429    0.000    1.714 
#    0.000    1.429    0.000    3.429    0.000    0.000 
#    0.000    0.000    0.000    0.000    0.000    0.000 
#
# Total GULP energy -312154.473949 kJ/mol
# GULP energy per Si atom -5574.187035 kJ/mol
# Density = 1.758635 g / cm^3
# Si number density = 17.626469 Si / 1000 Ang^3
#
#
#
# Elastic Constant Matrix: (Units=GPa)
#
#
# Indices 1 2 3 4 5 6 
#
# 1 110.4375 25.6612 64.1233 0.0000 0.0000 0.0000
# 2 25.6612 32.1358 18.4643 0.0000 0.0000 0.0000
# 3 64.1233 18.4643 59.8575 0.0000 0.0000 0.0000
# 4 0.0000 0.0000 0.0000 21.8487 0.0000 0.0000
# 5 0.0000 0.0000 0.0000 0.0000 32.2843 0.0000
# 6 0.0000 0.0000 0.0000 0.0000 0.0000 22.3895
#
#
#
# Elastic Compliance Matrix: (Units=1/GPa)
#
#
# Indices 1 2 3 4 5 6 
#
# 1 0.024730 -0.005501 -0.024796 0.000000 0.000000 0.000000
# 2 -0.005501 0.039045 -0.006151 0.000000 0.000000 0.000000
# 3 -0.024796 -0.006151 0.045167 0.000000 0.000000 0.000000
# 4 0.000000 0.000000 0.000000 0.045769 0.000000 0.000000
# 5 0.000000 0.000000 0.000000 0.000000 0.030975 0.000000
# 6 0.000000 0.000000 0.000000 0.000000 0.000000 0.044664
#
#
# Mechanical properties :
#
#
# Convention : Reuss Voigt Hill
#
# Bulk Modulus (GPa) = 27.74245 46.54761 37.14503
# Shear Modulus (GPa) = 15.85986 21.58331 18.72158
#
# Velocity S-wave (km/s) = 3.00288 3.50306 3.26257
# Velocity P-wave (km/s) = 5.27222 6.54423 5.94236
#
# Compressibility (1/GPa) = 0.03604584
#
# Stress axis : x y z
#
# Youngs Moduli (GPa) = 40.43625 25.61158 22.14012
#
# Poissons Ratio (x) = 0.14088 0.54898
# Poissons Ratio (y) = 0.22243 0.13619
# Poissons Ratio (z) = 1.00265 0.15755
#
# Static dielectric constant tensor:
#      x y z
#    x 1.646320 0.000000 0.000000 
#    y 0.000000 1.587880 0.000000 
#    z 0.000000 0.000000 1.571330 
# 
# From -- ./inp_files/27543.got.cif
#   From: 2010.05.17/outbox.cif.g08.bks.cpg/sg62_14_cif.got.tgz:27543.got - 2010.06.03 15:25:27.
