data_PCOD9462566
_publ_section_title
;
Structure prediction by ZEFSAII (Michael W. Deem and Ramdas Pophale) SiO2 
 PCOD9462566
Probable space group: P N M A
;
_chemical_formula_sum "Si O2"
_cell_formula_units_Z 64
_cell_length_a 14.974154
_cell_length_b 20.501478
_cell_length_c 11.890429
_cell_angle_alpha 90.000000
_cell_angle_beta 90.000000
_cell_angle_gamma 90.000000
_cell_volume 3650.270014
_symmetry_space_group_name_H-M "P N M A"
_symmetry_group_IT_number 62
_symmetry_cell_setting 'orthorhombic'
loop_
_space_group_symop_operation_xyz
x,y,z
1/2-x,-y,1/2+z
1/2+x,1/2-y,1/2-z
-x,1/2+y,-z
-x,-y,-z
1/2+x,y,1/2-z
1/2-x,1/2+y,1/2+z
x,1/2-y,z
loop_
_atom_site_type_symbol
_atom_site_label
_atom_site_fract_x
_atom_site_fract_y
_atom_site_fract_z
Si Si1 0.864083 0.825641 0.501608
Si Si2 0.468442 0.905570 0.604351
Si Si3 0.968073 0.440921 0.867337
Si Si4 0.352180 0.113031 0.288240
Si Si5 0.628445 0.533448 0.937992
Si Si6 0.280011 0.063222 0.513369
Si Si7 0.832927 0.675483 0.758645
Si Si8 0.501963 0.588565 0.114304
O O1 0.842960 0.750000 0.482747
O O2 0.783183 0.873861 0.469258
O O3 0.877203 0.835116 0.635728
O O4 0.951221 0.849132 0.435554
O O5 0.472834 0.911391 0.469098
O O6 0.554020 0.866324 0.654648
O O7 0.379337 0.874300 0.655375
O O8 0.481955 0.980886 0.642694
O O9 0.866919 0.432772 0.910022
O O10 0.984056 0.409204 0.747096
O O11 0.371537 0.077681 0.171793
O O12 0.310257 0.065360 0.383252
O O13 0.272588 0.163618 0.262527
O O14 0.723896 0.501172 0.961100
O O15 0.562986 0.472564 0.913324
O O16 0.591237 0.572469 0.044999
O O17 0.847837 0.750000 0.793880
#
# Coordination Sequence:
#
# PCOD9462566 Si02
#       8
#     8   8   8   8   8   8   8   8
#     4   9  19  37  55  76 107 145 191 233 275 327
#     4  10  20  35  56  80 117 145 181 235 280 337
#     4  10  20  35  54  84 113 143 182 226 289 336
#     4  10  19  34  51  80 110 139 182 227 277 329
#     4  10  19  31  52  80 106 137 178 227 275 329
#     4   9  20  31  52  79 107 146 176 227 282 334
#     4  10  21  36  58  81 109 149 187 228 280 332
#     4  10  20  33  55  79 105 143 185 225 275 336
#
# _framework density 17.53295
#
# number of rings (size 3 to 8) (size 9 to 14) (size 15 to 20)
#    0.000    2.250    1.250    1.500    7.000    0.500 
#    0.000    3.750    0.000    0.000    0.000    0.000 
#    0.000    0.000    0.000    0.000    0.000    0.000 
#
# Total GULP energy -356793.883262 kJ/mol
# GULP energy per Si atom -5574.904426 kJ/mol
# Density = 1.749304 g / cm^3
# Si number density = 17.532950 Si / 1000 Ang^3
#
#
#
# Elastic Constant Matrix: (Units=GPa)
#
#
# Indices 1 2 3 4 5 6 
#
# 1 51.5736 25.8739 18.0534 0.0000 0.0000 0.0000
# 2 25.8739 53.6485 39.7101 0.0000 0.0000 0.0000
# 3 18.0534 39.7101 83.4610 0.0000 0.0000 0.0000
# 4 0.0000 0.0000 0.0000 16.0132 0.0000 0.0000
# 5 0.0000 0.0000 0.0000 0.0000 23.7425 0.0000
# 6 0.0000 0.0000 0.0000 0.0000 0.0000 11.1716
#
#
#
# Elastic Compliance Matrix: (Units=1/GPa)
#
#
# Indices 1 2 3 4 5 6 
#
# 1 0.025593 -0.012728 0.000520 0.000000 0.000000 0.000000
# 2 -0.012728 0.035103 -0.013949 0.000000 0.000000 0.000000
# 3 0.000520 -0.013949 0.018506 0.000000 0.000000 0.000000
# 4 0.000000 0.000000 0.000000 0.062448 0.000000 0.000000
# 5 0.000000 0.000000 0.000000 0.000000 0.042119 0.000000
# 6 0.000000 0.000000 0.000000 0.000000 0.000000 0.089513
#
#
# Mechanical properties :
#
#
# Convention : Reuss Voigt Hill
#
# Bulk Modulus (GPa) = 37.19051 39.55087 38.37069
# Shear Modulus (GPa) = 14.94507 17.18850 16.06679
#
# Velocity S-wave (km/s) = 2.92275 3.13446 3.03046
# Velocity P-wave (km/s) = 5.71383 5.97551 5.84613
#
# Compressibility (1/GPa) = 0.02688858
#
# Stress axis : x y z
#
# Youngs Moduli (GPa) = 39.07266 28.48760 54.03716
#
# Poissons Ratio (x) = 0.36259 -0.02809
# Poissons Ratio (y) = 0.49732 0.75374
# Poissons Ratio (z) = -0.02031 0.39736
#
# Static dielectric constant tensor:
#      x y z
#    x 1.634900 0.000000 0.000000 
#    y 0.000000 1.576130 0.000000 
#    z 0.000000 0.000000 1.584380 
# 
# From -- ./inp_files/13607.got.cif
#   From: 2010.05.17/outbox.cif.g08.bks.cpg/sg62_7_cif.got.tgz:13607.got - 2010.06.03 15:25:27.
