data_PCOD9462958
_publ_section_title
;
Structure prediction by ZEFSAII (Michael W. Deem and Ramdas Pophale) SiO2 
 PCOD9462958
Probable space group: P N M A
;
_chemical_formula_sum "Si O2"
_cell_formula_units_Z 56
_cell_length_a 18.305387
_cell_length_b 8.923273
_cell_length_c 19.260909
_cell_angle_alpha 90.000000
_cell_angle_beta 90.000000
_cell_angle_gamma 90.000000
_cell_volume 3146.153257
_symmetry_space_group_name_H-M "P N M A"
_symmetry_group_IT_number 62
_symmetry_cell_setting 'orthorhombic'
loop_
_space_group_symop_operation_xyz
x,y,z
1/2-x,-y,1/2+z
1/2+x,1/2-y,1/2-z
-x,1/2+y,-z
-x,-y,-z
1/2+x,y,1/2-z
1/2-x,1/2+y,1/2+z
x,1/2-y,z
loop_
_atom_site_type_symbol
_atom_site_label
_atom_site_fract_x
_atom_site_fract_y
_atom_site_fract_z
Si Si1 0.043462 0.068612 0.640015
Si Si2 0.838030 0.070821 0.463007
Si Si3 0.809468 0.571828 0.882187
Si Si4 0.614675 0.428887 0.106819
Si Si5 0.987262 0.922296 0.208556
Si Si6 0.527751 0.071629 0.429102
Si Si7 0.657690 0.922045 0.243710
O O1 0.040563 0.250000 0.635634
O O2 0.054202 0.028336 0.721519
O O3 0.105350 0.001024 0.591309
O O4 0.965806 0.001391 0.615886
O O5 0.849922 0.250000 0.467764
O O6 0.756896 0.043747 0.434004
O O7 0.850961 0.995094 0.537112
O O8 0.812928 0.750000 0.867834
O O9 0.887636 0.528138 0.914794
O O10 0.799455 0.487194 0.809330
O O11 0.608656 0.250000 0.103795
O O12 0.660381 0.480222 0.174298
O O13 0.968051 0.750000 0.193165
O O14 0.072444 0.925297 0.232358
O O15 0.983006 0.017326 0.138646
O O16 0.524046 0.250000 0.434149
O O17 0.500000 0.000000 0.500000
O O18 0.677118 0.750000 0.229250
#
# Coordination Sequence:
#
# PCOD9462958 Si02
#       7
#     8   8   8   8   8   8   8
#     4  10  20  35  54  78 107 140 179 220 265 317
#     4  11  22  36  53  76 109 144 178 219 267 318
#     4   9  20  37  55  76 104 139 176 215 264 321
#     4  11  21  34  54  79 107 140 180 222 263 311
#     4   8  16  31  51  75 101 128 162 205 252 305
#     4  10  19  33  55  80 104 132 171 218 265 311
#     4   9  17  32  55  78 100 129 168 213 258 309
#
# _framework density 17.799513999999999
#
# number of rings (size 3 to 8) (size 9 to 14) (size 15 to 20)
#    0.000    2.286    0.000    4.286    0.000    5.714 
#    0.000    1.429    0.000    1.714    0.000    0.000 
#    0.000    0.000    0.000    0.000    0.000    0.000 
#
# Total GULP energy -312426.914068 kJ/mol
# GULP energy per Si atom -5579.052037 kJ/mol
# Density = 1.775900 g / cm^3
# Si number density = 17.799514 Si / 1000 Ang^3
#
#
#
# Elastic Constant Matrix: (Units=GPa)
#
#
# Indices 1 2 3 4 5 6 
#
# 1 43.8186 40.8645 52.7726 0.0000 0.0000 0.0000
# 2 40.8645 99.3661 86.5292 0.0000 0.0000 0.0000
# 3 52.7726 86.5292 175.9665 0.0000 0.0000 0.0000
# 4 0.0000 0.0000 0.0000 37.5541 0.0000 0.0000
# 5 0.0000 0.0000 0.0000 0.0000 13.6296 0.0000
# 6 0.0000 0.0000 0.0000 0.0000 0.0000 18.3196
#
#
#
# Elastic Compliance Matrix: (Units=1/GPa)
#
#
# Indices 1 2 3 4 5 6 
#
# 1 0.041533 -0.010902 -0.007095 0.000000 0.000000 0.000000
# 2 -0.010902 0.020462 -0.006792 0.000000 0.000000 0.000000
# 3 -0.007095 -0.006792 0.011151 0.000000 0.000000 0.000000
# 4 0.000000 0.000000 0.000000 0.026628 0.000000 0.000000
# 5 0.000000 0.000000 0.000000 0.000000 0.073370 0.000000
# 6 0.000000 0.000000 0.000000 0.000000 0.000000 0.054586
#
#
# Mechanical properties :
#
#
# Convention : Reuss Voigt Hill
#
# Bulk Modulus (GPa) = 42.43202 75.49822 58.96512
# Shear Modulus (GPa) = 17.53365 23.16631 20.34998
#
# Velocity S-wave (km/s) = 3.14198 3.61156 3.38492
# Velocity P-wave (km/s) = 6.08714 7.73945 6.96249
#
# Compressibility (1/GPa) = 0.02356711
#
# Stress axis : x y z
#
# Youngs Moduli (GPa) = 24.07703 48.87007 89.68018
#
# Poissons Ratio (x) = 0.53281 0.63626
# Poissons Ratio (y) = 0.26250 0.60915
# Poissons Ratio (z) = 0.17082 0.33195
#
# Static dielectric constant tensor:
#      x y z
#    x 1.596550 0.000000 0.000000 
#    y 0.000000 1.598220 0.000000 
#    z 0.000000 0.000000 1.601810 
# 
# From -- ./inp_files/24564.got.cif
#   From: 2010.05.17/outbox.cif.g08.bks.cpg/sg62_13_cif.got.tgz:24564.got - 2010.06.03 15:25:27.
