data_PCOD9462991
_publ_section_title
;
Structure prediction by ZEFSAII (Michael W. Deem and Ramdas Pophale) SiO2 
 PCOD9462991
Probable space group: P N M A
;
_chemical_formula_sum "Si O2"
_cell_formula_units_Z 64
_cell_length_a 16.170243
_cell_length_b 8.489944
_cell_length_c 20.990131
_cell_angle_alpha 90.000000
_cell_angle_beta 90.000000
_cell_angle_gamma 90.000000
_cell_volume 2881.618748
_symmetry_space_group_name_H-M "P N M A"
_symmetry_group_IT_number 62
_symmetry_cell_setting 'orthorhombic'
loop_
_space_group_symop_operation_xyz
x,y,z
1/2-x,-y,1/2+z
1/2+x,1/2-y,1/2-z
-x,1/2+y,-z
-x,-y,-z
1/2+x,y,1/2-z
1/2-x,1/2+y,1/2+z
x,1/2-y,z
loop_
_atom_site_type_symbol
_atom_site_label
_atom_site_fract_x
_atom_site_fract_y
_atom_site_fract_z
Si Si1 0.489353 0.438372 0.928594
Si Si2 0.517202 0.431413 0.430974
Si Si3 0.388824 0.429931 0.763218
Si Si4 0.332686 0.937837 0.089193
Si Si5 0.726555 0.564439 0.670727
Si Si6 0.053134 0.438240 0.797671
Si Si7 0.673935 0.427879 0.356603
Si Si8 0.191168 0.938686 0.446578
O O1 0.492318 0.250000 0.929386
O O2 0.573444 0.488291 0.894696
O O3 0.396173 0.482243 0.911115
O O4 0.500000 0.500000 0.000000
O O5 0.500000 0.500000 0.500000
O O6 0.490414 0.250000 0.429298
O O7 0.475697 0.512002 0.369115
O O8 0.615848 0.436712 0.418409
O O9 0.391342 0.250000 0.787520
O O10 0.312928 0.520805 0.795382
O O11 0.483159 0.492314 0.754038
O O12 0.359246 0.438900 0.690108
O O13 0.323657 0.750000 0.099517
O O14 0.267714 0.037439 0.128383
O O15 0.313664 0.976054 0.014703
O O16 0.718592 0.750000 0.664775
O O17 0.646723 0.499345 0.708000
O O18 0.735593 0.489142 0.600166
O O19 0.053390 0.250000 0.793052
O O20 0.662086 0.250000 0.330347
O O21 0.192571 0.750000 0.456528
#
# Coordination Sequence:
#
# PCOD9462991 Si02
#       8
#     8   8   8   8   8   8   8   8
#     4   8  16  31  51  75 107 149 189 234 285 338
#     4  10  21  36  57  86 123 161 201 245 298 364
#     4  10  22  44  68  89 116 155 202 253 304 359
#     4  10  19  33  55  85 120 157 199 245 296 357
#     4  12  25  41  64  93 125 161 202 253 309 370
#     4  10  22  42  67  92 121 159 204 255 311 366
#     4  10  21  37  57  84 117 157 197 243 297 358
#     4  10  20  36  57  83 118 157 200 249 301 356
#
# _framework density 22.20974
#
# number of rings (size 3 to 8) (size 9 to 14) (size 15 to 20)
#    0.000    2.000    0.000    3.375    1.750    4.000 
#    2.250    0.000    0.000    0.000    0.000    0.000 
#    0.000    0.000    0.000    0.000    0.000    0.000 
#
# Total GULP energy -357099.619749 kJ/mol
# GULP energy per Si atom -5579.681559 kJ/mol
# Density = 2.215919 g / cm^3
# Si number density = 22.209740 Si / 1000 Ang^3
#
#
#
# Elastic Constant Matrix: (Units=GPa)
#
#
# Indices 1 2 3 4 5 6 
#
# 1 118.7671 18.3772 20.4028 0.0000 0.0000 0.0000
# 2 18.3772 60.4419 3.0325 0.0000 0.0000 0.0000
# 3 20.4028 3.0325 33.8166 0.0000 0.0000 0.0000
# 4 0.0000 0.0000 0.0000 25.2771 0.0000 0.0000
# 5 0.0000 0.0000 0.0000 0.0000 24.4718 0.0000
# 6 0.0000 0.0000 0.0000 0.0000 0.0000 26.3652
#
#
#
# Elastic Compliance Matrix: (Units=1/GPa)
#
#
# Indices 1 2 3 4 5 6 
#
# 1 0.009813 -0.002699 -0.005678 0.000000 0.000000 0.000000
# 2 -0.002699 0.017362 0.000071 0.000000 0.000000 0.000000
# 3 -0.005678 0.000071 0.032991 0.000000 0.000000 0.000000
# 4 0.000000 0.000000 0.000000 0.039562 0.000000 0.000000
# 5 0.000000 0.000000 0.000000 0.000000 0.040863 0.000000
# 6 0.000000 0.000000 0.000000 0.000000 0.000000 0.037929
#
#
# Mechanical properties :
#
#
# Convention : Reuss Voigt Hill
#
# Bulk Modulus (GPa) = 22.96007 32.96116 27.96061
# Shear Modulus (GPa) = 23.84939 26.63702 25.24321
#
# Velocity S-wave (km/s) = 3.28048 3.46691 3.37498
# Velocity P-wave (km/s) = 4.97082 5.55869 5.27295
#
# Compressibility (1/GPa) = 0.04355388
#
# Stress axis : x y z
#
# Youngs Moduli (GPa) = 101.90654 57.59783 30.31137
#
# Poissons Ratio (x) = 0.15544 0.17212
# Poissons Ratio (y) = 0.27501 -0.00216
# Poissons Ratio (z) = 0.57867 -0.00411
#
# Static dielectric constant tensor:
#      x y z
#    x 1.881230 0.000000 0.000000 
#    y 0.000000 1.750780 0.000000 
#    z 0.000000 0.000000 1.847930 
# 
# From -- ./inp_files/29935.got.cif
#   From: 2010.05.17/outbox.cif.g08.bks.cpg/sg62_15_cif.got.tgz:29935.got - 2010.06.03 15:25:27.
