data_PCOD9462896
_publ_section_title
;
Structure prediction by ZEFSAII (Michael W. Deem and Ramdas Pophale) SiO2 
 PCOD9462896
Probable space group: P N M A
;
_chemical_formula_sum "Si O2"
_cell_formula_units_Z 48
_cell_length_a 8.625824
_cell_length_b 16.291037
_cell_length_c 13.721895
_cell_angle_alpha 90.000000
_cell_angle_beta 90.000000
_cell_angle_gamma 90.000000
_cell_volume 1928.250330
_symmetry_space_group_name_H-M "P N M A"
_symmetry_group_IT_number 62
_symmetry_cell_setting 'orthorhombic'
loop_
_space_group_symop_operation_xyz
x,y,z
1/2-x,-y,1/2+z
1/2+x,1/2-y,1/2-z
-x,1/2+y,-z
-x,-y,-z
1/2+x,y,1/2-z
1/2-x,1/2+y,1/2+z
x,1/2-y,z
loop_
_atom_site_type_symbol
_atom_site_label
_atom_site_fract_x
_atom_site_fract_y
_atom_site_fract_z
Si Si1 0.521576 0.842357 0.349778
Si Si2 0.788613 0.655543 0.611378
Si Si3 0.558728 0.344766 0.317915
Si Si4 0.690759 0.440198 0.793239
Si Si5 0.611780 0.990476 0.107863
Si Si6 0.744032 0.345373 0.490904
O O1 0.577164 0.750000 0.334734
O O2 0.411974 0.869548 0.260319
O O3 0.668019 0.901914 0.353527
O O4 0.414367 0.844717 0.445179
O O5 0.792032 0.750000 0.572729
O O6 0.903740 0.652193 0.704593
O O7 0.615763 0.637774 0.651182
O O8 0.841693 0.574846 0.553996
O O9 0.578207 0.250000 0.345152
O O10 0.689815 0.382547 0.387086
O O11 0.561452 0.489790 0.851095
O O12 0.775471 0.484489 0.702541
O O13 0.645897 0.908676 0.046375
O O14 0.803426 0.250000 0.487874
#
# Coordination Sequence:
#
# PCOD9462896 Si02
#       6
#     8   8   8   8   8   8
#     4   9  16  28  48  74 107 149 188 222 265 325
#     4  10  20  36  60  83 106 143 192 239 280 331
#     4   9  19  37  59  83 109 142 188 236 283 335
#     4   9  18  29  46  74 112 149 189 227 266 333
#     4  10  19  33  53  81 114 150 190 234 282 332
#     4   9  19  35  55  82 116 150 183 225 282 339
#
# _framework density 24.893032999999999
#
# number of rings (size 3 to 8) (size 9 to 14) (size 15 to 20)
#    0.000    2.667    0.000    1.500    0.000    5.333 
#    0.000    1.667    0.000    9.000    0.000    1.167 
#    0.000    0.000    0.000    0.000    0.000    0.000 
#
# Total GULP energy -268303.274758 kJ/mol
# GULP energy per Si atom -5589.651557 kJ/mol
# Density = 2.483638 g / cm^3
# Si number density = 24.893033 Si / 1000 Ang^3
#
#
#
# Elastic Constant Matrix: (Units=GPa)
#
#
# Indices 1 2 3 4 5 6 
#
# 1 120.0794 56.0407 6.1011 0.0000 0.0000 0.0000
# 2 56.0407 152.2185 19.4504 0.0000 0.0000 0.0000
# 3 6.1011 19.4504 40.5057 0.0000 0.0000 0.0000
# 4 0.0000 0.0000 0.0000 -1.1705 0.0000 0.0000
# 5 0.0000 0.0000 0.0000 0.0000 32.9670 0.0000
# 6 0.0000 0.0000 0.0000 0.0000 0.0000 47.3486
#
#
#
# Elastic Compliance Matrix: (Units=1/GPa)
#
#
# Indices 1 2 3 4 5 6 
#
# 1 0.010059 -0.003739 0.000280 0.000000 0.000000 0.000000
# 2 -0.003739 0.008389 -0.003465 0.000000 0.000000 0.000000
# 3 0.000280 -0.003465 0.026310 0.000000 0.000000 0.000000
# 4 0.000000 0.000000 0.000000 -0.854314 0.000000 0.000000
# 5 0.000000 0.000000 0.000000 0.000000 0.030333 0.000000
# 6 0.000000 0.000000 0.000000 0.000000 0.000000 0.021120
#
#
# Mechanical properties :
#
#
# Convention : Reuss Voigt Hill
#
# Bulk Modulus (GPa) = 32.35243 52.88754 42.61998
# Shear Modulus (GPa) = -6.81242 31.24311 12.21534
#
# Velocity S-wave (km/s) = -1.65609 3.54658 2.21761
# Velocity P-wave (km/s) = 3.06071 6.16952 4.86985
#
# Compressibility (1/GPa) = 0.03090958
#
# Stress axis : x y z
#
# Youngs Moduli (GPa) = 99.41794 119.20653 38.00905
#
# Poissons Ratio (x) = 0.44571 -0.01066
# Poissons Ratio (y) = 0.37172 0.13170
# Poissons Ratio (z) = -0.02787 0.41305
#
# Static dielectric constant tensor:
#      x y z
#    x 1.920100 0.000000 0.000000 
#    y 0.000000 1.986530 0.000000 
#    z 0.000000 0.000000 2.017020 
# 
# From -- ./inp_files/16972.got.cif
#   From: 2010.05.17/outbox.cif.g08.bks.cpg/sg62_9_cif.got.tgz:16972.got - 2010.06.03 15:25:27.
