data_PCOD9462116
_publ_section_title
;
Structure prediction by ZEFSAII (Michael W. Deem and Ramdas Pophale) SiO2 
 PCOD9462116
Probable space group: P N M A
;
_chemical_formula_sum "Si O2"
_cell_formula_units_Z 64
_cell_length_a 16.824227
_cell_length_b 18.177946
_cell_length_c 9.463439
_cell_angle_alpha 90.000000
_cell_angle_beta 90.000000
_cell_angle_gamma 90.000000
_cell_volume 2894.202507
_symmetry_space_group_name_H-M "P N M A"
_symmetry_group_IT_number 62
_symmetry_cell_setting 'orthorhombic'
loop_
_space_group_symop_operation_xyz
x,y,z
1/2-x,-y,1/2+z
1/2+x,1/2-y,1/2-z
-x,1/2+y,-z
-x,-y,-z
1/2+x,y,1/2-z
1/2-x,1/2+y,1/2+z
x,1/2-y,z
loop_
_atom_site_type_symbol
_atom_site_label
_atom_site_fract_x
_atom_site_fract_y
_atom_site_fract_z
Si Si1 0.048734 0.333741 0.205635
Si Si2 0.124553 0.940840 0.228584
Si Si3 0.764047 0.835165 0.791323
Si Si4 0.751152 0.837226 0.121157
Si Si5 0.311364 0.119684 0.473959
Si Si6 0.524221 0.833027 0.419875
Si Si7 0.349787 0.833566 0.120232
Si Si8 0.946900 0.940861 0.576914
O O1 0.021204 0.250000 0.219156
O O2 0.142104 0.335687 0.243641
O O3 0.006705 0.387180 0.315684
O O4 0.037175 0.354351 0.042204
O O5 0.181254 0.885632 0.313294
O O6 0.166795 0.950062 0.074471
O O7 0.110381 0.012623 0.319140
O O8 0.042933 0.895663 0.195281
O O9 0.737232 0.750000 0.770040
O O10 0.713925 0.887127 0.687682
O O11 0.758100 0.852813 0.956131
O O12 0.733987 0.750000 0.138062
O O13 0.830305 0.849775 0.215640
O O14 0.391045 0.166555 0.496602
O O15 0.236525 0.159806 0.545710
O O16 0.508222 0.750000 0.367782
O O17 0.379038 0.750000 0.104467
O O18 0.403759 0.891518 0.039813
O O19 0.000000 0.000000 0.500000
#
# Coordination Sequence:
#
# PCOD9462116 Si02
#       8
#     8   8   8   8   8   8   8   8
#     4  10  22  41  65  94 124 169 228 274 325 407
#     4   9  22  40  59  92 131 173 215 270 350 401
#     4  10  18  33  64 101 130 160 215 284 328 386
#     4   9  19  37  66 103 132 160 221 285 330 394
#     4   9  18  36  68  95 121 164 220 271 333 392
#     4   9  18  36  66  95 124 166 218 274 336 404
#     4  10  19  40  71  93 123 175 227 274 328 398
#     4  12  26  43  59  89 142 180 222 274 341 414
#
# _framework density 22.113174000000001
#
# number of rings (size 3 to 8) (size 9 to 14) (size 15 to 20)
#    0.750    1.500    1.250    1.875    0.000    2.500 
#    4.500    7.500    0.000    0.000    0.000    0.000 
#    0.000    0.000    0.000    0.000    0.000    0.000 
#
# Total GULP energy -357017.833671 kJ/mol
# GULP energy per Si atom -5578.403651 kJ/mol
# Density = 2.206284 g / cm^3
# Si number density = 22.113174 Si / 1000 Ang^3
#
#
#
# Elastic Constant Matrix: (Units=GPa)
#
#
# Indices 1 2 3 4 5 6 
#
# 1 40.9389 28.1760 31.1499 0.0000 0.0000 0.0000
# 2 28.1760 98.8711 74.0632 0.0000 0.0000 0.0000
# 3 31.1499 74.0632 152.5889 0.0000 0.0000 0.0000
# 4 0.0000 0.0000 0.0000 14.1445 0.0000 0.0000
# 5 0.0000 0.0000 0.0000 0.0000 34.7728 0.0000
# 6 0.0000 0.0000 0.0000 0.0000 0.0000 10.8396
#
#
#
# Elastic Compliance Matrix: (Units=1/GPa)
#
#
# Indices 1 2 3 4 5 6 
#
# 1 0.031377 -0.006511 -0.003245 0.000000 0.000000 0.000000
# 2 -0.006511 0.017244 -0.007041 0.000000 0.000000 0.000000
# 3 -0.003245 -0.007041 0.010633 0.000000 0.000000 0.000000
# 4 0.000000 0.000000 0.000000 0.070699 0.000000 0.000000
# 5 0.000000 0.000000 0.000000 0.000000 0.028758 0.000000
# 6 0.000000 0.000000 0.000000 0.000000 0.000000 0.092254
#
#
# Mechanical properties :
#
#
# Convention : Reuss Voigt Hill
#
# Bulk Modulus (GPa) = 38.96989 62.13081 50.55035
# Shear Modulus (GPa) = 17.05835 22.55202 19.80519
#
# Velocity S-wave (km/s) = 2.78044 3.19697 2.99595
# Velocity P-wave (km/s) = 5.28857 6.46415 5.90568
#
# Compressibility (1/GPa) = 0.02566084
#
# Stress axis : x y z
#
# Youngs Moduli (GPa) = 31.87066 57.99261 94.04374
#
# Poissons Ratio (x) = 0.37758 0.30519
# Poissons Ratio (y) = 0.20750 0.66212
# Poissons Ratio (z) = 0.10343 0.40830
#
# Static dielectric constant tensor:
#      x y z
#    x 1.832960 0.000000 0.000000 
#    y 0.000000 1.829560 0.000000 
#    z 0.000000 0.000000 1.893210 
# 
# From -- ./inp_files/8880.got.cif
#   From: 2010.05.17/outbox.cif.g08.bks.cpg/sg62_5_cif.got.tgz:8880.got - 2010.06.03 15:25:27.
