data_PCOD9462911
_publ_section_title
;
Structure prediction by ZEFSAII (Michael W. Deem and Ramdas Pophale) SiO2 
 PCOD9462911
Probable space group: P N M A
;
_chemical_formula_sum "Si O2"
_cell_formula_units_Z 64
_cell_length_a 22.352705
_cell_length_b 8.940731
_cell_length_c 17.849639
_cell_angle_alpha 90.000000
_cell_angle_beta 90.000000
_cell_angle_gamma 90.000000
_cell_volume 3567.241831
_symmetry_space_group_name_H-M "P N M A"
_symmetry_group_IT_number 62
_symmetry_cell_setting 'orthorhombic'
loop_
_space_group_symop_operation_xyz
x,y,z
1/2-x,-y,1/2+z
1/2+x,1/2-y,1/2-z
-x,1/2+y,-z
-x,-y,-z
1/2+x,y,1/2-z
1/2-x,1/2+y,1/2+z
x,1/2-y,z
loop_
_atom_site_type_symbol
_atom_site_label
_atom_site_fract_x
_atom_site_fract_y
_atom_site_fract_z
Si Si1 0.646840 0.420579 0.021550
Si Si2 0.256517 0.072314 0.880895
Si Si3 0.658818 0.571849 0.257966
Si Si4 0.363496 0.429391 0.431209
Si Si5 0.056950 0.421745 0.335236
Si Si6 0.037409 0.069526 0.569092
Si Si7 0.006102 0.570911 0.918211
Si Si8 0.874112 0.929144 0.903629
O O1 0.668065 0.250000 0.011072
O O2 0.700771 0.521802 0.050214
O O3 0.599057 0.418402 0.090282
O O4 0.606645 0.466234 0.950021
O O5 0.248921 0.250000 0.883273
O O6 0.291179 0.032591 0.804127
O O7 0.193436 0.991613 0.888053
O O8 0.657695 0.750000 0.266347
O O9 0.596515 0.514467 0.222572
O O10 0.666811 0.494161 0.337995
O O11 0.360534 0.250000 0.436927
O O12 0.427207 0.472002 0.392701
O O13 0.362854 0.498882 0.515089
O O14 0.048264 0.250000 0.310794
O O15 0.994669 0.498528 0.358817
O O16 0.031423 0.250000 0.568959
O O17 0.000000 0.000000 0.500000
O O18 0.006210 0.750000 0.924394
O O19 0.943102 0.531663 0.880637
O O20 0.000000 0.500000 0.000000
O O21 0.868658 0.750000 0.908764
#
# Coordination Sequence:
#
# PCOD9462911 Si02
#       8
#     8   8   8   8   8   8   8   8
#     4   8  15  26  40  60  87 120 158 199 243 290
#     4  10  20  32  48  72 102 136 175 215 253 299
#     4  10  20  33  49  72 103 137 173 213 259 310
#     4  10  19  33  54  78 105 135 168 206 252 305
#     4   9  16  26  41  62  88 120 159 202 248 294
#     4   9  15  23  37  58  84 115 153 198 246 292
#     4   8  16  30  50  77 103 127 155 194 244 297
#     4  10  19  33  54  79 106 132 165 209 257 309
#
# _framework density 17.941032
#
# number of rings (size 3 to 8) (size 9 to 14) (size 15 to 20)
#    0.000    2.750    0.000    3.000    0.000    6.000 
#    0.000    0.000    0.000    1.500    0.000    3.500 
#    0.000    0.000    0.000    0.000    0.000    0.000 
#
# Total GULP energy -356311.493659 kJ/mol
# GULP energy per Si atom -5567.367088 kJ/mol
# Density = 1.790020 g / cm^3
# Si number density = 17.941032 Si / 1000 Ang^3
#
#
#
# Elastic Constant Matrix: (Units=GPa)
#
#
# Indices 1 2 3 4 5 6 
#
# 1 80.2513 39.8327 25.2896 0.0000 0.0000 0.0000
# 2 39.8327 56.9504 23.2051 0.0000 0.0000 0.0000
# 3 25.2896 23.2051 46.0106 0.0000 0.0000 0.0000
# 4 0.0000 0.0000 0.0000 16.1096 0.0000 0.0000
# 5 0.0000 0.0000 0.0000 0.0000 13.2100 0.0000
# 6 0.0000 0.0000 0.0000 0.0000 0.0000 27.0002
#
#
#
# Elastic Compliance Matrix: (Units=1/GPa)
#
#
# Indices 1 2 3 4 5 6 
#
# 1 0.019942 -0.011934 -0.004942 0.000000 0.000000 0.000000
# 2 -0.011934 0.029243 -0.008189 0.000000 0.000000 0.000000
# 3 -0.004942 -0.008189 0.028581 0.000000 0.000000 0.000000
# 4 0.000000 0.000000 0.000000 0.062075 0.000000 0.000000
# 5 0.000000 0.000000 0.000000 0.000000 0.075700 0.000000
# 6 0.000000 0.000000 0.000000 0.000000 0.000000 0.037037
#
#
# Mechanical properties :
#
#
# Convention : Reuss Voigt Hill
#
# Bulk Modulus (GPa) = 36.18594 39.98524 38.08559
# Shear Modulus (GPa) = 16.02980 17.58959 16.80969
#
# Velocity S-wave (km/s) = 2.99234 3.13455 3.06427
# Velocity P-wave (km/s) = 5.67027 5.95281 5.81326
#
# Compressibility (1/GPa) = 0.02763504
#
# Stress axis : x y z
#
# Youngs Moduli (GPa) = 50.14599 34.19635 34.98884
#
# Poissons Ratio (x) = 0.40810 0.17292
# Poissons Ratio (y) = 0.59845 0.28652
# Poissons Ratio (z) = 0.24782 0.28003
#
# Static dielectric constant tensor:
#      x y z
#    x 1.646160 0.000000 0.000000 
#    y 0.000000 1.596260 0.000000 
#    z 0.000000 0.000000 1.635430 
# 
# From -- ./inp_files/24784.got.cif
#   From: 2010.05.17/outbox.cif.g08.bks.cpg/sg62_13_cif.got.tgz:24784.got - 2010.06.03 15:25:27.
