data_PCOD9462553
_publ_section_title
;
Structure prediction by ZEFSAII (Michael W. Deem and Ramdas Pophale) SiO2 
 PCOD9462553
Probable space group: P N M A
;
_chemical_formula_sum "Si O2"
_cell_formula_units_Z 64
_cell_length_a 19.888418
_cell_length_b 7.393980
_cell_length_c 19.800268
_cell_angle_alpha 90.000000
_cell_angle_beta 90.000000
_cell_angle_gamma 90.000000
_cell_volume 2911.719796
_symmetry_space_group_name_H-M "P N M A"
_symmetry_group_IT_number 62
_symmetry_cell_setting 'orthorhombic'
loop_
_space_group_symop_operation_xyz
x,y,z
1/2-x,-y,1/2+z
1/2+x,1/2-y,1/2-z
-x,1/2+y,-z
-x,-y,-z
1/2+x,y,1/2-z
1/2-x,1/2+y,1/2+z
x,1/2-y,z
loop_
_atom_site_type_symbol
_atom_site_label
_atom_site_fract_x
_atom_site_fract_y
_atom_site_fract_z
Si Si1 0.042908 0.035887 0.159449
Si Si2 0.791550 0.029985 0.199892
Si Si3 0.593251 0.970472 0.591960
Si Si4 0.350620 0.033342 0.549407
Si Si5 0.660305 0.471115 0.119135
Si Si6 0.300257 0.532170 0.031178
Si Si7 0.025344 0.471344 0.310731
Si Si8 0.872981 0.463339 0.329739
O O1 0.031943 0.250000 0.165201
O O2 0.044696 0.968617 0.235430
O O3 0.978288 0.964188 0.119126
O O4 0.109854 0.008641 0.117128
O O5 0.788374 0.250000 0.201973
O O6 0.847316 0.980461 0.143631
O O7 0.718656 0.971133 0.171994
O O8 0.820731 0.967193 0.272447
O O9 0.592129 0.750000 0.590772
O O10 0.609493 0.032903 0.516544
O O11 0.347654 0.250000 0.543932
O O12 0.274786 0.965491 0.546774
O O13 0.661557 0.250000 0.119585
O O14 0.585681 0.528540 0.140497
O O15 0.677415 0.530016 0.043005
O O16 0.298252 0.750000 0.027595
O O17 0.346466 0.485905 0.094627
O O18 0.024697 0.250000 0.313426
O O19 0.949227 0.533866 0.324181
O O20 0.878023 0.250000 0.315204
#
# Coordination Sequence:
#
# PCOD9462553 Si02
#       8
#     8   8   8   8   8   8   8   8
#     4  10  19  31  51  80 108 131 166 216 261 303
#     4   9  15  28  52  77  98 131 174 210 247 298
#     4   9  15  29  51  73 101 136 172 208 248 303
#     4  10  20  33  49  72 105 140 172 207 250 307
#     4   9  17  31  52  75 100 135 178 211 244 302
#     4  10  21  36  53  74 101 138 179 212 246 304
#     4   9  18  32  51  78 105 130 169 219 258 295
#     4  10  20  34  55  81 106 130 165 218 268 298
#
# _framework density 21.980136999999999
#
# number of rings (size 3 to 8) (size 9 to 14) (size 15 to 20)
#    0.000    2.500    2.500    0.375    1.750    1.000 
#    0.000    0.625    0.000    2.250    0.000    0.000 
#    0.000    0.000    0.000    0.000    0.000    0.000 
#
# Total GULP energy -357472.605383 kJ/mol
# GULP energy per Si atom -5585.509459 kJ/mol
# Density = 2.193011 g / cm^3
# Si number density = 21.980137 Si / 1000 Ang^3
#
#
#
# Elastic Constant Matrix: (Units=GPa)
#
#
# Indices 1 2 3 4 5 6 
#
# 1 61.8448 -12.2161 114.3474 0.0000 0.0000 0.0000
# 2 -12.2161 67.9757 -7.0524 0.0000 0.0000 0.0000
# 3 114.3474 -7.0524 145.9287 0.0000 0.0000 0.0000
# 4 0.0000 0.0000 0.0000 38.1696 0.0000 0.0000
# 5 0.0000 0.0000 0.0000 0.0000 31.8837 0.0000
# 6 0.0000 0.0000 0.0000 0.0000 0.0000 -13.3476
#
#
#
# Elastic Compliance Matrix: (Units=1/GPa)
#
#
# Indices 1 2 3 4 5 6 
#
# 1 -0.035189 -0.003481 0.027406 0.000000 0.000000 0.000000
# 2 -0.003481 0.014441 0.003425 0.000000 0.000000 0.000000
# 3 0.027406 0.003425 -0.014456 0.000000 0.000000 0.000000
# 4 0.000000 0.000000 0.000000 0.026199 0.000000 0.000000
# 5 0.000000 0.000000 0.000000 0.000000 0.031364 0.000000
# 6 0.000000 0.000000 0.000000 0.000000 0.000000 -0.074920
#
#
# Mechanical properties :
#
#
# Convention : Reuss Voigt Hill
#
# Bulk Modulus (GPa) = 51.29336 51.76745 51.53041
# Shear Modulus (GPa) = -49.62122 23.38584 -13.11769
#
# Velocity S-wave (km/s) = -4.75652 3.26537 -2.44559
# Velocity P-wave (km/s) = 2.60367 6.14979 3.93959
#
# Compressibility (1/GPa) = 0.01949570
#
# Stress axis : x y z
#
# Youngs Moduli (GPa) = -28.41773 69.24734 -69.17371
#
# Poissons Ratio (x) = 0.24103 1.89574
# Poissons Ratio (y) = -0.09891 0.23694
# Poissons Ratio (z) = 0.77880 -0.23719
#
# Static dielectric constant tensor:
#      x y z
#    x 1.777090 0.000000 0.000000 
#    y 0.000000 1.870160 0.000000 
#    z 0.000000 0.000000 1.762110 
# 
# From -- ./inp_files/24472.got.cif
#   From: 2010.05.17/outbox.cif.g08.bks.cpg/sg62_13_cif.got.tgz:24472.got - 2010.06.03 15:25:27.
