data_PCOD9462036
_publ_section_title
;
Structure prediction by ZEFSAII (Michael W. Deem and Ramdas Pophale) SiO2 
 PCOD9462036
Probable space group: P N M A
;
_chemical_formula_sum "Si O2"
_cell_formula_units_Z 64
_cell_length_a 23.466738
_cell_length_b 25.219498
_cell_length_c 5.171039
_cell_angle_alpha 90.000000
_cell_angle_beta 90.000000
_cell_angle_gamma 90.000000
_cell_volume 3060.320950
_symmetry_space_group_name_H-M "P N M A"
_symmetry_group_IT_number 62
_symmetry_cell_setting 'orthorhombic'
loop_
_space_group_symop_operation_xyz
x,y,z
1/2-x,-y,1/2+z
1/2+x,1/2-y,1/2-z
-x,1/2+y,-z
-x,-y,-z
1/2+x,y,1/2-z
1/2-x,1/2+y,1/2+z
x,1/2-y,z
loop_
_atom_site_type_symbol
_atom_site_label
_atom_site_fract_x
_atom_site_fract_y
_atom_site_fract_z
Si Si1 0.050807 0.810175 0.139708
Si Si2 0.743143 0.408183 0.626871
Si Si3 0.442605 0.965620 0.744913
Si Si4 0.882201 0.140063 0.241781
Si Si5 0.371439 0.550114 0.257471
Si Si6 0.038862 0.917176 0.408400
Si Si7 0.196874 0.555334 0.899178
Si Si8 0.681195 0.807687 0.143521
O O1 0.028700 0.750000 0.170179
O O2 0.021784 0.861469 0.272028
O O3 0.117835 0.808827 0.228219
O O4 0.061652 0.828733 0.845562
O O5 0.675786 0.405905 0.676350
O O6 0.763626 0.425110 0.340053
O O7 0.773407 0.352985 0.696885
O O8 0.767827 0.449557 0.838062
O O9 0.422716 0.947101 0.463811
O O10 0.497438 0.935764 0.860438
O O11 0.394805 0.953889 0.966222
O O12 0.453700 0.029203 0.742308
O O13 0.900946 0.099150 0.465314
O O14 0.851020 0.100335 0.050222
O O15 0.836907 0.181940 0.345662
O O16 0.337411 0.496725 0.327304
O O17 0.705320 0.750000 0.189789
#
# Coordination Sequence:
#
# PCOD9462036 Si02
#       8
#     8   8   8   8   8   8   8   8
#     4  10  19  34  59  86 116 147 188 239 296 357
#     4  11  22  36  56  82 116 154 191 232 286 342
#     4  11  25  39  61  85 118 156 203 242 295 343
#     4  10  18  32  57  83 118 146 184 234 295 357
#     4  12  23  38  57  83 116 156 198 241 276 345
#     4  10  23  38  58  85 117 156 191 249 299 354
#     4  11  20  35  55  84 116 151 183 231 282 348
#     4   9  19  33  51  82 114 145 184 232 289 349
#
# _framework density 20.912839000000002
#
# number of rings (size 3 to 8) (size 9 to 14) (size 15 to 20)
#    0.000    1.500    2.500    3.375    3.500    1.500 
#    0.000    0.000    0.000    1.500    0.000    0.000 
#    0.000    0.000    0.000    0.000    0.000    0.000 
#
# Total GULP energy -356918.108036 kJ/mol
# GULP energy per Si atom -5576.845438 kJ/mol
# Density = 2.086524 g / cm^3
# Si number density = 20.912839 Si / 1000 Ang^3
#
#
#
# Elastic Constant Matrix: (Units=GPa)
#
#
# Indices 1 2 3 4 5 6 
#
# 1 51.3087 25.0072 6.2881 0.0000 0.0000 0.0000
# 2 25.0072 126.5234 10.6118 0.0000 0.0000 0.0000
# 3 6.2881 10.6118 58.5222 0.0000 0.0000 0.0000
# 4 0.0000 0.0000 0.0000 14.3255 0.0000 0.0000
# 5 0.0000 0.0000 0.0000 0.0000 29.1208 0.0000
# 6 0.0000 0.0000 0.0000 0.0000 0.0000 31.0040
#
#
#
# Elastic Compliance Matrix: (Units=1/GPa)
#
#
# Indices 1 2 3 4 5 6 
#
# 1 0.021710 -0.004159 -0.001579 0.000000 0.000000 0.000000
# 2 -0.004159 0.008822 -0.001153 0.000000 0.000000 0.000000
# 3 -0.001579 -0.001153 0.017466 0.000000 0.000000 0.000000
# 4 0.000000 0.000000 0.000000 0.069806 0.000000 0.000000
# 5 0.000000 0.000000 0.000000 0.000000 0.034340 0.000000
# 6 0.000000 0.000000 0.000000 0.000000 0.000000 0.032254
#
#
# Mechanical properties :
#
#
# Convention : Reuss Voigt Hill
#
# Bulk Modulus (GPa) = 29.22401 35.57426 32.39913
# Shear Modulus (GPa) = 23.85673 27.85320 25.85496
#
# Velocity S-wave (km/s) = 3.38119 3.65344 3.51995
# Velocity P-wave (km/s) = 5.40812 5.90292 5.66093
#
# Compressibility (1/GPa) = 0.03421844
#
# Stress axis : x y z
#
# Youngs Moduli (GPa) = 46.06136 113.34893 57.25335
#
# Poissons Ratio (x) = 0.47137 0.09038
# Poissons Ratio (y) = 0.19155 0.06601
# Poissons Ratio (z) = 0.07271 0.13068
#
# Static dielectric constant tensor:
#      x y z
#    x 1.783030 0.000000 0.000000 
#    y 0.000000 1.782640 0.000000 
#    z 0.000000 0.000000 1.943510 
# 
# From -- ./inp_files/2901.got.cif
#   From: 2010.05.17/outbox.cif.g08.bks.cpg/sg62_2_cif.got.tgz:2901.got - 2010.06.03 15:25:27.
