data_PCOD9462604
_publ_section_title
;
Structure prediction by ZEFSAII (Michael W. Deem and Ramdas Pophale) SiO2 
 PCOD9462604
Probable space group: P N M A
;
_chemical_formula_sum "Si O2"
_cell_formula_units_Z 48
_cell_length_a 11.975399
_cell_length_b 7.424535
_cell_length_c 24.635339
_cell_angle_alpha 90.000000
_cell_angle_beta 90.000000
_cell_angle_gamma 90.000000
_cell_volume 2190.371571
_symmetry_space_group_name_H-M "P N M A"
_symmetry_group_IT_number 62
_symmetry_cell_setting 'orthorhombic'
loop_
_space_group_symop_operation_xyz
x,y,z
1/2-x,-y,1/2+z
1/2+x,1/2-y,1/2-z
-x,1/2+y,-z
-x,-y,-z
1/2+x,y,1/2-z
1/2-x,1/2+y,1/2+z
x,1/2-y,z
loop_
_atom_site_type_symbol
_atom_site_label
_atom_site_fract_x
_atom_site_fract_y
_atom_site_fract_z
Si Si1 0.175529 0.530055 0.201266
Si Si2 0.049912 0.967986 0.095453
Si Si3 0.702004 0.029300 0.579845
Si Si4 0.396212 0.542191 0.141904
Si Si5 0.223099 0.956886 0.533995
Si Si6 0.138115 0.529544 0.324454
O O1 0.177248 0.750000 0.201410
O O2 0.081911 0.479438 0.157082
O O3 0.293638 0.465086 0.176842
O O4 0.155007 0.471681 0.262486
O O5 0.052652 0.750000 0.092775
O O6 0.926923 0.028650 0.078989
O O7 0.150831 0.033567 0.057752
O O8 0.700839 0.250000 0.578091
O O9 0.768545 0.967348 0.526487
O O10 0.764417 0.974027 0.634550
O O11 0.403396 0.750000 0.158938
O O12 0.356999 0.539166 0.079449
O O13 0.518191 0.466959 0.153214
O O14 0.188484 0.750000 0.530007
O O15 0.139971 0.750000 0.324726
#
# Coordination Sequence:
#
# PCOD9462604 Si02
#       6
#     8   8   8   8   8   8
#     4   8  15  26  45  72  97 120 152 195 242 285
#     4   9  17  31  51  76  99 123 159 203 245 284
#     4   9  18  29  45  72 103 129 158 197 241 286
#     4   9  18  32  50  73  97 125 160 198 241 285
#     4  10  19  32  49  69  96 133 167 197 237 283
#     4   9  17  28  46  74 103 126 153 197 246 287
#
# _framework density 21.914089000000001
#
# number of rings (size 3 to 8) (size 9 to 14) (size 15 to 20)
#    0.000    3.000    0.000    2.000    2.333    0.667 
#    0.000    0.833    0.000    6.000    0.000    0.000 
#    0.000    0.000    0.000    0.000    0.000    0.000 
#
# Total GULP energy -267931.818228 kJ/mol
# GULP energy per Si atom -5581.912880 kJ/mol
# Density = 2.186421 g / cm^3
# Si number density = 21.914089 Si / 1000 Ang^3
#
#
#
# Elastic Constant Matrix: (Units=GPa)
#
#
# Indices 1 2 3 4 5 6 
#
# 1 -9.4398 -3.3872 -31.3669 0.0000 0.0000 0.0000
# 2 -3.3872 65.3463 -7.8068 0.0000 0.0000 0.0000
# 3 -31.3669 -7.8068 99.3195 0.0000 0.0000 0.0000
# 4 0.0000 0.0000 0.0000 9.8329 0.0000 0.0000
# 5 0.0000 0.0000 0.0000 0.0000 11.1527 0.0000
# 6 0.0000 0.0000 0.0000 0.0000 0.0000 -2.6860
#
#
#
# Elastic Compliance Matrix: (Units=1/GPa)
#
#
# Indices 1 2 3 4 5 6 
#
# 1 -0.050314 -0.004549 -0.016248 0.000000 0.000000 0.000000
# 2 -0.004549 0.015037 -0.000255 0.000000 0.000000 0.000000
# 3 -0.016248 -0.000255 0.004917 0.000000 0.000000 0.000000
# 4 0.000000 0.000000 0.000000 0.101700 0.000000 0.000000
# 5 0.000000 0.000000 0.000000 0.000000 0.089664 0.000000
# 6 0.000000 0.000000 0.000000 0.000000 0.000000 -0.372299
#
#
# Mechanical properties :
#
#
# Convention : Reuss Voigt Hill
#
# Bulk Modulus (GPa) = -13.80014 7.78937 -3.00538
# Shear Modulus (GPa) = -25.86034 16.84571 -4.50732
#
# Velocity S-wave (km/s) = -3.43895 2.77558 -1.43571
# Velocity P-wave (km/s) = 4.69889 3.71941 2.03046
#
# Compressibility (1/GPa) = -0.07246305
#
# Stress axis : x y z
#
# Youngs Moduli (GPa) = -19.87516 66.50335 203.36825
#
# Poissons Ratio (x) = 0.30253 3.30426
# Poissons Ratio (y) = -0.09041 0.05181
# Poissons Ratio (z) = -0.32292 0.01694
#
# Static dielectric constant tensor:
#      x y z
#    x 1.760010 0.000000 0.000000 
#    y 0.000000 1.855550 0.000000 
#    z 0.000000 0.000000 1.767600 
# 
# From -- ./inp_files/29216.got.cif
#   From: 2010.05.17/outbox.cif.g08.bks.cpg/sg62_15_cif.got.tgz:29216.got - 2010.06.03 15:25:27.
