data_PCOD9462949
_publ_section_title
;
Structure prediction by ZEFSAII (Michael W. Deem and Ramdas Pophale) SiO2 
 PCOD9462949
Probable space group: P N M A
;
_chemical_formula_sum "Si O2"
_cell_formula_units_Z 56
_cell_length_a 21.868563
_cell_length_b 20.724552
_cell_length_c 7.173071
_cell_angle_alpha 90.000000
_cell_angle_beta 90.000000
_cell_angle_gamma 90.000000
_cell_volume 3250.951773
_symmetry_space_group_name_H-M "P N M A"
_symmetry_group_IT_number 62
_symmetry_cell_setting 'orthorhombic'
loop_
_space_group_symop_operation_xyz
x,y,z
1/2-x,-y,1/2+z
1/2+x,1/2-y,1/2-z
-x,1/2+y,-z
-x,-y,-z
1/2+x,y,1/2-z
1/2-x,1/2+y,1/2+z
x,1/2-y,z
loop_
_atom_site_type_symbol
_atom_site_label
_atom_site_fract_x
_atom_site_fract_y
_atom_site_fract_z
Si Si1 0.532714 0.598287 0.922021
Si Si2 0.796555 0.563093 0.824841
Si Si3 0.791186 0.324081 0.345034
Si Si4 0.382714 0.173401 0.828006
Si Si5 0.384909 0.114372 0.419203
Si Si6 0.596014 0.464437 0.044183
Si Si7 0.318968 0.516652 0.293914
O O1 0.554010 0.607123 0.707140
O O2 0.461508 0.582819 0.937808
O O3 0.558513 0.656955 0.044197
O O4 0.568196 0.536165 0.011820
O O5 0.763827 0.630441 0.779072
O O6 0.857321 0.544444 0.714299
O O7 0.744710 0.508664 0.790527
O O8 0.808845 0.566295 0.042907
O O9 0.773566 0.250000 0.363577
O O10 0.824580 0.345612 0.539358
O O11 0.843751 0.333498 0.190253
O O12 0.378443 0.250000 0.793142
O O13 0.388411 0.134855 0.633914
O O14 0.350770 0.046108 0.387776
O O15 0.637749 0.454885 0.863201
#
# Coordination Sequence:
#
# PCOD9462949 Si02
#       7
#     8   8   8   8   8   8   8
#     4   9  20  36  54  77 110 136 178 224 273 328
#     4  11  20  31  53  76 108 140 174 219 265 326
#     4   9  20  34  49  76 107 140 177 219 264 316
#     4  10  19  33  55  78 105 138 179 228 268 311
#     4   9  18  32  55  79 102 135 174 222 267 320
#     4  10  20  36  53  78 108 142 173 223 279 321
#     4  10  20  30  51  81 106 133 172 216 269 321
#
# _framework density 17.225726000000002
#
# number of rings (size 3 to 8) (size 9 to 14) (size 15 to 20)
#    0.000    2.286    1.429    2.143    2.000    1.714 
#    0.000    5.000    0.000    2.571    0.000    0.000 
#    0.000    0.000    0.000    0.000    0.000    0.000 
#
# Total GULP energy -312018.124536 kJ/mol
# GULP energy per Si atom -5571.752224 kJ/mol
# Density = 1.718652 g / cm^3
# Si number density = 17.225726 Si / 1000 Ang^3
#
#
#
# Elastic Constant Matrix: (Units=GPa)
#
#
# Indices 1 2 3 4 5 6 
#
# 1 106.7190 9.2525 29.7189 0.0000 0.0000 0.0000
# 2 9.2525 13.8451 -4.8986 0.0000 0.0000 0.0000
# 3 29.7189 -4.8986 76.8715 0.0000 0.0000 0.0000
# 4 0.0000 0.0000 0.0000 20.9985 0.0000 0.0000
# 5 0.0000 0.0000 0.0000 0.0000 21.9346 0.0000
# 6 0.0000 0.0000 0.0000 0.0000 0.0000 3.7583
#
#
#
# Elastic Compliance Matrix: (Units=1/GPa)
#
#
# Indices 1 2 3 4 5 6 
#
# 1 0.011621 -0.009572 -0.005103 0.000000 0.000000 0.000000
# 2 -0.009572 0.081777 0.008912 0.000000 0.000000 0.000000
# 3 -0.005103 0.008912 0.015549 0.000000 0.000000 0.000000
# 4 0.000000 0.000000 0.000000 0.047622 0.000000 0.000000
# 5 0.000000 0.000000 0.000000 0.000000 0.045590 0.000000
# 6 0.000000 0.000000 0.000000 0.000000 0.000000 0.266077
#
#
# Mechanical properties :
#
#
# Convention : Reuss Voigt Hill
#
# Bulk Modulus (GPa) = 10.26461 29.50903 19.88682
# Shear Modulus (GPa) = 9.76110 20.22912 14.99511
#
# Velocity S-wave (km/s) = 2.38304 3.43060 2.95364
# Velocity P-wave (km/s) = 3.68017 5.73237 4.81683
#
# Compressibility (1/GPa) = 0.09742216
#
# Stress axis : x y z
#
# Youngs Moduli (GPa) = 86.04895 12.22833 64.31125
#
# Poissons Ratio (x) = 0.11705 0.32817
# Poissons Ratio (y) = 0.82364 -0.57312
# Poissons Ratio (z) = 0.43909 -0.10898
#
# Static dielectric constant tensor:
#      x y z
#    x 1.577820 0.000000 0.000000 
#    y 0.000000 1.593590 0.000000 
#    z 0.000000 0.000000 1.610790 
# 
# From -- ./inp_files/2293.got.cif
#   From: 2010.05.17/outbox.cif.g08.bks.cpg/sg62_2_cif.got.tgz:2293.got - 2010.06.03 15:25:27.
