data_PCOD9462251
_publ_section_title
;
Structure prediction by ZEFSAII (Michael W. Deem and Ramdas Pophale) SiO2 
 PCOD9462251
Probable space group: P N M A
;
_chemical_formula_sum "Si O2"
_cell_formula_units_Z 28
_cell_length_a 8.608626
_cell_length_b 10.392099
_cell_length_c 17.491520
_cell_angle_alpha 90.000000
_cell_angle_beta 90.000000
_cell_angle_gamma 90.000000
_cell_volume 1564.821004
_symmetry_space_group_name_H-M "P N M A"
_symmetry_group_IT_number 62
_symmetry_cell_setting 'orthorhombic'
loop_
_space_group_symop_operation_xyz
x,y,z
1/2-x,-y,1/2+z
1/2+x,1/2-y,1/2-z
-x,1/2+y,-z
-x,-y,-z
1/2+x,y,1/2-z
1/2-x,1/2+y,1/2+z
x,1/2-y,z
loop_
_atom_site_type_symbol
_atom_site_label
_atom_site_fract_x
_atom_site_fract_y
_atom_site_fract_z
Si Si1 0.598804 0.250000 0.940050
Si Si2 0.247463 0.750000 0.405363
Si Si3 0.960503 0.896230 0.200122
Si Si4 0.364422 0.250000 0.068919
Si Si5 0.218142 0.486636 0.648950
O O1 0.436641 0.250000 0.892375
O O2 0.689942 0.123080 0.915178
O O3 0.532276 0.250000 0.026175
O O4 0.330767 0.629227 0.365169
O O5 0.255760 0.750000 0.496955
O O6 0.024769 0.750000 0.212903
O O7 0.101519 0.982950 0.172224
O O8 0.878913 0.946236 0.276144
O O9 0.338167 0.377673 0.117200
#
# Coordination Sequence:
#
# PCOD9462251 Si02
#       5
#     4   4   8   4   8
#     4  10  18  40  59  85 115 159 200 235 285 370
#     4   8  20  38  59  93 112 154 204 247 281 365
#     4  10  20  37  64  88 109 164 209 242 272 373
#     4  10  26  36  60  94 131 147 190 264 312 343
#     4  12  21  39  64  90 120 158 201 248 298 346
#
# _framework density 17.893419000000002
#
# number of rings (size 3 to 8) (size 9 to 14) (size 15 to 20)
#    1.714    0.000    2.857    2.571    0.000    2.286 
#    0.000    0.000    0.000    0.000    0.000    0.000 
#    0.000    0.000    0.000    0.000    0.000    0.000 
#
# Total GULP energy -155946.665335 kJ/mol
# GULP energy per Si atom -5569.523762 kJ/mol
# Density = 1.785269 g / cm^3
# Si number density = 17.893419 Si / 1000 Ang^3
#
#
#
# Elastic Constant Matrix: (Units=GPa)
#
#
# Indices 1 2 3 4 5 6 
#
# 1 26.9698 0.3241 15.7574 0.0000 0.0000 0.0000
# 2 0.3241 81.4491 20.0207 0.0000 0.0000 0.0000
# 3 15.7574 20.0207 68.8506 0.0000 0.0000 0.0000
# 4 0.0000 0.0000 0.0000 -12.9190 0.0000 0.0000
# 5 0.0000 0.0000 0.0000 0.0000 26.4942 0.0000
# 6 0.0000 0.0000 0.0000 0.0000 0.0000 -0.0322
#
#
#
# Elastic Compliance Matrix: (Units=1/GPa)
#
#
# Indices 1 2 3 4 5 6 
#
# 1 0.043246 0.002435 -0.010605 0.000000 0.000000 0.000000
# 2 0.002435 0.013360 -0.004442 0.000000 0.000000 0.000000
# 3 -0.010605 -0.004442 0.018243 0.000000 0.000000 0.000000
# 4 0.000000 0.000000 0.000000 -0.077405 0.000000 0.000000
# 5 0.000000 0.000000 0.000000 0.000000 0.037744 0.000000
# 6 0.000000 0.000000 0.000000 0.000000 0.000000-31.033050
#
#
# Mechanical properties :
#
#
# Convention : Reuss Voigt Hill
#
# Bulk Modulus (GPa) = 20.15187 27.71932 23.93559
# Shear Modulus (GPa) = -0.16152 12.11974 5.97911
#
# Velocity S-wave (km/s) = -0.30077 2.60538 1.82996
# Velocity P-wave (km/s) = 3.34156 4.95738 4.22739
#
# Compressibility (1/GPa) = 0.04962319
#
# Stress axis : x y z
#
# Youngs Moduli (GPa) = 23.12378 74.85145 54.81543
#
# Poissons Ratio (x) = -0.18225 0.58133
# Poissons Ratio (y) = -0.05630 0.24349
# Poissons Ratio (z) = 0.24523 0.33249
#
# Static dielectric constant tensor:
#      x y z
#    x 1.609850 0.000000 0.000000 
#    y 0.000000 1.584200 0.000000 
#    z 0.000000 0.000000 1.618480 
# 
# From -- ./inp_files/25523.got.cif
#   From: 2010.05.17/outbox.cif.g08.bks.cpg/sg62_13_cif.got.tgz:25523.got - 2010.06.03 15:25:27.
