data_PCOD9462870
_publ_section_title
;
Structure prediction by ZEFSAII (Michael W. Deem and Ramdas Pophale) SiO2 
 PCOD9462870
Probable space group: P N M A
;
_chemical_formula_sum "Si O2"
_cell_formula_units_Z 64
_cell_length_a 20.109190
_cell_length_b 8.931306
_cell_length_c 20.901686
_cell_angle_alpha 90.000000
_cell_angle_beta 90.000000
_cell_angle_gamma 90.000000
_cell_volume 3753.970590
_symmetry_space_group_name_H-M "P N M A"
_symmetry_group_IT_number 62
_symmetry_cell_setting 'orthorhombic'
loop_
_space_group_symop_operation_xyz
x,y,z
1/2-x,-y,1/2+z
1/2+x,1/2-y,1/2-z
-x,1/2+y,-z
-x,-y,-z
1/2+x,y,1/2-z
1/2-x,1/2+y,1/2+z
x,1/2-y,z
loop_
_atom_site_type_symbol
_atom_site_label
_atom_site_fract_x
_atom_site_fract_y
_atom_site_fract_z
Si Si1 0.060947 0.928213 0.385306
Si Si2 0.928210 0.426491 0.229438
Si Si3 0.699609 0.070408 0.317227
Si Si4 0.783917 0.067859 0.192370
Si Si5 0.921027 0.074410 0.383500
Si Si6 0.284665 0.928220 0.071867
Si Si7 0.804115 0.570162 0.571840
Si Si8 0.067127 0.572489 0.233170
O O1 0.555840 0.750000 0.106739
O O2 0.072332 0.960519 0.309471
O O3 0.124268 0.993180 0.421849
O O4 0.991526 0.005190 0.404007
O O5 0.938087 0.250000 0.215795
O O6 0.860504 0.480639 0.196182
O O7 0.917599 0.439081 0.306134
O O8 0.994509 0.515810 0.212619
O O9 0.699748 0.250000 0.319491
O O10 0.745019 0.022344 0.256556
O O11 0.732726 0.005660 0.380837
O O12 0.626081 0.010415 0.303442
O O13 0.785238 0.250000 0.192497
O O14 0.743041 0.020082 0.130084
O O15 0.917854 0.250000 0.399658
O O16 0.858112 0.988780 0.411711
O O17 0.282761 0.750000 0.081453
O O18 0.272742 0.960680 0.997187
O O19 0.813511 0.750000 0.577414
O O20 0.073130 0.750000 0.224901
#
# Coordination Sequence:
#
# PCOD9462870 Si02
#       8
#     8   8   8   8   8   8   8   8
#     4  10  20  33  51  78 110 143 179 223 269 315
#     4   9  17  32  54  80 104 134 176 220 262 312
#     4  11  20  35  59  81 104 142 184 223 262 315
#     4   9  17  33  57  81 102 133 182 223 260 312
#     4  10  19  33  53  76 105 145 186 219 260 320
#     4  11  23  36  52  78 112 144 177 223 276 320
#     4  10  21  37  55  76 107 147 182 220 269 324
#     4  10  20  33  51  82 114 138 168 218 276 319
#
# _framework density 17.048615999999999
#
# number of rings (size 3 to 8) (size 9 to 14) (size 15 to 20)
#    0.000    2.000    2.500    1.875    0.000    3.000 
#    0.000    0.625    0.000    0.750    0.000    0.000 
#    0.000    0.000    0.000    0.000    0.000    0.000 
#
# Total GULP energy -357308.105775 kJ/mol
# GULP energy per Si atom -5582.939153 kJ/mol
# Density = 1.700981 g / cm^3
# Si number density = 17.048616 Si / 1000 Ang^3
#
#
#
# Elastic Constant Matrix: (Units=GPa)
#
#
# Indices 1 2 3 4 5 6 
#
# 1 87.4014 20.6663 16.7179 0.0000 0.0000 0.0000
# 2 20.6663 37.2197 22.3948 0.0000 0.0000 0.0000
# 3 16.7179 22.3948 36.2644 0.0000 0.0000 0.0000
# 4 0.0000 0.0000 0.0000 19.1777 0.0000 0.0000
# 5 0.0000 0.0000 0.0000 0.0000 18.1642 0.0000
# 6 0.0000 0.0000 0.0000 0.0000 0.0000 28.2348
#
#
#
# Elastic Compliance Matrix: (Units=1/GPa)
#
#
# Indices 1 2 3 4 5 6 
#
# 1 0.013312 -0.005886 -0.002502 0.000000 0.000000 0.000000
# 2 -0.005886 0.045356 -0.025296 0.000000 0.000000 0.000000
# 3 -0.002502 -0.025296 0.044350 0.000000 0.000000 0.000000
# 4 0.000000 0.000000 0.000000 0.052144 0.000000 0.000000
# 5 0.000000 0.000000 0.000000 0.000000 0.055053 0.000000
# 6 0.000000 0.000000 0.000000 0.000000 0.000000 0.035417
#
#
# Mechanical properties :
#
#
# Convention : Reuss Voigt Hill
#
# Bulk Modulus (GPa) = 28.05030 31.16039 29.60535
# Shear Modulus (GPa) = 15.39017 19.85577 17.62297
#
# Velocity S-wave (km/s) = 3.00779 3.41641 3.21859
# Velocity P-wave (km/s) = 5.34334 5.82061 5.58707
#
# Compressibility (1/GPa) = 0.03565024
#
# Stress axis : x y z
#
# Youngs Moduli (GPa) = 75.12142 22.04784 22.54803
#
# Poissons Ratio (x) = 0.12977 0.05641
# Poissons Ratio (y) = 0.44217 0.57037
# Poissons Ratio (z) = 0.18794 0.55772
#
# Static dielectric constant tensor:
#      x y z
#    x 1.556430 0.000000 0.000000 
#    y 0.000000 1.567930 0.000000 
#    z 0.000000 0.000000 1.576960 
# 
# From -- ./inp_files/27630.got.cif
#   From: 2010.05.17/outbox.cif.g08.bks.cpg/sg62_14_cif.got.tgz:27630.got - 2010.06.03 15:25:27.
