data_PCOD9462120
_publ_section_title
;
Structure prediction by ZEFSAII (Michael W. Deem and Ramdas Pophale) SiO2 
 PCOD9462120
Probable space group: P N M A
;
_chemical_formula_sum "Si O2"
_cell_formula_units_Z 36
_cell_length_a 12.563415
_cell_length_b 8.591649
_cell_length_c 13.820377
_cell_angle_alpha 90.000000
_cell_angle_beta 90.000000
_cell_angle_gamma 90.000000
_cell_volume 1491.777739
_symmetry_space_group_name_H-M "P N M A"
_symmetry_group_IT_number 62
_symmetry_cell_setting 'orthorhombic'
loop_
_space_group_symop_operation_xyz
x,y,z
1/2-x,-y,1/2+z
1/2+x,1/2-y,1/2-z
-x,1/2+y,-z
-x,-y,-z
1/2+x,y,1/2-z
1/2-x,1/2+y,1/2+z
x,1/2-y,z
loop_
_atom_site_type_symbol
_atom_site_label
_atom_site_fract_x
_atom_site_fract_y
_atom_site_fract_z
Si Si1 0.584373 0.750000 0.599352
Si Si2 0.938055 0.750000 0.496933
Si Si3 0.214628 0.996285 0.593194
Si Si4 0.199263 0.083879 0.897029
Si Si5 0.890027 0.250000 0.669169
Si Si6 0.566997 0.750000 0.809385
Si Si7 0.609436 0.750000 0.375284
O O1 0.645914 0.584614 0.611487
O O2 0.519163 0.750000 0.700870
O O3 0.556582 0.750000 0.483373
O O4 0.867680 0.603205 0.466765
O O5 0.036646 0.750000 0.423993
O O6 0.979051 0.750000 0.606194
O O7 0.272857 0.902434 0.509702
O O8 0.145229 0.896944 0.668113
O O9 0.308880 0.105246 0.630721
O O10 0.144805 0.250000 0.869352
O O11 0.311141 0.102186 0.841418
O O12 0.947955 0.250000 0.771562
#
# Coordination Sequence:
#
# PCOD9462120 Si02
#       7
#     4   4   8   8   4   4   4
#     4  10  21  33  53  81 107 150 189 228 277 337
#     4  11  22  33  57  87 114 147 185 241 302 333
#     4  10  19  35  54  83 109 144 187 240 288 335
#     4   9  18  34  52  79 111 141 181 230 285 328
#     4  10  18  34  52  80 114 146 180 232 278 346
#     4  12  19  31  53  81 115 136 185 240 285 331
#     4   9  20  35  55  75 110 149 187 221 282 339
#
# _framework density 24.132280000000002
#
# number of rings (size 3 to 8) (size 9 to 14) (size 15 to 20)
#    0.667    1.333    3.333    2.667    0.000    0.000 
#    0.000    0.000    0.000    1.333    0.000    3.111 
#    0.000    0.000    0.000    0.000    0.000    0.000 
#
# Total GULP energy -200463.995925 kJ/mol
# GULP energy per Si atom -5568.444331 kJ/mol
# Density = 2.407735 g / cm^3
# Si number density = 24.132280 Si / 1000 Ang^3
#
#
#
# Elastic Constant Matrix: (Units=GPa)
#
#
# Indices 1 2 3 4 5 6 
#
# 1 22.1753 11.2866 -0.8234 0.0000 0.0000 0.0000
# 2 11.2866 147.1705 8.3675 0.0000 0.0000 0.0000
# 3 -0.8234 8.3675 135.1822 0.0000 0.0000 0.0000
# 4 0.0000 0.0000 0.0000 61.8860 0.0000 0.0000
# 5 0.0000 0.0000 0.0000 0.0000 7.0721 0.0000
# 6 0.0000 0.0000 0.0000 0.0000 0.0000 10.4502
#
#
#
# Elastic Compliance Matrix: (Units=1/GPa)
#
#
# Indices 1 2 3 4 5 6 
#
# 1 0.046962 -0.003631 0.000511 0.000000 0.000000 0.000000
# 2 -0.003631 0.007100 -0.000462 0.000000 0.000000 0.000000
# 3 0.000511 -0.000462 0.007429 0.000000 0.000000 0.000000
# 4 0.000000 0.000000 0.000000 0.016159 0.000000 0.000000
# 5 0.000000 0.000000 0.000000 0.000000 0.141400 0.000000
# 6 0.000000 0.000000 0.000000 0.000000 0.000000 0.095692
#
#
# Mechanical properties :
#
#
# Convention : Reuss Voigt Hill
#
# Bulk Modulus (GPa) = 18.40676 38.02103 28.21389
# Shear Modulus (GPa) = 14.70527 34.92814 24.81671
#
# Velocity S-wave (km/s) = 2.47120 3.80855 3.21029
# Velocity P-wave (km/s) = 3.97322 5.92702 5.04559
#
# Compressibility (1/GPa) = 0.05432788
#
# Stress axis : x y z
#
# Youngs Moduli (GPa) = 21.29383 140.85480 134.60569
#
# Poissons Ratio (x) = 0.51138 -0.06875
# Poissons Ratio (y) = 0.07731 0.06213
# Poissons Ratio (z) = -0.01088 0.06501
#
# Static dielectric constant tensor:
#      x y z
#    x 2.056000 0.000000 0.000000 
#    y 0.000000 2.017700 0.000000 
#    z 0.000000 0.000000 1.925900 
# 
# From -- ./inp_files/18572.got.cif
#   From: 2010.05.17/outbox.cif.g08.bks.cpg/sg62_10_cif.got.tgz:18572.got - 2010.06.03 15:25:27.
