data_PCOD9462275
_publ_section_title
;
Structure prediction by ZEFSAII (Michael W. Deem and Ramdas Pophale) SiO2 
 PCOD9462275
Probable space group: P N M A
;
_chemical_formula_sum "Si O2"
_cell_formula_units_Z 60
_cell_length_a 5.368814
_cell_length_b 28.791149
_cell_length_c 19.918153
_cell_angle_alpha 90.000000
_cell_angle_beta 90.000000
_cell_angle_gamma 90.000000
_cell_volume 3078.835032
_symmetry_space_group_name_H-M "P N M A"
_symmetry_group_IT_number 62
_symmetry_cell_setting 'orthorhombic'
loop_
_space_group_symop_operation_xyz
x,y,z
1/2-x,-y,1/2+z
1/2+x,1/2-y,1/2-z
-x,1/2+y,-z
-x,-y,-z
1/2+x,y,1/2-z
1/2-x,1/2+y,1/2+z
x,1/2-y,z
loop_
_atom_site_type_symbol
_atom_site_label
_atom_site_fract_x
_atom_site_fract_y
_atom_site_fract_z
Si Si1 0.250453 0.065545 0.991338
Si Si2 0.201761 0.950792 0.293851
Si Si3 0.750611 0.450292 0.137251
Si Si4 0.750536 0.103077 0.366847
Si Si5 0.210244 0.198548 0.205882
Si Si6 0.816542 0.250000 0.705694
Si Si7 0.250630 0.040724 0.524377
Si Si8 0.214479 0.348522 0.792894
O O1 0.251172 0.101460 0.051757
O O2 0.501410 0.063436 0.949687
O O3 0.999273 0.063710 0.949762
O O4 0.249652 0.014791 0.030455
O O5 0.424991 0.953172 0.238369
O O6 0.239123 0.899072 0.324143
O O7 0.236776 0.997158 0.337554
O O8 0.504166 0.421756 0.157659
O O9 0.750365 0.450383 0.055880
O O10 0.007111 0.425250 0.157676
O O11 0.734090 0.155426 0.343082
O O12 0.445625 0.195310 0.256193
O O13 0.222982 0.250000 0.174420
O O14 0.596223 0.250000 0.763085
O O15 0.768833 0.200414 0.669713
O O16 0.430556 0.347298 0.734714
#
# Coordination Sequence:
#
# PCOD9462275 Si02
#       8
#     8   8   8   8   8   4   8   8
#     4   8  14  25  41  59  79 100 124 160 198 235
#     4  10  19  28  36  51  79 110 136 164 196 232
#     4  10  19  28  41  61  84 111 139 169 205 255
#     4  10  19  30  45  63  80 105 142 174 205 253
#     4  10  21  35  48  62  84 114 146 186 229 262
#     4   8  12  20  34  48  60  80 114 152 184 210
#     4   8  14  25  39  57  81 104 124 155 198 238
#     4   8  14  23  34  47  65  90 119 154 187 214
#
# _framework density 19.487888000000002
#
# number of rings (size 3 to 8) (size 9 to 14) (size 15 to 20)
#    0.000    2.933    0.000    1.600    0.000    3.200 
#    0.000    0.000    0.000    0.000    0.000    0.000 
#    2.000    0.000    0.000    0.000   94.667    0.000 
#
# Total GULP energy -334267.129108 kJ/mol
# GULP energy per Si atom -5571.118818 kJ/mol
# Density = 1.944353 g / cm^3
# Si number density = 19.487888 Si / 1000 Ang^3
#
#
#
# Elastic Constant Matrix: (Units=GPa)
#
#
# Indices 1 2 3 4 5 6 
#
# 1 145.3553 11.9856 4.8494 0.0000 0.0000 0.0000
# 2 11.9856 139.6022 28.7475 0.0000 0.0000 0.0000
# 3 4.8494 28.7475 20.6484 0.0000 0.0000 0.0000
# 4 0.0000 0.0000 0.0000 21.0730 0.0000 0.0000
# 5 0.0000 0.0000 0.0000 0.0000 9.2291 0.0000
# 6 0.0000 0.0000 0.0000 0.0000 0.0000 28.5612
#
#
#
# Elastic Compliance Matrix: (Units=1/GPa)
#
#
# Indices 1 2 3 4 5 6 
#
# 1 0.006947 -0.000365 -0.001123 0.000000 0.000000 0.000000
# 2 -0.000365 0.010061 -0.013922 0.000000 0.000000 0.000000
# 3 -0.001123 -0.013922 0.068077 0.000000 0.000000 0.000000
# 4 0.000000 0.000000 0.000000 0.047454 0.000000 0.000000
# 5 0.000000 0.000000 0.000000 0.000000 0.108353 0.000000
# 6 0.000000 0.000000 0.000000 0.000000 0.000000 0.035013
#
#
# Mechanical properties :
#
#
# Convention : Reuss Voigt Hill
#
# Bulk Modulus (GPa) = 18.42833 44.08567 31.25700
# Shear Modulus (GPa) = 15.39339 29.10755 22.25047
#
# Velocity S-wave (km/s) = 2.81356 3.86893 3.38266
# Velocity P-wave (km/s) = 4.47567 6.52912 5.59737
#
# Compressibility (1/GPa) = 0.05426428
#
# Stress axis : x y z
#
# Youngs Moduli (GPa) = 143.94125 99.38896 14.68931
#
# Poissons Ratio (x) = 0.03629 0.01650
# Poissons Ratio (y) = 0.05256 0.20451
# Poissons Ratio (z) = 0.16168 1.38371
#
# Static dielectric constant tensor:
#      x y z
#    x 1.810160 0.000000 0.000000 
#    y 0.000000 1.690090 0.000000 
#    z 0.000000 0.000000 1.711010 
# 
# From -- ./inp_files/28451.got.cif
#   From: 2010.05.17/outbox.cif.g08.bks.cpg/sg62_15_cif.got.tgz:28451.got - 2010.06.03 15:25:27.
