data_PCOD9462232
_publ_section_title
;
Structure prediction by ZEFSAII (Michael W. Deem and Ramdas Pophale) SiO2 
 PCOD9462232
Probable space group: P N M A
;
_chemical_formula_sum "Si O2"
_cell_formula_units_Z 40
_cell_length_a 24.626559
_cell_length_b 10.063395
_cell_length_c 6.722211
_cell_angle_alpha 90.000000
_cell_angle_beta 90.000000
_cell_angle_gamma 90.000000
_cell_volume 1665.943979
_symmetry_space_group_name_H-M "P N M A"
_symmetry_group_IT_number 62
_symmetry_cell_setting 'orthorhombic'
loop_
_space_group_symop_operation_xyz
x,y,z
1/2-x,-y,1/2+z
1/2+x,1/2-y,1/2-z
-x,1/2+y,-z
-x,-y,-z
1/2+x,y,1/2-z
1/2-x,1/2+y,1/2+z
x,1/2-y,z
loop_
_atom_site_type_symbol
_atom_site_label
_atom_site_fract_x
_atom_site_fract_y
_atom_site_fract_z
Si Si1 0.821731 0.465402 0.487375
Si Si2 0.696648 0.250000 0.081127
Si Si3 0.623030 0.750000 0.743591
Si Si4 0.997382 0.250000 0.343171
Si Si5 0.737710 0.250000 0.517910
Si Si6 0.618757 0.250000 0.434832
Si Si7 0.929011 0.979665 0.739719
Si Si8 0.044580 0.750000 0.089672
O O1 0.800578 0.614406 0.461598
O O2 0.844413 0.381918 0.301758
O O3 0.772844 0.377677 0.575680
O O4 0.873538 0.476073 0.633034
O O5 0.735770 0.250000 0.273052
O O6 0.639396 0.250000 0.202147
O O7 0.567240 0.750000 0.879530
O O8 0.603836 0.750000 0.516863
O O9 0.032441 0.380939 0.387719
O O10 0.993526 0.250000 0.101616
O O11 0.588804 0.108091 0.434758
O O12 0.673601 0.250000 0.561964
O O13 0.960804 0.113059 0.795335
#
# Coordination Sequence:
#
# PCOD9462232 Si02
#       8
#     8   4   4   4   4   4   8   4
#     4  10  19  39  60  85 116 151 195 246 289 352
#     4   8  18  37  57  75 114 154 180 228 296 350
#     4   9  22  36  54  86 122 147 189 260 278 325
#     4   9  21  37  58  84 121 158 198 243 278 346
#     4   9  18  38  56  86 112 140 196 238 284 345
#     4   7  17  35  54  81 104 151 188 241 269 353
#     4  10  18  37  63  81 116 162 199 227 299 346
#     4  10  20  35  55  88 115 158 191 244 279 341
#
# _framework density 24.010411999999999
#
# number of rings (size 3 to 8) (size 9 to 14) (size 15 to 20)
#    1.200    1.600    0.000    2.400    0.000    0.800 
#    7.200    5.000    0.000    0.000    0.000    0.000 
#    0.000    0.000    0.000    0.000    0.000    0.000 
#
# Total GULP energy -222796.372018 kJ/mol
# GULP energy per Si atom -5569.909300 kJ/mol
# Density = 2.395576 g / cm^3
# Si number density = 24.010412 Si / 1000 Ang^3
#
#
#
# Elastic Constant Matrix: (Units=GPa)
#
#
# Indices 1 2 3 4 5 6 
#
# 1 83.5536 32.0156 2.1243 0.0000 0.0000 0.0000
# 2 32.0156 185.7743 18.9130 0.0000 0.0000 0.0000
# 3 2.1243 18.9130 47.1973 0.0000 0.0000 0.0000
# 4 0.0000 0.0000 0.0000 16.3920 0.0000 0.0000
# 5 0.0000 0.0000 0.0000 0.0000 37.1931 0.0000
# 6 0.0000 0.0000 0.0000 0.0000 0.0000 132.5882
#
#
#
# Elastic Compliance Matrix: (Units=1/GPa)
#
#
# Indices 1 2 3 4 5 6 
#
# 1 0.012819 -0.002242 0.000321 0.000000 0.000000 0.000000
# 2 -0.002242 0.006004 -0.002305 0.000000 0.000000 0.000000
# 3 0.000321 -0.002305 0.022097 0.000000 0.000000 0.000000
# 4 0.000000 0.000000 0.000000 0.061005 0.000000 0.000000
# 5 0.000000 0.000000 0.000000 0.000000 0.026887 0.000000
# 6 0.000000 0.000000 0.000000 0.000000 0.000000 0.007542
#
#
# Mechanical properties :
#
#
# Convention : Reuss Voigt Hill
#
# Bulk Modulus (GPa) = 30.79865 46.95900 38.87882
# Shear Modulus (GPa) = 32.12784 54.79949 43.46366
#
# Velocity S-wave (km/s) = 3.66195 4.78255 4.25926
# Velocity P-wave (km/s) = 5.54390 7.07794 6.35736
#
# Compressibility (1/GPa) = 0.03246896
#
# Stress axis : x y z
#
# Youngs Moduli (GPa) = 78.00772 166.55822 45.25534
#
# Poissons Ratio (x) = 0.37341 -0.01455
# Poissons Ratio (y) = 0.17489 0.10431
# Poissons Ratio (z) = -0.02507 0.38391
#
# Static dielectric constant tensor:
#      x y z
#    x 1.963060 0.000000 0.000000 
#    y 0.000000 1.945090 0.000000 
#    z 0.000000 0.000000 1.948910 
# 
# From -- ./inp_files/15389.got.cif
#   From: 2010.05.17/outbox.cif.g08.bks.cpg/sg62_8_cif.got.tgz:15389.got - 2010.06.03 15:25:27.
