data_PCOD9462819
_publ_section_title
;
Structure prediction by ZEFSAII (Michael W. Deem and Ramdas Pophale) SiO2 
 PCOD9462819
Probable space group: P N M A
;
_chemical_formula_sum "Si O2"
_cell_formula_units_Z 48
_cell_length_a 8.559348
_cell_length_b 20.627014
_cell_length_c 15.345686
_cell_angle_alpha 90.000000
_cell_angle_beta 90.000000
_cell_angle_gamma 90.000000
_cell_volume 2709.339039
_symmetry_space_group_name_H-M "P N M A"
_symmetry_group_IT_number 62
_symmetry_cell_setting 'orthorhombic'
loop_
_space_group_symop_operation_xyz
x,y,z
1/2-x,-y,1/2+z
1/2+x,1/2-y,1/2-z
-x,1/2+y,-z
-x,-y,-z
1/2+x,y,1/2-z
1/2-x,1/2+y,1/2+z
x,1/2-y,z
loop_
_atom_site_type_symbol
_atom_site_label
_atom_site_fract_x
_atom_site_fract_y
_atom_site_fract_z
Si Si1 0.416866 0.960412 0.309597
Si Si2 0.438720 0.047986 0.871935
Si Si3 0.941022 0.427502 0.979816
Si Si4 0.008338 0.388731 0.155774
Si Si5 0.183334 0.325678 0.306535
Si Si6 0.419040 0.589762 0.960620
O O1 0.238395 0.951054 0.338071
O O2 0.450572 0.941072 0.210699
O O3 0.520898 0.919901 0.378586
O O4 0.460845 0.037009 0.320066
O O5 0.466387 0.975414 0.908966
O O6 0.473765 0.094305 0.953931
O O7 0.035433 0.386486 0.051976
O O8 0.758809 0.420417 0.003848
O O9 0.000000 0.500000 0.000000
O O10 0.862351 0.342140 0.173648
O O11 0.141964 0.365666 0.219904
O O12 0.156331 0.250000 0.294601
O O13 0.086819 0.353772 0.389063
#
# Coordination Sequence:
#
# PCOD9462819 Si02
#       6
#     8   8   8   8   8   8
#     4  11  18  33  50  78 102 141 158 211 261 315
#     4  11  20  30  51  73 108 130 170 205 268 312
#     4   9  17  31  48  69 103 131 170 200 256 302
#     4  10  19  33  47  74 102 136 174 206 243 305
#     4  11  21  35  51  71 103 143 179 210 246 292
#     4  10  20  33  46  76 101 139 171 211 251 312
#
# _framework density 17.716498000000001
#
# number of rings (size 3 to 8) (size 9 to 14) (size 15 to 20)
#    0.000    1.667    6.667    1.500    0.000    2.667 
#    0.000    0.000    0.000    0.000    0.000   11.667 
#    0.000    0.000    0.000    0.000    0.000    0.000 
#
# Total GULP energy -267605.047393 kJ/mol
# GULP energy per Si atom -5575.105154 kJ/mol
# Density = 1.767617 g / cm^3
# Si number density = 17.716498 Si / 1000 Ang^3
#
#
#
# Elastic Constant Matrix: (Units=GPa)
#
#
# Indices 1 2 3 4 5 6 
#
# 1 25.6034 10.5150 28.6510 0.0000 0.0000 0.0000
# 2 10.5150 34.6395 12.0751 0.0000 0.0000 0.0000
# 3 28.6510 12.0751 133.7281 0.0000 0.0000 0.0000
# 4 0.0000 0.0000 0.0000 10.9032 0.0000 0.0000
# 5 0.0000 0.0000 0.0000 0.0000 24.5827 0.0000
# 6 0.0000 0.0000 0.0000 0.0000 0.0000 13.0561
#
#
#
# Elastic Compliance Matrix: (Units=1/GPa)
#
#
# Indices 1 2 3 4 5 6 
#
# 1 0.056845 -0.013433 -0.010966 0.000000 0.000000 0.000000
# 2 -0.013433 0.032981 -0.000100 0.000000 0.000000 0.000000
# 3 -0.010966 -0.000100 0.009836 0.000000 0.000000 0.000000
# 4 0.000000 0.000000 0.000000 0.091716 0.000000 0.000000
# 5 0.000000 0.000000 0.000000 0.000000 0.040679 0.000000
# 6 0.000000 0.000000 0.000000 0.000000 0.000000 0.076593
#
#
# Mechanical properties :
#
#
# Convention : Reuss Voigt Hill
#
# Bulk Modulus (GPa) = 19.73760 32.93924 26.33842
# Shear Modulus (GPa) = 13.34978 19.22372 16.28675
#
# Velocity S-wave (km/s) = 2.74801 3.29762 3.03528
# Velocity P-wave (km/s) = 4.60801 5.75603 5.21371
#
# Compressibility (1/GPa) = 0.05066471
#
# Stress axis : x y z
#
# Youngs Moduli (GPa) = 17.59157 30.32017 101.66362
#
# Poissons Ratio (x) = 0.40729 1.11485
# Poissons Ratio (y) = 0.23631 0.01017
# Poissons Ratio (z) = 0.19291 0.00303
#
# Static dielectric constant tensor:
#      x y z
#    x 1.643580 0.000000 0.000000 
#    y 0.000000 1.582780 0.000000 
#    z 0.000000 0.000000 1.716050 
# 
# From -- ./inp_files/17086.got.cif
#   From: 2010.05.17/outbox.cif.g08.bks.cpg/sg62_9_cif.got.tgz:17086.got - 2010.06.03 15:25:27.
