data_PCOD9462243
_publ_section_title
;
Structure prediction by ZEFSAII (Michael W. Deem and Ramdas Pophale) SiO2 
 PCOD9462243
Probable space group: P N M A
;
_chemical_formula_sum "Si O2"
_cell_formula_units_Z 56
_cell_length_a 14.645722
_cell_length_b 30.916626
_cell_length_c 5.053535
_cell_angle_alpha 90.000000
_cell_angle_beta 90.000000
_cell_angle_gamma 90.000000
_cell_volume 2288.221998
_symmetry_space_group_name_H-M "P N M A"
_symmetry_group_IT_number 62
_symmetry_cell_setting 'orthorhombic'
loop_
_space_group_symop_operation_xyz
x,y,z
1/2-x,-y,1/2+z
1/2+x,1/2-y,1/2-z
-x,1/2+y,-z
-x,-y,-z
1/2+x,y,1/2-z
1/2-x,1/2+y,1/2+z
x,1/2-y,z
loop_
_atom_site_type_symbol
_atom_site_label
_atom_site_fract_x
_atom_site_fract_y
_atom_site_fract_z
Si Si1 0.195193 0.008219 0.609869
Si Si2 0.610793 0.750000 0.846449
Si Si3 0.757817 0.403627 0.916151
Si Si4 0.852085 0.342173 0.559262
Si Si5 0.917965 0.071611 0.244559
Si Si6 0.102105 0.112961 0.215074
Si Si7 0.050575 0.162808 0.721939
Si Si8 0.521005 0.250000 0.655146
O O1 0.113899 0.974287 0.639522
O O2 0.272729 0.989646 0.807200
O O3 0.195727 0.057971 0.705407
O O4 0.660808 0.703382 0.902161
O O5 0.529676 0.750000 0.061998
O O6 0.556940 0.750000 0.569154
O O7 0.859039 0.423335 0.972919
O O8 0.704301 0.394744 0.188768
O O9 0.772819 0.360402 0.748073
O O10 0.883450 0.384314 0.389865
O O11 0.940796 0.334699 0.744076
O O12 0.027080 0.075194 0.251702
O O13 0.072223 0.151077 0.420849
O O14 0.085993 0.126964 0.918217
O O15 0.083273 0.207887 0.838815
#
# Coordination Sequence:
#
# PCOD9462243 Si02
#       8
#     8   4   8   8   8   8   8   4
#     4  10  21  37  62  92 119 167 213 258 323 387
#     4  10  22  32  64  95 119 154 221 238 323 374
#     4  11  23  39  64  89 133 165 214 266 326 378
#     4  10  20  39  62  89 123 167 201 272 314 383
#     4  10  21  41  65  86 130 165 215 263 322 378
#     4  11  24  37  62  94 120 169 213 255 321 389
#     4  10  21  39  60  90 121 158 215 255 320 375
#     4  10  18  38  62  89 119 162 203 270 297 380
#
# _framework density 24.473151999999999
#
# number of rings (size 3 to 8) (size 9 to 14) (size 15 to 20)
#    0.000    1.714    2.857    2.571    4.000    0.571 
#    0.000    1.429    0.000    6.857    0.000    0.000 
#    0.000    0.000    0.000    0.000    0.000    0.000 
#
# Total GULP energy -312275.840889 kJ/mol
# GULP energy per Si atom -5576.354302 kJ/mol
# Density = 2.441745 g / cm^3
# Si number density = 24.473152 Si / 1000 Ang^3
#
#
#
# Elastic Constant Matrix: (Units=GPa)
#
#
# Indices 1 2 3 4 5 6 
#
# 1 75.1191 2.4154 18.8137 0.0000 0.0000 0.0000
# 2 2.4154 130.9842 29.1163 0.0000 0.0000 0.0000
# 3 18.8137 29.1163 61.8362 0.0000 0.0000 0.0000
# 4 0.0000 0.0000 0.0000 29.8063 0.0000 0.0000
# 5 0.0000 0.0000 0.0000 0.0000 34.9094 0.0000
# 6 0.0000 0.0000 0.0000 0.0000 0.0000 21.9179
#
#
#
# Elastic Compliance Matrix: (Units=1/GPa)
#
#
# Indices 1 2 3 4 5 6 
#
# 1 0.014484 0.000796 -0.004782 0.000000 0.000000 0.000000
# 2 0.000796 0.008571 -0.004278 0.000000 0.000000 0.000000
# 3 -0.004782 -0.004278 0.019641 0.000000 0.000000 0.000000
# 4 0.000000 0.000000 0.000000 0.033550 0.000000 0.000000
# 5 0.000000 0.000000 0.000000 0.000000 0.028646 0.000000
# 6 0.000000 0.000000 0.000000 0.000000 0.000000 0.045625
#
#
# Mechanical properties :
#
#
# Convention : Reuss Voigt Hill
#
# Bulk Modulus (GPa) = 38.21361 40.95892 39.58627
# Shear Modulus (GPa) = 28.44695 31.83301 30.13998
#
# Velocity S-wave (km/s) = 3.41306 3.61048 3.51316
# Velocity P-wave (km/s) = 5.58394 5.84409 5.71549
#
# Compressibility (1/GPa) = 0.02616869
#
# Stress axis : x y z
#
# Youngs Moduli (GPa) = 69.04097 116.67620 50.91452
#
# Poissons Ratio (x) = -0.09285 0.24345
# Poissons Ratio (y) = -0.05494 0.21780
# Poissons Ratio (z) = 0.33012 0.49911
#
# Static dielectric constant tensor:
#      x y z
#    x 1.970630 0.000000 0.000000 
#    y 0.000000 2.204640 0.000000 
#    z 0.000000 0.000000 1.981380 
# 
# From -- ./inp_files/1312.got.cif
#   From: 2010.05.17/outbox.cif.g08.bks.cpg/sg62_1_cif.got.tgz:1312.got - 2010.06.03 15:25:27.
