data_PCOD9462030
_publ_section_title
;
Structure prediction by ZEFSAII (Michael W. Deem and Ramdas Pophale) SiO2 
 PCOD9462030
Probable space group: P N M A
;
_chemical_formula_sum "Si O2"
_cell_formula_units_Z 64
_cell_length_a 34.601562
_cell_length_b 8.667069
_cell_length_c 12.277726
_cell_angle_alpha 90.000000
_cell_angle_beta 90.000000
_cell_angle_gamma 90.000000
_cell_volume 3682.017900
_symmetry_space_group_name_H-M "P N M A"
_symmetry_group_IT_number 62
_symmetry_cell_setting 'orthorhombic'
loop_
_space_group_symop_operation_xyz
x,y,z
1/2-x,-y,1/2+z
1/2+x,1/2-y,1/2-z
-x,1/2+y,-z
-x,-y,-z
1/2+x,y,1/2-z
1/2-x,1/2+y,1/2+z
x,1/2-y,z
loop_
_atom_site_type_symbol
_atom_site_label
_atom_site_fract_x
_atom_site_fract_y
_atom_site_fract_z
Si Si1 0.824272 0.437046 0.110771
Si Si2 0.630136 0.565293 0.172734
Si Si3 0.466249 0.565523 0.145375
Si Si4 0.333557 0.934290 0.042865
Si Si5 0.547913 0.434652 0.107791
Si Si6 0.813743 0.436550 0.863659
Si Si7 0.231312 0.935346 0.693976
Si Si8 0.390072 0.064838 0.226747
O O1 0.823290 0.250000 0.107682
O O2 0.818924 0.491694 0.987891
O O3 0.790578 0.485009 0.194874
O O4 0.864894 0.479371 0.167408
O O5 0.628430 0.750000 0.163774
O O6 0.587380 0.498363 0.157220
O O7 0.650221 0.523659 0.286702
O O8 0.656566 0.500630 0.075105
O O9 0.465953 0.750000 0.153089
O O10 0.509317 0.502327 0.162155
O O11 0.433683 0.494196 0.222620
O O12 0.454633 0.522131 0.020679
O O13 0.333081 0.750000 0.039468
O O14 0.293965 0.997268 0.094544
O O15 0.367118 0.991519 0.124922
O O16 0.547444 0.250000 0.113936
O O17 0.810334 0.250000 0.864552
O O18 0.774635 0.505198 0.814194
O O19 0.230077 0.750000 0.689106
O O20 0.389034 0.250000 0.215762
#
# Coordination Sequence:
#
# PCOD9462030 Si02
#       8
#     8   8   8   8   8   8   8   8
#     4   8  18  37  56  76 105 141 178 220 269 322
#     4  11  22  35  54  80 112 146 182 225 271 325
#     4  10  19  31  51  81 113 146 177 218 270 322
#     4  11  21  34  53  77 108 144 180 220 270 324
#     4  10  20  33  51  77 113 149 180 220 269 325
#     4  10  22  39  57  79 107 144 183 222 272 326
#     4  10  21  37  57  81 106 137 179 228 276 321
#     4  10  18  32  56  81 107 140 178 221 269 321
#
# _framework density 17.381772999999999
#
# number of rings (size 3 to 8) (size 9 to 14) (size 15 to 20)
#    0.000    2.000    1.250    3.750    1.750    2.000 
#    0.000    3.125    0.000    0.750    0.000    0.000 
#    0.000    0.000    0.000    0.000    0.000    0.000 
#
# Total GULP energy -357285.137754 kJ/mol
# GULP energy per Si atom -5582.580277 kJ/mol
# Density = 1.734221 g / cm^3
# Si number density = 17.381773 Si / 1000 Ang^3
#
#
#
# Elastic Constant Matrix: (Units=GPa)
#
#
# Indices 1 2 3 4 5 6 
#
# 1 140.3439 36.3592 66.1213 0.0000 0.0000 0.0000
# 2 36.3592 43.0294 30.6801 0.0000 0.0000 0.0000
# 3 66.1213 30.6801 108.9351 0.0000 0.0000 0.0000
# 4 0.0000 0.0000 0.0000 11.8341 0.0000 0.0000
# 5 0.0000 0.0000 0.0000 0.0000 18.8540 0.0000
# 6 0.0000 0.0000 0.0000 0.0000 0.0000 34.8967
#
#
#
# Elastic Compliance Matrix: (Units=1/GPa)
#
#
# Indices 1 2 3 4 5 6 
#
# 1 0.010982 -0.005664 -0.005070 0.000000 0.000000 0.000000
# 2 -0.005664 0.032001 -0.005575 0.000000 0.000000 0.000000
# 3 -0.005070 -0.005575 0.013827 0.000000 0.000000 0.000000
# 4 0.000000 0.000000 0.000000 0.084502 0.000000 0.000000
# 5 0.000000 0.000000 0.000000 0.000000 0.053039 0.000000
# 6 0.000000 0.000000 0.000000 0.000000 0.000000 0.028656
#
#
# Mechanical properties :
#
#
# Convention : Reuss Voigt Hill
#
# Bulk Modulus (GPa) = 41.33667 62.06995 51.70331
# Shear Modulus (GPa) = 18.96178 23.72683 21.34430
#
# Velocity S-wave (km/s) = 3.30646 3.69865 3.50804
# Velocity P-wave (km/s) = 6.19759 7.35033 6.79844
#
# Compressibility (1/GPa) = 0.02419160
#
# Stress axis : x y z
#
# Youngs Moduli (GPa) = 91.06124 31.24929 72.32016
#
# Poissons Ratio (x) = 0.17700 0.36669
# Poissons Ratio (y) = 0.51578 0.40315
# Poissons Ratio (z) = 0.46172 0.17420
#
# Static dielectric constant tensor:
#      x y z
#    x 1.584050 0.000000 0.000000 
#    y 0.000000 1.585040 0.000000 
#    z 0.000000 0.000000 1.583370 
# 
# From -- ./inp_files/15873.got.cif
#   From: 2010.05.17/outbox.cif.g08.bks.cpg/sg62_8_cif.got.tgz:15873.got - 2010.06.03 15:25:27.
