data_PCOD9462447
_publ_section_title
;
Structure prediction by ZEFSAII (Michael W. Deem and Ramdas Pophale) SiO2 
 PCOD9462447
Probable space group: P N M A
;
_chemical_formula_sum "Si O2"
_cell_formula_units_Z 64
_cell_length_a 28.358382
_cell_length_b 7.672221
_cell_length_c 15.361019
_cell_angle_alpha 90.000000
_cell_angle_beta 90.000000
_cell_angle_gamma 90.000000
_cell_volume 3342.124153
_symmetry_space_group_name_H-M "P N M A"
_symmetry_group_IT_number 62
_symmetry_cell_setting 'orthorhombic'
loop_
_space_group_symop_operation_xyz
x,y,z
1/2-x,-y,1/2+z
1/2+x,1/2-y,1/2-z
-x,1/2+y,-z
-x,-y,-z
1/2+x,y,1/2-z
1/2-x,1/2+y,1/2+z
x,1/2-y,z
loop_
_atom_site_type_symbol
_atom_site_label
_atom_site_fract_x
_atom_site_fract_y
_atom_site_fract_z
Si Si1 0.279414 0.459539 0.103185
Si Si2 0.635149 0.038904 0.216222
Si Si3 0.636909 0.536248 0.772156
Si Si4 0.047497 0.956234 0.403123
Si Si5 0.672025 0.040841 0.396854
Si Si6 0.280913 0.958192 0.907064
Si Si7 0.558466 0.953314 0.903402
Si Si8 0.173238 0.540632 0.908112
O O1 0.277596 0.250000 0.108695
O O2 0.315943 0.517693 0.176040
O O3 0.225941 0.525819 0.113135
O O4 0.296245 0.505975 0.006165
O O5 0.636070 0.250000 0.215409
O O6 0.640996 0.978982 0.315790
O O7 0.680525 0.975827 0.160918
O O8 0.587775 0.985780 0.167302
O O9 0.635741 0.750000 0.770401
O O10 0.592662 0.473815 0.829211
O O11 0.641829 0.478109 0.672436
O O12 0.039781 0.750000 0.412999
O O13 0.062877 0.027267 0.498503
O O14 0.996579 0.033257 0.379972
O O15 0.674322 0.250000 0.390494
O O16 0.656237 0.000306 0.494699
O O17 0.278396 0.750000 0.894820
O O18 0.227320 0.026158 0.898257
O O19 0.571603 0.750000 0.910789
O O20 0.175809 0.750000 0.902469
#
# Coordination Sequence:
#
# PCOD9462447 Si02
#       8
#     8   8   8   8   8   8   8   8
#     4   9  16  28  46  68  96 127 157 188 223 270
#     4  10  19  31  48  68  93 127 161 190 226 275
#     4   9  16  28  49  71  90 120 159 189 220 271
#     4  10  20  33  50  73  97 119 148 189 234 277
#     4   9  18  31  46  66  94 128 161 191 226 268
#     4   9  17  28  43  67  97 125 154 188 226 267
#     4   9  18  33  51  71  96 123 149 181 228 284
#     4   9  17  30  47  67  93 124 157 193 227 261
#
# _framework density 19.149498000000001
#
# number of rings (size 3 to 8) (size 9 to 14) (size 15 to 20)
#    0.000    2.750    0.000    1.875    0.000    5.500 
#    0.000    1.875    0.000    6.750    0.000    0.000 
#    0.000    0.000    0.000    0.000    0.000    0.000 
#
# Total GULP energy -356969.780405 kJ/mol
# GULP energy per Si atom -5577.652819 kJ/mol
# Density = 1.910591 g / cm^3
# Si number density = 19.149498 Si / 1000 Ang^3
#
#
#
# Elastic Constant Matrix: (Units=GPa)
#
#
# Indices 1 2 3 4 5 6 
#
# 1 75.3936 -4.2461 87.6963 0.0000 0.0000 0.0000
# 2 -4.2461 29.0201 -4.9592 0.0000 0.0000 0.0000
# 3 87.6963 -4.9592 170.1283 0.0000 0.0000 0.0000
# 4 0.0000 0.0000 0.0000 16.4543 0.0000 0.0000
# 5 0.0000 0.0000 0.0000 0.0000 7.7744 0.0000
# 6 0.0000 0.0000 0.0000 0.0000 0.0000 13.5044
#
#
#
# Elastic Compliance Matrix: (Units=1/GPa)
#
#
# Indices 1 2 3 4 5 6 
#
# 1 0.033234 0.001945 -0.017074 0.000000 0.000000 0.000000
# 2 0.001945 0.034745 0.000010 0.000000 0.000000 0.000000
# 3 -0.017074 0.000010 0.014680 0.000000 0.000000 0.000000
# 4 0.000000 0.000000 0.000000 0.060774 0.000000 0.000000
# 5 0.000000 0.000000 0.000000 0.000000 0.128628 0.000000
# 6 0.000000 0.000000 0.000000 0.000000 0.000000 0.074050
#
#
# Mechanical properties :
#
#
# Convention : Reuss Voigt Hill
#
# Bulk Modulus (GPa) = 19.07665 47.94711 33.51188
# Shear Modulus (GPa) = 12.69607 20.61669 16.65638
#
# Velocity S-wave (km/s) = 2.57767 3.28475 2.95245
# Velocity P-wave (km/s) = 4.34082 6.28321 5.40007
#
# Compressibility (1/GPa) = 0.05242009
#
# Stress axis : x y z
#
# Youngs Moduli (GPa) = 30.08978 28.78099 68.12180
#
# Poissons Ratio (x) = -0.05598 1.16314
# Poissons Ratio (y) = -0.05852 -0.00070
# Poissons Ratio (z) = 0.51377 -0.00030
#
# Static dielectric constant tensor:
#      x y z
#    x 1.643430 0.000000 0.000000 
#    y 0.000000 1.731190 0.000000 
#    z 0.000000 0.000000 1.679240 
# 
# From -- ./inp_files/21275.got.cif
#   From: 2010.05.17/outbox.cif.g08.bks.cpg/sg62_11_cif.got.tgz:21275.got - 2010.06.03 15:25:27.
