data_PCOD9462271
_publ_section_title
;
Structure prediction by ZEFSAII (Michael W. Deem and Ramdas Pophale) SiO2 
 PCOD9462271
Probable space group: P N M A
;
_chemical_formula_sum "Si O2"
_cell_formula_units_Z 64
_cell_length_a 18.926783
_cell_length_b 8.961327
_cell_length_c 27.184463
_cell_angle_alpha 90.000000
_cell_angle_beta 90.000000
_cell_angle_gamma 90.000000
_cell_volume 4610.732073
_symmetry_space_group_name_H-M "P N M A"
_symmetry_group_IT_number 62
_symmetry_cell_setting 'orthorhombic'
loop_
_space_group_symop_operation_xyz
x,y,z
1/2-x,-y,1/2+z
1/2+x,1/2-y,1/2-z
-x,1/2+y,-z
-x,-y,-z
1/2+x,y,1/2-z
1/2-x,1/2+y,1/2+z
x,1/2-y,z
loop_
_atom_site_type_symbol
_atom_site_label
_atom_site_fract_x
_atom_site_fract_y
_atom_site_fract_z
Si Si1 0.083764 0.928351 0.260347
Si Si2 0.664847 0.428479 0.147318
Si Si3 0.836726 0.072054 0.354467
Si Si4 0.706000 0.928151 0.707201
Si Si5 0.784678 0.427263 0.798976
Si Si6 0.576047 0.429564 0.054721
Si Si7 0.423588 0.928496 0.058720
Si Si8 0.568327 0.572766 0.757656
O O1 0.085077 0.750000 0.264821
O O2 0.134643 0.969049 0.214178
O O3 0.118571 0.997496 0.309525
O O4 0.004592 0.986221 0.254753
O O5 0.655243 0.250000 0.151464
O O6 0.747522 0.458123 0.158810
O O7 0.635115 0.473636 0.094338
O O8 0.834216 0.250000 0.358827
O O9 0.888726 0.037317 0.308029
O O10 0.759242 0.009518 0.341271
O O11 0.869930 0.999360 0.402698
O O12 0.713800 0.750000 0.718812
O O13 0.623076 0.959197 0.713066
O O14 0.743769 0.023682 0.749429
O O15 0.780289 0.250000 0.806120
O O16 0.566231 0.250000 0.057175
O O17 0.501979 0.506901 0.067905
O O18 0.593762 0.466370 0.998174
O O19 0.424296 0.750000 0.063840
O O20 0.553781 0.750000 0.758407
#
# Coordination Sequence:
#
# PCOD9462271 Si02
#       8
#     8   8   8   8   8   8   8   8
#     4  10  19  27  38  59  83 105 131 161 194 233
#     4   9  16  28  44  57  75 105 137 166 195 229
#     4  10  19  30  43  58  77 105 139 168 197 235
#     4   8  15  27  41  57  76 101 132 163 194 229
#     4   9  17  28  40  56  78 102 129 162 196 231
#     4   9  18  30  42  58  80 107 138 169 200 234
#     4  10  19  29  41  58  81 107 135 169 204 234
#     4   9  17  27  39  56  78 103 131 160 190 229
#
# _framework density 13.880659
#
# number of rings (size 3 to 8) (size 9 to 14) (size 15 to 20)
#    0.000    2.750    0.000    3.000    0.000    8.000 
#    0.000    0.000    0.000    0.000    0.000    0.000 
#    0.000    1.000    0.000    2.000    0.000    2.625 
#
# Total GULP energy -356275.031949 kJ/mol
# GULP energy per Si atom -5566.797374 kJ/mol
# Density = 1.384907 g / cm^3
# Si number density = 13.880659 Si / 1000 Ang^3
#
#
#
# Elastic Constant Matrix: (Units=GPa)
#
#
# Indices 1 2 3 4 5 6 
#
# 1 89.5108 30.8654 46.4772 0.0000 0.0000 0.0000
# 2 30.8654 24.0560 26.0364 0.0000 0.0000 0.0000
# 3 46.4772 26.0364 73.6729 0.0000 0.0000 0.0000
# 4 0.0000 0.0000 0.0000 17.6406 0.0000 0.0000
# 5 0.0000 0.0000 0.0000 0.0000 27.7336 0.0000
# 6 0.0000 0.0000 0.0000 0.0000 0.0000 17.0435
#
#
#
# Elastic Compliance Matrix: (Units=1/GPa)
#
#
# Indices 1 2 3 4 5 6 
#
# 1 0.021667 -0.021062 -0.006225 0.000000 0.000000 0.000000
# 2 -0.021062 0.087794 -0.017739 0.000000 0.000000 0.000000
# 3 -0.006225 -0.017739 0.023770 0.000000 0.000000 0.000000
# 4 0.000000 0.000000 0.000000 0.056687 0.000000 0.000000
# 5 0.000000 0.000000 0.000000 0.000000 0.036057 0.000000
# 6 0.000000 0.000000 0.000000 0.000000 0.000000 0.058673
#
#
# Mechanical properties :
#
#
# Convention : Reuss Voigt Hill
#
# Bulk Modulus (GPa) = 23.16069 43.77752 33.46911
# Shear Modulus (GPa) = 12.85034 18.07427 15.46231
#
# Velocity S-wave (km/s) = 3.04595 3.61240 3.34120
# Velocity P-wave (km/s) = 5.39372 7.00045 6.24894
#
# Compressibility (1/GPa) = 0.04317660
#
# Stress axis : x y z
#
# Youngs Moduli (GPa) = 46.15319 11.39036 42.06983
#
# Poissons Ratio (x) = 0.23991 0.26190
# Poissons Ratio (y) = 0.97209 0.74629
# Poissons Ratio (z) = 0.28732 0.20206
#
# Static dielectric constant tensor:
#      x y z
#    x 1.465390 0.000000 0.000000 
#    y 0.000000 1.462220 0.000000 
#    z 0.000000 0.000000 1.453930 
# 
# From -- ./inp_files/31333.got.cif
#   From: 2010.05.17/outbox.cif.g08.bks.cpg/sg62_16_cif.got.tgz:31333.got - 2010.06.03 15:25:27.
