data_PCOD9462009
_publ_section_title
;
Structure prediction by ZEFSAII (Michael W. Deem and Ramdas Pophale) SiO2 
 PCOD9462009
Probable space group: P N M A
;
_chemical_formula_sum "Si O2"
_cell_formula_units_Z 64
_cell_length_a 13.237124
_cell_length_b 23.886829
_cell_length_c 10.715001
_cell_angle_alpha 90.000000
_cell_angle_beta 90.000000
_cell_angle_gamma 90.000000
_cell_volume 3388.007427
_symmetry_space_group_name_H-M "P N M A"
_symmetry_group_IT_number 62
_symmetry_cell_setting 'orthorhombic'
loop_
_space_group_symop_operation_xyz
x,y,z
1/2-x,-y,1/2+z
1/2+x,1/2-y,1/2-z
-x,1/2+y,-z
-x,-y,-z
1/2+x,y,1/2-z
1/2-x,1/2+y,1/2+z
x,1/2-y,z
loop_
_atom_site_type_symbol
_atom_site_label
_atom_site_fract_x
_atom_site_fract_y
_atom_site_fract_z
Si Si1 0.367872 0.523510 0.408675
Si Si2 0.490824 0.683403 0.627401
Si Si3 0.146079 0.975841 0.298799
Si Si4 0.962900 0.904145 0.307270
Si Si5 0.071107 0.814622 0.156116
Si Si6 0.152440 0.416806 0.170595
Si Si7 0.344358 0.403501 0.323170
Si Si8 0.758840 0.103978 0.907206
O O1 0.248567 0.524611 0.377255
O O2 0.430762 0.562828 0.317546
O O3 0.374217 0.550928 0.543524
O O4 0.399671 0.460344 0.370819
O O5 0.483923 0.750000 0.655695
O O6 0.517038 0.678209 0.479275
O O7 0.394418 0.645101 0.662225
O O8 0.581957 0.649042 0.692819
O O9 0.183253 0.946573 0.167187
O O10 0.056654 0.939926 0.358836
O O11 0.112941 0.039552 0.275105
O O12 0.859631 0.899547 0.382308
O O13 0.006605 0.845455 0.261374
O O14 0.080492 0.750000 0.181767
O O15 0.181217 0.843042 0.148169
O O16 0.271564 0.413693 0.205556
O O17 0.276326 0.392965 0.445664
#
# Coordination Sequence:
#
# PCOD9462009 Si02
#       8
#     8   8   8   8   8   8   8   8
#     4  10  19  33  54  82 111 135 177 217 268 332
#     4  10  21  37  56  78 103 142 194 231 258 310
#     4   9  19  32  52  82 110 139 169 213 274 329
#     4  10  18  32  54  76 108 142 167 216 276 321
#     4   9  18  32  52  77 100 133 186 231 262 309
#     4  11  20  35  57  82 108 145 180 223 270 323
#     4  10  21  36  54  81 112 144 179 220 275 327
#     4   9  18  33  51  75 108 142 171 214 270 330
#
# _framework density 18.890158
#
# number of rings (size 3 to 8) (size 9 to 14) (size 15 to 20)
#    0.000    2.250    2.500    0.750    0.000    2.000 
#    2.250    1.250    0.000    0.000    0.000    0.000 
#    0.000    0.000    0.000    0.000    0.000    0.000 
#
# Total GULP energy -356537.059870 kJ/mol
# GULP energy per Si atom -5570.891560 kJ/mol
# Density = 1.884716 g / cm^3
# Si number density = 18.890158 Si / 1000 Ang^3
#
#
#
# Elastic Constant Matrix: (Units=GPa)
#
#
# Indices 1 2 3 4 5 6 
#
# 1 83.0711 32.5797 18.7236 0.0000 0.0000 0.0000
# 2 32.5797 149.8236 9.2143 0.0000 0.0000 0.0000
# 3 18.7236 9.2143 7.8863 0.0000 0.0000 0.0000
# 4 0.0000 0.0000 0.0000 16.0038 0.0000 0.0000
# 5 0.0000 0.0000 0.0000 0.0000 2.7611 0.0000
# 6 0.0000 0.0000 0.0000 0.0000 0.0000 25.3673
#
#
#
# Elastic Compliance Matrix: (Units=1/GPa)
#
#
# Indices 1 2 3 4 5 6 
#
# 1 0.026459 -0.002037 -0.060439 0.000000 0.000000 0.000000
# 2 -0.002037 0.007348 -0.003750 0.000000 0.000000 0.000000
# 3 -0.060439 -0.003750 0.274676 0.000000 0.000000 0.000000
# 4 0.000000 0.000000 0.000000 0.062485 0.000000 0.000000
# 5 0.000000 0.000000 0.000000 0.000000 0.362179 0.000000
# 6 0.000000 0.000000 0.000000 0.000000 0.000000 0.039421
#
#
# Mechanical properties :
#
#
# Convention : Reuss Voigt Hill
#
# Bulk Modulus (GPa) = 5.68080 40.20180 22.94130
# Shear Modulus (GPa) = 5.18835 20.84399 13.01617
#
# Velocity S-wave (km/s) = 1.65908 3.32540 2.62781
# Velocity P-wave (km/s) = 2.58532 6.00603 4.62365
#
# Compressibility (1/GPa) = 0.17603169
#
# Stress axis : x y z
#
# Youngs Moduli (GPa) = 37.79419 136.09116 3.64065
#
# Poissons Ratio (x) = 0.27715 0.22004
# Poissons Ratio (y) = 0.07697 0.01365
# Poissons Ratio (z) = 2.28425 0.51038
#
# Static dielectric constant tensor:
#      x y z
#    x 1.702610 0.000000 0.000000 
#    y 0.000000 1.669480 0.000000 
#    z 0.000000 0.000000 1.674840 
# 
# From -- ./inp_files/12558.got.cif
#   From: 2010.05.17/outbox.cif.g08.bks.cpg/sg62_7_cif.got.tgz:12558.got - 2010.06.03 15:25:27.
