data_PCOD9462567
_publ_section_title
;
Structure prediction by ZEFSAII (Michael W. Deem and Ramdas Pophale) SiO2 
 PCOD9462567
Probable space group: P N M A
;
_chemical_formula_sum "Si O2"
_cell_formula_units_Z 56
_cell_length_a 15.600663
_cell_length_b 11.995104
_cell_length_c 15.798248
_cell_angle_alpha 90.000000
_cell_angle_beta 90.000000
_cell_angle_gamma 90.000000
_cell_volume 2956.351033
_symmetry_space_group_name_H-M "P N M A"
_symmetry_group_IT_number 62
_symmetry_cell_setting 'orthorhombic'
loop_
_space_group_symop_operation_xyz
x,y,z
1/2-x,-y,1/2+z
1/2+x,1/2-y,1/2-z
-x,1/2+y,-z
-x,-y,-z
1/2+x,y,1/2-z
1/2-x,1/2+y,1/2+z
x,1/2-y,z
loop_
_atom_site_type_symbol
_atom_site_label
_atom_site_fract_x
_atom_site_fract_y
_atom_site_fract_z
Si Si1 0.449219 0.015017 0.386709
Si Si2 0.778944 0.443813 0.430766
Si Si3 0.018462 0.375641 0.264036
Si Si4 0.404312 0.630806 0.519600
Si Si5 0.528075 0.620545 0.958981
Si Si6 0.279232 0.881886 0.746409
Si Si7 0.724580 0.880310 0.565241
O O1 0.459818 0.039707 0.288402
O O2 0.541488 0.042709 0.426837
O O3 0.376769 0.093654 0.428963
O O4 0.420991 0.895592 0.421313
O O5 0.695369 0.375773 0.460521
O O6 0.868990 0.387877 0.451886
O O7 0.766245 0.448921 0.329198
O O8 0.768074 0.555155 0.487330
O O9 0.990911 0.250000 0.240236
O O10 0.009637 0.384747 0.364194
O O11 0.117935 0.388631 0.239311
O O12 0.438665 0.750000 0.544421
O O13 0.507120 0.750000 0.990640
O O14 0.500000 0.500000 0.000000
O O15 0.255349 0.750000 0.737745
O O16 0.257100 0.918220 0.841890
O O17 0.741395 0.750000 0.557861
#
# Coordination Sequence:
#
# PCOD9462567 Si02
#       7
#     8   8   8   8   8   8   8
#     4  10  19  31  52  80 110 146 183 229 283 339
#     4  11  21  35  60  87 114 152 194 240 290 346
#     4  10  19  34  57  82 111 146 193 244 284 332
#     4  10  19  32  51  80 114 145 180 226 280 343
#     4  11  24  41  62  87 116 153 197 244 291 343
#     4  10  19  34  57  83 111 146 192 242 286 336
#     4  10  21  35  55  85 117 149 191 243 293 345
#
# _framework density 18.942271000000002
#
# number of rings (size 3 to 8) (size 9 to 14) (size 15 to 20)
#    0.000    1.714    1.429    4.286    0.000    4.000 
#    0.000    0.714    0.000   11.143    0.000    0.000 
#    0.000    0.000    0.000    0.000    0.000    0.000 
#
# Total GULP energy -311907.131584 kJ/mol
# GULP energy per Si atom -5569.770207 kJ/mol
# Density = 1.889916 g / cm^3
# Si number density = 18.942271 Si / 1000 Ang^3
#
#
#
# Elastic Constant Matrix: (Units=GPa)
#
#
# Indices 1 2 3 4 5 6 
#
# 1 71.2778 14.4612 16.9416 0.0000 0.0000 0.0000
# 2 14.4612 74.7957 51.1674 0.0000 0.0000 0.0000
# 3 16.9416 51.1674 109.6901 0.0000 0.0000 0.0000
# 4 0.0000 0.0000 0.0000 15.9028 0.0000 0.0000
# 5 0.0000 0.0000 0.0000 0.0000 32.5159 0.0000
# 6 0.0000 0.0000 0.0000 0.0000 0.0000 12.3411
#
#
#
# Elastic Compliance Matrix: (Units=1/GPa)
#
#
# Indices 1 2 3 4 5 6 
#
# 1 0.014746 -0.001899 -0.001392 0.000000 0.000000 0.000000
# 2 -0.001899 0.019880 -0.008980 0.000000 0.000000 0.000000
# 3 -0.001392 -0.008980 0.013521 0.000000 0.000000 0.000000
# 4 0.000000 0.000000 0.000000 0.062882 0.000000 0.000000
# 5 0.000000 0.000000 0.000000 0.000000 0.030754 0.000000
# 6 0.000000 0.000000 0.000000 0.000000 0.000000 0.081030
#
#
# Mechanical properties :
#
#
# Convention : Reuss Voigt Hill
#
# Bulk Modulus (GPa) = 42.36437 46.76709 44.56573
# Shear Modulus (GPa) = 19.59075 23.69820 21.64448
#
# Velocity S-wave (km/s) = 3.21944 3.54089 3.38398
# Velocity P-wave (km/s) = 6.01941 6.43895 6.23271
#
# Compressibility (1/GPa) = 0.02360474
#
# Stress axis : x y z
#
# Youngs Moduli (GPa) = 67.81656 50.30108 73.96118
#
# Poissons Ratio (x) = 0.09552 0.10293
# Poissons Ratio (y) = 0.12878 0.66419
# Poissons Ratio (z) = 0.09438 0.45172
#
# Static dielectric constant tensor:
#      x y z
#    x 1.687570 0.000000 0.000000 
#    y 0.000000 1.694340 0.000000 
#    z 0.000000 0.000000 1.715570 
# 
# From -- ./inp_files/18973.got.cif
#   From: 2010.05.17/outbox.cif.g08.bks.cpg/sg62_10_cif.got.tgz:18973.got - 2010.06.03 15:25:27.
