data_PCOD9462423
_publ_section_title
;
Structure prediction by ZEFSAII (Michael W. Deem and Ramdas Pophale) SiO2 
 PCOD9462423
Probable space group: P N M A
;
_chemical_formula_sum "Si O2"
_cell_formula_units_Z 56
_cell_length_a 9.712626
_cell_length_b 20.068320
_cell_length_c 15.832318
_cell_angle_alpha 90.000000
_cell_angle_beta 90.000000
_cell_angle_gamma 90.000000
_cell_volume 3085.973466
_symmetry_space_group_name_H-M "P N M A"
_symmetry_group_IT_number 62
_symmetry_cell_setting 'orthorhombic'
loop_
_space_group_symop_operation_xyz
x,y,z
1/2-x,-y,1/2+z
1/2+x,1/2-y,1/2-z
-x,1/2+y,-z
-x,-y,-z
1/2+x,y,1/2-z
1/2-x,1/2+y,1/2+z
x,1/2-y,z
loop_
_atom_site_type_symbol
_atom_site_label
_atom_site_fract_x
_atom_site_fract_y
_atom_site_fract_z
Si Si1 0.093652 0.068978 0.911143
Si Si2 0.148468 0.464922 0.101089
Si Si3 0.357240 0.930331 0.051064
Si Si4 0.622732 0.829135 0.470416
Si Si5 0.624746 0.517858 0.119614
Si Si6 0.655262 0.829113 0.667359
Si Si7 0.586172 0.398088 0.237990
O O1 0.233006 0.055790 0.859264
O O2 0.993602 0.006569 0.892649
O O3 0.994470 0.133381 0.915125
O O4 0.147727 0.064090 0.007339
O O5 0.270733 0.517678 0.107218
O O6 0.158945 0.410382 0.172236
O O7 0.510404 0.930441 0.087115
O O8 0.269929 0.862895 0.050092
O O9 0.356626 0.965174 0.958353
O O10 0.620814 0.750000 0.459001
O O11 0.605556 0.844211 0.571242
O O12 0.574223 0.470593 0.195092
O O13 0.649250 0.750000 0.677973
O O14 0.556348 0.864152 0.735615
O O15 0.810709 0.854507 0.681483
#
# Coordination Sequence:
#
# PCOD9462423 Si02
#       7
#     8   8   8   8   8   8   8
#     4   9  17  34  52  76  98 136 175 232 250 305
#     4   9  17  29  53  73 103 132 175 212 269 295
#     4   9  18  34  48  75 104 137 167 224 264 310
#     4  10  19  36  56  72  99 149 188 208 245 316
#     4  10  19  30  53  77 107 129 171 222 285 295
#     4  11  23  35  48  72 113 151 181 205 241 310
#     4  12  20  34  53  81 104 147 172 215 259 324
#
# _framework density 18.146623999999999
#
# number of rings (size 3 to 8) (size 9 to 14) (size 15 to 20)
#    0.000    2.000    2.857    3.000    0.000    0.000 
#    0.000    0.714    0.000    0.000    0.000   16.000 
#    0.000    0.000    0.000    0.000    0.000    0.000 
#
# Total GULP energy -311981.491578 kJ/mol
# GULP energy per Si atom -5571.098064 kJ/mol
# Density = 1.810532 g / cm^3
# Si number density = 18.146624 Si / 1000 Ang^3
#
#
#
# Elastic Constant Matrix: (Units=GPa)
#
#
# Indices 1 2 3 4 5 6 
#
# 1 77.6631 29.0468 0.6547 0.0000 0.0000 0.0000
# 2 29.0468 79.0149 7.1899 0.0000 0.0000 0.0000
# 3 0.6547 7.1899 22.4376 0.0000 0.0000 0.0000
# 4 0.0000 0.0000 0.0000 25.4364 0.0000 0.0000
# 5 0.0000 0.0000 0.0000 0.0000 10.9993 0.0000
# 6 0.0000 0.0000 0.0000 0.0000 0.0000 23.2450
#
#
#
# Elastic Compliance Matrix: (Units=1/GPa)
#
#
# Indices 1 2 3 4 5 6 
#
# 1 0.014969 -0.005627 0.001366 0.000000 0.000000 0.000000
# 2 -0.005627 0.015151 -0.004691 0.000000 0.000000 0.000000
# 3 0.001366 -0.004691 0.046031 0.000000 0.000000 0.000000
# 4 0.000000 0.000000 0.000000 0.039314 0.000000 0.000000
# 5 0.000000 0.000000 0.000000 0.000000 0.090915 0.000000
# 6 0.000000 0.000000 0.000000 0.000000 0.000000 0.043020
#
#
# Mechanical properties :
#
#
# Convention : Reuss Voigt Hill
#
# Bulk Modulus (GPa) = 17.16782 28.09982 22.63382
# Shear Modulus (GPa) = 17.43861 21.41776 19.42818
#
# Velocity S-wave (km/s) = 3.10334 3.43922 3.27559
# Velocity P-wave (km/s) = 4.72463 5.59370 5.17743
#
# Compressibility (1/GPa) = 0.05824851
#
# Stress axis : x y z
#
# Youngs Moduli (GPa) = 66.80368 66.00090 21.72433
#
# Poissons Ratio (x) = 0.37140 -0.02968
# Poissons Ratio (y) = 0.37592 0.10191
# Poissons Ratio (z) = -0.09128 0.30960
#
# Static dielectric constant tensor:
#      x y z
#    x 1.661970 0.000000 0.000000 
#    y 0.000000 1.597450 0.000000 
#    z 0.000000 0.000000 1.651670 
# 
# From -- ./inp_files/17183.got.cif
#   From: 2010.05.17/outbox.cif.g08.bks.cpg/sg62_9_cif.got.tgz:17183.got - 2010.06.03 15:25:27.
