data_PCOD9462021
_publ_section_title
;
Structure prediction by ZEFSAII (Michael W. Deem and Ramdas Pophale) SiO2 
 PCOD9462021
Probable space group: P N M A
;
_chemical_formula_sum "Si O2"
_cell_formula_units_Z 64
_cell_length_a 12.031528
_cell_length_b 7.390284
_cell_length_c 31.139611
_cell_angle_alpha 90.000000
_cell_angle_beta 90.000000
_cell_angle_gamma 90.000000
_cell_volume 2768.822384
_symmetry_space_group_name_H-M "P N M A"
_symmetry_group_IT_number 62
_symmetry_cell_setting 'orthorhombic'
loop_
_space_group_symop_operation_xyz
x,y,z
1/2-x,-y,1/2+z
1/2+x,1/2-y,1/2-z
-x,1/2+y,-z
-x,-y,-z
1/2+x,y,1/2-z
1/2-x,1/2+y,1/2+z
x,1/2-y,z
loop_
_atom_site_type_symbol
_atom_site_label
_atom_site_fract_x
_atom_site_fract_y
_atom_site_fract_z
Si Si1 0.323662 0.471633 0.711902
Si Si2 0.190557 0.469247 0.053489
Si Si3 0.673206 0.037861 0.863005
Si Si4 0.795308 0.044920 0.529887
Si Si5 0.458027 0.969091 0.339261
Si Si6 0.445958 0.457549 0.439146
Si Si7 0.568248 0.527914 0.110565
Si Si8 0.283192 0.029858 0.808263
O O1 0.321883 0.250000 0.712002
O O2 0.221450 0.533279 0.681850
O O3 0.436070 0.527260 0.688026
O O4 0.319363 0.530524 0.761083
O O5 0.187108 0.250000 0.051480
O O6 0.233097 0.519934 0.100455
O O7 0.064439 0.531607 0.044498
O O8 0.276238 0.536588 0.017243
O O9 0.652801 0.250000 0.855725
O O10 0.557510 0.965554 0.881467
O O11 0.835017 0.250000 0.522988
O O12 0.874546 0.964210 0.566336
O O13 0.669372 0.050448 0.548552
O O14 0.460089 0.750000 0.341617
O O15 0.343139 0.023685 0.317314
O O16 0.458754 0.036800 0.387778
O O17 0.434697 0.250000 0.452774
O O18 0.571257 0.750000 0.108955
O O19 0.640892 0.472777 0.151814
O O20 0.286857 0.250000 0.808081
#
# Coordination Sequence:
#
# PCOD9462021 Si02
#       8
#     8   8   8   8   8   8   8   8
#     4   9  18  29  48  81 109 132 171 220 260 307
#     4  10  22  37  54  76 106 141 176 217 265 320
#     4  10  20  34  53  78 107 136 173 219 262 309
#     4  10  20  37  57  78 104 139 179 216 267 324
#     4  10  18  32  55  79 105 143 176 211 269 323
#     4  11  21  34  53  80 109 137 173 222 269 309
#     4   9  18  32  52  78 106 135 170 219 267 309
#     4   9  17  29  50  80 108 133 169 218 264 305
#
# _framework density 23.114518
#
# number of rings (size 3 to 8) (size 9 to 14) (size 15 to 20)
#    0.000    2.250    2.500    0.750    1.750    1.500 
#    0.000    0.625    0.000    1.500    0.000    0.000 
#    0.000    0.000    0.000    0.000    0.000    0.000 
#
# Total GULP energy -357686.500598 kJ/mol
# GULP energy per Si atom -5588.851572 kJ/mol
# Density = 2.306191 g / cm^3
# Si number density = 23.114518 Si / 1000 Ang^3
#
#
#
# Elastic Constant Matrix: (Units=GPa)
#
#
# Indices 1 2 3 4 5 6 
#
# 1 54.6883 -7.7719 -31.4685 0.0000 0.0000 0.0000
# 2 -7.7719 80.7573 -10.0513 0.0000 0.0000 0.0000
# 3 -31.4685 -10.0513 64.6546 0.0000 0.0000 0.0000
# 4 0.0000 0.0000 0.0000 -1.0093 0.0000 0.0000
# 5 0.0000 0.0000 0.0000 0.0000 26.6062 0.0000
# 6 0.0000 0.0000 0.0000 0.0000 0.0000 -7.0062
#
#
#
# Elastic Compliance Matrix: (Units=1/GPa)
#
#
# Indices 1 2 3 4 5 6 
#
# 1 0.026776 0.004282 0.013698 0.000000 0.000000 0.000000
# 2 0.004282 0.013312 0.004153 0.000000 0.000000 0.000000
# 3 0.013698 0.004153 0.022780 0.000000 0.000000 0.000000
# 4 0.000000 0.000000 0.000000 -0.990760 0.000000 0.000000
# 5 0.000000 0.000000 0.000000 0.000000 0.037585 0.000000
# 6 0.000000 0.000000 0.000000 0.000000 0.000000 -0.142730
#
#
# Mechanical properties :
#
#
# Convention : Reuss Voigt Hill
#
# Bulk Modulus (GPa) = 9.33413 11.27964 10.30689
# Shear Modulus (GPa) = -4.80034 20.34426 7.77196
#
# Velocity S-wave (km/s) = -1.44266 2.96995 1.83567
# Velocity P-wave (km/s) = 1.12781 4.08060 2.99360
#
# Compressibility (1/GPa) = 0.10713373
#
# Stress axis : x y z
#
# Youngs Moduli (GPa) = 37.34691 75.12133 43.89900
#
# Poissons Ratio (x) = -0.32165 -0.60133
# Poissons Ratio (y) = -0.15991 -0.18233
# Poissons Ratio (z) = -0.51158 -0.31201
#
# Static dielectric constant tensor:
#      x y z
#    x 1.831110 0.000000 0.000000 
#    y 0.000000 1.927840 0.000000 
#    z 0.000000 0.000000 1.829480 
# 
# From -- ./inp_files/32608.got.cif
#   From: 2010.05.17/outbox.cif.g08.bks.cpg/sg62_17_cif.got.tgz:32608.got - 2010.06.03 15:25:27.
