data_PCOD9462432
_publ_section_title
;
Structure prediction by ZEFSAII (Michael W. Deem and Ramdas Pophale) SiO2 
 PCOD9462432
Probable space group: P N M A
;
_chemical_formula_sum "Si O2"
_cell_formula_units_Z 56
_cell_length_a 5.521137
_cell_length_b 13.342103
_cell_length_c 28.700329
_cell_angle_alpha 90.000000
_cell_angle_beta 90.000000
_cell_angle_gamma 90.000000
_cell_volume 2114.168939
_symmetry_space_group_name_H-M "P N M A"
_symmetry_group_IT_number 62
_symmetry_cell_setting 'orthorhombic'
loop_
_space_group_symop_operation_xyz
x,y,z
1/2-x,-y,1/2+z
1/2+x,1/2-y,1/2-z
-x,1/2+y,-z
-x,-y,-z
1/2+x,y,1/2-z
1/2-x,1/2+y,1/2+z
x,1/2-y,z
loop_
_atom_site_type_symbol
_atom_site_label
_atom_site_fract_x
_atom_site_fract_y
_atom_site_fract_z
Si Si1 0.446457 0.131158 0.373911
Si Si2 0.557212 0.371605 0.833979
Si Si3 0.943180 0.455988 0.408507
Si Si4 0.557852 0.129683 0.673313
Si Si5 0.029408 0.368247 0.935930
Si Si6 0.875470 0.871991 0.770603
Si Si7 0.961587 0.870526 0.490571
O O1 0.449766 0.250000 0.379626
O O2 0.170814 0.097782 0.382742
O O3 0.526481 0.104085 0.321815
O O4 0.672455 0.089802 0.403934
O O5 0.555423 0.250000 0.844564
O O6 0.563670 0.436913 0.881246
O O7 0.799855 0.396306 0.806574
O O8 0.314752 0.400646 0.807524
O O9 0.015427 0.430554 0.461554
O O10 0.562815 0.250000 0.674989
O O11 0.555275 0.099617 0.618219
O O12 0.992752 0.250000 0.931855
O O13 0.284304 0.382269 0.962401
O O14 0.791272 0.401770 0.964766
O O15 0.598522 0.904537 0.762367
O O16 0.864493 0.750000 0.767056
O O17 0.940926 0.750000 0.499763
#
# Coordination Sequence:
#
# PCOD9462432 Si02
#       7
#     8   8   8   8   8   8   8
#     4  11  22  36  56  82 115 149 175 205 244 297
#     4  10  21  37  55  73  98 132 175 231 280 314
#     4  12  23  36  52  77 108 143 182 211 255 316
#     4   9  17  33  54  71  90 123 169 226 286 326
#     4   9  17  30  49  69  91 124 165 210 266 323
#     4   9  17  31  52  79 111 145 176 203 235 279
#     4  10  19  31  46  67  98 132 165 206 252 313
#
# _framework density 26.487950999999999
#
# number of rings (size 3 to 8) (size 9 to 14) (size 15 to 20)
#    0.000    2.000    0.000    4.714    0.000    6.857 
#    0.000    4.286    0.000    0.000    0.000    0.000 
#    0.000   11.429    0.000    0.000    0.000    0.000 
#
# Total GULP energy -313067.580154 kJ/mol
# GULP energy per Si atom -5590.492503 kJ/mol
# Density = 2.642766 g / cm^3
# Si number density = 26.487951 Si / 1000 Ang^3
#
#
#
# Elastic Constant Matrix: (Units=GPa)
#
#
# Indices 1 2 3 4 5 6 
#
# 1 205.5761 16.7210 8.1800 0.0000 0.0000 0.0000
# 2 16.7210 116.5799 14.3945 0.0000 0.0000 0.0000
# 3 8.1800 14.3945 61.1066 0.0000 0.0000 0.0000
# 4 0.0000 0.0000 0.0000 16.6572 0.0000 0.0000
# 5 0.0000 0.0000 0.0000 0.0000 30.1247 0.0000
# 6 0.0000 0.0000 0.0000 0.0000 0.0000 48.3679
#
#
#
# Elastic Compliance Matrix: (Units=1/GPa)
#
#
# Indices 1 2 3 4 5 6 
#
# 1 0.004937 -0.000645 -0.000509 0.000000 0.000000 0.000000
# 2 -0.000645 0.008919 -0.002015 0.000000 0.000000 0.000000
# 3 -0.000509 -0.002015 0.016908 0.000000 0.000000 0.000000
# 4 0.000000 0.000000 0.000000 0.060034 0.000000 0.000000
# 5 0.000000 0.000000 0.000000 0.000000 0.033195 0.000000
# 6 0.000000 0.000000 0.000000 0.000000 0.000000 0.020675
#
#
# Mechanical properties :
#
#
# Convention : Reuss Voigt Hill
#
# Bulk Modulus (GPa) = 40.93980 51.31706 46.12843
# Shear Modulus (GPa) = 31.41733 41.96111 36.68922
#
# Velocity S-wave (km/s) = 3.44772 3.98447 3.72577
# Velocity P-wave (km/s) = 5.59808 6.37054 5.99676
#
# Compressibility (1/GPa) = 0.02442611
#
# Stress axis : x y z
#
# Youngs Moduli (GPa) = 202.54746 112.11872 59.14523
#
# Poissons Ratio (x) = 0.07235 0.03010
# Poissons Ratio (y) = 0.13070 0.11916
# Poissons Ratio (z) = 0.10308 0.22588
#
# Static dielectric constant tensor:
#      x y z
#    x 2.102990 0.000000 0.000000 
#    y 0.000000 2.151380 0.000000 
#    z 0.000000 0.000000 2.026880 
# 
# From -- ./inp_files/31604.got.cif
#   From: 2010.05.17/outbox.cif.g08.bks.cpg/sg62_16_cif.got.tgz:31604.got - 2010.06.03 15:25:27.
