data_PCOD9462082
_publ_section_title
;
Structure prediction by ZEFSAII (Michael W. Deem and Ramdas Pophale) SiO2 
 PCOD9462082
Probable space group: P N M A
;
_chemical_formula_sum "Si O2"
_cell_formula_units_Z 48
_cell_length_a 11.951824
_cell_length_b 14.773771
_cell_length_c 15.742311
_cell_angle_alpha 90.000000
_cell_angle_beta 90.000000
_cell_angle_gamma 90.000000
_cell_volume 2779.675122
_symmetry_space_group_name_H-M "P N M A"
_symmetry_group_IT_number 62
_symmetry_cell_setting 'orthorhombic'
loop_
_space_group_symop_operation_xyz
x,y,z
1/2-x,-y,1/2+z
1/2+x,1/2-y,1/2-z
-x,1/2+y,-z
-x,-y,-z
1/2+x,y,1/2-z
1/2-x,1/2+y,1/2+z
x,1/2-y,z
loop_
_atom_site_type_symbol
_atom_site_label
_atom_site_fract_x
_atom_site_fract_y
_atom_site_fract_z
Si Si1 0.494136 0.440737 0.916671
Si Si2 0.559311 0.250000 0.913146
Si Si3 0.262353 0.443250 0.823837
Si Si4 0.954736 0.750000 0.038909
Si Si5 0.751296 0.950331 0.362782
Si Si6 0.849849 0.750000 0.216362
Si Si7 0.802801 0.250000 0.921790
Si Si8 0.880658 0.951597 0.011402
O O1 0.488257 0.335545 0.938052
O O2 0.385085 0.457771 0.861644
O O3 0.614790 0.446943 0.872246
O O4 0.500000 0.500000 0.000000
O O5 0.594334 0.250000 0.811172
O O6 0.678479 0.250000 0.961452
O O7 0.266568 0.487667 0.731275
O O8 0.224357 0.339430 0.801872
O O9 0.175004 0.473044 0.896795
O O10 0.943530 0.750000 0.142373
O O11 0.087259 0.750000 0.021007
O O12 0.898850 0.843046 0.007990
O O13 0.699749 0.847882 0.373695
O O14 0.698636 0.010341 0.437273
O O15 0.000000 0.000000 0.000000
#
# Coordination Sequence:
#
# PCOD9462082 Si02
#       8
#     8   4   8   4   8   4   4   8
#     4  11  22  38  56  86 123 160 197 239 304 363
#     4  10  21  33  58  85 119 153 189 250 301 358
#     4  11  22  36  59  86 119 156 191 245 304 360
#     4  10  22  33  56  83 119 149 184 244 302 348
#     4  11  22  37  57  89 118 153 194 245 295 358
#     4  10  19  33  52  92 116 140 188 241 323 356
#     4  10  18  33  56  84 116 144 183 239 302 354
#     4  11  23  38  59  88 119 154 198 242 298 356
#
# _framework density 17.268204000000001
#
# number of rings (size 3 to 8) (size 9 to 14) (size 15 to 20)
#    0.000    1.333    6.667    0.500    4.667    0.000 
#    0.000    0.000    0.000    3.000    0.000    0.000 
#    0.000    0.000    0.000    0.000    0.000    0.000 
#
# Total GULP energy -267258.776357 kJ/mol
# GULP energy per Si atom -5567.891174 kJ/mol
# Density = 1.722890 g / cm^3
# Si number density = 17.268204 Si / 1000 Ang^3
#
#
#
# Elastic Constant Matrix: (Units=GPa)
#
#
# Indices 1 2 3 4 5 6 
#
# 1 67.3732 23.3447 25.0427 0.0000 0.0000 0.0000
# 2 23.3447 83.0159 55.1401 0.0000 0.0000 0.0000
# 3 25.0427 55.1401 101.4075 0.0000 0.0000 0.0000
# 4 0.0000 0.0000 0.0000 17.7611 0.0000 0.0000
# 5 0.0000 0.0000 0.0000 0.0000 23.5232 0.0000
# 6 0.0000 0.0000 0.0000 0.0000 0.0000 26.4510
#
#
#
# Elastic Compliance Matrix: (Units=1/GPa)
#
#
# Indices 1 2 3 4 5 6 
#
# 1 0.016834 -0.003088 -0.002478 0.000000 0.000000 0.000000
# 2 -0.003088 0.019422 -0.009798 0.000000 0.000000 0.000000
# 3 -0.002478 -0.009798 0.015801 0.000000 0.000000 0.000000
# 4 0.000000 0.000000 0.000000 0.056303 0.000000 0.000000
# 5 0.000000 0.000000 0.000000 0.000000 0.042511 0.000000
# 6 0.000000 0.000000 0.000000 0.000000 0.000000 0.037806
#
#
# Mechanical properties :
#
#
# Convention : Reuss Voigt Hill
#
# Bulk Modulus (GPa) = 46.88538 50.98352 48.93445
# Shear Modulus (GPa) = 22.07360 23.43166 22.75263
#
# Velocity S-wave (km/s) = 3.57918 3.68764 3.63382
# Velocity P-wave (km/s) = 6.65514 6.90798 6.78274
#
# Compressibility (1/GPa) = 0.02132861
#
# Stress axis : x y z
#
# Youngs Moduli (GPa) = 59.40454 51.48703 63.28704
#
# Poissons Ratio (x) = 0.15898 0.15684
# Poissons Ratio (y) = 0.18343 0.62011
# Poissons Ratio (z) = 0.14721 0.50449
#
# Static dielectric constant tensor:
#      x y z
#    x 1.601980 0.000000 0.000000 
#    y 0.000000 1.591590 0.000000 
#    z 0.000000 0.000000 1.596040 
# 
# From -- ./inp_files/12334.got.cif
#   From: 2010.05.17/outbox.cif.g08.bks.cpg/sg62_7_cif.got.tgz:12334.got - 2010.06.03 15:25:27.
