data_PCOD9462977
_publ_section_title
;
Structure prediction by ZEFSAII (Michael W. Deem and Ramdas Pophale) SiO2 
 PCOD9462977
Probable space group: P N M A
;
_chemical_formula_sum "Si O2"
_cell_formula_units_Z 64
_cell_length_a 14.826774
_cell_length_b 8.450323
_cell_length_c 25.610544
_cell_angle_alpha 90.000000
_cell_angle_beta 90.000000
_cell_angle_gamma 90.000000
_cell_volume 3208.771420
_symmetry_space_group_name_H-M "P N M A"
_symmetry_group_IT_number 62
_symmetry_cell_setting 'orthorhombic'
loop_
_space_group_symop_operation_xyz
x,y,z
1/2-x,-y,1/2+z
1/2+x,1/2-y,1/2-z
-x,1/2+y,-z
-x,-y,-z
1/2+x,y,1/2-z
1/2-x,1/2+y,1/2+z
x,1/2-y,z
loop_
_atom_site_type_symbol
_atom_site_label
_atom_site_fract_x
_atom_site_fract_y
_atom_site_fract_z
Si Si1 0.630186 0.437791 0.621601
Si Si2 0.848885 0.560822 0.439180
Si Si3 0.531096 0.060037 0.099720
Si Si4 0.248124 0.058416 0.667606
Si Si5 0.785695 0.060287 0.548383
Si Si6 0.050594 0.437005 0.284463
Si Si7 0.267434 0.435177 0.279656
Si Si8 0.455242 0.439750 0.672326
O O1 0.621345 0.250000 0.613130
O O2 0.693719 0.500402 0.575404
O O3 0.683613 0.467405 0.675454
O O4 0.529952 0.502828 0.632108
O O5 0.845551 0.750000 0.442786
O O6 0.803820 0.510796 0.384529
O O7 0.798190 0.489903 0.488756
O O8 0.952314 0.505936 0.436617
O O9 0.528536 0.250000 0.099669
O O10 0.516096 0.003869 0.159562
O O11 0.628584 0.006215 0.079936
O O12 0.246517 0.250000 0.671617
O O13 0.352813 0.004884 0.663806
O O14 0.208950 0.988192 0.721064
O O15 0.787851 0.250000 0.552267
O O16 0.031715 0.250000 0.280447
O O17 0.159406 0.457133 0.285419
O O18 0.017416 0.517773 0.231621
O O19 0.287722 0.250000 0.286788
O O20 0.453393 0.250000 0.668260
#
# Coordination Sequence:
#
# PCOD9462977 Si02
#       8
#     8   8   8   8   8   8   8   8
#     4  10  21  36  57  85 114 148 189 231 280 336
#     4  11  24  40  59  82 111 150 196 239 285 339
#     4  11  22  38  58  83 117 151 188 232 283 342
#     4   9  20  39  59  81 112 150 190 232 281 336
#     4  11  23  40  60  83 114 150 192 237 284 338
#     4   9  19  34  52  81 116 148 181 222 275 333
#     4  10  19  33  55  82 114 148 182 228 279 331
#     4   9  19  36  58  82 113 150 187 230 275 332
#
# _framework density 19.945328
#
# number of rings (size 3 to 8) (size 9 to 14) (size 15 to 20)
#    0.000    2.000    1.250    1.875    1.750    3.500 
#    0.000    0.625    0.000    0.000    0.000    0.000 
#    0.000    0.000    0.000    0.000    0.000    0.000 
#
# Total GULP energy -357479.939306 kJ/mol
# GULP energy per Si atom -5585.624052 kJ/mol
# Density = 1.989993 g / cm^3
# Si number density = 19.945328 Si / 1000 Ang^3
#
#
#
# Elastic Constant Matrix: (Units=GPa)
#
#
# Indices 1 2 3 4 5 6 
#
# 1 34.8442 -13.8027 -3.3218 0.0000 0.0000 0.0000
# 2 -13.8027 76.3429 30.3349 0.0000 0.0000 0.0000
# 3 -3.3218 30.3349 85.0745 0.0000 0.0000 0.0000
# 4 0.0000 0.0000 0.0000 29.6707 0.0000 0.0000
# 5 0.0000 0.0000 0.0000 0.0000 32.9097 0.0000
# 6 0.0000 0.0000 0.0000 0.0000 0.0000 12.5359
#
#
#
# Elastic Compliance Matrix: (Units=1/GPa)
#
#
# Indices 1 2 3 4 5 6 
#
# 1 0.030975 0.005965 -0.000917 0.000000 0.000000 0.000000
# 2 0.005965 0.016410 -0.005618 0.000000 0.000000 0.000000
# 3 -0.000917 -0.005618 0.013722 0.000000 0.000000 0.000000
# 4 0.000000 0.000000 0.000000 0.033703 0.000000 0.000000
# 5 0.000000 0.000000 0.000000 0.000000 0.030386 0.000000
# 6 0.000000 0.000000 0.000000 0.000000 0.000000 0.079771
#
#
# Mechanical properties :
#
#
# Convention : Reuss Voigt Hill
#
# Bulk Modulus (GPa) = 16.67665 24.74248 20.70957
# Shear Modulus (GPa) = 22.11448 27.22666 24.67057
#
# Velocity S-wave (km/s) = 3.33341 3.69869 3.52079
# Velocity P-wave (km/s) = 4.81610 5.53827 5.18976
#
# Compressibility (1/GPa) = 0.05996406
#
# Stress axis : x y z
#
# Youngs Moduli (GPa) = 32.28460 60.93984 72.87629
#
# Poissons Ratio (x) = -0.36349 0.06686
# Poissons Ratio (y) = -0.19257 0.40944
# Poissons Ratio (z) = 0.02962 0.34238
#
# Static dielectric constant tensor:
#      x y z
#    x 1.736030 0.000000 0.000000 
#    y 0.000000 1.676170 0.000000 
#    z 0.000000 0.000000 1.693580 
# 
# From -- ./inp_files/29745.got.cif
#   From: 2010.05.17/outbox.cif.g08.bks.cpg/sg62_15_cif.got.tgz:29745.got - 2010.06.03 15:25:27.
