data_PCOD9462223
_publ_section_title
;
Structure prediction by ZEFSAII (Michael W. Deem and Ramdas Pophale) SiO2 
 PCOD9462223
Probable space group: P N M A
;
_chemical_formula_sum "Si O2"
_cell_formula_units_Z 40
_cell_length_a 10.016345
_cell_length_b 17.484809
_cell_length_c 13.167083
_cell_angle_alpha 90.000000
_cell_angle_beta 90.000000
_cell_angle_gamma 90.000000
_cell_volume 2306.002324
_symmetry_space_group_name_H-M "P N M A"
_symmetry_group_IT_number 62
_symmetry_cell_setting 'orthorhombic'
loop_
_space_group_symop_operation_xyz
x,y,z
1/2-x,-y,1/2+z
1/2+x,1/2-y,1/2-z
-x,1/2+y,-z
-x,-y,-z
1/2+x,y,1/2-z
1/2-x,1/2+y,1/2+z
x,1/2-y,z
loop_
_atom_site_type_symbol
_atom_site_label
_atom_site_fract_x
_atom_site_fract_y
_atom_site_fract_z
Si Si1 0.017788 0.250000 0.165895
Si Si2 0.648548 0.084977 0.059266
Si Si3 0.372611 0.593670 0.571365
Si Si4 0.893452 0.516822 0.130356
Si Si5 0.200438 0.250000 0.366005
Si Si6 0.388258 0.488770 0.140468
O O1 0.067726 0.326609 0.108839
O O2 0.096088 0.250000 0.272722
O O3 0.855791 0.250000 0.171024
O O4 0.781876 0.043825 0.096851
O O5 0.671696 0.174385 0.069241
O O6 0.527471 0.056091 0.129772
O O7 0.618420 0.052585 0.947420
O O8 0.465609 0.524012 0.609966
O O9 0.374634 0.586214 0.448637
O O10 0.227809 0.572999 0.616609
O O11 0.876241 0.527457 0.249905
#
# Coordination Sequence:
#
# PCOD9462223 Si02
#       6
#     4   8   8   8   4   8
#     4  12  24  38  55  84 114 150 179 234 285 331
#     4  10  22  35  55  86 111 145 183 231 271 337
#     4  10  22  33  57  83 112 139 188 226 269 334
#     4  10  18  37  56  81 107 148 183 228 272 320
#     4  12  24  38  57  82 118 146 183 228 289 327
#     4  10  20  37  58  81 113 144 187 225 277 323
#
# _framework density 17.346035000000001
#
# number of rings (size 3 to 8) (size 9 to 14) (size 15 to 20)
#    0.000    1.600    2.000    3.600    2.800    0.000 
#    0.000    1.000    0.000    0.000    0.000    0.000 
#    0.000    0.000    0.000    0.000    0.000    0.000 
#
# Total GULP energy -223226.817040 kJ/mol
# GULP energy per Si atom -5580.670426 kJ/mol
# Density = 1.730656 g / cm^3
# Si number density = 17.346035 Si / 1000 Ang^3
#
#
#
# Elastic Constant Matrix: (Units=GPa)
#
#
# Indices 1 2 3 4 5 6 
#
# 1 63.2283 14.7796 0.7837 0.0000 0.0000 0.0000
# 2 14.7796 79.4701 16.7663 0.0000 0.0000 0.0000
# 3 0.7837 16.7663 102.7371 0.0000 0.0000 0.0000
# 4 0.0000 0.0000 0.0000 12.8972 0.0000 0.0000
# 5 0.0000 0.0000 0.0000 0.0000 15.1112 0.0000
# 6 0.0000 0.0000 0.0000 0.0000 0.0000 18.6775
#
#
#
# Elastic Compliance Matrix: (Units=1/GPa)
#
#
# Indices 1 2 3 4 5 6 
#
# 1 0.016550 -0.003160 0.000389 0.000000 0.000000 0.000000
# 2 -0.003160 0.013635 -0.002201 0.000000 0.000000 0.000000
# 3 0.000389 -0.002201 0.010090 0.000000 0.000000 0.000000
# 4 0.000000 0.000000 0.000000 0.077536 0.000000 0.000000
# 5 0.000000 0.000000 0.000000 0.000000 0.066176 0.000000
# 6 0.000000 0.000000 0.000000 0.000000 0.000000 0.053540
#
#
# Mechanical properties :
#
#
# Convention : Reuss Voigt Hill
#
# Bulk Modulus (GPa) = 32.96913 34.45498 33.71205
# Shear Modulus (GPa) = 19.41131 23.54422 21.47777
#
# Velocity S-wave (km/s) = 3.34887 3.68819 3.52262
# Velocity P-wave (km/s) = 5.83106 6.16793 6.00186
#
# Compressibility (1/GPa) = 0.03033141
#
# Stress axis : x y z
#
# Youngs Moduli (GPa) = 60.42466 73.33839 99.10975
#
# Poissons Ratio (x) = 0.23175 -0.03860
# Poissons Ratio (y) = 0.19094 0.21815
# Poissons Ratio (z) = -0.02353 0.16143
#
# Static dielectric constant tensor:
#      x y z
#    x 1.602240 0.000000 0.000000 
#    y 0.000000 1.557100 0.000000 
#    z 0.000000 0.000000 1.619260 
# 
# From -- ./inp_files/11097.got.cif
#   From: 2010.05.17/outbox.cif.g08.bks.cpg/sg62_6_cif.got.tgz:11097.got - 2010.06.03 15:25:27.
