data_PCOD9462576
_publ_section_title
;
Structure prediction by ZEFSAII (Michael W. Deem and Ramdas Pophale) SiO2 
 PCOD9462576
Probable space group: P N M A
;
_chemical_formula_sum "Si O2"
_cell_formula_units_Z 56
_cell_length_a 20.766405
_cell_length_b 24.136336
_cell_length_c 5.239387
_cell_angle_alpha 90.000000
_cell_angle_beta 90.000000
_cell_angle_gamma 90.000000
_cell_volume 2626.111375
_symmetry_space_group_name_H-M "P N M A"
_symmetry_group_IT_number 62
_symmetry_cell_setting 'orthorhombic'
loop_
_space_group_symop_operation_xyz
x,y,z
1/2-x,-y,1/2+z
1/2+x,1/2-y,1/2-z
-x,1/2+y,-z
-x,-y,-z
1/2+x,y,1/2-z
1/2-x,1/2+y,1/2+z
x,1/2-y,z
loop_
_atom_site_type_symbol
_atom_site_label
_atom_site_fract_x
_atom_site_fract_y
_atom_site_fract_z
Si Si1 0.786445 0.126487 0.998540
Si Si2 0.205968 0.991460 0.863215
Si Si3 0.080159 0.311907 0.477244
Si Si4 0.116076 0.817094 0.353078
Si Si5 0.791686 0.809575 0.846592
Si Si6 0.958937 0.316429 0.148437
Si Si7 0.845140 0.896761 0.241231
O O1 0.820016 0.070469 0.092498
O O2 0.820761 0.152435 0.753376
O O3 0.773691 0.175246 0.200363
O O4 0.713660 0.105268 0.944546
O O5 0.250907 0.991356 0.609910
O O6 0.151892 0.039015 0.832232
O O7 0.061306 0.250000 0.583467
O O8 0.150176 0.304176 0.354080
O O9 0.092414 0.363033 0.666884
O O10 0.029863 0.328027 0.257247
O O11 0.124150 0.750000 0.351795
O O12 0.063102 0.832595 0.133893
O O13 0.089454 0.835170 0.627207
O O14 0.786331 0.750000 0.982925
O O15 0.814473 0.859304 0.021154
O O16 0.954862 0.250000 0.146823
#
# Coordination Sequence:
#
# PCOD9462576 Si02
#       7
#     8   8   8   8   8   8   8
#     4  10  21  35  52  79 112 145 182 224 271 328
#     4  10  20  36  55  77 109 146 188 219 263 328
#     4   9  19  34  53  80 109 141 180 227 278 327
#     4  10  21  35  54  79 108 145 182 220 269 325
#     4  10  19  31  52  83 113 138 171 224 287 331
#     4   9  20  36  54  77 106 144 186 221 264 328
#     4  10  20  33  54  81 109 143 179 226 277 327
#
# _framework density 21.324303
#
# number of rings (size 3 to 8) (size 9 to 14) (size 15 to 20)
#    0.000    2.286    1.429    0.857    4.000    1.714 
#    0.000    0.000    0.000    1.714    0.000    0.000 
#    0.000    0.000    0.000    0.000    0.000    0.000 
#
# Total GULP energy -312209.491084 kJ/mol
# GULP energy per Si atom -5575.169484 kJ/mol
# Density = 2.127577 g / cm^3
# Si number density = 21.324303 Si / 1000 Ang^3
#
#
#
# Elastic Constant Matrix: (Units=GPa)
#
#
# Indices 1 2 3 4 5 6 
#
# 1 48.3749 20.6372 3.9607 0.0000 0.0000 0.0000
# 2 20.6372 81.2455 -4.6168 0.0000 0.0000 0.0000
# 3 3.9607 -4.6168 51.1482 0.0000 0.0000 0.0000
# 4 0.0000 0.0000 0.0000 20.6732 0.0000 0.0000
# 5 0.0000 0.0000 0.0000 0.0000 27.7513 0.0000
# 6 0.0000 0.0000 0.0000 0.0000 0.0000 -0.6742
#
#
#
# Elastic Compliance Matrix: (Units=1/GPa)
#
#
# Indices 1 2 3 4 5 6 
#
# 1 0.023466 -0.006095 -0.002367 0.000000 0.000000 0.000000
# 2 -0.006095 0.013955 0.001732 0.000000 0.000000 0.000000
# 3 -0.002367 0.001732 0.019891 0.000000 0.000000 0.000000
# 4 0.000000 0.000000 0.000000 0.048372 0.000000 0.000000
# 5 0.000000 0.000000 0.000000 0.000000 0.036034 0.000000
# 6 0.000000 0.000000 0.000000 0.000000 0.000000 -1.483257
#
#
# Mechanical properties :
#
#
# Convention : Reuss Voigt Hill
#
# Bulk Modulus (GPa) = 22.80503 24.52566 23.66534
# Shear Modulus (GPa) = -3.80674 20.26922 8.23124
#
# Velocity S-wave (km/s) = -1.33755 3.08640 1.96683
# Velocity P-wave (km/s) = 2.88656 4.92213 4.03482
#
# Compressibility (1/GPa) = 0.04384998
#
# Stress axis : x y z
#
# Youngs Moduli (GPa) = 42.61496 71.65893 50.27488
#
# Poissons Ratio (x) = 0.43677 0.11901
# Poissons Ratio (y) = 0.25974 -0.08706
# Poissons Ratio (z) = 0.10088 -0.12408
#
# Static dielectric constant tensor:
#      x y z
#    x 1.815280 0.000000 0.000000 
#    y 0.000000 1.820030 0.000000 
#    z 0.000000 0.000000 1.854530 
# 
# From -- ./inp_files/2277.got.cif
#   From: 2010.05.17/outbox.cif.g08.bks.cpg/sg62_2_cif.got.tgz:2277.got - 2010.06.03 15:25:27.
