data_PCOD9462670
_publ_section_title
;
Structure prediction by ZEFSAII (Michael W. Deem and Ramdas Pophale) SiO2 
 PCOD9462670
Probable space group: P N M A
;
_chemical_formula_sum "Si O2"
_cell_formula_units_Z 56
_cell_length_a 14.615941
_cell_length_b 9.060863
_cell_length_c 21.157570
_cell_angle_alpha 90.000000
_cell_angle_beta 90.000000
_cell_angle_gamma 90.000000
_cell_volume 2801.961293
_symmetry_space_group_name_H-M "P N M A"
_symmetry_group_IT_number 62
_symmetry_cell_setting 'orthorhombic'
loop_
_space_group_symop_operation_xyz
x,y,z
1/2-x,-y,1/2+z
1/2+x,1/2-y,1/2-z
-x,1/2+y,-z
-x,-y,-z
1/2+x,y,1/2-z
1/2-x,1/2+y,1/2+z
x,1/2-y,z
loop_
_atom_site_type_symbol
_atom_site_label
_atom_site_fract_x
_atom_site_fract_y
_atom_site_fract_z
Si Si1 0.504467 0.420842 0.264023
Si Si2 0.290546 0.426427 0.256708
Si Si3 0.574834 0.419571 0.958553
Si Si4 0.241551 0.422167 0.892429
Si Si5 0.782076 0.071966 0.979012
Si Si6 0.351016 0.073469 0.657526
Si Si7 0.061400 0.915112 0.350931
O O1 0.513164 0.250000 0.281030
O O2 0.399192 0.451305 0.247006
O O3 0.550411 0.519947 0.317791
O O4 0.562365 0.461060 0.201805
O O5 0.273915 0.250000 0.257237
O O6 0.275204 0.496351 0.326110
O O7 0.226301 0.500327 0.203204
O O8 0.576916 0.250000 0.979708
O O9 0.677759 0.474196 0.962459
O O10 0.532888 0.423535 0.888636
O O11 0.500000 0.500000 0.000000
O O12 0.215995 0.250000 0.888140
O O13 0.352566 0.429401 0.897577
O O14 0.196941 0.497365 0.953706
O O15 0.786101 0.250000 0.986156
O O16 0.838066 0.032136 0.916080
O O17 0.341509 0.250000 0.662605
O O18 0.069226 0.750000 0.321974
#
# Coordination Sequence:
#
# PCOD9462670 Si02
#       7
#     8   8   8   8   8   8   8
#     4  11  24  40  62  91 120 157 203 256 310 361
#     4  11  24  42  64  91 124 162 207 256 308 366
#     4  10  19  32  51  79 115 151 188 231 286 354
#     4  11  22  37  61  90 120 159 202 246 301 362
#     4  10  22  38  58  85 122 163 199 247 305 362
#     4  11  23  41  65  92 123 163 206 253 310 366
#     4  10  20  35  56  85 119 155 195 244 298 361
#
# _framework density 19.986001000000002
#
# number of rings (size 3 to 8) (size 9 to 14) (size 15 to 20)
#    0.000    1.429    2.857    2.571    0.000    5.714 
#    0.000    0.714    0.000    0.000    0.000    0.000 
#    0.000    0.000    0.000    0.000    0.000    0.000 
#
# Total GULP energy -312496.908670 kJ/mol
# GULP energy per Si atom -5580.301941 kJ/mol
# Density = 1.994051 g / cm^3
# Si number density = 19.986001 Si / 1000 Ang^3
#
#
#
# Elastic Constant Matrix: (Units=GPa)
#
#
# Indices 1 2 3 4 5 6 
#
# 1 25.9286 19.9342 -2.7885 0.0000 0.0000 0.0000
# 2 19.9342 64.2618 41.4711 0.0000 0.0000 0.0000
# 3 -2.7885 41.4711 92.8151 0.0000 0.0000 0.0000
# 4 0.0000 0.0000 0.0000 31.5412 0.0000 0.0000
# 5 0.0000 0.0000 0.0000 0.0000 23.6976 0.0000
# 6 0.0000 0.0000 0.0000 0.0000 0.0000 25.0644
#
#
#
# Elastic Compliance Matrix: (Units=1/GPa)
#
#
# Indices 1 2 3 4 5 6 
#
# 1 0.062361 -0.028882 0.014778 0.000000 0.000000 0.000000
# 2 -0.028882 0.035243 -0.016615 0.000000 0.000000 0.000000
# 3 0.014778 -0.016615 0.018642 0.000000 0.000000 0.000000
# 4 0.000000 0.000000 0.000000 0.031705 0.000000 0.000000
# 5 0.000000 0.000000 0.000000 0.000000 0.042198 0.000000
# 6 0.000000 0.000000 0.000000 0.000000 0.000000 0.039897
#
#
# Mechanical properties :
#
#
# Convention : Reuss Voigt Hill
#
# Bulk Modulus (GPa) = 18.24500 33.35990 25.80245
# Shear Modulus (GPa) = 16.14196 24.35322 20.24759
#
# Velocity S-wave (km/s) = 2.84502 3.49451 3.18636
# Velocity P-wave (km/s) = 4.46553 5.74543 5.14543
#
# Compressibility (1/GPa) = 0.05480955
#
# Stress axis : x y z
#
# Youngs Moduli (GPa) = 16.03562 28.37466 53.64299
#
# Poissons Ratio (x) = 0.81951 -0.79275
# Poissons Ratio (y) = 0.46314 0.89126
# Poissons Ratio (z) = -0.23698 0.47144
#
# Static dielectric constant tensor:
#      x y z
#    x 1.741350 0.000000 0.000000 
#    y 0.000000 1.694140 0.000000 
#    z 0.000000 0.000000 1.723550 
# 
# From -- ./inp_files/27295.got.cif
#   From: 2010.05.17/outbox.cif.g08.bks.cpg/sg62_14_cif.got.tgz:27295.got - 2010.06.03 15:25:27.
