data_PCOD9462149
_publ_section_title
;
Structure prediction by ZEFSAII (Michael W. Deem and Ramdas Pophale) SiO2 
 PCOD9462149
Probable space group: P N M A
;
_chemical_formula_sum "Si O2"
_cell_formula_units_Z 64
_cell_length_a 9.793268
_cell_length_b 21.482681
_cell_length_c 15.634862
_cell_angle_alpha 90.000000
_cell_angle_beta 90.000000
_cell_angle_gamma 90.000000
_cell_volume 3289.350642
_symmetry_space_group_name_H-M "P N M A"
_symmetry_group_IT_number 62
_symmetry_cell_setting 'orthorhombic'
loop_
_space_group_symop_operation_xyz
x,y,z
1/2-x,-y,1/2+z
1/2+x,1/2-y,1/2-z
-x,1/2+y,-z
-x,-y,-z
1/2+x,y,1/2-z
1/2-x,1/2+y,1/2+z
x,1/2-y,z
loop_
_atom_site_type_symbol
_atom_site_label
_atom_site_fract_x
_atom_site_fract_y
_atom_site_fract_z
Si Si1 0.746032 0.107753 0.515975
Si Si2 0.079247 0.882369 0.773304
Si Si3 0.684425 0.323713 0.338536
Si Si4 0.937230 0.620743 0.279773
Si Si5 0.938241 0.573488 0.454723
Si Si6 0.783415 0.318443 0.679541
Si Si7 0.158500 0.012379 0.847307
Si Si8 0.566411 0.040900 0.129588
O O1 0.708918 0.133708 0.423143
O O2 0.732945 0.162028 0.585908
O O3 0.667144 0.048869 0.560920
O O4 0.907835 0.093446 0.520713
O O5 0.217852 0.851334 0.737092
O O6 0.973511 0.833970 0.813571
O O7 0.003703 0.910500 0.690142
O O8 0.097123 0.943224 0.834643
O O9 0.713593 0.250000 0.351948
O O10 0.096871 0.636150 0.287741
O O11 0.885045 0.614029 0.377253
O O12 0.848687 0.674375 0.237629
O O13 0.907589 0.559870 0.221215
O O14 0.863425 0.570321 0.544910
O O15 0.955629 0.506401 0.409767
O O16 0.841553 0.250000 0.678807
O O17 0.317630 0.999457 0.824621
#
# Coordination Sequence:
#
# PCOD9462149 Si02
#       8
#     8   8   8   8   8   8   8   8
#     4   9  20  38  62  89 121 160 204 257 306 372
#     4  12  23  40  66  91 123 160 203 266 313 374
#     4  12  26  44  64  88 122 171 218 253 303 374
#     4  10  20  34  57  87 121 153 196 256 306 367
#     4   9  17  32  59  89 118 152 192 244 307 366
#     4  10  20  36  58  84 118 163 208 245 297 367
#     4  10  21  36  60  96 123 151 197 252 329 364
#     4  10  18  34  58  88 119 151 191 245 310 368
#
# _framework density 19.456727999999998
#
# number of rings (size 3 to 8) (size 9 to 14) (size 15 to 20)
#    0.000    1.750    3.750    1.875    0.000    0.500 
#    0.000    2.500    0.000    0.000    0.000    0.000 
#    0.000    0.000    0.000    0.000    0.000    0.000 
#
# Total GULP energy -356347.526681 kJ/mol
# GULP energy per Si atom -5567.930104 kJ/mol
# Density = 1.941244 g / cm^3
# Si number density = 19.456728 Si / 1000 Ang^3
#
#
#
# Elastic Constant Matrix: (Units=GPa)
#
#
# Indices 1 2 3 4 5 6 
#
# 1 50.0951 13.1379 24.4679 0.0000 0.0000 0.0000
# 2 13.1379 87.5615 23.8695 0.0000 0.0000 0.0000
# 3 24.4679 23.8695 78.5680 0.0000 0.0000 0.0000
# 4 0.0000 0.0000 0.0000 15.5095 0.0000 0.0000
# 5 0.0000 0.0000 0.0000 0.0000 23.6511 0.0000
# 6 0.0000 0.0000 0.0000 0.0000 0.0000 25.3769
#
#
#
# Elastic Compliance Matrix: (Units=1/GPa)
#
#
# Indices 1 2 3 4 5 6 
#
# 1 0.023770 -0.001688 -0.006890 0.000000 0.000000 0.000000
# 2 -0.001688 0.012572 -0.003294 0.000000 0.000000 0.000000
# 3 -0.006890 -0.003294 0.015874 0.000000 0.000000 0.000000
# 4 0.000000 0.000000 0.000000 0.064476 0.000000 0.000000
# 5 0.000000 0.000000 0.000000 0.000000 0.042281 0.000000
# 6 0.000000 0.000000 0.000000 0.000000 0.000000 0.039406
#
#
# Mechanical properties :
#
#
# Convention : Reuss Voigt Hill
#
# Bulk Modulus (GPa) = 35.12150 37.68614 36.40382
# Shear Modulus (GPa) = 21.58770 23.22410 22.40590
#
# Velocity S-wave (km/s) = 3.33456 3.45864 3.39717
# Velocity P-wave (km/s) = 5.73725 5.94650 5.84281
#
# Compressibility (1/GPa) = 0.02847259
#
# Stress axis : x y z
#
# Youngs Moduli (GPa) = 42.07001 79.54368 62.99603
#
# Poissons Ratio (x) = 0.13430 0.43402
# Poissons Ratio (y) = 0.07103 0.20748
# Poissons Ratio (z) = 0.28984 0.26198
#
# Static dielectric constant tensor:
#      x y z
#    x 1.682040 0.000000 0.000000 
#    y 0.000000 1.745790 0.000000 
#    z 0.000000 0.000000 1.750200 
# 
# From -- ./inp_files/17377.got.cif
#   From: 2010.05.17/outbox.cif.g08.bks.cpg/sg62_9_cif.got.tgz:17377.got - 2010.06.03 15:25:27.
