data_PCOD9462128
_publ_section_title
;
Structure prediction by ZEFSAII (Michael W. Deem and Ramdas Pophale) SiO2 
 PCOD9462128
Probable space group: P N M A
;
_chemical_formula_sum "Si O2"
_cell_formula_units_Z 64
_cell_length_a 15.043159
_cell_length_b 33.398647
_cell_length_c 5.711556
_cell_angle_alpha 90.000000
_cell_angle_beta 90.000000
_cell_angle_gamma 90.000000
_cell_volume 2869.606575
_symmetry_space_group_name_H-M "P N M A"
_symmetry_group_IT_number 62
_symmetry_cell_setting 'orthorhombic'
loop_
_space_group_symop_operation_xyz
x,y,z
1/2-x,-y,1/2+z
1/2+x,1/2-y,1/2-z
-x,1/2+y,-z
-x,-y,-z
1/2+x,y,1/2-z
1/2-x,1/2+y,1/2+z
x,1/2-y,z
loop_
_atom_site_type_symbol
_atom_site_label
_atom_site_fract_x
_atom_site_fract_y
_atom_site_fract_z
Si Si1 0.803831 0.006327 0.159845
Si Si2 0.987361 0.865256 0.532938
Si Si3 0.758892 0.294946 0.514814
Si Si4 0.895319 0.928879 0.270168
Si Si5 0.655054 0.367035 0.413039
Si Si6 0.718183 0.906796 0.556346
Si Si7 0.631252 0.834018 0.640669
Si Si8 0.047177 0.706050 0.238366
O O1 0.831514 0.052007 0.109444
O O2 0.747397 0.005959 0.411071
O O3 0.883616 0.975021 0.204303
O O4 0.968613 0.910084 0.441599
O O5 0.906614 0.853076 0.701646
O O6 0.993594 0.831154 0.337246
O O7 0.078755 0.860253 0.670325
O O8 0.722656 0.250000 0.524803
O O9 0.690538 0.330496 0.569803
O O10 0.790843 0.307846 0.253789
O O11 0.851518 0.295141 0.658365
O O12 0.800013 0.917825 0.387956
O O13 0.900652 0.900626 0.045994
O O14 0.737690 0.390161 0.295038
O O15 0.664534 0.868474 0.463658
O O16 0.562285 0.802911 0.533026
O O17 0.010706 0.750000 0.287851
#
# Coordination Sequence:
#
# PCOD9462128 Si02
#       8
#     8   8   8   8   8   8   8   8
#     4  10  19  35  59  91 122 154 200 254 302 362
#     4  10  22  35  52  79 111 153 188 231 285 357
#     4   9  19  33  54  82 104 134 182 237 287 340
#     4  10  19  34  56  80 115 148 191 237 298 346
#     4  10  18  34  55  77 113 144 182 234 292 344
#     4   9  19  33  56  88 105 148 192 244 289 347
#     4  10  19  36  57  77 112 145 192 229 290 344
#     4  10  20  36  56  78 107 148 191 233 285 349
#
# _framework density 22.302707999999999
#
# number of rings (size 3 to 8) (size 9 to 14) (size 15 to 20)
#    0.000    2.250    1.250    1.875    0.000    1.000 
#    0.000    2.500    0.000    3.000    0.000    0.000 
#    0.000    0.000    0.000    0.000    0.000    0.000 
#
# Total GULP energy -356563.182411 kJ/mol
# GULP energy per Si atom -5571.299725 kJ/mol
# Density = 2.225195 g / cm^3
# Si number density = 22.302708 Si / 1000 Ang^3
#
#
#
# Elastic Constant Matrix: (Units=GPa)
#
#
# Indices 1 2 3 4 5 6 
#
# 1 28.4396 -3.2549 -2.3091 0.0000 0.0000 0.0000
# 2 -3.2549 101.8899 1.9539 0.0000 0.0000 0.0000
# 3 -2.3091 1.9539 45.4600 0.0000 0.0000 0.0000
# 4 0.0000 0.0000 0.0000 22.0668 0.0000 0.0000
# 5 0.0000 0.0000 0.0000 0.0000 19.7414 0.0000
# 6 0.0000 0.0000 0.0000 0.0000 0.0000 25.0188
#
#
#
# Elastic Compliance Matrix: (Units=1/GPa)
#
#
# Indices 1 2 3 4 5 6 
#
# 1 0.035430 0.001098 0.001752 0.000000 0.000000 0.000000
# 2 0.001098 0.009857 -0.000368 0.000000 0.000000 0.000000
# 3 0.001752 -0.000368 0.022102 0.000000 0.000000 0.000000
# 4 0.000000 0.000000 0.000000 0.045317 0.000000 0.000000
# 5 0.000000 0.000000 0.000000 0.000000 0.050655 0.000000
# 6 0.000000 0.000000 0.000000 0.000000 0.000000 0.039970
#
#
# Mechanical properties :
#
#
# Convention : Reuss Voigt Hill
#
# Bulk Modulus (GPa) = 13.82079 18.72991 16.27535
# Shear Modulus (GPa) = 22.47359 25.32539 23.89949
#
# Velocity S-wave (km/s) = 3.17781 3.37342 3.27707
# Velocity P-wave (km/s) = 4.43565 4.85691 4.65105
#
# Compressibility (1/GPa) = 0.07235477
#
# Stress axis : x y z
#
# Youngs Moduli (GPa) = 28.22448 101.45430 45.24437
#
# Poissons Ratio (x) = -0.11142 -0.07929
# Poissons Ratio (y) = -0.03100 0.01664
# Poissons Ratio (z) = -0.04946 0.03732
#
# Static dielectric constant tensor:
#      x y z
#    x 1.850180 0.000000 0.000000 
#    y 0.000000 1.814360 0.000000 
#    z 0.000000 0.000000 1.919480 
# 
# From -- ./inp_files/1901.got.cif
#   From: 2010.05.17/outbox.cif.g08.bks.cpg/sg62_1_cif.got.tgz:1901.got - 2010.06.03 15:25:27.
