data_PCOD9462330
_publ_section_title
;
Structure prediction by ZEFSAII (Michael W. Deem and Ramdas Pophale) SiO2 
 PCOD9462330
Probable space group: P N M A
;
_chemical_formula_sum "Si O2"
_cell_formula_units_Z 64
_cell_length_a 24.152711
_cell_length_b 8.590426
_cell_length_c 19.650255
_cell_angle_alpha 90.000000
_cell_angle_beta 90.000000
_cell_angle_gamma 90.000000
_cell_volume 4077.075712
_symmetry_space_group_name_H-M "P N M A"
_symmetry_group_IT_number 62
_symmetry_cell_setting 'orthorhombic'
loop_
_space_group_symop_operation_xyz
x,y,z
1/2-x,-y,1/2+z
1/2+x,1/2-y,1/2-z
-x,1/2+y,-z
-x,-y,-z
1/2+x,y,1/2-z
1/2-x,1/2+y,1/2+z
x,1/2-y,z
loop_
_atom_site_type_symbol
_atom_site_label
_atom_site_fract_x
_atom_site_fract_y
_atom_site_fract_z
Si Si1 0.746894 0.064256 0.497725
Si Si2 0.835240 0.561821 0.773031
Si Si3 0.882071 0.938145 0.002232
Si Si4 0.835944 0.437421 0.232181
Si Si5 0.063826 0.561628 0.859783
Si Si6 0.562272 0.439788 0.359824
Si Si7 0.728529 0.062750 0.142152
Si Si8 0.770111 0.934460 0.354241
O O1 0.747394 0.250000 0.491435
O O2 0.682233 0.012714 0.499564
O O3 0.773902 0.013449 0.568622
O O4 0.774979 0.992360 0.431258
O O5 0.833893 0.750000 0.774606
O O6 0.894135 0.509523 0.802265
O O7 0.818187 0.514414 0.696753
O O8 0.786474 0.505252 0.822857
O O9 0.883121 0.750000 0.005352
O O10 0.911867 0.004262 0.068596
O O11 0.913434 0.986665 0.933300
O O12 0.835426 0.250000 0.238933
O O13 0.893949 0.487704 0.199659
O O14 0.787009 0.477718 0.178557
O O15 0.818634 0.509252 0.303968
O O16 0.064030 0.750000 0.860779
O O17 0.000732 0.507759 0.850635
O O18 0.561860 0.250000 0.359133
O O19 0.726996 0.250000 0.134804
O O20 0.766369 0.750000 0.352345
#
# Coordination Sequence:
#
# PCOD9462330 Si02
#       8
#     8   8   8   8   8   8   8   8
#     4  11  20  31  48  68  95 129 157 191 239 285
#     4   9  17  33  50  67  95 126 156 194 240 280
#     4  10  19  30  44  65  98 133 163 192 228 271
#     4   9  18  32  47  67  95 125 155 193 238 277
#     4  10  19  31  49  69  93 127 166 198 225 269
#     4   9  17  31  49  68  92 128 166 194 227 275
#     4   9  17  29  47  68  93 123 155 193 234 280
#     4  11  21  31  48  70  92 120 159 199 236 283
#
# _framework density 15.697526
#
# number of rings (size 3 to 8) (size 9 to 14) (size 15 to 20)
#    0.000    2.250    2.500    2.625    0.000    3.000 
#    0.000    0.625    0.000    0.000    0.000    0.875 
#    0.000    0.000    0.000    0.000    0.000    0.000 
#
# Total GULP energy -356959.897508 kJ/mol
# GULP energy per Si atom -5577.498399 kJ/mol
# Density = 1.566180 g / cm^3
# Si number density = 15.697526 Si / 1000 Ang^3
#
#
#
# Elastic Constant Matrix: (Units=GPa)
#
#
# Indices 1 2 3 4 5 6 
#
# 1 105.8255 18.5915 76.9472 0.0000 0.0000 0.0000
# 2 18.5915 11.0613 27.2025 0.0000 0.0000 0.0000
# 3 76.9472 27.2025 144.4394 0.0000 0.0000 0.0000
# 4 0.0000 0.0000 0.0000 26.5862 0.0000 0.0000
# 5 0.0000 0.0000 0.0000 0.0000 20.2350 0.0000
# 6 0.0000 0.0000 0.0000 0.0000 0.0000 10.7111
#
#
#
# Elastic Compliance Matrix: (Units=1/GPa)
#
#
# Indices 1 2 3 4 5 6 
#
# 1 0.016128 -0.011135 -0.006495 0.000000 0.000000 0.000000
# 2 -0.011135 0.176089 -0.027231 0.000000 0.000000 0.000000
# 3 -0.006495 -0.027231 0.015512 0.000000 0.000000 0.000000
# 4 0.000000 0.000000 0.000000 0.037614 0.000000 0.000000
# 5 0.000000 0.000000 0.000000 0.000000 0.049419 0.000000
# 6 0.000000 0.000000 0.000000 0.000000 0.000000 0.093361
#
#
# Mechanical properties :
#
#
# Convention : Reuss Voigt Hill
#
# Bulk Modulus (GPa) = 8.47412 56.31206 32.39309
# Shear Modulus (GPa) = 9.66781 20.74546 15.20663
#
# Velocity S-wave (km/s) = 2.48439 3.63929 3.11582
# Velocity P-wave (km/s) = 3.69319 7.32191 5.79871
#
# Compressibility (1/GPa) = 0.11800631
#
# Stress axis : x y z
#
# Youngs Moduli (GPa) = 62.00278 5.67896 64.46708
#
# Poissons Ratio (x) = 0.06324 0.41871
# Poissons Ratio (y) = 0.69042 1.75550
# Poissons Ratio (z) = 0.40270 0.15464
#
# Static dielectric constant tensor:
#      x y z
#    x 1.522060 0.000000 0.000000 
#    y 0.000000 1.530980 0.000000 
#    z 0.000000 0.000000 1.512920 
# 
# From -- ./inp_files/24933.got.cif
#   From: 2010.05.17/outbox.cif.g08.bks.cpg/sg62_13_cif.got.tgz:24933.got - 2010.06.03 15:25:27.
