data_PCOD9462152
_publ_section_title
;
Structure prediction by ZEFSAII (Michael W. Deem and Ramdas Pophale) SiO2 
 PCOD9462152
Probable space group: P N M A
;
_chemical_formula_sum "Si O2"
_cell_formula_units_Z 32
_cell_length_a 7.927737
_cell_length_b 11.549843
_cell_length_c 14.251015
_cell_angle_alpha 90.000000
_cell_angle_beta 90.000000
_cell_angle_gamma 90.000000
_cell_volume 1304.881615
_symmetry_space_group_name_H-M "P N M A"
_symmetry_group_IT_number 62
_symmetry_cell_setting 'orthorhombic'
loop_
_space_group_symop_operation_xyz
x,y,z
1/2-x,-y,1/2+z
1/2+x,1/2-y,1/2-z
-x,1/2+y,-z
-x,-y,-z
1/2+x,y,1/2-z
1/2-x,1/2+y,1/2+z
x,1/2-y,z
loop_
_atom_site_type_symbol
_atom_site_label
_atom_site_fract_x
_atom_site_fract_y
_atom_site_fract_z
Si Si1 0.297380 0.750000 0.221840
Si Si2 0.167388 0.114884 0.290319
Si Si3 0.150920 0.010681 0.636656
Si Si4 0.541483 0.250000 0.595922
Si Si5 0.167714 0.616496 0.971136
O O1 0.386150 0.634406 0.184173
O O2 0.115327 0.750000 0.170083
O O3 0.300516 0.750000 0.335222
O O4 0.159034 0.250000 0.267633
O O5 0.197627 0.042398 0.197569
O O6 0.323540 0.090699 0.361616
O O7 0.004342 0.074175 0.347294
O O8 0.213494 0.035472 0.532476
O O9 0.507353 0.360385 0.527558
O O10 0.238739 0.750000 0.975538
#
# Coordination Sequence:
#
# PCOD9462152 Si02
#       5
#     4   8   8   4   8
#     4  10  18  34  58  94 102 146 196 254 282 322
#     4  11  23  38  59  85 122 160 189 236 298 352
#     4  11  20  37  64  85 118 150 204 240 284 351
#     4   8  16  32  56  78 122 136 186 244 286 334
#     4   8  18  37  59  85 116 151 191 241 288 342
#
# _framework density 24.523299000000002
#
# number of rings (size 3 to 8) (size 9 to 14) (size 15 to 20)
#    0.750    1.500    1.250    4.500    0.000    0.000 
#    0.000    5.000    5.500    0.000    0.000    0.000 
#    0.000    0.000    0.000    0.000    0.000    0.000 
#
# Total GULP energy -178757.666926 kJ/mol
# GULP energy per Si atom -5586.177091 kJ/mol
# Density = 2.446748 g / cm^3
# Si number density = 24.523299 Si / 1000 Ang^3
#
#
#
# Elastic Constant Matrix: (Units=GPa)
#
#
# Indices 1 2 3 4 5 6 
#
# 1 61.7966 3.0412 5.2324 0.0000 0.0000 0.0000
# 2 3.0412 65.8205 7.9046 0.0000 0.0000 0.0000
# 3 5.2324 7.9046 51.3421 0.0000 0.0000 0.0000
# 4 0.0000 0.0000 0.0000 29.6903 0.0000 0.0000
# 5 0.0000 0.0000 0.0000 0.0000 34.6632 0.0000
# 6 0.0000 0.0000 0.0000 0.0000 0.0000 2.1901
#
#
#
# Elastic Compliance Matrix: (Units=1/GPa)
#
#
# Indices 1 2 3 4 5 6 
#
# 1 0.016344 -0.000566 -0.001579 0.000000 0.000000 0.000000
# 2 -0.000566 0.015499 -0.002329 0.000000 0.000000 0.000000
# 3 -0.001579 -0.002329 0.019997 0.000000 0.000000 0.000000
# 4 0.000000 0.000000 0.000000 0.033681 0.000000 0.000000
# 5 0.000000 0.000000 0.000000 0.000000 0.028849 0.000000
# 6 0.000000 0.000000 0.000000 0.000000 0.000000 0.456598
#
#
# Mechanical properties :
#
#
# Convention : Reuss Voigt Hill
#
# Bulk Modulus (GPa) = 23.31355 23.47952 23.39654
# Shear Modulus (GPa) = 8.41453 24.16080 16.28766
#
# Velocity S-wave (km/s) = 1.85437 3.14222 2.57995
# Velocity P-wave (km/s) = 3.75663 4.77074 4.29373
#
# Compressibility (1/GPa) = 0.04289350
#
# Stress axis : x y z
#
# Youngs Moduli (GPa) = 61.18604 64.52197 50.00860
#
# Poissons Ratio (x) = 0.03649 0.07894
# Poissons Ratio (y) = 0.03461 0.11645
# Poissons Ratio (z) = 0.09658 0.15024
#
# Static dielectric constant tensor:
#      x y z
#    x 2.028490 0.000000 0.000000 
#    y 0.000000 1.932800 0.000000 
#    z 0.000000 0.000000 1.936750 
# 
# From -- ./inp_files/16458.got.cif
#   From: 2010.05.17/outbox.cif.g08.bks.cpg/sg62_9_cif.got.tgz:16458.got - 2010.06.03 15:25:27.
