data_PCOD9462807
_publ_section_title
;
Structure prediction by ZEFSAII (Michael W. Deem and Ramdas Pophale) SiO2 
 PCOD9462807
Probable space group: P N M A
;
_chemical_formula_sum "Si O2"
_cell_formula_units_Z 64
_cell_length_a 19.763741
_cell_length_b 13.266373
_cell_length_c 12.353702
_cell_angle_alpha 90.000000
_cell_angle_beta 90.000000
_cell_angle_gamma 90.000000
_cell_volume 3239.056165
_symmetry_space_group_name_H-M "P N M A"
_symmetry_group_IT_number 62
_symmetry_cell_setting 'orthorhombic'
loop_
_space_group_symop_operation_xyz
x,y,z
1/2-x,-y,1/2+z
1/2+x,1/2-y,1/2-z
-x,1/2+y,-z
-x,-y,-z
1/2+x,y,1/2-z
1/2-x,1/2+y,1/2+z
x,1/2-y,z
loop_
_atom_site_type_symbol
_atom_site_label
_atom_site_fract_x
_atom_site_fract_y
_atom_site_fract_z
Si Si1 0.968124 0.863722 0.813666
Si Si2 0.878500 0.362551 0.098045
Si Si3 0.830628 0.132049 0.687551
Si Si4 0.063700 0.365561 0.764340
Si Si5 0.433886 0.422837 0.629812
Si Si6 0.158080 0.865384 0.569451
Si Si7 0.197571 0.015947 0.757020
Si Si8 0.483107 0.451279 0.113550
O O1 0.946016 0.750000 0.836695
O O2 0.048325 0.871584 0.842611
O O3 0.962440 0.892538 0.686521
O O4 0.933897 0.955861 0.876040
O O5 0.853500 0.250000 0.116215
O O6 0.825939 0.439583 0.148926
O O7 0.894850 0.379739 0.972593
O O8 0.814022 0.250000 0.701431
O O9 0.897267 0.110867 0.759273
O O10 0.837170 0.113988 0.558826
O O11 0.771300 0.061399 0.731052
O O12 0.055713 0.250000 0.730267
O O13 0.142511 0.394214 0.772424
O O14 0.038521 0.451443 0.682844
O O15 0.011871 0.384045 0.864743
O O16 0.181253 0.750000 0.590366
O O17 0.191182 0.950817 0.646036
O O18 0.079113 0.875617 0.598359
O O19 0.500000 0.500000 0.000000
#
# Coordination Sequence:
#
# PCOD9462807 Si02
#       8
#     8   8   8   8   8   8   8   8
#     4  10  20  36  59  92 128 159 201 255 315 366
#     4  11  21  38  64  92 123 163 204 252 309 366
#     4  11  25  42  62  88 124 165 204 254 309 361
#     4  10  20  36  58  87 118 153 200 248 301 362
#     4  11  22  40  62  94 125 158 205 250 308 362
#     4  10  20  39  62  83 113 159 206 244 297 368
#     4  11  23  39  61  88 121 158 205 254 303 363
#     4  10  19  32  56  86 119 157 198 249 299 357
#
# _framework density 19.758841
#
# number of rings (size 3 to 8) (size 9 to 14) (size 15 to 20)
#    0.000    1.500    3.750    4.125    1.750    2.000 
#    0.000    1.875    0.000    1.500    0.000    0.000 
#    0.000    0.000    0.000    0.000    0.000    0.000 
#
# Total GULP energy -357005.825200 kJ/mol
# GULP energy per Si atom -5578.216019 kJ/mol
# Density = 1.971387 g / cm^3
# Si number density = 19.758841 Si / 1000 Ang^3
#
#
#
# Elastic Constant Matrix: (Units=GPa)
#
#
# Indices 1 2 3 4 5 6 
#
# 1 35.0451 11.5063 17.2416 0.0000 0.0000 0.0000
# 2 11.5063 125.9910 20.0356 0.0000 0.0000 0.0000
# 3 17.2416 20.0356 81.9214 0.0000 0.0000 0.0000
# 4 0.0000 0.0000 0.0000 21.1052 0.0000 0.0000
# 5 0.0000 0.0000 0.0000 0.0000 20.1214 0.0000
# 6 0.0000 0.0000 0.0000 0.0000 0.0000 20.4782
#
#
#
# Elastic Compliance Matrix: (Units=1/GPa)
#
#
# Indices 1 2 3 4 5 6 
#
# 1 0.032281 -0.001943 -0.006319 0.000000 0.000000 0.000000
# 2 -0.001943 0.008375 -0.001639 0.000000 0.000000 0.000000
# 3 -0.006319 -0.001639 0.013938 0.000000 0.000000 0.000000
# 4 0.000000 0.000000 0.000000 0.047382 0.000000 0.000000
# 5 0.000000 0.000000 0.000000 0.000000 0.049698 0.000000
# 6 0.000000 0.000000 0.000000 0.000000 0.000000 0.048832
#
#
# Mechanical properties :
#
#
# Convention : Reuss Voigt Hill
#
# Bulk Modulus (GPa) = 28.74276 37.83606 33.28941
# Shear Modulus (GPa) = 21.56037 25.28589 23.42313
#
# Velocity S-wave (km/s) = 3.30688 3.58121 3.44677
# Velocity P-wave (km/s) = 5.39990 6.02416 5.72056
#
# Compressibility (1/GPa) = 0.03479137
#
# Stress axis : x y z
#
# Youngs Moduli (GPa) = 30.97753 119.39951 71.74811
#
# Poissons Ratio (x) = 0.23203 0.45337
# Poissons Ratio (y) = 0.06020 0.11762
# Poissons Ratio (z) = 0.19574 0.19574
#
# Static dielectric constant tensor:
#      x y z
#    x 1.692630 0.000000 0.000000 
#    y 0.000000 1.690630 0.000000 
#    z 0.000000 0.000000 1.751300 
# 
# From -- ./inp_files/14321.got.cif
#   From: 2010.05.17/outbox.cif.g08.bks.cpg/sg62_8_cif.got.tgz:14321.got - 2010.06.03 15:25:27.
