data_PCOD9462400
_publ_section_title
;
Structure prediction by ZEFSAII (Michael W. Deem and Ramdas Pophale) SiO2 
 PCOD9462400
Probable space group: P N M A
;
_chemical_formula_sum "Si O2"
_cell_formula_units_Z 56
_cell_length_a 8.407832
_cell_length_b 20.634555
_cell_length_c 17.607722
_cell_angle_alpha 90.000000
_cell_angle_beta 90.000000
_cell_angle_gamma 90.000000
_cell_volume 3054.796649
_symmetry_space_group_name_H-M "P N M A"
_symmetry_group_IT_number 62
_symmetry_cell_setting 'orthorhombic'
loop_
_space_group_symop_operation_xyz
x,y,z
1/2-x,-y,1/2+z
1/2+x,1/2-y,1/2-z
-x,1/2+y,-z
-x,-y,-z
1/2+x,y,1/2-z
1/2-x,1/2+y,1/2+z
x,1/2-y,z
loop_
_atom_site_type_symbol
_atom_site_label
_atom_site_fract_x
_atom_site_fract_y
_atom_site_fract_z
Si Si1 0.338063 0.401316 0.404785
Si Si2 0.383842 0.547268 0.346305
Si Si3 0.148693 0.457169 0.527199
Si Si4 0.154103 0.325576 0.288570
Si Si5 0.257329 0.538769 0.184224
Si Si6 0.167716 0.084628 0.011746
Si Si7 0.829524 0.387191 0.343443
O O1 0.341745 0.471902 0.364377
O O2 0.196226 0.403928 0.466352
O O3 0.300029 0.347698 0.342396
O O4 0.501451 0.395281 0.450889
O O5 0.300598 0.564186 0.267173
O O6 0.572602 0.550643 0.332895
O O7 0.334178 0.588582 0.420726
O O8 0.138936 0.434123 0.613640
O O9 0.297542 0.507952 0.525646
O O10 0.000000 0.500000 0.500000
O O11 0.120570 0.250000 0.295041
O O12 0.204523 0.344589 0.203731
O O13 0.003328 0.366446 0.316943
O O14 0.295764 0.461602 0.180771
O O15 0.298967 0.117591 0.066170
#
# Coordination Sequence:
#
# PCOD9462400 Si02
#       7
#     8   8   8   8   8   8   8
#     4  11  18  36  53  68 109 146 185 227 265 320
#     4  11  20  32  50  82 110 144 184 213 271 337
#     4  10  19  30  49  78 105 144 184 214 267 332
#     4  12  25  38  55  79 106 146 198 238 267 318
#     4  11  20  32  51  78 112 146 179 217 261 336
#     4  10  20  35  53  73 109 149 183 224 270 340
#     4  11  21  37  53  74 106 150 184 225 279 315
#
# _framework density 18.331826
#
# number of rings (size 3 to 8) (size 9 to 14) (size 15 to 20)
#    0.000    1.143    5.714    4.714    4.000    0.000 
#    0.000    0.714    0.000    0.000    0.000    0.000 
#    0.000    5.714    0.000    0.000    0.000    0.000 
#
# Total GULP energy -312440.525022 kJ/mol
# GULP energy per Si atom -5579.295090 kJ/mol
# Density = 1.829010 g / cm^3
# Si number density = 18.331826 Si / 1000 Ang^3
#
#
#
# Elastic Constant Matrix: (Units=GPa)
#
#
# Indices 1 2 3 4 5 6 
#
# 1 75.3367 2.2441 38.3479 0.0000 0.0000 0.0000
# 2 2.2441 20.6850 8.7135 0.0000 0.0000 0.0000
# 3 38.3479 8.7135 176.4590 0.0000 0.0000 0.0000
# 4 0.0000 0.0000 0.0000 6.6910 0.0000 0.0000
# 5 0.0000 0.0000 0.0000 0.0000 36.0109 0.0000
# 6 0.0000 0.0000 0.0000 0.0000 0.0000 4.2652
#
#
#
# Elastic Compliance Matrix: (Units=1/GPa)
#
#
# Indices 1 2 3 4 5 6 
#
# 1 0.014926 -0.000258 -0.003231 0.000000 0.000000 0.000000
# 2 -0.000258 0.049376 -0.002382 0.000000 0.000000 0.000000
# 3 -0.003231 -0.002382 0.006487 0.000000 0.000000 0.000000
# 4 0.000000 0.000000 0.000000 0.149454 0.000000 0.000000
# 5 0.000000 0.000000 0.000000 0.000000 0.027769 0.000000
# 6 0.000000 0.000000 0.000000 0.000000 0.000000 0.234453
#
#
# Mechanical properties :
#
#
# Convention : Reuss Voigt Hill
#
# Bulk Modulus (GPa) = 16.93599 41.23241 29.08420
# Shear Modulus (GPa) = 9.72972 24.27180 17.00076
#
# Velocity S-wave (km/s) = 2.30631 3.64266 3.04861
# Velocity P-wave (km/s) = 4.04360 6.34295 5.31901
#
# Compressibility (1/GPa) = 0.05904587
#
# Stress axis : x y z
#
# Youngs Moduli (GPa) = 66.99691 20.25295 154.15892
#
# Poissons Ratio (x) = 0.00523 0.49808
# Poissons Ratio (y) = 0.01730 0.36721
# Poissons Ratio (z) = 0.21646 0.04824
#
# Static dielectric constant tensor:
#      x y z
#    x 1.701920 0.000000 0.000000 
#    y 0.000000 1.599140 0.000000 
#    z 0.000000 0.000000 1.731480 
# 
# From -- ./inp_files/22506.got.cif
#   From: 2010.05.17/outbox.cif.g08.bks.cpg/sg62_12_cif.got.tgz:22506.got - 2010.06.03 15:25:27.
