data_PCOD9462718
_publ_section_title
;
Structure prediction by ZEFSAII (Michael W. Deem and Ramdas Pophale) SiO2 
 PCOD9462718
Probable space group: P N M A
;
_chemical_formula_sum "Si O2"
_cell_formula_units_Z 44
_cell_length_a 17.367896
_cell_length_b 20.264757
_cell_length_c 4.914710
_cell_angle_alpha 90.000000
_cell_angle_beta 90.000000
_cell_angle_gamma 90.000000
_cell_volume 1729.762617
_symmetry_space_group_name_H-M "P N M A"
_symmetry_group_IT_number 62
_symmetry_cell_setting 'orthorhombic'
loop_
_space_group_symop_operation_xyz
x,y,z
1/2-x,-y,1/2+z
1/2+x,1/2-y,1/2-z
-x,1/2+y,-z
-x,-y,-z
1/2+x,y,1/2-z
1/2-x,1/2+y,1/2+z
x,1/2-y,z
loop_
_atom_site_type_symbol
_atom_site_label
_atom_site_fract_x
_atom_site_fract_y
_atom_site_fract_z
Si Si1 0.229573 0.146542 0.448673
Si Si2 0.318745 0.250000 0.113078
Si Si3 0.969997 0.633821 0.075564
Si Si4 0.202290 0.527165 0.215238
Si Si5 0.643946 0.250000 0.655838
Si Si6 0.082628 0.750000 0.117206
Si Si7 0.582094 0.439797 0.101472
O O1 0.267433 0.188338 0.207360
O O2 0.291386 0.101401 0.603140
O O3 0.186217 0.194001 0.654914
O O4 0.163237 0.097586 0.349649
O O5 0.394088 0.250000 0.301312
O O6 0.342067 0.250000 0.802952
O O7 0.907104 0.691160 0.010259
O O8 0.037175 0.682508 0.177371
O O9 0.942747 0.581375 0.301910
O O10 0.980187 0.590479 0.805921
O O11 0.236197 0.484914 0.958956
O O12 0.384284 0.488616 0.821065
#
# Coordination Sequence:
#
# PCOD9462718 Si02
#       7
#     8   4   8   8   4   4   8
#     4   9  20  34  54  84 115 141 171 212 276 340
#     4  11  24  38  56  78 115 150 176 216 268 337
#     4  10  20  35  57  78 104 136 188 236 262 307
#     4  10  19  32  52  82 117 143 169 211 273 339
#     4   8  16  30  50  78 102 130 168 218 270 306
#     4  11  24  40  56  78 105 150 190 224 270 309
#     4  10  19  34  58  84 107 137 175 228 277 311
#
# _framework density 25.437014000000001
#
# number of rings (size 3 to 8) (size 9 to 14) (size 15 to 20)
#    0.000    2.182    0.000    4.364    0.000   15.273 
#    0.000    0.000    0.000    6.545    0.000    0.000 
#    0.000    0.000    0.000    0.000    0.000    0.000 
#
# Total GULP energy -244992.359338 kJ/mol
# GULP energy per Si atom -5568.008167 kJ/mol
# Density = 2.537912 g / cm^3
# Si number density = 25.437014 Si / 1000 Ang^3
#
#
#
# Elastic Constant Matrix: (Units=GPa)
#
#
# Indices 1 2 3 4 5 6 
#
# 1 45.6907 8.0505 -13.4067 0.0000 0.0000 0.0000
# 2 8.0505 60.8549 3.0097 0.0000 0.0000 0.0000
# 3 -13.4067 3.0097 86.0950 0.0000 0.0000 0.0000
# 4 0.0000 0.0000 0.0000 -6.2887 0.0000 0.0000
# 5 0.0000 0.0000 0.0000 0.0000 33.3085 0.0000
# 6 0.0000 0.0000 0.0000 0.0000 0.0000 38.5271
#
#
#
# Elastic Compliance Matrix: (Units=1/GPa)
#
#
# Indices 1 2 3 4 5 6 
#
# 1 0.023580 -0.003307 0.003788 0.000000 0.000000 0.000000
# 2 -0.003307 0.016925 -0.001107 0.000000 0.000000 0.000000
# 3 0.003788 -0.001107 0.012244 0.000000 0.000000 0.000000
# 4 0.000000 0.000000 0.000000 -0.159015 0.000000 0.000000
# 5 0.000000 0.000000 0.000000 0.000000 0.030022 0.000000
# 6 0.000000 0.000000 0.000000 0.000000 0.000000 0.025956
#
#
# Mechanical properties :
#
#
# Convention : Reuss Voigt Hill
#
# Bulk Modulus (GPa) = 19.41865 20.88306 20.15086
# Shear Modulus (GPa) = -156.87987 26.10852 -65.38567
#
# Velocity S-wave (km/s) = -7.86179 3.20722 -5.07550
# Velocity P-wave (km/s) = 8.64637 4.68429 5.13893
#
# Compressibility (1/GPa) = 0.05149689
#
# Stress axis : x y z
#
# Youngs Moduli (GPa) = 42.40829 59.08517 81.67565
#
# Poissons Ratio (x) = 0.19538 -0.30935
# Poissons Ratio (y) = 0.14023 0.09038
# Poissons Ratio (z) = -0.16062 0.06538
#
# Static dielectric constant tensor:
#      x y z
#    x 2.122720 0.000000 0.000000 
#    y 0.000000 1.997400 0.000000 
#    z 0.000000 0.000000 1.970650 
# 
# From -- ./inp_files/1690.got.cif
#   From: 2010.05.17/outbox.cif.g08.bks.cpg/sg62_1_cif.got.tgz:1690.got - 2010.06.03 15:25:27.
