data_PCOD9462790
_publ_section_title
;
Structure prediction by ZEFSAII (Michael W. Deem and Ramdas Pophale) SiO2 
 PCOD9462790
Probable space group: P N M A
;
_chemical_formula_sum "Si O2"
_cell_formula_units_Z 60
_cell_length_a 26.627645
_cell_length_b 12.858015
_cell_length_c 6.985819
_cell_angle_alpha 90.000000
_cell_angle_beta 90.000000
_cell_angle_gamma 90.000000
_cell_volume 2391.795340
_symmetry_space_group_name_H-M "P N M A"
_symmetry_group_IT_number 62
_symmetry_cell_setting 'orthorhombic'
loop_
_space_group_symop_operation_xyz
x,y,z
1/2-x,-y,1/2+z
1/2+x,1/2-y,1/2-z
-x,1/2+y,-z
-x,-y,-z
1/2+x,y,1/2-z
1/2-x,1/2+y,1/2+z
x,1/2-y,z
loop_
_atom_site_type_symbol
_atom_site_label
_atom_site_fract_x
_atom_site_fract_y
_atom_site_fract_z
Si Si1 0.119572 0.750000 0.400695
Si Si2 0.166760 0.591846 0.832096
Si Si3 0.452638 0.435674 0.765540
Si Si4 0.282666 0.636618 0.782935
Si Si5 0.308266 0.863995 0.233655
Si Si6 0.056290 0.864134 0.858041
Si Si7 0.531833 0.367991 0.042348
Si Si8 0.306241 0.405280 0.758130
O O1 0.078953 0.659644 0.343239
O O2 0.162428 0.656971 0.412191
O O3 0.163077 0.467320 0.797845
O O4 0.112358 0.634712 0.771001
O O5 0.222496 0.622595 0.760886
O O6 0.172016 0.631353 0.053210
O O7 0.448260 0.441410 0.536626
O O8 0.434064 0.541810 0.867907
O O9 0.508714 0.408498 0.842923
O O10 0.297210 0.750000 0.704776
O O11 0.297896 0.636208 0.006547
O O12 0.307352 0.528853 0.721380
O O13 0.329077 0.750000 0.283629
O O14 0.251204 0.878357 0.306336
O O15 0.049150 0.750000 0.946881
O O16 0.014591 0.870276 0.694464
O O17 0.550996 0.250000 0.030159
#
# Coordination Sequence:
#
# PCOD9462790 Si02
#       8
#     4   8   8   8   8   8   8   8
#     4  12  20  36  66  86 108 152 202 242 296 350
#     4  10  19  32  55  83 114 152 200 244 291 335
#     4  11  21  40  64  90 123 155 195 245 305 362
#     4   9  19  34  54  79 116 162 196 237 295 347
#     4   9  18  34  52  75 116 160 193 239 292 342
#     4  11  20  37  63  91 120 155 199 251 296 355
#     4  10  23  40  62  93 124 154 196 243 307 375
#     4  10  19  33  56  83 111 151 200 243 283 344
#
# _framework density 25.085760000000001
#
# number of rings (size 3 to 8) (size 9 to 14) (size 15 to 20)
#    0.000    1.867    3.333    0.800    0.933    1.600 
#    0.000    1.333    5.867    1.600    0.000    0.000 
#    0.000    0.000    0.000    0.000    0.000    0.000 
#
# Total GULP energy -334142.579884 kJ/mol
# GULP energy per Si atom -5569.042998 kJ/mol
# Density = 2.502866 g / cm^3
# Si number density = 25.085760 Si / 1000 Ang^3
#
#
#
# Elastic Constant Matrix: (Units=GPa)
#
#
# Indices 1 2 3 4 5 6 
#
# 1 40.9411 11.4662 3.7181 0.0000 0.0000 0.0000
# 2 11.4662 217.7225 -9.7244 0.0000 0.0000 0.0000
# 3 3.7181 -9.7244 85.7965 0.0000 0.0000 0.0000
# 4 0.0000 0.0000 0.0000 10.8880 0.0000 0.0000
# 5 0.0000 0.0000 0.0000 0.0000 27.8140 0.0000
# 6 0.0000 0.0000 0.0000 0.0000 0.0000 24.6624
#
#
#
# Elastic Compliance Matrix: (Units=1/GPa)
#
#
# Indices 1 2 3 4 5 6 
#
# 1 0.024920 -0.001368 -0.001235 0.000000 0.000000 0.000000
# 2 -0.001368 0.004691 0.000591 0.000000 0.000000 0.000000
# 3 -0.001235 0.000591 0.011776 0.000000 0.000000 0.000000
# 4 0.000000 0.000000 0.000000 0.091844 0.000000 0.000000
# 5 0.000000 0.000000 0.000000 0.000000 0.035953 0.000000
# 6 0.000000 0.000000 0.000000 0.000000 0.000000 0.040547
#
#
# Mechanical properties :
#
#
# Convention : Reuss Voigt Hill
#
# Bulk Modulus (GPa) = 26.76313 39.48664 33.12488
# Shear Modulus (GPa) = 22.10331 35.27292 28.68811
#
# Velocity S-wave (km/s) = 2.97157 3.75386 3.38539
# Velocity P-wave (km/s) = 4.73977 5.87907 5.33989
#
# Compressibility (1/GPa) = 0.03736484
#
# Stress axis : x y z
#
# Youngs Moduli (GPa) = 40.12763 213.15498 84.91851
#
# Poissons Ratio (x) = 0.29151 0.10487
# Poissons Ratio (y) = 0.05488 -0.05019
# Poissons Ratio (z) = 0.04956 -0.12598
#
# Static dielectric constant tensor:
#      x y z
#    x 1.956690 0.000000 0.000000 
#    y 0.000000 2.043300 0.000000 
#    z 0.000000 0.000000 2.084470 
# 
# From -- ./inp_files/10403.got.cif
#   From: 2010.05.17/outbox.cif.g08.bks.cpg/sg62_6_cif.got.tgz:10403.got - 2010.06.03 15:25:27.
