data_PCOD9462242
_publ_section_title
;
Structure prediction by ZEFSAII (Michael W. Deem and Ramdas Pophale) SiO2 
 PCOD9462242
Probable space group: P N M A
;
_chemical_formula_sum "Si O2"
_cell_formula_units_Z 56
_cell_length_a 22.320925
_cell_length_b 15.622076
_cell_length_c 8.628128
_cell_angle_alpha 90.000000
_cell_angle_beta 90.000000
_cell_angle_gamma 90.000000
_cell_volume 3008.621217
_symmetry_space_group_name_H-M "P N M A"
_symmetry_group_IT_number 62
_symmetry_cell_setting 'orthorhombic'
loop_
_space_group_symop_operation_xyz
x,y,z
1/2-x,-y,1/2+z
1/2+x,1/2-y,1/2-z
-x,1/2+y,-z
-x,-y,-z
1/2+x,y,1/2-z
1/2-x,1/2+y,1/2+z
x,1/2-y,z
loop_
_atom_site_type_symbol
_atom_site_label
_atom_site_fract_x
_atom_site_fract_y
_atom_site_fract_z
Si Si1 0.343162 0.154464 0.837527
Si Si2 0.906678 0.845122 0.660562
Si Si3 0.872784 0.999817 0.432677
Si Si4 0.678752 0.065298 0.373505
Si Si5 0.978925 0.066959 0.218708
Si Si6 0.734357 0.444602 0.711222
Si Si7 0.427352 0.072541 0.609562
O O1 0.341170 0.250000 0.901268
O O2 0.280895 0.131662 0.749626
O O3 0.399727 0.143122 0.722858
O O4 0.349176 0.079443 0.964772
O O5 0.901892 0.750000 0.594685
O O6 0.858547 0.857029 0.800081
O O7 0.973574 0.864026 0.720957
O O8 0.893229 0.922708 0.543587
O O9 0.928173 0.038333 0.337494
O O10 0.822726 0.960226 0.319610
O O11 0.712432 0.073003 0.536585
O O12 0.725177 0.029101 0.245223
O O13 0.627459 0.994420 0.403758
O O14 0.948449 0.098961 0.060165
O O15 0.018137 0.981650 0.182235
#
# Coordination Sequence:
#
# PCOD9462242 Si02
#       7
#     8   8   8   8   8   8   8
#     4  11  24  40  61  93 126 158 204 259 310 369
#     4  11  24  40  60  92 128 163 207 256 305 366
#     4  12  22  40  66  88 127 167 204 251 313 370
#     4  10  18  38  61  90 115 157 204 248 302 359
#     4  10  20  38  66  88 116 164 209 253 305 364
#     4  11  20  38  67  88 117 163 203 251 301 364
#     4   9  19  38  63  88 114 159 204 250 307 363
#
# _framework density 18.613175999999999
#
# number of rings (size 3 to 8) (size 9 to 14) (size 15 to 20)
#    0.000    1.429    7.143    0.429    0.000    2.286 
#    0.000    0.000    0.000    0.000    0.000    0.000 
#    0.000    0.000    0.000    0.000    0.000    0.000 
#
# Total GULP energy -312116.157437 kJ/mol
# GULP energy per Si atom -5573.502811 kJ/mol
# Density = 1.857081 g / cm^3
# Si number density = 18.613176 Si / 1000 Ang^3
#
#
#
# Elastic Constant Matrix: (Units=GPa)
#
#
# Indices 1 2 3 4 5 6 
#
# 1 107.4996 17.2324 49.9284 0.0000 0.0000 0.0000
# 2 17.2324 94.3489 34.8869 0.0000 0.0000 0.0000
# 3 49.9284 34.8869 89.3957 0.0000 0.0000 0.0000
# 4 0.0000 0.0000 0.0000 4.6841 0.0000 0.0000
# 5 0.0000 0.0000 0.0000 0.0000 41.6692 0.0000
# 6 0.0000 0.0000 0.0000 0.0000 0.0000 2.7342
#
#
#
# Elastic Compliance Matrix: (Units=1/GPa)
#
#
# Indices 1 2 3 4 5 6 
#
# 1 0.012571 0.000351 -0.007158 0.000000 0.000000 0.000000
# 2 0.000351 0.012396 -0.005033 0.000000 0.000000 0.000000
# 3 -0.007158 -0.005033 0.017148 0.000000 0.000000 0.000000
# 4 0.000000 0.000000 0.000000 0.213490 0.000000 0.000000
# 5 0.000000 0.000000 0.000000 0.000000 0.023999 0.000000
# 6 0.000000 0.000000 0.000000 0.000000 0.000000 0.365742
#
#
# Mechanical properties :
#
#
# Convention : Reuss Voigt Hill
#
# Bulk Modulus (GPa) = 54.24769 55.03772 54.64270
# Shear Modulus (GPa) = 7.40553 22.43058 14.91805
#
# Velocity S-wave (km/s) = 1.99682 3.47521 2.83411
# Velocity P-wave (km/s) = 5.87575 6.76285 6.33485
#
# Compressibility (1/GPa) = 0.01843397
#
# Stress axis : x y z
#
# Youngs Moduli (GPa) = 79.55117 80.67045 58.31529
#
# Poissons Ratio (x) = -0.02829 0.41740
# Poissons Ratio (y) = -0.02790 0.29353
# Poissons Ratio (z) = 0.56940 0.40605
#
# Static dielectric constant tensor:
#      x y z
#    x 1.682210 0.000000 0.000000 
#    y 0.000000 1.619700 0.000000 
#    z 0.000000 0.000000 1.680110 
# 
# From -- ./inp_files/8720.got.cif
#   From: 2010.05.17/outbox.cif.g08.bks.cpg/sg62_5_cif.got.tgz:8720.got - 2010.06.03 15:25:27.
