data_PCOD9462763
_publ_section_title
;
Structure prediction by ZEFSAII (Michael W. Deem and Ramdas Pophale) SiO2 
 PCOD9462763
Probable space group: P N M A
;
_chemical_formula_sum "Si O2"
_cell_formula_units_Z 48
_cell_length_a 5.593986
_cell_length_b 16.039328
_cell_length_c 22.362661
_cell_angle_alpha 90.000000
_cell_angle_beta 90.000000
_cell_angle_gamma 90.000000
_cell_volume 2006.462393
_symmetry_space_group_name_H-M "P N M A"
_symmetry_group_IT_number 62
_symmetry_cell_setting 'orthorhombic'
loop_
_space_group_symop_operation_xyz
x,y,z
1/2-x,-y,1/2+z
1/2+x,1/2-y,1/2-z
-x,1/2+y,-z
-x,-y,-z
1/2+x,y,1/2-z
1/2-x,1/2+y,1/2+z
x,1/2-y,z
loop_
_atom_site_type_symbol
_atom_site_label
_atom_site_fract_x
_atom_site_fract_y
_atom_site_fract_z
Si Si1 0.431315 0.350083 0.517133
Si Si2 0.178104 0.568840 0.322874
Si Si3 0.219206 0.158169 0.176930
Si Si4 0.209598 0.497968 0.453113
Si Si5 0.278405 0.899565 0.807820
Si Si6 0.312099 0.154095 0.654208
O O1 0.480544 0.250000 0.506148
O O2 0.307279 0.403729 0.464679
O O3 0.640494 0.417896 0.530072
O O4 0.293513 0.351937 0.581470
O O5 0.151572 0.517325 0.384981
O O6 0.185042 0.490998 0.278856
O O7 0.434539 0.613561 0.326710
O O8 0.935824 0.621009 0.318205
O O9 0.174272 0.250000 0.153227
O O10 0.239032 0.158197 0.249089
O O11 0.482164 0.128696 0.158052
O O12 0.983716 0.104772 0.162366
O O13 0.000000 0.500000 0.500000
O O14 0.332569 0.250000 0.670461
#
# Coordination Sequence:
#
# PCOD9462763 Si02
#       6
#     8   8   8   8   8   8
#     4   9  19  34  52  73 100 143 191 224 268 330
#     4  11  21  34  55  83 109 136 179 229 276 322
#     4  10  19  36  58  80 107 146 183 214 256 323
#     4  10  19  34  53  73 108 147 178 230 284 324
#     4  10  19  32  54  82 107 137 176 219 263 311
#     4  10  20  35  55  78 103 139 183 228 264 312
#
# _framework density 23.922699999999999
#
# number of rings (size 3 to 8) (size 9 to 14) (size 15 to 20)
#    0.000    2.000    1.667    4.000    0.000    1.333 
#    0.000    2.500    0.000    0.000    0.000   46.667 
#    0.000    0.000    0.000    0.000    0.000    0.000 
#
# Total GULP energy -267331.516019 kJ/mol
# GULP energy per Si atom -5569.406584 kJ/mol
# Density = 2.386825 g / cm^3
# Si number density = 23.922700 Si / 1000 Ang^3
#
#
#
# Elastic Constant Matrix: (Units=GPa)
#
#
# Indices 1 2 3 4 5 6 
#
# 1 133.2546 50.0117 19.2143 0.0000 0.0000 0.0000
# 2 50.0117 198.9895 19.5306 0.0000 0.0000 0.0000
# 3 19.2143 19.5306 57.4161 0.0000 0.0000 0.0000
# 4 0.0000 0.0000 0.0000 23.4392 0.0000 0.0000
# 5 0.0000 0.0000 0.0000 0.0000 5.9625 0.0000
# 6 0.0000 0.0000 0.0000 0.0000 0.0000 65.4830
#
#
#
# Elastic Compliance Matrix: (Units=1/GPa)
#
#
# Indices 1 2 3 4 5 6 
#
# 1 0.008547 -0.001932 -0.002203 0.000000 0.000000 0.000000
# 2 -0.001932 0.005636 -0.001270 0.000000 0.000000 0.000000
# 3 -0.002203 -0.001270 0.018586 0.000000 0.000000 0.000000
# 4 0.000000 0.000000 0.000000 0.042664 0.000000 0.000000
# 5 0.000000 0.000000 0.000000 0.000000 0.167716 0.000000
# 6 0.000000 0.000000 0.000000 0.000000 0.000000 0.015271
#
#
# Mechanical properties :
#
#
# Convention : Reuss Voigt Hill
#
# Bulk Modulus (GPa) = 45.54175 63.01924 54.28049
# Shear Modulus (GPa) = 18.07992 39.03718 28.55855
#
# Velocity S-wave (km/s) = 2.75210 4.04394 3.45887
# Velocity P-wave (km/s) = 5.40158 6.94296 6.22020
#
# Compressibility (1/GPa) = 0.02195787
#
# Stress axis : x y z
#
# Youngs Moduli (GPa) = 116.99779 177.44240 53.80340
#
# Poissons Ratio (x) = 0.34280 0.11854
# Poissons Ratio (y) = 0.22603 0.06836
# Poissons Ratio (z) = 0.25776 0.22544
#
# Static dielectric constant tensor:
#      x y z
#    x 2.014670 0.000000 0.000000 
#    y 0.000000 2.023660 0.000000 
#    z 0.000000 0.000000 2.063590 
# 
# From -- ./inp_files/31577.got.cif
#   From: 2010.05.17/outbox.cif.g08.bks.cpg/sg62_16_cif.got.tgz:31577.got - 2010.06.03 15:25:27.
