data_PCOD9462410
_publ_section_title
;
Structure prediction by ZEFSAII (Michael W. Deem and Ramdas Pophale) SiO2 
 PCOD9462410
Probable space group: P N M A
;
_chemical_formula_sum "Si O2"
_cell_formula_units_Z 64
_cell_length_a 23.171540
_cell_length_b 7.506365
_cell_length_c 16.117333
_cell_angle_alpha 90.000000
_cell_angle_beta 90.000000
_cell_angle_gamma 90.000000
_cell_volume 2803.352792
_symmetry_space_group_name_H-M "P N M A"
_symmetry_group_IT_number 62
_symmetry_cell_setting 'orthorhombic'
loop_
_space_group_symop_operation_xyz
x,y,z
1/2-x,-y,1/2+z
1/2+x,1/2-y,1/2-z
-x,1/2+y,-z
-x,-y,-z
1/2+x,y,1/2-z
1/2-x,1/2+y,1/2+z
x,1/2-y,z
loop_
_atom_site_type_symbol
_atom_site_label
_atom_site_fract_x
_atom_site_fract_y
_atom_site_fract_z
Si Si1 0.925420 0.034446 0.649545
Si Si2 0.078140 0.460219 0.069900
Si Si3 0.292958 0.954873 0.818413
Si Si4 0.083654 0.545207 0.534309
Si Si5 0.449528 0.034088 0.390021
Si Si6 0.546790 0.542148 0.789901
Si Si7 0.713638 0.461891 0.002086
Si Si8 0.196231 0.465114 0.141012
O O1 0.922626 0.250000 0.649949
O O2 0.937622 0.972125 0.554462
O O3 0.862900 0.962445 0.674729
O O4 0.977275 0.971894 0.707521
O O5 0.075595 0.250000 0.086792
O O6 0.132170 0.534002 0.120377
O O7 0.014936 0.532668 0.092308
O O8 0.086663 0.483425 0.971017
O O9 0.272974 0.750000 0.816715
O O10 0.279817 0.034622 0.728675
O O11 0.271823 0.032424 0.905703
O O12 0.063724 0.750000 0.535985
O O13 0.066562 0.460907 0.622266
O O14 0.152864 0.541761 0.526604
O O15 0.450518 0.250000 0.387709
O O16 0.431779 0.970310 0.298467
O O17 0.563971 0.750000 0.791808
O O18 0.703888 0.250000 0.009804
O O19 0.762376 0.494507 0.935143
O O20 0.192530 0.250000 0.148290
#
# Coordination Sequence:
#
# PCOD9462410 Si02
#       8
#     8   8   8   8   8   8   8   8
#     4  10  19  30  50  80 109 136 172 222 268 307
#     4   9  18  33  53  76 102 133 169 212 262 307
#     4   9  19  37  58  78 103 140 180 217 264 324
#     4   9  19  35  52  72 104 143 178 213 263 320
#     4   9  18  33  52  75 104 137 172 210 253 307
#     4  10  19  32  51  75 104 143 181 209 251 321
#     4  10  21  37  56  80 107 136 176 228 272 311
#     4  10  20  37  60  80 103 141 181 218 266 324
#
# _framework density 22.829805
#
# number of rings (size 3 to 8) (size 9 to 14) (size 15 to 20)
#    0.000    2.500    0.000    1.875    0.000    5.000 
#    2.250    2.500    0.000    0.000    0.000    0.000 
#    0.000    0.000    0.000    0.000    0.000    0.000 
#
# Total GULP energy -357287.748505 kJ/mol
# GULP energy per Si atom -5582.621070 kJ/mol
# Density = 2.277784 g / cm^3
# Si number density = 22.829805 Si / 1000 Ang^3
#
#
#
# Elastic Constant Matrix: (Units=GPa)
#
#
# Indices 1 2 3 4 5 6 
#
# 1 21.9778 -5.1265 21.3518 0.0000 0.0000 0.0000
# 2 -5.1265 74.2468 -4.9004 0.0000 0.0000 0.0000
# 3 21.3518 -4.9004 164.2194 0.0000 0.0000 0.0000
# 4 0.0000 0.0000 0.0000 12.9274 0.0000 0.0000
# 5 0.0000 0.0000 0.0000 0.0000 26.2155 0.0000
# 6 0.0000 0.0000 0.0000 0.0000 0.0000 11.6411
#
#
#
# Elastic Compliance Matrix: (Units=1/GPa)
#
#
# Indices 1 2 3 4 5 6 
#
# 1 0.052827 0.003201 -0.006773 0.000000 0.000000 0.000000
# 2 0.003201 0.013689 -0.000008 0.000000 0.000000 0.000000
# 3 -0.006773 -0.000008 0.006970 0.000000 0.000000 0.000000
# 4 0.000000 0.000000 0.000000 0.077355 0.000000 0.000000
# 5 0.000000 0.000000 0.000000 0.000000 0.038145 0.000000
# 6 0.000000 0.000000 0.000000 0.000000 0.000000 0.085903
#
#
# Mechanical properties :
#
#
# Convention : Reuss Voigt Hill
#
# Bulk Modulus (GPa) = 15.07711 31.45486 23.26598
# Shear Modulus (GPa) = 16.43880 26.76473 21.60177
#
# Velocity S-wave (km/s) = 2.68630 3.42769 3.07939
# Velocity P-wave (km/s) = 4.02990 5.42893 4.78087
#
# Compressibility (1/GPa) = 0.06632573
#
# Stress axis : x y z
#
# Youngs Moduli (GPa) = 18.92964 73.05094 143.47569
#
# Poissons Ratio (x) = -0.23380 0.97177
# Poissons Ratio (y) = -0.06059 0.00110
# Poissons Ratio (z) = 0.12821 0.00056
#
# Static dielectric constant tensor:
#      x y z
#    x 1.804130 0.000000 0.000000 
#    y 0.000000 1.871320 0.000000 
#    z 0.000000 0.000000 1.912100 
# 
# From -- ./inp_files/20891.got.cif
#   From: 2010.05.17/outbox.cif.g08.bks.cpg/sg62_11_cif.got.tgz:20891.got - 2010.06.03 15:25:27.
