data_PCOD9462257
_publ_section_title
;
Structure prediction by ZEFSAII (Michael W. Deem and Ramdas Pophale) SiO2 
 PCOD9462257
Probable space group: P N M A
;
_chemical_formula_sum "Si O2"
_cell_formula_units_Z 48
_cell_length_a 16.669411
_cell_length_b 18.862745
_cell_length_c 7.126582
_cell_angle_alpha 90.000000
_cell_angle_beta 90.000000
_cell_angle_gamma 90.000000
_cell_volume 2240.817229
_symmetry_space_group_name_H-M "P N M A"
_symmetry_group_IT_number 62
_symmetry_cell_setting 'orthorhombic'
loop_
_space_group_symop_operation_xyz
x,y,z
1/2-x,-y,1/2+z
1/2+x,1/2-y,1/2-z
-x,1/2+y,-z
-x,-y,-z
1/2+x,y,1/2-z
1/2-x,1/2+y,1/2+z
x,1/2-y,z
loop_
_atom_site_type_symbol
_atom_site_label
_atom_site_fract_x
_atom_site_fract_y
_atom_site_fract_z
Si Si1 0.044793 0.250000 0.646090
Si Si2 0.803787 0.750000 0.176080
Si Si3 0.098949 0.105744 0.156597
Si Si4 0.451715 0.133008 0.073472
Si Si5 0.687968 0.090416 0.706883
Si Si6 0.675802 0.750000 0.833844
Si Si7 0.671008 0.250000 0.187499
Si Si8 0.842454 0.490686 0.560461
O O1 0.096679 0.250000 0.836461
O O2 0.116054 0.250000 0.493966
O O3 0.993841 0.319239 0.589302
O O4 0.789793 0.828761 0.258303
O O5 0.740231 0.750000 0.003782
O O6 0.147531 0.177399 0.206858
O O7 0.137414 0.038723 0.261315
O O8 0.013286 0.117419 0.256860
O O9 0.112620 0.093002 0.936361
O O10 0.380238 0.181882 0.152003
O O11 0.414469 0.062310 0.989067
O O12 0.669442 0.044379 0.888325
O O13 0.762746 0.054814 0.599632
O O14 0.734050 0.750000 0.655639
#
# Coordination Sequence:
#
# PCOD9462257 Si02
#       8
#     4   4   8   8   8   4   4   8
#     4   9  22  40  73  94 130 176 235 270 348 400
#     4  12  22  43  68  99 125 182 233 275 321 417
#     4  11  22  41  67  93 135 176 224 279 347 406
#     4  10  22  42  64  96 134 179 212 289 350 391
#     4  12  24  41  70 100 132 183 236 277 339 418
#     4  11  20  37  72  87 128 170 227 270 332 401
#     4  10  18  40  65  92 119 174 219 277 323 402
#     4  12  24  41  67  99 137 179 228 284 343 406
#
# _framework density 21.420753999999999
#
# number of rings (size 3 to 8) (size 9 to 14) (size 15 to 20)
#    0.000    1.000    5.000    3.000    0.000    0.667 
#    0.000    0.000   11.000    0.000    0.000    0.000 
#    0.000    0.000    0.000    0.000    0.000    0.000 
#
# Total GULP energy -268008.895965 kJ/mol
# GULP energy per Si atom -5583.518666 kJ/mol
# Density = 2.137200 g / cm^3
# Si number density = 21.420754 Si / 1000 Ang^3
#
#
#
# Elastic Constant Matrix: (Units=GPa)
#
#
# Indices 1 2 3 4 5 6 
#
# 1 105.3647 44.5605 19.1788 0.0000 0.0000 0.0000
# 2 44.5605 170.9049 39.8818 0.0000 0.0000 0.0000
# 3 19.1788 39.8818 60.6234 0.0000 0.0000 0.0000
# 4 0.0000 0.0000 0.0000 27.5121 0.0000 0.0000
# 5 0.0000 0.0000 0.0000 0.0000 36.1320 0.0000
# 6 0.0000 0.0000 0.0000 0.0000 0.0000 44.4838
#
#
#
# Elastic Compliance Matrix: (Units=1/GPa)
#
#
# Indices 1 2 3 4 5 6 
#
# 1 0.010841 -0.002394 -0.001855 0.000000 0.000000 0.000000
# 2 -0.002394 0.007441 -0.004138 0.000000 0.000000 0.000000
# 3 -0.001855 -0.004138 0.019804 0.000000 0.000000 0.000000
# 4 0.000000 0.000000 0.000000 0.036348 0.000000 0.000000
# 5 0.000000 0.000000 0.000000 0.000000 0.027676 0.000000
# 6 0.000000 0.000000 0.000000 0.000000 0.000000 0.022480
#
#
# Mechanical properties :
#
#
# Convention : Reuss Voigt Hill
#
# Bulk Modulus (GPa) = 46.91942 60.45947 53.68945
# Shear Modulus (GPa) = 33.67749 37.17704 35.42726
#
# Velocity S-wave (km/s) = 3.96939 4.17053 4.07120
# Velocity P-wave (km/s) = 6.55434 7.17475 6.87155
#
# Compressibility (1/GPa) = 0.02131313
#
# Stress axis : x y z
#
# Youngs Moduli (GPa) = 92.24400 134.39209 50.49437
#
# Poissons Ratio (x) = 0.32170 0.09366
# Poissons Ratio (y) = 0.22081 0.20894
# Poissons Ratio (z) = 0.17110 0.55609
#
# Static dielectric constant tensor:
#      x y z
#    x 1.796570 0.000000 0.000000 
#    y 0.000000 1.758700 0.000000 
#    z 0.000000 0.000000 1.895930 
# 
# From -- ./inp_files/6573.got.cif
#   From: 2010.05.17/outbox.cif.g08.bks.cpg/sg62_4_cif.got.tgz:6573.got - 2010.06.03 15:25:27.
