data_PCOD9462504
_publ_section_title
;
Structure prediction by ZEFSAII (Michael W. Deem and Ramdas Pophale) SiO2 
 PCOD9462504
Probable space group: P N M A
;
_chemical_formula_sum "Si O2"
_cell_formula_units_Z 56
_cell_length_a 15.008750
_cell_length_b 7.880021
_cell_length_c 25.069235
_cell_angle_alpha 90.000000
_cell_angle_beta 90.000000
_cell_angle_gamma 90.000000
_cell_volume 2964.920002
_symmetry_space_group_name_H-M "P N M A"
_symmetry_group_IT_number 62
_symmetry_cell_setting 'orthorhombic'
loop_
_space_group_symop_operation_xyz
x,y,z
1/2-x,-y,1/2+z
1/2+x,1/2-y,1/2-z
-x,1/2+y,-z
-x,-y,-z
1/2+x,y,1/2-z
1/2-x,1/2+y,1/2+z
x,1/2-y,z
loop_
_atom_site_type_symbol
_atom_site_label
_atom_site_fract_x
_atom_site_fract_y
_atom_site_fract_z
Si Si1 0.895243 0.548207 0.500516
Si Si2 0.736957 0.949247 0.284943
Si Si3 0.698284 0.454991 0.108081
Si Si4 0.145848 0.950735 0.616403
Si Si5 0.531460 0.045979 0.176814
Si Si6 0.149903 0.453080 0.816903
Si Si7 0.961124 0.055616 0.793431
O O1 0.894338 0.750000 0.504696
O O2 0.840669 0.481484 0.551787
O O3 0.848330 0.497869 0.445322
O O4 0.000000 0.500000 0.500000
O O5 0.723790 0.750000 0.272323
O O6 0.795218 0.020155 0.235216
O O7 0.637746 0.024257 0.293450
O O8 0.790193 0.965222 0.340145
O O9 0.699771 0.250000 0.106275
O O10 0.625859 0.504825 0.152727
O O11 0.792484 0.514856 0.130382
O O12 0.158491 0.750000 0.621980
O O13 0.045064 0.991382 0.634320
O O14 0.531108 0.250000 0.186370
O O15 0.512767 0.950163 0.231172
O O16 0.141131 0.250000 0.809253
O O17 0.048962 0.522170 0.820550
O O18 0.951452 0.250000 0.812715
#
# Coordination Sequence:
#
# PCOD9462504 Si02
#       7
#     8   8   8   8   8   8   8
#     4  11  22  37  56  80 110 144 180 221 270 323
#     4  10  20  34  53  78 108 143 178 218 268 317
#     4  10  21  36  52  76 110 143 176 215 264 318
#     4  11  22  36  53  79 111 144 181 221 265 321
#     4  10  19  31  49  76 110 141 175 214 259 315
#     4  10  20  33  53  80 107 141 181 219 266 319
#     4  10  20  34  51  77 111 142 179 219 262 318
#
# _framework density 18.887523999999999
#
# number of rings (size 3 to 8) (size 9 to 14) (size 15 to 20)
#    0.000    1.714    4.286    0.857    0.000    3.429 
#    0.000    0.000    0.000    0.857    0.000    0.000 
#    0.000    0.000    0.000    0.000    0.000    0.000 
#
# Total GULP energy -312351.420629 kJ/mol
# GULP energy per Si atom -5577.703940 kJ/mol
# Density = 1.884454 g / cm^3
# Si number density = 18.887524 Si / 1000 Ang^3
#
#
#
# Elastic Constant Matrix: (Units=GPa)
#
#
# Indices 1 2 3 4 5 6 
#
# 1 82.3274 6.8915 2.2608 0.0000 0.0000 0.0000
# 2 6.8915 15.9121 -6.7922 0.0000 0.0000 0.0000
# 3 2.2608 -6.7922 59.1878 0.0000 0.0000 0.0000
# 4 0.0000 0.0000 0.0000 14.0219 0.0000 0.0000
# 5 0.0000 0.0000 0.0000 0.0000 29.7598 0.0000
# 6 0.0000 0.0000 0.0000 0.0000 0.0000 14.4282
#
#
#
# Elastic Compliance Matrix: (Units=1/GPa)
#
#
# Indices 1 2 3 4 5 6 
#
# 1 0.012680 -0.005992 -0.001172 0.000000 0.000000 0.000000
# 2 -0.005992 0.068914 0.008137 0.000000 0.000000 0.000000
# 3 -0.001172 0.008137 0.017874 0.000000 0.000000 0.000000
# 4 0.000000 0.000000 0.000000 0.071317 0.000000 0.000000
# 5 0.000000 0.000000 0.000000 0.000000 0.033602 0.000000
# 6 0.000000 0.000000 0.000000 0.000000 0.000000 0.069309
#
#
# Mechanical properties :
#
#
# Convention : Reuss Voigt Hill
#
# Bulk Modulus (GPa) = 9.86051 18.01639 13.93845
# Shear Modulus (GPa) = 16.36366 21.97979 19.17173
#
# Velocity S-wave (km/s) = 2.94662 3.41504 3.18944
# Velocity P-wave (km/s) = 4.09984 5.01093 4.57811
#
# Compressibility (1/GPa) = 0.10141466
#
# Stress axis : x y z
#
# Youngs Moduli (GPa) = 78.86184 14.51082 55.94736
#
# Poissons Ratio (x) = 0.08695 0.06557
# Poissons Ratio (y) = 0.47255 -0.45526
# Poissons Ratio (z) = 0.09243 -0.11808
#
# Static dielectric constant tensor:
#      x y z
#    x 1.697460 0.000000 0.000000 
#    y 0.000000 1.696710 0.000000 
#    z 0.000000 0.000000 1.624830 
# 
# From -- ./inp_files/27146.got.cif
#   From: 2010.05.17/outbox.cif.g08.bks.cpg/sg62_14_cif.got.tgz:27146.got - 2010.06.03 15:25:27.
