data_PCOD9462960
_publ_section_title
;
Structure prediction by ZEFSAII (Michael W. Deem and Ramdas Pophale) SiO2 
 PCOD9462960
Probable space group: P N M A
;
_chemical_formula_sum "Si O2"
_cell_formula_units_Z 56
_cell_length_a 22.079655
_cell_length_b 7.406748
_cell_length_c 14.824480
_cell_angle_alpha 90.000000
_cell_angle_beta 90.000000
_cell_angle_gamma 90.000000
_cell_volume 2424.372341
_symmetry_space_group_name_H-M "P N M A"
_symmetry_group_IT_number 62
_symmetry_cell_setting 'orthorhombic'
loop_
_space_group_symop_operation_xyz
x,y,z
1/2-x,-y,1/2+z
1/2+x,1/2-y,1/2-z
-x,1/2+y,-z
-x,-y,-z
1/2+x,y,1/2-z
1/2-x,1/2+y,1/2+z
x,1/2-y,z
loop_
_atom_site_type_symbol
_atom_site_label
_atom_site_fract_x
_atom_site_fract_y
_atom_site_fract_z
Si Si1 0.371744 0.542660 0.611760
Si Si2 0.672825 0.040515 0.090488
Si Si3 0.486260 0.970999 0.714456
Si Si4 0.536447 0.465850 0.090778
Si Si5 0.765186 0.031172 0.401415
Si Si6 0.213093 0.970210 0.798926
Si Si7 0.904131 0.031142 0.087956
O O1 0.361897 0.750000 0.639995
O O2 0.420132 0.466176 0.681646
O O3 0.304553 0.465709 0.600816
O O4 0.402869 0.536883 0.513911
O O5 0.666618 0.250000 0.117064
O O6 0.605327 0.962642 0.089541
O O7 0.723507 0.964996 0.158413
O O8 0.700556 0.033247 0.990134
O O9 0.486346 0.750000 0.710740
O O10 0.496063 0.027296 0.817483
O O11 0.538277 0.028975 0.645815
O O12 0.540517 0.250000 0.097382
O O13 0.500000 0.500000 0.000000
O O14 0.765386 0.250000 0.407000
O O15 0.793557 0.978245 0.305421
O O16 0.213725 0.750000 0.801091
O O17 0.157196 0.026620 0.861144
O O18 0.904328 0.250000 0.084058
#
# Coordination Sequence:
#
# PCOD9462960 Si02
#       7
#     8   8   8   8   8   8   8
#     4  10  19  34  54  81 112 140 176 223 270 317
#     4  10  20  37  57  79 108 141 175 219 269 316
#     4   9  19  35  56  79 105 143 185 219 261 322
#     4  10  22  39  59  80 107 143 182 223 266 315
#     4  10  20  33  55  81 106 141 180 219 263 315
#     4   9  18  33  54  78 106 141 181 217 260 321
#     4  10  19  33  55  80 106 140 180 221 267 319
#
# _framework density 23.098761
#
# number of rings (size 3 to 8) (size 9 to 14) (size 15 to 20)
#    0.000    2.286    1.429    1.286    2.000    4.000 
#    0.000    2.857    0.000    3.429    0.000    0.000 
#    0.000    0.000    0.000    0.000    0.000    0.000 
#
# Total GULP energy -313041.753703 kJ/mol
# GULP energy per Si atom -5590.031316 kJ/mol
# Density = 2.304619 g / cm^3
# Si number density = 23.098761 Si / 1000 Ang^3
#
#
#
# Elastic Constant Matrix: (Units=GPa)
#
#
# Indices 1 2 3 4 5 6 
#
# 1 60.5668 -2.1122 -4.6370 0.0000 0.0000 0.0000
# 2 -2.1122 77.8382 -14.1958 0.0000 0.0000 0.0000
# 3 -4.6370 -14.1958 104.6831 0.0000 0.0000 0.0000
# 4 0.0000 0.0000 0.0000 19.0973 0.0000 0.0000
# 5 0.0000 0.0000 0.0000 0.0000 31.9337 0.0000
# 6 0.0000 0.0000 0.0000 0.0000 0.0000 3.0932
#
#
#
# Elastic Compliance Matrix: (Units=1/GPa)
#
#
# Indices 1 2 3 4 5 6 
#
# 1 0.016594 0.000599 0.000816 0.000000 0.000000 0.000000
# 2 0.000599 0.013195 0.001816 0.000000 0.000000 0.000000
# 3 0.000816 0.001816 0.009835 0.000000 0.000000 0.000000
# 4 0.000000 0.000000 0.000000 0.052364 0.000000 0.000000
# 5 0.000000 0.000000 0.000000 0.000000 0.031315 0.000000
# 6 0.000000 0.000000 0.000000 0.000000 0.000000 0.323291
#
#
# Mechanical properties :
#
#
# Convention : Reuss Voigt Hill
#
# Bulk Modulus (GPa) = 21.69843 22.35534 22.02689
# Shear Modulus (GPa) = 10.97712 28.42702 19.70207
#
# Velocity S-wave (km/s) = 2.18233 3.51190 2.92370
# Velocity P-wave (km/s) = 3.97042 5.11310 4.57756
#
# Compressibility (1/GPa) = 0.04608628
#
# Stress axis : x y z
#
# Youngs Moduli (GPa) = 60.26246 75.78865 101.67727
#
# Poissons Ratio (x) = -0.04541 -0.08300
# Poissons Ratio (y) = -0.03611 -0.18463
# Poissons Ratio (z) = -0.04919 -0.13762
#
# Static dielectric constant tensor:
#      x y z
#    x 1.841640 0.000000 0.000000 
#    y 0.000000 1.936190 0.000000 
#    z 0.000000 0.000000 1.814860 
# 
# From -- ./inp_files/20206.got.cif
#   From: 2010.05.17/outbox.cif.g08.bks.cpg/sg62_11_cif.got.tgz:20206.got - 2010.06.03 15:25:27.
