data_PCOD9462443
_publ_section_title
;
Structure prediction by ZEFSAII (Michael W. Deem and Ramdas Pophale) SiO2 
 PCOD9462443
Probable space group: P N M A
;
_chemical_formula_sum "Si O2"
_cell_formula_units_Z 64
_cell_length_a 31.184680
_cell_length_b 8.047933
_cell_length_c 14.978833
_cell_angle_alpha 90.000000
_cell_angle_beta 90.000000
_cell_angle_gamma 90.000000
_cell_volume 3759.270900
_symmetry_space_group_name_H-M "P N M A"
_symmetry_group_IT_number 62
_symmetry_cell_setting 'orthorhombic'
loop_
_space_group_symop_operation_xyz
x,y,z
1/2-x,-y,1/2+z
1/2+x,1/2-y,1/2-z
-x,1/2+y,-z
-x,-y,-z
1/2+x,y,1/2-z
1/2-x,1/2+y,1/2+z
x,1/2-y,z
loop_
_atom_site_type_symbol
_atom_site_label
_atom_site_fract_x
_atom_site_fract_y
_atom_site_fract_z
Si Si1 0.197080 0.954403 0.342923
Si Si2 0.954835 0.049231 0.893329
Si Si3 0.870059 0.452270 0.798502
Si Si4 0.282330 0.552196 0.236176
Si Si5 0.550154 0.948062 0.599299
Si Si6 0.184896 0.556950 0.030189
Si Si7 0.360467 0.947248 0.357421
Si Si8 0.777723 0.440492 0.466632
O O1 0.198204 0.750000 0.344001
O O2 0.154081 0.006147 0.291034
O O3 0.239350 0.010235 0.286900
O O4 0.199672 0.012786 0.445239
O O5 0.953416 0.250000 0.895468
O O6 0.917357 0.990201 0.826957
O O7 0.946629 0.990964 0.995680
O O8 0.002768 0.996214 0.868602
O O9 0.871596 0.250000 0.796556
O O10 0.838447 0.497236 0.879787
O O11 0.280877 0.750000 0.246648
O O12 0.326084 0.494104 0.283839
O O13 0.282762 0.517267 0.131017
O O14 0.553701 0.750000 0.597872
O O15 0.589473 0.017886 0.656492
O O16 0.197552 0.750000 0.040591
O O17 0.152521 0.537908 0.948762
O O18 0.227224 0.453019 0.011283
O O19 0.354909 0.750000 0.369645
O O20 0.791031 0.250000 0.458557
#
# Coordination Sequence:
#
# PCOD9462443 Si02
#       8
#     8   8   8   8   8   8   8   8
#     4   9  17  31  49  69  96 129 163 201 242 285
#     4   9  17  30  47  70  96 127 164 196 237 296
#     4   9  16  29  49  69  92 129 168 195 231 289
#     4  10  20  35  51  68  97 135 168 201 247 292
#     4  10  19  31  47  71  99 128 161 199 247 296
#     4  11  19  30  49  71  98 134 169 201 243 290
#     4  11  21  33  49  71  99 133 170 207 244 288
#     4  11  21  33  48  72 100 129 169 210 245 283
#
# _framework density 17.024577000000001
#
# number of rings (size 3 to 8) (size 9 to 14) (size 15 to 20)
#    0.000    2.000    3.750    1.500    0.000    1.500 
#    0.000    0.000    0.000    0.000    0.000    0.875 
#    0.000    0.000    0.000    0.000    0.000    0.000 
#
# Total GULP energy -356865.217055 kJ/mol
# GULP energy per Si atom -5576.019016 kJ/mol
# Density = 1.698583 g / cm^3
# Si number density = 17.024577 Si / 1000 Ang^3
#
#
#
# Elastic Constant Matrix: (Units=GPa)
#
#
# Indices 1 2 3 4 5 6 
#
# 1 85.9729 1.5164 13.2994 0.0000 0.0000 0.0000
# 2 1.5164 15.4865 -0.0068 0.0000 0.0000 0.0000
# 3 13.2994 -0.0068 50.3409 0.0000 0.0000 0.0000
# 4 0.0000 0.0000 0.0000 12.5749 0.0000 0.0000
# 5 0.0000 0.0000 0.0000 0.0000 24.0831 0.0000
# 6 0.0000 0.0000 0.0000 0.0000 0.0000 20.7107
#
#
#
# Elastic Compliance Matrix: (Units=1/GPa)
#
#
# Indices 1 2 3 4 5 6 
#
# 1 0.012149 -0.001191 -0.003210 0.000000 0.000000 0.000000
# 2 -0.001191 0.064689 0.000323 0.000000 0.000000 0.000000
# 3 -0.003210 0.000323 0.020713 0.000000 0.000000 0.000000
# 4 0.000000 0.000000 0.000000 0.079523 0.000000 0.000000
# 5 0.000000 0.000000 0.000000 0.000000 0.041523 0.000000
# 6 0.000000 0.000000 0.000000 0.000000 0.000000 0.048284
#
#
# Mechanical properties :
#
#
# Convention : Reuss Voigt Hill
#
# Bulk Modulus (GPa) = 11.18621 20.15761 15.67191
# Shear Modulus (GPa) = 16.40233 20.60649 18.50441
#
# Velocity S-wave (km/s) = 3.10732 3.48285 3.30043
# Velocity P-wave (km/s) = 4.41121 5.29525 4.87332
#
# Compressibility (1/GPa) = 0.08939578
#
# Stress axis : x y z
#
# Youngs Moduli (GPa) = 82.31048 15.45858 48.27977
#
# Poissons Ratio (x) = 0.01841 0.15497
# Poissons Ratio (y) = 0.09803 -0.01561
# Poissons Ratio (z) = 0.26420 -0.00500
#
# Static dielectric constant tensor:
#      x y z
#    x 1.595380 0.000000 0.000000 
#    y 0.000000 1.606410 0.000000 
#    z 0.000000 0.000000 1.577720 
# 
# From -- ./inp_files/21212.got.cif
#   From: 2010.05.17/outbox.cif.g08.bks.cpg/sg62_11_cif.got.tgz:21212.got - 2010.06.03 15:25:27.
