data_PCOD9462782
_publ_section_title
;
Structure prediction by ZEFSAII (Michael W. Deem and Ramdas Pophale) SiO2 
 PCOD9462782
Probable space group: P N M A
;
_chemical_formula_sum "Si O2"
_cell_formula_units_Z 64
_cell_length_a 17.535424
_cell_length_b 8.931058
_cell_length_c 22.013020
_cell_angle_alpha 90.000000
_cell_angle_beta 90.000000
_cell_angle_gamma 90.000000
_cell_volume 3447.456614
_symmetry_space_group_name_H-M "P N M A"
_symmetry_group_IT_number 62
_symmetry_cell_setting 'orthorhombic'
loop_
_space_group_symop_operation_xyz
x,y,z
1/2-x,-y,1/2+z
1/2+x,1/2-y,1/2-z
-x,1/2+y,-z
-x,-y,-z
1/2+x,y,1/2-z
1/2-x,1/2+y,1/2+z
x,1/2-y,z
loop_
_atom_site_type_symbol
_atom_site_label
_atom_site_fract_x
_atom_site_fract_y
_atom_site_fract_z
Si Si1 0.905167 0.074805 0.438030
Si Si2 0.037154 0.570780 0.862823
Si Si3 0.656389 0.429425 0.723351
Si Si4 0.725138 0.930290 0.118499
Si Si5 0.844652 0.429213 0.030257
Si Si6 0.438166 0.426722 0.918870
Si Si7 0.783931 0.929074 0.354248
Si Si8 0.132128 0.070032 0.101859
O O1 0.892718 0.250000 0.426388
O O2 0.913777 0.054235 0.510501
O O3 0.836189 0.981794 0.410029
O O4 0.985009 0.019263 0.409506
O O5 0.039095 0.750000 0.856481
O O6 0.081398 0.499422 0.806420
O O7 0.086464 0.533846 0.923141
O O8 0.950108 0.523543 0.871961
O O9 0.648807 0.250000 0.722175
O O10 0.727287 0.468346 0.678910
O O11 0.674723 0.475356 0.791784
O O12 0.728918 0.750000 0.109484
O O13 0.636088 0.970714 0.119676
O O14 0.768866 0.009268 0.063050
O O15 0.840402 0.250000 0.023181
O O16 0.858475 0.506464 0.966065
O O17 0.454406 0.250000 0.909556
O O18 0.775817 0.750000 0.354757
O O19 0.701805 0.004701 0.359786
O O20 0.135385 0.250000 0.100163
#
# Coordination Sequence:
#
# PCOD9462782 Si02
#       8
#     8   8   8   8   8   8   8   8
#     4  10  20  34  54  80 110 143 177 219 276 333
#     4   9  20  37  57  82 113 146 182 224 272 325
#     4   9  20  38  58  78 104 142 186 229 273 319
#     4   9  17  33  56  80 108 144 184 226 271 323
#     4  10  19  32  54  85 117 148 180 222 272 323
#     4   9  18  33  54  80 109 139 176 222 273 327
#     4  11  23  39  56  78 109 146 188 231 275 323
#     4  11  22  36  55  82 113 146 182 224 274 329
#
# _framework density 18.564411
#
# number of rings (size 3 to 8) (size 9 to 14) (size 15 to 20)
#    0.000    2.250    0.000    2.625    0.000    4.500 
#    2.250    0.000    0.000    0.000    0.000    0.000 
#    0.000    0.000    0.000    0.000    0.000    0.000 
#
# Total GULP energy -357352.625585 kJ/mol
# GULP energy per Si atom -5583.634775 kJ/mol
# Density = 1.852216 g / cm^3
# Si number density = 18.564411 Si / 1000 Ang^3
#
#
#
# Elastic Constant Matrix: (Units=GPa)
#
#
# Indices 1 2 3 4 5 6 
#
# 1 70.5452 19.1423 -0.4041 0.0000 0.0000 0.0000
# 2 19.1423 34.8952 18.0369 0.0000 0.0000 0.0000
# 3 -0.4041 18.0369 41.6174 0.0000 0.0000 0.0000
# 4 0.0000 0.0000 0.0000 23.2286 0.0000 0.0000
# 5 0.0000 0.0000 0.0000 0.0000 6.8941 0.0000
# 6 0.0000 0.0000 0.0000 0.0000 0.0000 31.0760
#
#
#
# Elastic Compliance Matrix: (Units=1/GPa)
#
#
# Indices 1 2 3 4 5 6 
#
# 1 0.017618 -0.012569 0.005618 0.000000 0.000000 0.000000
# 2 -0.012569 0.045897 -0.020013 0.000000 0.000000 0.000000
# 3 0.005618 -0.020013 0.032757 0.000000 0.000000 0.000000
# 4 0.000000 0.000000 0.000000 0.043050 0.000000 0.000000
# 5 0.000000 0.000000 0.000000 0.000000 0.145051 0.000000
# 6 0.000000 0.000000 0.000000 0.000000 0.000000 0.032179
#
#
# Mechanical properties :
#
#
# Convention : Reuss Voigt Hill
#
# Bulk Modulus (GPa) = 23.61629 24.51199 24.06414
# Shear Modulus (GPa) = 13.00073 19.59194 16.29634
#
# Velocity S-wave (km/s) = 2.64920 3.25214 2.96603
# Velocity P-wave (km/s) = 4.70176 5.22822 4.97196
#
# Compressibility (1/GPa) = 0.04234365
#
# Stress axis : x y z
#
# Youngs Moduli (GPa) = 56.76027 21.78813 30.52808
#
# Poissons Ratio (x) = 0.27385 -0.17151
# Poissons Ratio (y) = 0.71340 0.61097
# Poissons Ratio (z) = -0.31889 0.43606
#
# Static dielectric constant tensor:
#      x y z
#    x 1.636600 0.000000 0.000000 
#    y 0.000000 1.620550 0.000000 
#    z 0.000000 0.000000 1.626800 
# 
# From -- ./inp_files/27664.got.cif
#   From: 2010.05.17/outbox.cif.g08.bks.cpg/sg62_14_cif.got.tgz:27664.got - 2010.06.03 15:25:27.
