data_PCOD9462569
_publ_section_title
;
Structure prediction by ZEFSAII (Michael W. Deem and Ramdas Pophale) SiO2 
 PCOD9462569
Probable space group: P N M A
;
_chemical_formula_sum "Si O2"
_cell_formula_units_Z 64
_cell_length_a 15.676281
_cell_length_b 9.238423
_cell_length_c 22.629639
_cell_angle_alpha 90.000000
_cell_angle_beta 90.000000
_cell_angle_gamma 90.000000
_cell_volume 3277.317440
_symmetry_space_group_name_H-M "P N M A"
_symmetry_group_IT_number 62
_symmetry_cell_setting 'orthorhombic'
loop_
_space_group_symop_operation_xyz
x,y,z
1/2-x,-y,1/2+z
1/2+x,1/2-y,1/2-z
-x,1/2+y,-z
-x,-y,-z
1/2+x,y,1/2-z
1/2-x,1/2+y,1/2+z
x,1/2-y,z
loop_
_atom_site_type_symbol
_atom_site_label
_atom_site_fract_x
_atom_site_fract_y
_atom_site_fract_z
Si Si1 0.697339 0.922862 0.802014
Si Si2 0.619429 0.078887 0.548258
Si Si3 0.134353 0.919953 0.201627
Si Si4 0.026224 0.418088 0.405189
Si Si5 0.788189 0.921526 0.551774
Si Si6 0.486778 0.415800 0.234675
Si Si7 0.070972 0.920171 0.071412
Si Si8 0.643315 0.421689 0.922556
O O1 0.703294 0.750000 0.808734
O O2 0.613315 0.953293 0.763030
O O3 0.784077 0.989597 0.777497
O O4 0.679942 0.995234 0.865869
O O5 0.632569 0.250000 0.546157
O O6 0.529819 0.050237 0.581354
O O7 0.703797 0.002742 0.572559
O O8 0.602753 0.016724 0.482517
O O9 0.146821 0.750000 0.211972
O O10 0.122009 0.942902 0.131446
O O11 0.048913 0.977008 0.231956
O O12 0.017594 0.250000 0.425416
O O13 0.122194 0.466527 0.419067
O O14 0.010394 0.419288 0.334881
O O15 0.951974 0.516405 0.432588
O O16 0.777990 0.750000 0.561645
O O17 0.801801 0.945102 0.481512
O O18 0.499023 0.250000 0.255442
O O19 0.078779 0.750000 0.054617
O O20 0.640572 0.250000 0.910793
#
# Coordination Sequence:
#
# PCOD9462569 Si02
#       8
#     8   8   8   8   8   8   8   8
#     4  10  21  38  59  82 111 145 184 228 273 328
#     4  10  20  34  54  79 108 141 178 219 264 321
#     4  11  22  37  60  85 110 142 181 230 280 327
#     4   9  19  36  54  73 106 147 184 223 271 325
#     4  10  20  33  50  77 111 146 179 217 270 328
#     4   9  20  39  58  78 108 144 184 231 273 320
#     4   9  20  38  55  76 109 141 173 219 272 322
#     4  10  19  31  52  81 111 140 179 227 273 321
#
# _framework density 19.528167
#
# number of rings (size 3 to 8) (size 9 to 14) (size 15 to 20)
#    0.000    2.250    0.000    3.375    0.000    8.500 
#    2.250    0.000    0.000    0.000    0.000    0.000 
#    0.000    0.000    0.000    0.000    0.000    0.000 
#
# Total GULP energy -357401.083948 kJ/mol
# GULP energy per Si atom -5584.391937 kJ/mol
# Density = 1.948372 g / cm^3
# Si number density = 19.528167 Si / 1000 Ang^3
#
#
#
# Elastic Constant Matrix: (Units=GPa)
#
#
# Indices 1 2 3 4 5 6 
#
# 1 145.9809 61.6253 8.9009 0.0000 0.0000 0.0000
# 2 61.6253 55.4863 10.8909 0.0000 0.0000 0.0000
# 3 8.9009 10.8909 4.8268 0.0000 0.0000 0.0000
# 4 0.0000 0.0000 0.0000 20.6981 0.0000 0.0000
# 5 0.0000 0.0000 0.0000 0.0000 17.4987 0.0000
# 6 0.0000 0.0000 0.0000 0.0000 0.0000 36.1106
#
#
#
# Elastic Compliance Matrix: (Units=1/GPa)
#
#
# Indices 1 2 3 4 5 6 
#
# 1 0.013561 -0.018224 0.016112 0.000000 0.000000 0.000000
# 2 -0.018224 0.056840 -0.094644 0.000000 0.000000 0.000000
# 3 0.016112 -0.094644 0.391015 0.000000 0.000000 0.000000
# 4 0.000000 0.000000 0.000000 0.048314 0.000000 0.000000
# 5 0.000000 0.000000 0.000000 0.000000 0.057147 0.000000
# 6 0.000000 0.000000 0.000000 0.000000 0.000000 0.027693
#
#
# Mechanical properties :
#
#
# Convention : Reuss Voigt Hill
#
# Bulk Modulus (GPa) = 3.73268 41.01426 22.37347
# Shear Modulus (GPa) = 5.69877 23.18661 14.44269
#
# Velocity S-wave (km/s) = 1.71014 3.44952 2.72248
# Velocity P-wave (km/s) = 2.41143 6.07567 4.62216
#
# Compressibility (1/GPa) = 0.26790437
#
# Stress axis : x y z
#
# Youngs Moduli (GPa) = 73.74123 17.59340 2.55745
#
# Poissons Ratio (x) = 0.32062 -0.04121
# Poissons Ratio (y) = 1.34385 0.24205
# Poissons Ratio (z) = -1.18815 1.66511
#
# Static dielectric constant tensor:
#      x y z
#    x 1.717470 0.000000 0.000000 
#    y 0.000000 1.651960 0.000000 
#    z 0.000000 0.000000 1.670530 
# 
# From -- ./inp_files/29947.got.cif
#   From: 2010.05.17/outbox.cif.g08.bks.cpg/sg62_15_cif.got.tgz:29947.got - 2010.06.03 15:25:27.
