data_PCOD9462924
_publ_section_title
;
Structure prediction by ZEFSAII (Michael W. Deem and Ramdas Pophale) SiO2 
 PCOD9462924
Probable space group: P N M A
;
_chemical_formula_sum "Si O2"
_cell_formula_units_Z 64
_cell_length_a 19.923474
_cell_length_b 8.991734
_cell_length_c 20.714464
_cell_angle_alpha 90.000000
_cell_angle_beta 90.000000
_cell_angle_gamma 90.000000
_cell_volume 3710.925352
_symmetry_space_group_name_H-M "P N M A"
_symmetry_group_IT_number 62
_symmetry_cell_setting 'orthorhombic'
loop_
_space_group_symop_operation_xyz
x,y,z
1/2-x,-y,1/2+z
1/2+x,1/2-y,1/2-z
-x,1/2+y,-z
-x,-y,-z
1/2+x,y,1/2-z
1/2-x,1/2+y,1/2+z
x,1/2-y,z
loop_
_atom_site_type_symbol
_atom_site_label
_atom_site_fract_x
_atom_site_fract_y
_atom_site_fract_z
Si Si1 0.778768 0.926181 0.201921
Si Si2 0.062769 0.427303 0.242275
Si Si3 0.082924 0.575849 0.612674
Si Si4 0.797306 0.427467 0.568559
Si Si5 0.057054 0.572429 0.382060
Si Si6 0.912935 0.076908 0.231185
Si Si7 0.797393 0.926717 0.821777
Si Si8 0.281568 0.573344 0.063265
O O1 0.772855 0.750000 0.213774
O O2 0.740670 0.960677 0.135392
O O3 0.856121 0.975215 0.200608
O O4 0.744705 0.013789 0.260782
O O5 0.062408 0.250000 0.258397
O O6 0.070291 0.517334 0.308763
O O7 0.124902 0.455576 0.195340
O O8 0.989544 0.461232 0.213440
O O9 0.085725 0.750000 0.595576
O O10 0.089479 0.563385 0.690656
O O11 0.145203 0.490198 0.582305
O O12 0.010763 0.507552 0.594998
O O13 0.792228 0.250000 0.557128
O O14 0.876140 0.463740 0.577818
O O15 0.767758 0.515817 0.508607
O O16 0.047738 0.750000 0.382373
O O17 0.899970 0.250000 0.215582
O O18 0.787019 0.750000 0.828034
O O19 0.770452 0.006667 0.885275
O O20 0.281787 0.750000 0.066813
#
# Coordination Sequence:
#
# PCOD9462924 Si02
#       8
#     8   8   8   8   8   8   8   8
#     4  11  21  35  57  85 112 144 185 230 275 328
#     4   9  19  34  55  82 112 146 184 223 275 333
#     4  10  20  35  54  78 112 151 186 225 272 330
#     4  10  23  40  55  77 113 151 186 229 282 331
#     4  10  19  33  54  80 111 148 186 229 272 320
#     4   9  18  33  54  82 112 144 180 224 272 325
#     4  11  21  36  59  83 111 148 184 229 281 331
#     4  12  25  38  56  81 109 146 191 235 279 333
#
# _framework density 17.246371
#
# number of rings (size 3 to 8) (size 9 to 14) (size 15 to 20)
#    0.000    1.750    2.500    3.375    0.000    5.000 
#    0.000    0.000    0.000    0.750    0.000    0.000 
#    0.000    0.000    0.000    0.000    0.000    0.000 
#
# Total GULP energy -357491.979796 kJ/mol
# GULP energy per Si atom -5585.812184 kJ/mol
# Density = 1.720712 g / cm^3
# Si number density = 17.246371 Si / 1000 Ang^3
#
#
#
# Elastic Constant Matrix: (Units=GPa)
#
#
# Indices 1 2 3 4 5 6 
#
# 1 78.4834 26.3035 12.6466 0.0000 0.0000 0.0000
# 2 26.3035 56.1057 18.8242 0.0000 0.0000 0.0000
# 3 12.6466 18.8242 25.1922 0.0000 0.0000 0.0000
# 4 0.0000 0.0000 0.0000 26.8326 0.0000 0.0000
# 5 0.0000 0.0000 0.0000 0.0000 17.0866 0.0000
# 6 0.0000 0.0000 0.0000 0.0000 0.0000 24.2723
#
#
#
# Elastic Compliance Matrix: (Units=1/GPa)
#
#
# Indices 1 2 3 4 5 6 
#
# 1 0.015296 -0.006132 -0.003097 0.000000 0.000000 0.000000
# 2 -0.006132 0.026245 -0.016533 0.000000 0.000000 0.000000
# 3 -0.003097 -0.016533 0.053603 0.000000 0.000000 0.000000
# 4 0.000000 0.000000 0.000000 0.037268 0.000000 0.000000
# 5 0.000000 0.000000 0.000000 0.000000 0.058525 0.000000
# 6 0.000000 0.000000 0.000000 0.000000 0.000000 0.041199
#
#
# Mechanical properties :
#
#
# Convention : Reuss Voigt Hill
#
# Bulk Modulus (GPa) = 22.92458 30.59221 26.75839
# Shear Modulus (GPa) = 16.76728 20.43876 18.60302
#
# Velocity S-wave (km/s) = 3.12143 3.44627 3.28786
# Velocity P-wave (km/s) = 5.12956 5.79763 5.47380
#
# Compressibility (1/GPa) = 0.04362131
#
# Stress axis : x y z
#
# Youngs Moduli (GPa) = 65.37816 38.10212 18.65564
#
# Poissons Ratio (x) = 0.23364 0.05777
# Poissons Ratio (y) = 0.40090 0.30843
# Poissons Ratio (z) = 0.20245 0.62994
#
# Static dielectric constant tensor:
#      x y z
#    x 1.594390 0.000000 0.000000 
#    y 0.000000 1.573970 0.000000 
#    z 0.000000 0.000000 1.568630 
# 
# From -- ./inp_files/24804.got.cif
#   From: 2010.05.17/outbox.cif.g08.bks.cpg/sg62_13_cif.got.tgz:24804.got - 2010.06.03 15:25:27.
