data_PCOD9462654
_publ_section_title
;
Structure prediction by ZEFSAII (Michael W. Deem and Ramdas Pophale) SiO2 
 PCOD9462654
Probable space group: P N M A
;
_chemical_formula_sum "Si O2"
_cell_formula_units_Z 48
_cell_length_a 24.322462
_cell_length_b 8.643680
_cell_length_c 13.971413
_cell_angle_alpha 90.000000
_cell_angle_beta 90.000000
_cell_angle_gamma 90.000000
_cell_volume 2937.288092
_symmetry_space_group_name_H-M "P N M A"
_symmetry_group_IT_number 62
_symmetry_cell_setting 'orthorhombic'
loop_
_space_group_symop_operation_xyz
x,y,z
1/2-x,-y,1/2+z
1/2+x,1/2-y,1/2-z
-x,1/2+y,-z
-x,-y,-z
1/2+x,y,1/2-z
1/2-x,1/2+y,1/2+z
x,1/2-y,z
loop_
_atom_site_type_symbol
_atom_site_label
_atom_site_fract_x
_atom_site_fract_y
_atom_site_fract_z
Si Si1 0.331007 0.934106 0.291208
Si Si2 0.943979 0.064159 0.888105
Si Si3 0.725717 0.564932 0.892198
Si Si4 0.274421 0.564961 0.897820
Si Si5 0.937462 0.434023 0.111960
Si Si6 0.331450 0.063802 0.714019
O O1 0.324122 0.750000 0.290225
O O2 0.316736 0.001395 0.186821
O O3 0.285342 0.006811 0.362051
O O4 0.390920 0.980963 0.327616
O O5 0.951548 0.250000 0.883646
O O6 0.891835 0.022105 0.823563
O O7 0.931532 0.025152 0.999192
O O8 0.000873 0.983314 0.860407
O O9 0.725818 0.750000 0.891005
O O10 0.785139 0.503110 0.857128
O O11 0.714114 0.501810 0.997606
O O12 0.274844 0.750000 0.899048
O O13 0.316614 0.502238 0.818077
O O14 0.930514 0.250000 0.121487
O O15 0.326606 0.250000 0.714966
#
# Coordination Sequence:
#
# PCOD9462654 Si02
#       6
#     8   8   8   8   8   8
#     4  11  21  34  52  75 103 134 168 206 251 298
#     4   9  19  33  50  73 102 134 167 205 247 294
#     4  11  21  34  52  75 102 133 169 206 250 299
#     4  11  21  34  51  74 103 133 168 207 250 298
#     4  10  19  32  51  75 103 134 168 206 248 295
#     4  10  19  33  52  75 103 134 168 206 250 296
#
# _framework density 16.341605999999999
#
# number of rings (size 3 to 8) (size 9 to 14) (size 15 to 20)
#    0.000    1.667    0.000    8.500    0.000    3.333 
#    0.000    0.000    0.000    1.000    0.000    0.000 
#    0.000    0.000    0.000    0.000    0.000    0.000 
#
# Total GULP energy -268127.520747 kJ/mol
# GULP energy per Si atom -5585.990016 kJ/mol
# Density = 1.630441 g / cm^3
# Si number density = 16.341606 Si / 1000 Ang^3
#
#
#
# Elastic Constant Matrix: (Units=GPa)
#
#
# Indices 1 2 3 4 5 6 
#
# 1 118.4445 57.0262 69.2116 0.0000 0.0000 0.0000
# 2 57.0262 123.3874 51.3728 0.0000 0.0000 0.0000
# 3 69.2116 51.3728 107.2675 0.0000 0.0000 0.0000
# 4 0.0000 0.0000 0.0000 27.4351 0.0000 0.0000
# 5 0.0000 0.0000 0.0000 0.0000 16.4955 0.0000
# 6 0.0000 0.0000 0.0000 0.0000 0.0000 30.5991
#
#
#
# Elastic Compliance Matrix: (Units=1/GPa)
#
#
# Indices 1 2 3 4 5 6 
#
# 1 0.014703 -0.003554 -0.007784 0.000000 0.000000 0.000000
# 2 -0.003554 0.010982 -0.002966 0.000000 0.000000 0.000000
# 3 -0.007784 -0.002966 0.015766 0.000000 0.000000 0.000000
# 4 0.000000 0.000000 0.000000 0.036450 0.000000 0.000000
# 5 0.000000 0.000000 0.000000 0.000000 0.060622 0.000000
# 6 0.000000 0.000000 0.000000 0.000000 0.000000 0.032681
#
#
# Mechanical properties :
#
#
# Convention : Reuss Voigt Hill
#
# Bulk Modulus (GPa) = 77.87615 78.25787 78.06701
# Shear Modulus (GPa) = 24.49856 26.33853 25.41855
#
# Velocity S-wave (km/s) = 3.87609 4.01901 3.94820
# Velocity P-wave (km/s) = 8.23351 8.33842 8.28613
#
# Compressibility (1/GPa) = 0.01284090
#
# Stress axis : x y z
#
# Youngs Moduli (GPa) = 68.01508 91.05591 63.42826
#
# Poissons Ratio (x) = 0.32362 0.49375
# Poissons Ratio (y) = 0.24173 0.18816
# Poissons Ratio (z) = 0.52945 0.27011
#
# Static dielectric constant tensor:
#      x y z
#    x 1.527980 0.000000 0.000000 
#    y 0.000000 1.544220 0.000000 
#    z 0.000000 0.000000 1.533310 
# 
# From -- ./inp_files/20589.got.cif
#   From: 2010.05.17/outbox.cif.g08.bks.cpg/sg62_11_cif.got.tgz:20589.got - 2010.06.03 15:25:27.
