data_PCOD9462828
_publ_section_title
;
Structure prediction by ZEFSAII (Michael W. Deem and Ramdas Pophale) SiO2 
 PCOD9462828
Probable space group: P N M A
;
_chemical_formula_sum "Si O2"
_cell_formula_units_Z 64
_cell_length_a 10.190125
_cell_length_b 13.560075
_cell_length_c 30.700887
_cell_angle_alpha 90.000000
_cell_angle_beta 90.000000
_cell_angle_gamma 90.000000
_cell_volume 4242.213544
_symmetry_space_group_name_H-M "P N M A"
_symmetry_group_IT_number 62
_symmetry_cell_setting 'orthorhombic'
loop_
_space_group_symop_operation_xyz
x,y,z
1/2-x,-y,1/2+z
1/2+x,1/2-y,1/2-z
-x,1/2+y,-z
-x,-y,-z
1/2+x,y,1/2-z
1/2-x,1/2+y,1/2+z
x,1/2-y,z
loop_
_atom_site_type_symbol
_atom_site_label
_atom_site_fract_x
_atom_site_fract_y
_atom_site_fract_z
Si Si1 0.292208 0.061872 0.579669
Si Si2 0.242279 0.942879 0.444232
Si Si3 0.147672 0.636653 0.982779
Si Si4 0.656470 0.130161 0.721365
Si Si5 0.951473 0.130086 0.706517
Si Si6 0.837275 0.862759 0.964444
Si Si7 0.453328 0.868699 0.373600
Si Si8 0.995228 0.868381 0.393747
O O1 0.331820 0.112735 0.533738
O O2 0.405358 0.088740 0.613800
O O3 0.152038 0.101586 0.594407
O O4 0.290495 0.945525 0.569215
O O5 0.269586 0.884692 0.489110
O O6 0.347622 0.907014 0.408521
O O7 0.099654 0.919991 0.425366
O O8 0.269890 0.056775 0.455860
O O9 0.182739 0.750000 0.974150
O O10 0.993654 0.622800 0.971959
O O11 0.658633 0.250000 0.722932
O O12 0.807540 0.097227 0.722171
O O13 0.566335 0.095903 0.761249
O O14 0.592778 0.104001 0.674898
O O15 0.951731 0.250000 0.707841
O O16 0.974219 0.103527 0.656265
O O17 0.814397 0.750000 0.951361
O O18 0.458026 0.750000 0.376416
O O19 0.011083 0.750000 0.397606
#
# Coordination Sequence:
#
# PCOD9462828 Si02
#       8
#     8   8   8   8   8   8   8   8
#     4  11  21  33  47  74  96 129 170 204 240 284
#     4  11  19  33  50  71  94 132 169 198 238 291
#     4  10  19  33  51  72  98 125 164 215 249 279
#     4   9  18  29  44  66  94 128 160 192 235 288
#     4   9  18  31  44  65  96 129 159 191 237 286
#     4  10  19  33  52  71  96 127 165 211 251 283
#     4  11  18  29  49  69  94 129 168 197 231 288
#     4  11  22  33  47  70 105 134 161 202 240 284
#
# _framework density 15.086463
#
# number of rings (size 3 to 8) (size 9 to 14) (size 15 to 20)
#    0.000    1.750    3.750    3.000    1.750    2.000 
#    0.000    1.875    0.000    0.000    0.000    0.000 
#    0.000    6.000    0.000    0.000    0.000    0.000 
#
# Total GULP energy -357075.645469 kJ/mol
# GULP energy per Si atom -5579.306960 kJ/mol
# Density = 1.505213 g / cm^3
# Si number density = 15.086463 Si / 1000 Ang^3
#
#
#
# Elastic Constant Matrix: (Units=GPa)
#
#
# Indices 1 2 3 4 5 6 
#
# 1 71.5929 2.7931 15.7529 0.0000 0.0000 0.0000
# 2 2.7931 58.6894 15.1049 0.0000 0.0000 0.0000
# 3 15.7529 15.1049 41.9906 0.0000 0.0000 0.0000
# 4 0.0000 0.0000 0.0000 15.3151 0.0000 0.0000
# 5 0.0000 0.0000 0.0000 0.0000 18.5656 0.0000
# 6 0.0000 0.0000 0.0000 0.0000 0.0000 20.9830
#
#
#
# Elastic Compliance Matrix: (Units=1/GPa)
#
#
# Indices 1 2 3 4 5 6 
#
# 1 0.015261 0.000823 -0.006021 0.000000 0.000000 0.000000
# 2 0.000823 0.018822 -0.007079 0.000000 0.000000 0.000000
# 3 -0.006021 -0.007079 0.028620 0.000000 0.000000 0.000000
# 4 0.000000 0.000000 0.000000 0.065295 0.000000 0.000000
# 5 0.000000 0.000000 0.000000 0.000000 0.053863 0.000000
# 6 0.000000 0.000000 0.000000 0.000000 0.000000 0.047658
#
#
# Mechanical properties :
#
#
# Convention : Reuss Voigt Hill
#
# Bulk Modulus (GPa) = 26.21366 26.61943 26.41655
# Shear Modulus (GPa) = 18.74139 20.21421 19.47780
#
# Velocity S-wave (km/s) = 3.52840 3.66442 3.59706
# Velocity P-wave (km/s) = 5.83205 5.96547 5.89914
#
# Compressibility (1/GPa) = 0.03814804
#
# Stress axis : x y z
#
# Youngs Moduli (GPa) = 65.52806 53.13010 34.94012
#
# Poissons Ratio (x) = -0.04375 0.21038
# Poissons Ratio (y) = -0.05396 0.24736
# Poissons Ratio (z) = 0.39456 0.37613
#
# Static dielectric constant tensor:
#      x y z
#    x 1.504200 0.000000 0.000000 
#    y 0.000000 1.487950 0.000000 
#    z 0.000000 0.000000 1.488800 
# 
# From -- ./inp_files/32318.got.cif
#   From: 2010.05.17/outbox.cif.g08.bks.cpg/sg62_17_cif.got.tgz:32318.got - 2010.06.03 15:25:27.
