data_PCOD9462672
_publ_section_title
;
Structure prediction by ZEFSAII (Michael W. Deem and Ramdas Pophale) SiO2 
 PCOD9462672
Probable space group: P N M A
;
_chemical_formula_sum "Si O2"
_cell_formula_units_Z 64
_cell_length_a 19.784439
_cell_length_b 9.120892
_cell_length_c 20.776484
_cell_angle_alpha 90.000000
_cell_angle_beta 90.000000
_cell_angle_gamma 90.000000
_cell_volume 3749.152510
_symmetry_space_group_name_H-M "P N M A"
_symmetry_group_IT_number 62
_symmetry_cell_setting 'orthorhombic'
loop_
_space_group_symop_operation_xyz
x,y,z
1/2-x,-y,1/2+z
1/2+x,1/2-y,1/2-z
-x,1/2+y,-z
-x,-y,-z
1/2+x,y,1/2-z
1/2-x,1/2+y,1/2+z
x,1/2-y,z
loop_
_atom_site_type_symbol
_atom_site_label
_atom_site_fract_x
_atom_site_fract_y
_atom_site_fract_z
Si Si1 0.821819 0.924778 0.237392
Si Si2 0.682298 0.425074 0.238892
Si Si3 0.547550 0.924459 0.688390
Si Si4 0.961584 0.575058 0.682522
Si Si5 0.319090 0.574277 0.609438
Si Si6 0.678811 0.074276 0.888508
Si Si7 0.536006 0.426976 0.439567
Si Si8 0.032692 0.073910 0.562206
O O1 0.821288 0.750000 0.232986
O O2 0.832444 0.965262 0.313060
O O3 0.749499 0.990724 0.218606
O O4 0.882475 0.991179 0.196344
O O5 0.693362 0.250000 0.234824
O O6 0.616242 0.461292 0.197718
O O7 0.669380 0.458605 0.314550
O O8 0.560440 0.750000 0.685972
O O9 0.503092 0.952674 0.752020
O O10 0.505161 0.964680 0.625262
O O11 0.966043 0.750000 0.668813
O O12 0.993052 0.483915 0.624702
O O13 0.312639 0.750000 0.604064
O O14 0.248610 0.500108 0.590182
O O15 0.385774 0.528051 0.570585
O O16 0.686464 0.250000 0.891392
O O17 0.611732 0.033292 0.927752
O O18 0.500000 0.500000 0.500000
O O19 0.535067 0.250000 0.445689
O O20 0.028787 0.250000 0.558187
O O21 0.000000 0.000000 0.500000
#
# Coordination Sequence:
#
# PCOD9462672 Si02
#       8
#     8   8   8   8   8   8   8   8
#     4  10  19  32  51  81 114 141 176 225 277 324
#     4   9  17  32  54  81 109 140 179 225 275 326
#     4  10  19  34  56  80 108 142 181 222 269 326
#     4  10  19  34  58  83 107 139 181 226 274 326
#     4   9  17  32  55  80 106 138 180 224 264 321
#     4   9  19  34  52  78 110 139 173 222 272 322
#     4  10  21  37  55  81 113 145 183 226 270 321
#     4  11  23  39  56  80 114 147 184 227 273 327
#
# _framework density 17.070523999999999
#
# number of rings (size 3 to 8) (size 9 to 14) (size 15 to 20)
#    0.000    2.250    2.500    0.750    0.000    3.000 
#    0.000    1.250    0.000    1.500    0.000    0.000 
#    0.000    0.000    0.000    0.000    0.000    0.000 
#
# Total GULP energy -357063.911351 kJ/mol
# GULP energy per Si atom -5579.123615 kJ/mol
# Density = 1.703167 g / cm^3
# Si number density = 17.070524 Si / 1000 Ang^3
#
#
#
# Elastic Constant Matrix: (Units=GPa)
#
#
# Indices 1 2 3 4 5 6 
#
# 1 186.8453 65.8768 75.9829 0.0000 0.0000 0.0000
# 2 65.8768 35.9264 46.6704 0.0000 0.0000 0.0000
# 3 75.9829 46.6704 92.4926 0.0000 0.0000 0.0000
# 4 0.0000 0.0000 0.0000 27.2756 0.0000 0.0000
# 5 0.0000 0.0000 0.0000 0.0000 25.9106 0.0000
# 6 0.0000 0.0000 0.0000 0.0000 0.0000 28.3919
#
#
#
# Elastic Compliance Matrix: (Units=1/GPa)
#
#
# Indices 1 2 3 4 5 6 
#
# 1 0.015833 -0.035225 0.004767 0.000000 0.000000 0.000000
# 2 -0.035225 0.159162 -0.051374 0.000000 0.000000 0.000000
# 3 0.004767 -0.051374 0.032818 0.000000 0.000000 0.000000
# 4 0.000000 0.000000 0.000000 0.036663 0.000000 0.000000
# 5 0.000000 0.000000 0.000000 0.000000 0.038594 0.000000
# 6 0.000000 0.000000 0.000000 0.000000 0.000000 0.035221
#
#
# Mechanical properties :
#
#
# Convention : Reuss Voigt Hill
#
# Bulk Modulus (GPa) = 22.64996 76.92494 49.78745
# Shear Modulus (GPa) = 10.06707 24.76455 17.41581
#
# Velocity S-wave (km/s) = 2.43108 3.81296 3.19756
# Velocity P-wave (km/s) = 4.60190 8.03404 6.54688
#
# Compressibility (1/GPa) = 0.04415019
#
# Stress axis : x y z
#
# Youngs Moduli (GPa) = 63.16077 6.28293 30.47137
#
# Poissons Ratio (x) = 0.22131 -0.14527
# Poissons Ratio (y) = 2.22481 1.56542
# Poissons Ratio (z) = -0.30110 0.32278
#
# Static dielectric constant tensor:
#      x y z
#    x 1.571120 0.000000 0.000000 
#    y 0.000000 1.566840 0.000000 
#    z 0.000000 0.000000 1.557240 
# 
# From -- ./inp_files/27714.got.cif
#   From: 2010.05.17/outbox.cif.g08.bks.cpg/sg62_14_cif.got.tgz:27714.got - 2010.06.03 15:25:27.
