data_PCOD9462270
_publ_section_title
;
Structure prediction by ZEFSAII (Michael W. Deem and Ramdas Pophale) SiO2 
 PCOD9462270
Probable space group: P N M A
;
_chemical_formula_sum "Si O2"
_cell_formula_units_Z 64
_cell_length_a 18.744662
_cell_length_b 9.207546
_cell_length_c 26.921718
_cell_angle_alpha 90.000000
_cell_angle_beta 90.000000
_cell_angle_gamma 90.000000
_cell_volume 4646.482242
_symmetry_space_group_name_H-M "P N M A"
_symmetry_group_IT_number 62
_symmetry_cell_setting 'orthorhombic'
loop_
_space_group_symop_operation_xyz
x,y,z
1/2-x,-y,1/2+z
1/2+x,1/2-y,1/2-z
-x,1/2+y,-z
-x,-y,-z
1/2+x,y,1/2-z
1/2-x,1/2+y,1/2+z
x,1/2-y,z
loop_
_atom_site_type_symbol
_atom_site_label
_atom_site_fract_x
_atom_site_fract_y
_atom_site_fract_z
Si Si1 0.808071 0.417499 0.197734
Si Si2 0.278981 0.583327 0.698020
Si Si3 0.330790 0.573268 0.854064
Si Si4 0.154816 0.077953 0.648273
Si Si5 0.080736 0.922544 0.556125
Si Si6 0.087580 0.423608 0.452573
Si Si7 0.931478 0.577705 0.249451
Si Si8 0.083075 0.074450 0.255417
O O1 0.827801 0.250000 0.186955
O O2 0.762805 0.415719 0.249157
O O3 0.750292 0.472580 0.157715
O O4 0.877125 0.512701 0.208792
O O5 0.279447 0.750000 0.679947
O O6 0.232932 0.482727 0.662204
O O7 0.358930 0.538155 0.712819
O O8 0.329693 0.750000 0.852900
O O9 0.363215 0.529097 0.906643
O O10 0.382151 0.529487 0.808370
O O11 0.156819 0.250000 0.639900
O O12 0.105025 0.050082 0.696652
O O13 0.121951 0.996483 0.601306
O O14 0.092392 0.750000 0.556005
O O15 0.995468 0.948164 0.561411
O O16 0.102130 0.992491 0.503496
O O17 0.096236 0.250000 0.460170
O O18 0.938728 0.750000 0.243569
O O19 0.007444 0.499670 0.247790
O O20 0.075932 0.250000 0.256152
#
# Coordination Sequence:
#
# PCOD9462270 Si02
#       8
#     8   8   8   8   8   8   8   8
#     4   8  14  26  42  57  75 102 135 166 196 234
#     4   8  15  27  42  59  78 102 134 169 200 234
#     4   8  14  26  44  61  76 102 139 171 199 234
#     4  10  19  29  41  57  80 110 140 169 203 240
#     4  10  19  29  42  59  80 107 138 171 204 239
#     4   9  17  29  43  59  81 106 134 171 208 238
#     4  10  19  27  37  58  85 109 134 165 201 238
#     4   9  16  27  43  61  81 107 138 167 197 237
#
# _framework density 13.773861
#
# number of rings (size 3 to 8) (size 9 to 14) (size 15 to 20)
#    0.000    3.000    0.000    3.375    0.000    3.500 
#    0.000    3.125    0.000    0.000    0.000    0.000 
#    0.000    1.000    0.000    3.000    0.000    4.000 
#
# Total GULP energy -356403.780964 kJ/mol
# GULP energy per Si atom -5568.809078 kJ/mol
# Density = 1.374251 g / cm^3
# Si number density = 13.773861 Si / 1000 Ang^3
#
#
#
# Elastic Constant Matrix: (Units=GPa)
#
#
# Indices 1 2 3 4 5 6 
#
# 1 112.9279 58.1669 56.3945 0.0000 0.0000 0.0000
# 2 58.1669 51.8961 50.4237 0.0000 0.0000 0.0000
# 3 56.3945 50.4237 84.1771 0.0000 0.0000 0.0000
# 4 0.0000 0.0000 0.0000 18.0215 0.0000 0.0000
# 5 0.0000 0.0000 0.0000 0.0000 25.5193 0.0000
# 6 0.0000 0.0000 0.0000 0.0000 0.0000 15.9975
#
#
#
# Elastic Compliance Matrix: (Units=1/GPa)
#
#
# Indices 1 2 3 4 5 6 
#
# 1 0.020950 -0.023553 0.000073 0.000000 0.000000 0.000000
# 2 -0.023553 0.072579 -0.027697 0.000000 0.000000 0.000000
# 3 0.000073 -0.027697 0.028422 0.000000 0.000000 0.000000
# 4 0.000000 0.000000 0.000000 0.055489 0.000000 0.000000
# 5 0.000000 0.000000 0.000000 0.000000 0.039186 0.000000
# 6 0.000000 0.000000 0.000000 0.000000 0.000000 0.062510
#
#
# Mechanical properties :
#
#
# Convention : Reuss Voigt Hill
#
# Bulk Modulus (GPa) = 51.02678 64.33015 57.67847
# Shear Modulus (GPa) = 12.88582 17.50873 15.19727
#
# Velocity S-wave (km/s) = 3.06196 3.56920 3.32526
# Velocity P-wave (km/s) = 7.04466 7.98696 7.53056
#
# Compressibility (1/GPa) = 0.01959755
#
# Stress axis : x y z
#
# Youngs Moduli (GPa) = 47.73193 13.77805 35.18374
#
# Poissons Ratio (x) = 0.32451 -0.00256
# Poissons Ratio (y) = 1.12421 0.97449
# Poissons Ratio (z) = -0.00347 0.38161
#
# Static dielectric constant tensor:
#      x y z
#    x 1.449150 0.000000 0.000000 
#    y 0.000000 1.454780 0.000000 
#    z 0.000000 0.000000 1.435990 
# 
# From -- ./inp_files/30042.got.cif
#   From: 2010.05.17/outbox.cif.g08.bks.cpg/sg62_16_cif.got.tgz:30042.got - 2010.06.03 15:25:27.
