data_PCOD9462194
_publ_section_title
;
Structure prediction by ZEFSAII (Michael W. Deem and Ramdas Pophale) SiO2 
 PCOD9462194
Probable space group: P N M A
;
_chemical_formula_sum "Si O2"
_cell_formula_units_Z 48
_cell_length_a 9.366156
_cell_length_b 14.736661
_cell_length_c 17.343077
_cell_angle_alpha 90.000000
_cell_angle_beta 90.000000
_cell_angle_gamma 90.000000
_cell_volume 2393.793219
_symmetry_space_group_name_H-M "P N M A"
_symmetry_group_IT_number 62
_symmetry_cell_setting 'orthorhombic'
loop_
_space_group_symop_operation_xyz
x,y,z
1/2-x,-y,1/2+z
1/2+x,1/2-y,1/2-z
-x,1/2+y,-z
-x,-y,-z
1/2+x,y,1/2-z
1/2-x,1/2+y,1/2+z
x,1/2-y,z
loop_
_atom_site_type_symbol
_atom_site_label
_atom_site_fract_x
_atom_site_fract_y
_atom_site_fract_z
Si Si1 0.769435 0.551817 0.981245
Si Si2 0.984336 0.750000 0.131033
Si Si3 0.866480 0.250000 0.040994
Si Si4 0.939021 0.435131 0.777479
Si Si5 0.712132 0.750000 0.041028
Si Si6 0.141481 0.437270 0.645700
Si Si7 0.122265 0.250000 0.564179
Si Si8 0.927735 0.445447 0.102714
O O1 0.746145 0.657564 0.995460
O O2 0.652641 0.507913 0.924848
O O3 0.920276 0.535268 0.938757
O O4 0.799019 0.499669 0.061350
O O5 0.023742 0.840669 0.178188
O O6 0.815007 0.750000 0.115174
O O7 0.052568 0.750000 0.043562
O O8 0.902239 0.339752 0.088449
O O9 0.700720 0.250000 0.017617
O O10 0.991876 0.431143 0.689929
O O11 0.036884 0.514561 0.814287
O O12 0.773267 0.453484 0.795376
O O13 0.546630 0.750000 0.059703
O O14 0.170290 0.339513 0.608447
#
# Coordination Sequence:
#
# PCOD9462194 Si02
#       8
#     8   4   4   8   4   8   4   8
#     4  10  19  38  62  90 119 155 204 256 299 364
#     4  12  19  36  65  84 116 151 204 247 298 374
#     4  12  18  40  64  90 115 153 209 253 297 358
#     4  11  23  38  59  89 119 164 200 248 307 366
#     4  12  24  36  62  96 121 155 199 255 322 349
#     4  11  24  41  59  86 127 161 202 245 307 366
#     4  12  25  38  57  94 126 155 190 261 313 359
#     4  10  18  35  66  88 113 156 212 251 293 365
#
# _framework density 20.051859
#
# number of rings (size 3 to 8) (size 9 to 14) (size 15 to 20)
#    0.000    1.000    6.667    1.500    2.333    0.667 
#    3.000    0.833    0.000    0.000    0.000    0.000 
#    0.000    0.000    0.000    0.000    0.000    0.000 
#
# Total GULP energy -267925.872145 kJ/mol
# GULP energy per Si atom -5581.789003 kJ/mol
# Density = 2.000622 g / cm^3
# Si number density = 20.051859 Si / 1000 Ang^3
#
#
#
# Elastic Constant Matrix: (Units=GPa)
#
#
# Indices 1 2 3 4 5 6 
#
# 1 58.1915 -33.2725 -0.3863 0.0000 0.0000 0.0000
# 2 -33.2725 75.1518 15.1099 0.0000 0.0000 0.0000
# 3 -0.3863 15.1099 17.5532 0.0000 0.0000 0.0000
# 4 0.0000 0.0000 0.0000 23.5271 0.0000 0.0000
# 5 0.0000 0.0000 0.0000 0.0000 38.4039 0.0000
# 6 0.0000 0.0000 0.0000 0.0000 0.0000 16.3095
#
#
#
# Elastic Compliance Matrix: (Units=1/GPa)
#
#
# Indices 1 2 3 4 5 6 
#
# 1 0.024556 0.013016 -0.010664 0.000000 0.000000 0.000000
# 2 0.013016 0.022990 -0.019504 0.000000 0.000000 0.000000
# 3 -0.010664 -0.019504 0.073524 0.000000 0.000000 0.000000
# 4 0.000000 0.000000 0.000000 0.042504 0.000000 0.000000
# 5 0.000000 0.000000 0.000000 0.000000 0.026039 0.000000
# 6 0.000000 0.000000 0.000000 0.000000 0.000000 0.061314
#
#
# Mechanical properties :
#
#
# Convention : Reuss Voigt Hill
#
# Bulk Modulus (GPa) = 11.52511 12.64431 12.08471
# Shear Modulus (GPa) = 15.91576 26.94445 21.43010
#
# Velocity S-wave (km/s) = 2.82038 3.66968 3.27270
# Velocity P-wave (km/s) = 4.04551 4.92696 4.50783
#
# Compressibility (1/GPa) = 0.08676706
#
# Stress axis : x y z
#
# Youngs Moduli (GPa) = 40.72317 43.49629 13.60096
#
# Poissons Ratio (x) = -0.56614 0.14504
# Poissons Ratio (y) = -0.53005 0.26527
# Poissons Ratio (z) = 0.43426 0.84835
#
# Static dielectric constant tensor:
#      x y z
#    x 1.739010 0.000000 0.000000 
#    y 0.000000 1.679280 0.000000 
#    z 0.000000 0.000000 1.722950 
# 
# From -- ./inp_files/22253.got.cif
#   From: 2010.05.17/outbox.cif.g08.bks.cpg/sg62_12_cif.got.tgz:22253.got - 2010.06.03 15:25:27.
