data_PCOD9462619
_publ_section_title
;
Structure prediction by ZEFSAII (Michael W. Deem and Ramdas Pophale) SiO2 
 PCOD9462619
Probable space group: P N M A
;
_chemical_formula_sum "Si O2"
_cell_formula_units_Z 64
_cell_length_a 23.747032
_cell_length_b 8.891418
_cell_length_c 19.453475
_cell_angle_alpha 90.000000
_cell_angle_beta 90.000000
_cell_angle_gamma 90.000000
_cell_volume 4107.499850
_symmetry_space_group_name_H-M "P N M A"
_symmetry_group_IT_number 62
_symmetry_cell_setting 'orthorhombic'
loop_
_space_group_symop_operation_xyz
x,y,z
1/2-x,-y,1/2+z
1/2+x,1/2-y,1/2-z
-x,1/2+y,-z
-x,-y,-z
1/2+x,y,1/2-z
1/2-x,1/2+y,1/2+z
x,1/2-y,z
loop_
_atom_site_type_symbol
_atom_site_label
_atom_site_fract_x
_atom_site_fract_y
_atom_site_fract_z
Si Si1 0.233953 0.570866 0.849552
Si Si2 0.838813 0.429227 0.731008
Si Si3 0.064430 0.069947 0.350602
Si Si4 0.624719 0.429398 0.003933
Si Si5 0.435830 0.069498 0.126859
Si Si6 0.828084 0.071136 0.287364
Si Si7 0.249344 0.928891 0.492794
Si Si8 0.724708 0.571474 0.367799
O O1 0.238557 0.750000 0.859135
O O2 0.292068 0.510077 0.816545
O O3 0.186658 0.539157 0.791868
O O4 0.225148 0.492191 0.922226
O O5 0.834003 0.250000 0.721221
O O6 0.899197 0.487349 0.707138
O O7 0.821868 0.463225 0.809699
O O8 0.067231 0.250000 0.339590
O O9 0.093748 0.038240 0.424065
O O10 0.999211 0.024584 0.354640
O O11 0.632360 0.250000 0.998236
O O12 0.587184 0.489465 0.941281
O O13 0.685560 0.507558 0.002658
O O14 0.435937 0.250000 0.114701
O O15 0.390795 0.038411 0.187088
O O16 0.817704 0.250000 0.298161
O O17 0.783647 0.981314 0.333867
O O18 0.247539 0.750000 0.491859
O O19 0.281287 0.987728 0.560224
O O20 0.726104 0.750000 0.379047
#
# Coordination Sequence:
#
# PCOD9462619 Si02
#       8
#     8   8   8   8   8   8   8   8
#     4  10  19  32  50  71  97 128 161 201 249 295
#     4  10  20  33  50  72  97 128 165 204 246 290
#     4  10  21  34  49  69 100 137 172 205 240 285
#     4  11  21  32  46  69  99 136 171 203 239 281
#     4  10  20  34  50  71  98 134 173 206 240 285
#     4   9  18  32  50  71  97 128 162 202 246 291
#     4  12  22  32  49  73  99 132 164 200 246 296
#     4  10  20  33  50  72  98 126 161 205 248 294
#
# _framework density 15.581253999999999
#
# number of rings (size 3 to 8) (size 9 to 14) (size 15 to 20)
#    0.000    1.750    2.500    3.000    0.000    3.000 
#    0.000    0.000    0.000    0.000    0.000    0.875 
#    0.000    0.000    0.000    0.000    0.000    0.000 
#
# Total GULP energy -357290.005421 kJ/mol
# GULP energy per Si atom -5582.656335 kJ/mol
# Density = 1.554579 g / cm^3
# Si number density = 15.581254 Si / 1000 Ang^3
#
#
#
# Elastic Constant Matrix: (Units=GPa)
#
#
# Indices 1 2 3 4 5 6 
#
# 1 65.5170 33.7884 41.7959 0.0000 0.0000 0.0000
# 2 33.7884 60.6559 57.4858 0.0000 0.0000 0.0000
# 3 41.7959 57.4858 116.0591 0.0000 0.0000 0.0000
# 4 0.0000 0.0000 0.0000 25.3242 0.0000 0.0000
# 5 0.0000 0.0000 0.0000 0.0000 17.6634 0.0000
# 6 0.0000 0.0000 0.0000 0.0000 0.0000 15.4318
#
#
#
# Elastic Compliance Matrix: (Units=1/GPa)
#
#
# Indices 1 2 3 4 5 6 
#
# 1 0.022151 -0.009007 -0.003516 0.000000 0.000000 0.000000
# 2 -0.009007 0.034736 -0.013961 0.000000 0.000000 0.000000
# 3 -0.003516 -0.013961 0.016798 0.000000 0.000000 0.000000
# 4 0.000000 0.000000 0.000000 0.039488 0.000000 0.000000
# 5 0.000000 0.000000 0.000000 0.000000 0.056614 0.000000
# 6 0.000000 0.000000 0.000000 0.000000 0.000000 0.064801
#
#
# Mechanical properties :
#
#
# Convention : Reuss Voigt Hill
#
# Bulk Modulus (GPa) = 48.27247 56.48581 52.37914
# Shear Modulus (GPa) = 16.98009 18.96134 17.97072
#
# Velocity S-wave (km/s) = 3.30476 3.49224 3.39979
# Velocity P-wave (km/s) = 6.75354 7.25204 7.00722
#
# Compressibility (1/GPa) = 0.02071574
#
# Stress axis : x y z
#
# Youngs Moduli (GPa) = 45.14396 28.78884 59.53201
#
# Poissons Ratio (x) = 0.25931 0.20930
# Poissons Ratio (y) = 0.40663 0.83115
# Poissons Ratio (z) = 0.15872 0.40193
#
# Static dielectric constant tensor:
#      x y z
#    x 1.499080 0.000000 0.000000 
#    y 0.000000 1.520950 0.000000 
#    z 0.000000 0.000000 1.523450 
# 
# From -- ./inp_files/24938.got.cif
#   From: 2010.05.17/outbox.cif.g08.bks.cpg/sg62_13_cif.got.tgz:24938.got - 2010.06.03 15:25:27.
