data_PCOD9462775
_publ_section_title
;
Structure prediction by ZEFSAII (Michael W. Deem and Ramdas Pophale) SiO2 
 PCOD9462775
Probable space group: P N M A
;
_chemical_formula_sum "Si O2"
_cell_formula_units_Z 64
_cell_length_a 19.951097
_cell_length_b 8.878093
_cell_length_c 20.970292
_cell_angle_alpha 90.000000
_cell_angle_beta 90.000000
_cell_angle_gamma 90.000000
_cell_volume 3714.419477
_symmetry_space_group_name_H-M "P N M A"
_symmetry_group_IT_number 62
_symmetry_cell_setting 'orthorhombic'
loop_
_space_group_symop_operation_xyz
x,y,z
1/2-x,-y,1/2+z
1/2+x,1/2-y,1/2-z
-x,1/2+y,-z
-x,-y,-z
1/2+x,y,1/2-z
1/2-x,1/2+y,1/2+z
x,1/2-y,z
loop_
_atom_site_type_symbol
_atom_site_label
_atom_site_fract_x
_atom_site_fract_y
_atom_site_fract_z
Si Si1 0.792120 0.069869 0.189446
Si Si2 0.072192 0.571166 0.234286
Si Si3 0.069998 0.430275 0.615479
Si Si4 0.784820 0.570734 0.561367
Si Si5 0.081990 0.571138 0.386257
Si Si6 0.934118 0.071542 0.244325
Si Si7 0.782428 0.069668 0.810336
Si Si8 0.295181 0.428996 0.070467
O O1 0.781626 0.250000 0.197572
O O2 0.762317 0.027804 0.120941
O O3 0.870905 0.040321 0.199119
O O4 0.753253 0.985677 0.245794
O O5 0.059896 0.750000 0.227314
O O6 0.085676 0.545489 0.309811
O O7 0.139018 0.530297 0.196081
O O8 0.005258 0.481688 0.217166
O O9 0.077583 0.250000 0.612950
O O10 0.076132 0.484499 0.688869
O O11 0.128965 0.509132 0.576988
O O12 0.994154 0.467827 0.594224
O O13 0.781477 0.750000 0.552409
O O14 0.860119 0.522177 0.580288
O O15 0.766532 0.488194 0.496171
O O16 0.092427 0.750000 0.397410
O O17 0.935554 0.250000 0.257766
O O18 0.776639 0.250000 0.814926
O O19 0.746329 0.994221 0.870161
O O20 0.295896 0.250000 0.073086
#
# Coordination Sequence:
#
# PCOD9462775 Si02
#       8
#     8   8   8   8   8   8   8   8
#     4  10  21  36  56  85 114 143 184 232 276 327
#     4   9  19  34  54  83 114 144 182 226 274 330
#     4  10  20  35  54  78 111 150 188 226 271 329
#     4  11  23  38  56  79 111 150 189 228 279 333
#     4   9  18  34  53  78 111 145 185 227 268 322
#     4  10  19  32  54  84 115 145 179 227 278 324
#     4  11  21  36  60  84 110 146 186 230 279 329
#     4  12  25  39  55  79 112 147 189 235 280 333
#
# _framework density 17.230148
#
# number of rings (size 3 to 8) (size 9 to 14) (size 15 to 20)
#    0.000    1.750    2.500    3.375    0.000    5.000 
#    0.000    0.000    0.000    0.750    0.000    0.000 
#    0.000    0.000    0.000    0.000    0.000    0.000 
#
# Total GULP energy -357444.852993 kJ/mol
# GULP energy per Si atom -5585.075828 kJ/mol
# Density = 1.719093 g / cm^3
# Si number density = 17.230148 Si / 1000 Ang^3
#
#
#
# Elastic Constant Matrix: (Units=GPa)
#
#
# Indices 1 2 3 4 5 6 
#
# 1 81.9892 38.6798 25.2782 0.0000 0.0000 0.0000
# 2 38.6798 57.6794 29.7650 0.0000 0.0000 0.0000
# 3 25.2782 29.7650 54.1843 0.0000 0.0000 0.0000
# 4 0.0000 0.0000 0.0000 25.2199 0.0000 0.0000
# 5 0.0000 0.0000 0.0000 0.0000 15.0641 0.0000
# 6 0.0000 0.0000 0.0000 0.0000 0.0000 183.7711
#
#
#
# Elastic Compliance Matrix: (Units=1/GPa)
#
#
# Indices 1 2 3 4 5 6 
#
# 1 0.018076 -0.010844 -0.002476 0.000000 0.000000 0.000000
# 2 -0.010844 0.030702 -0.011806 0.000000 0.000000 0.000000
# 3 -0.002476 -0.011806 0.026096 0.000000 0.000000 0.000000
# 4 0.000000 0.000000 0.000000 0.039651 0.000000 0.000000
# 5 0.000000 0.000000 0.000000 0.000000 0.066383 0.000000
# 6 0.000000 0.000000 0.000000 0.000000 0.000000 0.005442
#
#
# Mechanical properties :
#
#
# Convention : Reuss Voigt Hill
#
# Bulk Modulus (GPa) = 40.61530 42.36655 41.49092
# Shear Modulus (GPa) = 20.42403 51.48635 35.95519
#
# Velocity S-wave (km/s) = 3.44665 5.47233 4.57306
# Velocity P-wave (km/s) = 6.28193 8.03558 7.21225
#
# Compressibility (1/GPa) = 0.02462127
#
# Stress axis : x y z
#
# Youngs Moduli (GPa) = 55.32208 32.57127 38.31969
#
# Poissons Ratio (x) = 0.35321 0.09488
# Poissons Ratio (y) = 0.59992 0.45242
# Poissons Ratio (z) = 0.13697 0.38455
#
# Static dielectric constant tensor:
#      x y z
#    x 1.591640 0.000000 0.000000 
#    y 0.000000 1.575620 0.000000 
#    z 0.000000 0.000000 1.570090 
# 
# From -- ./inp_files/24805.got.cif
#   From: 2010.05.17/outbox.cif.g08.bks.cpg/sg62_13_cif.got.tgz:24805.got - 2010.06.03 15:25:27.
