data_PCOD9462635
_publ_section_title
;
Structure prediction by ZEFSAII (Michael W. Deem and Ramdas Pophale) SiO2 
 PCOD9462635
Probable space group: P N M A
;
_chemical_formula_sum "Si O2"
_cell_formula_units_Z 56
_cell_length_a 15.273071
_cell_length_b 7.930726
_cell_length_c 22.378128
_cell_angle_alpha 90.000000
_cell_angle_beta 90.000000
_cell_angle_gamma 90.000000
_cell_volume 2710.585245
_symmetry_space_group_name_H-M "P N M A"
_symmetry_group_IT_number 62
_symmetry_cell_setting 'orthorhombic'
loop_
_space_group_symop_operation_xyz
x,y,z
1/2-x,-y,1/2+z
1/2+x,1/2-y,1/2-z
-x,1/2+y,-z
-x,-y,-z
1/2+x,y,1/2-z
1/2-x,1/2+y,1/2+z
x,1/2-y,z
loop_
_atom_site_type_symbol
_atom_site_label
_atom_site_fract_x
_atom_site_fract_y
_atom_site_fract_z
Si Si1 0.711490 0.451584 0.887692
Si Si2 0.668076 0.453928 0.283939
Si Si3 0.511940 0.456630 0.370011
Si Si4 0.355460 0.545820 0.852809
Si Si5 0.521849 0.050522 0.931735
Si Si6 0.671755 0.944959 0.604073
Si Si7 0.367370 0.553186 0.525763
O O1 0.715318 0.250000 0.896718
O O2 0.746375 0.487603 0.820624
O O3 0.614754 0.515030 0.905681
O O4 0.783016 0.534519 0.931382
O O5 0.670296 0.250000 0.284636
O O6 0.582475 0.509999 0.321093
O O7 0.655539 0.508809 0.215880
O O8 0.511068 0.250000 0.369950
O O9 0.413069 0.518606 0.362638
O O10 0.551511 0.507731 0.434097
O O11 0.357547 0.750000 0.853654
O O12 0.442049 0.492383 0.887733
O O13 0.267410 0.481841 0.885287
O O14 0.531051 0.250000 0.932764
O O15 0.500000 0.000000 0.000000
O O16 0.677406 0.750000 0.623287
O O17 0.648927 0.953617 0.534469
O O18 0.379258 0.750000 0.511127
#
# Coordination Sequence:
#
# PCOD9462635 Si02
#       7
#     8   8   8   8   8   8   8
#     4  10  21  37  57  81 109 144 183 226 275 328
#     4   9  19  37  58  82 109 141 182 224 269 327
#     4   8  16  31  51  74 104 138 173 212 257 314
#     4  10  22  37  56  82 111 143 182 227 275 327
#     4  11  24  40  59  83 113 150 193 239 289 338
#     4  10  19  32  50  75 106 138 170 212 266 319
#     4  10  19  32  52  79 107 138 175 216 263 319
#
# _framework density 20.659745999999998
#
# number of rings (size 3 to 8) (size 9 to 14) (size 15 to 20)
#    0.000    2.286    0.000    3.429    0.000    8.000 
#    0.000    5.714    0.000    0.000    0.000    0.000 
#    0.000    0.000    0.000    0.000    0.000    0.000 
#
# Total GULP energy -312495.345536 kJ/mol
# GULP energy per Si atom -5580.274027 kJ/mol
# Density = 2.061272 g / cm^3
# Si number density = 20.659746 Si / 1000 Ang^3
#
#
#
# Elastic Constant Matrix: (Units=GPa)
#
#
# Indices 1 2 3 4 5 6 
#
# 1 161.1344 2.8578 46.1322 0.0000 0.0000 0.0000
# 2 2.8578 30.2797 -0.2713 0.0000 0.0000 0.0000
# 3 46.1322 -0.2713 94.6408 0.0000 0.0000 0.0000
# 4 0.0000 0.0000 0.0000 20.3920 0.0000 0.0000
# 5 0.0000 0.0000 0.0000 0.0000 20.0230 0.0000
# 6 0.0000 0.0000 0.0000 0.0000 0.0000 17.1707
#
#
#
# Elastic Compliance Matrix: (Units=1/GPa)
#
#
# Indices 1 2 3 4 5 6 
#
# 1 0.007228 -0.000714 -0.003525 0.000000 0.000000 0.000000
# 2 -0.000714 0.033097 0.000443 0.000000 0.000000 0.000000
# 3 -0.003525 0.000443 0.012286 0.000000 0.000000 0.000000
# 4 0.000000 0.000000 0.000000 0.049039 0.000000 0.000000
# 5 0.000000 0.000000 0.000000 0.000000 0.049943 0.000000
# 6 0.000000 0.000000 0.000000 0.000000 0.000000 0.058239
#
#
# Mechanical properties :
#
#
# Convention : Reuss Voigt Hill
#
# Bulk Modulus (GPa) = 22.21328 42.61027 32.41177
# Shear Modulus (GPa) = 21.51191 27.33955 24.42573
#
# Velocity S-wave (km/s) = 3.23034 3.64170 3.44217
# Velocity P-wave (km/s) = 4.96878 6.19291 5.61431
#
# Compressibility (1/GPa) = 0.04501811
#
# Stress axis : x y z
#
# Youngs Moduli (GPa) = 138.35221 30.21448 81.39401
#
# Poissons Ratio (x) = 0.02157 0.28694
# Poissons Ratio (y) = 0.09875 -0.03604
# Poissons Ratio (z) = 0.48773 -0.01338
#
# Static dielectric constant tensor:
#      x y z
#    x 1.764470 0.000000 0.000000 
#    y 0.000000 1.751220 0.000000 
#    z 0.000000 0.000000 1.749590 
# 
# From -- ./inp_files/27304.got.cif
#   From: 2010.05.17/outbox.cif.g08.bks.cpg/sg62_14_cif.got.tgz:27304.got - 2010.06.03 15:25:27.
