data_PCOD9462548
_publ_section_title
;
Structure prediction by ZEFSAII (Michael W. Deem and Ramdas Pophale) SiO2 
 PCOD9462548
Probable space group: P N M A
;
_chemical_formula_sum "Si O2"
_cell_formula_units_Z 64
_cell_length_a 20.049581
_cell_length_b 7.540828
_cell_length_c 20.632043
_cell_angle_alpha 90.000000
_cell_angle_beta 90.000000
_cell_angle_gamma 90.000000
_cell_volume 3119.367696
_symmetry_space_group_name_H-M "P N M A"
_symmetry_group_IT_number 62
_symmetry_cell_setting 'orthorhombic'
loop_
_space_group_symop_operation_xyz
x,y,z
1/2-x,-y,1/2+z
1/2+x,1/2-y,1/2-z
-x,1/2+y,-z
-x,-y,-z
1/2+x,y,1/2-z
1/2-x,1/2+y,1/2+z
x,1/2-y,z
loop_
_atom_site_type_symbol
_atom_site_label
_atom_site_fract_x
_atom_site_fract_y
_atom_site_fract_z
Si Si1 0.770360 0.539844 0.148034
Si Si2 0.762460 0.961744 0.292622
Si Si3 0.412016 0.454430 0.183253
Si Si4 0.968696 0.537275 0.930453
Si Si5 0.577388 0.535103 0.671522
Si Si6 0.065367 0.537037 0.541865
Si Si7 0.819686 0.538387 0.914834
Si Si8 0.706741 0.967767 0.015190
O O1 0.757945 0.750000 0.149172
O O2 0.751655 0.470714 0.219484
O O3 0.850125 0.513768 0.143005
O O4 0.730185 0.470803 0.086253
O O5 0.772162 0.750000 0.289963
O O6 0.831437 0.040823 0.319771
O O7 0.703926 0.003321 0.341975
O O8 0.434493 0.250000 0.185509
O O9 0.428134 0.531730 0.254239
O O10 0.438370 0.532890 0.115877
O O11 0.965340 0.750000 0.922320
O O12 0.893498 0.467043 0.927037
O O13 0.018200 0.471173 0.874428
O O14 0.000000 0.500000 0.000000
O O15 0.576381 0.750000 0.673780
O O16 0.071993 0.750000 0.547271
O O17 0.133349 0.474095 0.507202
O O18 0.000000 0.500000 0.500000
O O19 0.822073 0.750000 0.924674
O O20 0.762604 0.472473 0.963648
O O21 0.706570 0.750000 0.015363
#
# Coordination Sequence:
#
# PCOD9462548 Si02
#       8
#     8   8   8   8   8   8   8   8
#     4   9  18  33  54  78 104 135 172 211 255 309
#     4  10  19  31  51  79 105 128 165 218 261 297
#     4   9  17  34  57  74  99 139 175 206 252 314
#     4  10  21  35  53  78 108 141 177 217 261 311
#     4   9  18  33  53  79 108 137 173 215 255 299
#     4  10  20  35  54  75 101 134 172 215 261 308
#     4  10  19  34  55  75 100 141 180 208 251 316
#     4   9  17  33  55  74  96 133 175 207 248 309
#
# _framework density 20.516978000000002
#
# number of rings (size 3 to 8) (size 9 to 14) (size 15 to 20)
#    0.000    2.500    1.250    1.125    0.000    3.000 
#    2.250    1.250    0.000    0.000    0.000    0.000 
#    0.000    0.000    0.000    0.000    0.000    0.000 
#
# Total GULP energy -357181.455181 kJ/mol
# GULP energy per Si atom -5580.960237 kJ/mol
# Density = 2.047028 g / cm^3
# Si number density = 20.516978 Si / 1000 Ang^3
#
#
#
# Elastic Constant Matrix: (Units=GPa)
#
#
# Indices 1 2 3 4 5 6 
#
# 1 149.2586 -6.7188 110.1137 0.0000 0.0000 0.0000
# 2 -6.7188 45.2741 -1.9509 0.0000 0.0000 0.0000
# 3 110.1137 -1.9509 163.1467 0.0000 0.0000 0.0000
# 4 0.0000 0.0000 0.0000 4.6209 0.0000 0.0000
# 5 0.0000 0.0000 0.0000 0.0000 34.8811 0.0000
# 6 0.0000 0.0000 0.0000 0.0000 0.0000 12.5067
#
#
#
# Elastic Compliance Matrix: (Units=1/GPa)
#
#
# Indices 1 2 3 4 5 6 
#
# 1 0.013460 0.001607 -0.009065 0.000000 0.000000 0.000000
# 2 0.001607 0.022291 -0.000818 0.000000 0.000000 0.000000
# 3 -0.009065 -0.000818 0.012238 0.000000 0.000000 0.000000
# 4 0.000000 0.000000 0.000000 0.216406 0.000000 0.000000
# 5 0.000000 0.000000 0.000000 0.000000 0.028669 0.000000
# 6 0.000000 0.000000 0.000000 0.000000 0.000000 0.079957
#
#
# Mechanical properties :
#
#
# Convention : Reuss Voigt Hill
#
# Bulk Modulus (GPa) = 31.81059 62.28526 47.04792
# Shear Modulus (GPa) = 12.49834 27.48413 19.99123
#
# Velocity S-wave (km/s) = 2.47082 3.66400 3.12488
# Velocity P-wave (km/s) = 4.86601 6.95152 6.00007
#
# Compressibility (1/GPa) = 0.03143608
#
# Stress axis : x y z
#
# Youngs Moduli (GPa) = 74.29399 44.86139 81.71084
#
# Poissons Ratio (x) = -0.07209 0.74075
# Poissons Ratio (y) = -0.11938 0.06684
# Poissons Ratio (z) = 0.67351 0.03670
#
# Static dielectric constant tensor:
#      x y z
#    x 1.686270 0.000000 0.000000 
#    y 0.000000 1.783630 0.000000 
#    z 0.000000 0.000000 1.742610 
# 
# From -- ./inp_files/27685.got.cif
#   From: 2010.05.17/outbox.cif.g08.bks.cpg/sg62_14_cif.got.tgz:27685.got - 2010.06.03 15:25:27.
