data_PCOD9462531
_publ_section_title
;
Structure prediction by ZEFSAII (Michael W. Deem and Ramdas Pophale) SiO2 
 PCOD9462531
Probable space group: P N M A
;
_chemical_formula_sum "Si O2"
_cell_formula_units_Z 48
_cell_length_a 9.701961
_cell_length_b 11.196882
_cell_length_c 24.062003
_cell_angle_alpha 90.000000
_cell_angle_beta 90.000000
_cell_angle_gamma 90.000000
_cell_volume 2613.896592
_symmetry_space_group_name_H-M "P N M A"
_symmetry_group_IT_number 62
_symmetry_cell_setting 'orthorhombic'
loop_
_space_group_symop_operation_xyz
x,y,z
1/2-x,-y,1/2+z
1/2+x,1/2-y,1/2-z
-x,1/2+y,-z
-x,-y,-z
1/2+x,y,1/2-z
1/2-x,1/2+y,1/2+z
x,1/2-y,z
loop_
_atom_site_type_symbol
_atom_site_label
_atom_site_fract_x
_atom_site_fract_y
_atom_site_fract_z
Si Si1 0.234699 0.110470 0.367089
Si Si2 0.630311 0.250000 0.825908
Si Si3 0.811591 0.495914 0.366626
Si Si4 0.996336 0.612093 0.541720
Si Si5 0.563588 0.750000 0.277664
Si Si6 0.001565 0.389648 0.281477
Si Si7 0.491950 0.497450 0.663890
O O1 0.269950 0.250000 0.356420
O O2 0.145053 0.106051 0.422932
O O3 0.133384 0.067706 0.317283
O O4 0.370785 0.031853 0.368337
O O5 0.638806 0.366831 0.864522
O O6 0.498657 0.250000 0.784668
O O7 0.769886 0.250000 0.787067
O O8 0.885542 0.416564 0.412817
O O9 0.865365 0.449188 0.306865
O O10 0.648027 0.490632 0.370531
O O11 0.010475 0.750000 0.520841
O O12 0.000000 0.500000 0.500000
O O13 0.507898 0.866560 0.309049
O O14 0.991157 0.250000 0.292165
O O15 0.016260 0.416180 0.217223
#
# Coordination Sequence:
#
# PCOD9462531 Si02
#       7
#     8   4   8   8   4   8   8
#     4   9  20  36  55  82 113 144 184 230 275 326
#     4  10  20  34  52  80 116 156 190 224 272 317
#     4  10  21  35  56  80 112 147 187 229 275 330
#     4  10  23  44  65  86 107 137 185 240 292 344
#     4  10  22  32  48  80 122 158 192 226 258 319
#     4  10  19  31  50  79 113 151 188 219 262 326
#     4  11  20  33  51  82 116 153 184 223 272 325
#
# _framework density 18.363388
#
# number of rings (size 3 to 8) (size 9 to 14) (size 15 to 20)
#    0.000    2.000    1.667    3.000    3.500    4.000 
#    1.500    0.833    0.000    0.000    0.000    0.000 
#    0.000    0.000    0.000    0.000    0.000    0.000 
#
# Total GULP energy -267773.305626 kJ/mol
# GULP energy per Si atom -5578.610534 kJ/mol
# Density = 1.832159 g / cm^3
# Si number density = 18.363388 Si / 1000 Ang^3
#
#
#
# Elastic Constant Matrix: (Units=GPa)
#
#
# Indices 1 2 3 4 5 6 
#
# 1 72.0149 30.2433 4.3424 0.0000 0.0000 0.0000
# 2 30.2433 85.8336 14.4899 0.0000 0.0000 0.0000
# 3 4.3424 14.4899 37.7423 0.0000 0.0000 0.0000
# 4 0.0000 0.0000 0.0000 25.1238 0.0000 0.0000
# 5 0.0000 0.0000 0.0000 0.0000 5.7473 0.0000
# 6 0.0000 0.0000 0.0000 0.0000 0.0000 20.5702
#
#
#
# Elastic Compliance Matrix: (Units=1/GPa)
#
#
# Indices 1 2 3 4 5 6 
#
# 1 0.016302 -0.005803 0.000352 0.000000 0.000000 0.000000
# 2 -0.005803 0.014524 -0.004908 0.000000 0.000000 0.000000
# 3 0.000352 -0.004908 0.028339 0.000000 0.000000 0.000000
# 4 0.000000 0.000000 0.000000 0.039803 0.000000 0.000000
# 5 0.000000 0.000000 0.000000 0.000000 0.173994 0.000000
# 6 0.000000 0.000000 0.000000 0.000000 0.000000 0.048614
#
#
# Mechanical properties :
#
#
# Convention : Reuss Voigt Hill
#
# Bulk Modulus (GPa) = 26.01012 32.63801 29.32406
# Shear Modulus (GPa) = 14.08013 20.05594 17.06804
#
# Velocity S-wave (km/s) = 2.77203 3.30838 3.05201
# Velocity P-wave (km/s) = 4.94372 5.69262 5.33134
#
# Compressibility (1/GPa) = 0.03844658
#
# Stress axis : x y z
#
# Youngs Moduli (GPa) = 61.34220 68.85221 35.28673
#
# Poissons Ratio (x) = 0.39958 -0.01244
# Poissons Ratio (y) = 0.35600 0.17320
# Poissons Ratio (z) = -0.02162 0.33794
#
# Static dielectric constant tensor:
#      x y z
#    x 1.644100 0.000000 0.000000 
#    y 0.000000 1.692340 0.000000 
#    z 0.000000 0.000000 1.620160 
# 
# From -- ./inp_files/28817.got.cif
#   From: 2010.05.17/outbox.cif.g08.bks.cpg/sg62_15_cif.got.tgz:28817.got - 2010.06.03 15:25:27.
