data_PCOD9462355
_publ_section_title
;
Structure prediction by ZEFSAII (Michael W. Deem and Ramdas Pophale) SiO2 
 PCOD9462355
Probable space group: P N M A
;
_chemical_formula_sum "Si O2"
_cell_formula_units_Z 48
_cell_length_a 14.593372
_cell_length_b 9.636087
_cell_length_c 16.225053
_cell_angle_alpha 90.000000
_cell_angle_beta 90.000000
_cell_angle_gamma 90.000000
_cell_volume 2281.615664
_symmetry_space_group_name_H-M "P N M A"
_symmetry_group_IT_number 62
_symmetry_cell_setting 'orthorhombic'
loop_
_space_group_symop_operation_xyz
x,y,z
1/2-x,-y,1/2+z
1/2+x,1/2-y,1/2-z
-x,1/2+y,-z
-x,-y,-z
1/2+x,y,1/2-z
1/2-x,1/2+y,1/2+z
x,1/2-y,z
loop_
_atom_site_type_symbol
_atom_site_label
_atom_site_fract_x
_atom_site_fract_y
_atom_site_fract_z
Si Si1 0.022063 0.410194 0.419470
Si Si2 0.503723 0.906590 0.418112
Si Si3 0.758513 0.588790 0.603625
Si Si4 0.781681 0.405630 0.928366
Si Si5 0.505888 0.410435 0.266092
Si Si6 0.770842 0.589820 0.781752
O O1 0.993627 0.250000 0.432354
O O2 0.132093 0.411573 0.408659
O O3 0.985887 0.454020 0.328463
O O4 0.000000 0.500000 0.500000
O O5 0.465665 0.750000 0.428030
O O6 0.612615 0.890568 0.404686
O O7 0.500000 0.000000 0.500000
O O8 0.469007 0.991318 0.338556
O O9 0.727607 0.750000 0.605981
O O10 0.720030 0.527897 0.519342
O O11 0.738794 0.530738 0.693783
O O12 0.740548 0.250000 0.931818
O O13 0.738698 0.501337 0.859008
O O14 0.476479 0.250000 0.277197
O O15 0.617477 0.408731 0.275969
O O16 0.742914 0.750000 0.790320
#
# Coordination Sequence:
#
# PCOD9462355 Si02
#       6
#     8   8   8   8   8   8
#     4   9  17  30  49  70  92 120 151 185 225 267
#     4  10  19  30  47  69  91 118 151 188 228 268
#     4   8  15  30  49  66  89 121 150 178 221 271
#     4   9  17  30  48  68  89 116 150 185 221 263
#     4   8  15  29  47  65  87 118 154 186 218 263
#     4   8  14  27  47  66  85 115 151 182 216 262
#
# _framework density 21.037724999999998
#
# number of rings (size 3 to 8) (size 9 to 14) (size 15 to 20)
#    0.000    3.333    0.000    2.500    0.000    1.333 
#    0.000    5.833    0.000    6.000    0.000    0.000 
#    0.000    0.000    0.000    0.000    0.000    0.000 
#
# Total GULP energy -267408.048627 kJ/mol
# GULP energy per Si atom -5571.001013 kJ/mol
# Density = 2.098984 g / cm^3
# Si number density = 21.037725 Si / 1000 Ang^3
#
#
#
# Elastic Constant Matrix: (Units=GPa)
#
#
# Indices 1 2 3 4 5 6 
#
# 1 35.4736 6.0733 -3.0026 0.0000 0.0000 0.0000
# 2 6.0733 103.0835 105.7474 0.0000 0.0000 0.0000
# 3 -3.0026 105.7474 211.3599 0.0000 0.0000 0.0000
# 4 0.0000 0.0000 0.0000 39.7746 0.0000 0.0000
# 5 0.0000 0.0000 0.0000 0.0000 22.9727 0.0000
# 6 0.0000 0.0000 0.0000 0.0000 0.0000 0.9941
#
#
#
# Elastic Compliance Matrix: (Units=1/GPa)
#
#
# Indices 1 2 3 4 5 6 
#
# 1 0.029165 -0.004403 0.002617 0.000000 0.000000 0.000000
# 2 -0.004403 0.020595 -0.010366 0.000000 0.000000 0.000000
# 3 0.002617 -0.010366 0.009955 0.000000 0.000000 0.000000
# 4 0.000000 0.000000 0.000000 0.025142 0.000000 0.000000
# 5 0.000000 0.000000 0.000000 0.000000 0.043530 0.000000
# 6 0.000000 0.000000 0.000000 0.000000 0.000000 1.005893
#
#
# Mechanical properties :
#
#
# Convention : Reuss Voigt Hill
#
# Bulk Modulus (GPa) = 28.24045 63.06148 45.65096
# Shear Modulus (GPa) = 4.27209 28.82155 16.54682
#
# Velocity S-wave (km/s) = 1.42657 3.70536 2.80756
# Velocity P-wave (km/s) = 4.02073 6.95318 5.67948
#
# Compressibility (1/GPa) = 0.03541020
#
# Stress axis : x y z
#
# Youngs Moduli (GPa) = 34.28721 48.55634 100.45225
#
# Poissons Ratio (x) = 0.21381 -0.26293
# Poissons Ratio (y) = 0.15098 1.04133
# Poissons Ratio (z) = -0.08974 0.50336
#
# Static dielectric constant tensor:
#      x y z
#    x 1.832130 0.000000 0.000000 
#    y 0.000000 1.771650 0.000000 
#    z 0.000000 0.000000 1.781140 
# 
# From -- ./inp_files/15143.got.cif
#   From: 2010.05.17/outbox.cif.g08.bks.cpg/sg62_8_cif.got.tgz:15143.got - 2010.06.03 15:25:27.
