data_PCOD9462192
_publ_section_title
;
Structure prediction by ZEFSAII (Michael W. Deem and Ramdas Pophale) SiO2 
 PCOD9462192
Probable space group: P N M A
;
_chemical_formula_sum "Si O2"
_cell_formula_units_Z 64
_cell_length_a 31.581222
_cell_length_b 7.610645
_cell_length_c 12.112306
_cell_angle_alpha 90.000000
_cell_angle_beta 90.000000
_cell_angle_gamma 90.000000
_cell_volume 2911.234768
_symmetry_space_group_name_H-M "P N M A"
_symmetry_group_IT_number 62
_symmetry_cell_setting 'orthorhombic'
loop_
_space_group_symop_operation_xyz
x,y,z
1/2-x,-y,1/2+z
1/2+x,1/2-y,1/2-z
-x,1/2+y,-z
-x,-y,-z
1/2+x,y,1/2-z
1/2-x,1/2+y,1/2+z
x,1/2-y,z
loop_
_atom_site_type_symbol
_atom_site_label
_atom_site_fract_x
_atom_site_fract_y
_atom_site_fract_z
Si Si1 0.874171 0.463576 0.419547
Si Si2 0.930282 0.464848 0.007493
Si Si3 0.965251 0.453394 0.782227
Si Si4 0.301526 0.464810 0.247446
Si Si5 0.792808 0.545193 0.789162
Si Si6 0.622889 0.454315 0.175307
Si Si7 0.945909 0.046949 0.254414
Si Si8 0.833445 0.462199 0.012290
O O1 0.874876 0.250000 0.426069
O O2 0.832238 0.517684 0.352289
O O3 0.875203 0.530191 0.543791
O O4 0.914510 0.525227 0.346939
O O5 0.932547 0.250000 0.005336
O O6 0.941093 0.527426 0.130511
O O7 0.881550 0.514026 0.985220
O O8 0.958843 0.528561 0.905979
O O9 0.976678 0.250000 0.791396
O O10 0.920249 0.464873 0.721888
O O11 0.004461 0.539364 0.719245
O O12 0.301202 0.250000 0.245884
O O13 0.253420 0.528985 0.236718
O O14 0.321272 0.518200 0.364574
O O15 0.790967 0.750000 0.756064
O O16 0.834011 0.468286 0.727784
O O17 0.802333 0.531819 0.918889
O O18 0.620890 0.250000 0.207551
O O19 0.932600 0.250000 0.243159
O O20 0.831741 0.250000 0.009400
#
# Coordination Sequence:
#
# PCOD9462192 Si02
#       8
#     8   8   8   8   8   8   8   8
#     4  10  21  39  62  83 109 150 194 233 277 337
#     4   9  17  33  58  87 115 143 183 229 278 337
#     4  11  22  37  59  87 115 148 190 233 278 341
#     4   9  19  37  61  86 115 151 189 231 283 338
#     4  10  22  38  56  85 120 151 186 233 285 332
#     4  11  24  40  57  81 117 154 189 236 287 331
#     4  10  20  37  60  86 114 146 184 232 288 338
#     4  10  18  35  63  87 112 151 192 230 277 338
#
# _framework density 21.983799000000001
#
# number of rings (size 3 to 8) (size 9 to 14) (size 15 to 20)
#    0.000    2.000    2.500    1.125    1.750    1.500 
#    0.000    2.500    0.000    0.000    0.000    0.000 
#    0.000    0.000    0.000    0.000    0.000    0.000 
#
# Total GULP energy -357586.657427 kJ/mol
# GULP energy per Si atom -5587.291522 kJ/mol
# Density = 2.193376 g / cm^3
# Si number density = 21.983799 Si / 1000 Ang^3
#
#
#
# Elastic Constant Matrix: (Units=GPa)
#
#
# Indices 1 2 3 4 5 6 
#
# 1 113.6742 -4.6221 27.7983 0.0000 0.0000 0.0000
# 2 -4.6221 48.1183 -11.1537 0.0000 0.0000 0.0000
# 3 27.7983 -11.1537 104.2268 0.0000 0.0000 0.0000
# 4 0.0000 0.0000 0.0000 14.7662 0.0000 0.0000
# 5 0.0000 0.0000 0.0000 0.0000 24.7328 0.0000
# 6 0.0000 0.0000 0.0000 0.0000 0.0000 255.9967
#
#
#
# Elastic Compliance Matrix: (Units=1/GPa)
#
#
# Indices 1 2 3 4 5 6 
#
# 1 0.009416 0.000331 -0.002476 0.000000 0.000000 0.000000
# 2 0.000331 0.021322 0.002194 0.000000 0.000000 0.000000
# 3 -0.002476 0.002194 0.010490 0.000000 0.000000 0.000000
# 4 0.000000 0.000000 0.000000 0.067722 0.000000 0.000000
# 5 0.000000 0.000000 0.000000 0.000000 0.040432 0.000000
# 6 0.000000 0.000000 0.000000 0.000000 0.000000 0.003906
#
#
# Mechanical properties :
#
#
# Convention : Reuss Voigt Hill
#
# Bulk Modulus (GPa) = 24.19881 32.22935 28.21408
# Shear Modulus (GPa) = 29.94602 76.03225 52.98914
#
# Velocity S-wave (km/s) = 3.69478 5.88733 4.91488
# Velocity P-wave (km/s) = 5.40679 7.80426 6.71342
#
# Compressibility (1/GPa) = 0.04132434
#
# Stress axis : x y z
#
# Youngs Moduli (GPa) = 106.20226 46.89917 95.33275
#
# Poissons Ratio (x) = -0.01550 0.23604
# Poissons Ratio (y) = -0.03511 -0.20912
# Poissons Ratio (z) = 0.26295 -0.10288
#
# Static dielectric constant tensor:
#      x y z
#    x 1.808610 0.000000 0.000000 
#    y 0.000000 1.851400 0.000000 
#    z 0.000000 0.000000 1.764500 
# 
# From -- ./inp_files/15861.got.cif
#   From: 2010.05.17/outbox.cif.g08.bks.cpg/sg62_8_cif.got.tgz:15861.got - 2010.06.03 15:25:27.
