data_PCOD9462719
_publ_section_title
;
Structure prediction by ZEFSAII (Michael W. Deem and Ramdas Pophale) SiO2 
 PCOD9462719
Probable space group: P N M A
;
_chemical_formula_sum "Si O2"
_cell_formula_units_Z 40
_cell_length_a 5.539673
_cell_length_b 12.821627
_cell_length_c 22.424460
_cell_angle_alpha 90.000000
_cell_angle_beta 90.000000
_cell_angle_gamma 90.000000
_cell_volume 1592.756044
_symmetry_space_group_name_H-M "P N M A"
_symmetry_group_IT_number 62
_symmetry_cell_setting 'orthorhombic'
loop_
_space_group_symop_operation_xyz
x,y,z
1/2-x,-y,1/2+z
1/2+x,1/2-y,1/2-z
-x,1/2+y,-z
-x,-y,-z
1/2+x,y,1/2-z
1/2-x,1/2+y,1/2+z
x,1/2-y,z
loop_
_atom_site_type_symbol
_atom_site_label
_atom_site_fract_x
_atom_site_fract_y
_atom_site_fract_z
Si Si1 1.000000 0.133202 0.922627
Si Si2 0.000000 0.571422 0.626093
Si Si3 1.000000 0.578741 0.268795
Si Si4 1.000000 0.368298 0.503586
Si Si5 1.000000 0.570469 0.838077
O O1 1.000000 0.250000 0.894709
O O2 0.754676 0.125894 0.961348
O O3 0.245324 0.125894 0.961348
O O4 1.000000 0.036276 0.877824
O O5 0.000000 0.461299 0.663342
O O6 0.249848 0.623842 0.645624
O O7 0.000000 0.560368 0.555128
O O8 0.750152 0.623842 0.645624
O O9 0.750000 0.631387 0.250000
O O10 0.500000 0.472475 0.271090
O O11 0.000000 0.250000 0.478440
#
# Coordination Sequence:
#
# PCOD9462719 Si02
#       5
#     8   8   8   8   8
#     4  10  21  35  50  73 106 138 167 203 250 303
#     4  10  19  32  53  75 100 131 170 212 251 293
#     4   8  16  30  48  70  96 126 162 206 250 286
#     4  10  21  35  50  73 106 138 167 203 250 303
#     4  10  19  32  53  75 100 131 170 212 251 293
#
# _framework density 25.113700000000001
#
# number of rings (size 3 to 8) (size 9 to 14) (size 15 to 20)
#    0.000    2.400    0.000    2.400    0.000    4.800 
#    0.000    0.000    0.000   21.600    0.000    0.000 
#    0.000    0.000    0.000    0.000    0.000    0.000 
#
# Total GULP energy -223448.134664 kJ/mol
# GULP energy per Si atom -5586.203367 kJ/mol
# Density = 2.505654 g / cm^3
# Si number density = 25.113700 Si / 1000 Ang^3
#
#
#
# Elastic Constant Matrix: (Units=GPa)
#
#
# Indices 1 2 3 4 5 6 
#
# 1 286.8597 27.4346 44.4517 0.0000 0.0000 0.0000
# 2 27.4346 97.9727 16.5546 0.0000 0.0000 0.0000
# 3 44.4517 16.5546 131.6703 0.0000 0.0000 0.0000
# 4 0.0000 0.0000 0.0000 -18.5800 0.0000 0.0000
# 5 0.0000 0.0000 0.0000 0.0000 41.5859 0.0000
# 6 0.0000 0.0000 0.0000 0.0000 0.0000 4.6106
#
#
#
# Elastic Compliance Matrix: (Units=1/GPa)
#
#
# Indices 1 2 3 4 5 6 
#
# 1 0.003747 -0.000854 -0.001158 0.000000 0.000000 0.000000
# 2 -0.000854 0.010623 -0.001047 0.000000 0.000000 0.000000
# 3 -0.001158 -0.001047 0.008117 0.000000 0.000000 0.000000
# 4 0.000000 0.000000 0.000000 -0.053821 0.000000 0.000000
# 5 0.000000 0.000000 0.000000 0.000000 0.024047 0.000000
# 6 0.000000 0.000000 0.000000 0.000000 0.000000 0.216891
#
#
# Mechanical properties :
#
#
# Convention : Reuss Voigt Hill
#
# Bulk Modulus (GPa) = 61.08814 77.04273 69.06543
# Shear Modulus (GPa) = 22.60624 34.06076 28.33350
#
# Velocity S-wave (km/s) = 3.00351 3.68674 3.36253
# Velocity P-wave (km/s) = 6.03370 6.99049 6.52964
#
# Compressibility (1/GPa) = 0.01636979
#
# Stress axis : x y z
#
# Youngs Moduli (GPa) = 266.87605 94.13578 123.19447
#
# Poissons Ratio (x) = 0.08036 0.14262
# Poissons Ratio (y) = 0.22782 0.12904
# Poissons Ratio (z) = 0.30896 0.09860
#
# Static dielectric constant tensor:
#      x y z
#    x 2.058700 0.000000 0.000000 
#    y 0.000000 2.011350 0.000000 
#    z 0.000000 0.000000 1.959320 
# 
# From -- ./inp_files/28251.got.cif
#   From: 2010.05.17/outbox.cif.g08.bks.cpg/sg62_15_cif.got.tgz:28251.got - 2010.06.03 15:25:27.
