data_PCOD9462090
_publ_section_title
;
Structure prediction by ZEFSAII (Michael W. Deem and Ramdas Pophale) SiO2 
 PCOD9462090
Probable space group: P N M A
;
_chemical_formula_sum "Si O2"
_cell_formula_units_Z 64
_cell_length_a 20.196210
_cell_length_b 8.759702
_cell_length_c 21.003428
_cell_angle_alpha 90.000000
_cell_angle_beta 90.000000
_cell_angle_gamma 90.000000
_cell_volume 3715.774861
_symmetry_space_group_name_H-M "P N M A"
_symmetry_group_IT_number 62
_symmetry_cell_setting 'orthorhombic'
loop_
_space_group_symop_operation_xyz
x,y,z
1/2-x,-y,1/2+z
1/2+x,1/2-y,1/2-z
-x,1/2+y,-z
-x,-y,-z
1/2+x,y,1/2-z
1/2-x,1/2+y,1/2+z
x,1/2-y,z
loop_
_atom_site_type_symbol
_atom_site_label
_atom_site_fract_x
_atom_site_fract_y
_atom_site_fract_z
Si Si1 0.285021 0.067491 0.438187
Si Si2 0.566285 0.566949 0.384102
Si Si3 0.421419 0.565406 0.239387
Si Si4 0.294841 0.434092 0.820445
Si Si5 0.718531 0.066971 0.811363
Si Si6 0.567994 0.934713 0.234805
Si Si7 0.298134 0.931019 0.570880
Si Si8 0.425901 0.067259 0.381149
O O1 0.281789 0.250000 0.442731
O O2 0.360883 0.024352 0.420773
O O3 0.238985 0.010247 0.380933
O O4 0.267763 0.993260 0.505442
O O5 0.566485 0.750000 0.387907
O O6 0.575175 0.522350 0.309301
O O7 0.628443 0.501016 0.421395
O O8 0.494769 0.504623 0.404637
O O9 0.420708 0.750000 0.247435
O O10 0.358557 0.524972 0.196609
O O11 0.494044 0.520377 0.214062
O O12 0.414811 0.492782 0.309248
O O13 0.294007 0.250000 0.828706
O O14 0.253685 0.467460 0.756063
O O15 0.369899 0.487365 0.806459
O O16 0.723972 0.250000 0.820869
O O17 0.755458 0.985628 0.868805
O O18 0.570669 0.750000 0.233884
O O19 0.302362 0.750000 0.569695
O O20 0.431871 0.250000 0.380718
#
# Coordination Sequence:
#
# PCOD9462090 Si02
#       8
#     8   8   8   8   8   8   8   8
#     4  11  24  39  54  76 111 149 186 227 277 328
#     4  10  19  35  56  78 109 148 184 220 268 327
#     4   9  17  31  54  81 110 147 184 219 268 329
#     4  10  18  33  57  83 110 141 183 227 271 322
#     4  10  19  34  57  83 111 145 184 226 275 328
#     4   8  15  29  52  81 109 139 175 218 266 317
#     4  12  25  38  55  79 109 145 187 231 279 329
#     4  10  20  33  51  79 111 144 183 227 269 318
#
# _framework density 17.223863999999999
#
# number of rings (size 3 to 8) (size 9 to 14) (size 15 to 20)
#    0.000    2.000    2.500    3.000    0.000    3.000 
#    0.000    0.625    0.000    0.750    0.000    0.000 
#    0.000    0.000    0.000    0.000    0.000    0.000 
#
# Total GULP energy -357226.135479 kJ/mol
# GULP energy per Si atom -5581.658367 kJ/mol
# Density = 1.718466 g / cm^3
# Si number density = 17.223864 Si / 1000 Ang^3
#
#
#
# Elastic Constant Matrix: (Units=GPa)
#
#
# Indices 1 2 3 4 5 6 
#
# 1 97.0131 27.6023 31.0000 0.0000 0.0000 0.0000
# 2 27.6023 39.7839 26.7724 0.0000 0.0000 0.0000
# 3 31.0000 26.7724 66.2668 0.0000 0.0000 0.0000
# 4 0.0000 0.0000 0.0000 25.9159 0.0000 0.0000
# 5 0.0000 0.0000 0.0000 0.0000 18.1095 0.0000
# 6 0.0000 0.0000 0.0000 0.0000 0.0000 25.1769
#
#
#
# Elastic Compliance Matrix: (Units=1/GPa)
#
#
# Indices 1 2 3 4 5 6 
#
# 1 0.013394 -0.006971 -0.003449 0.000000 0.000000 0.000000
# 2 -0.006971 0.038150 -0.012152 0.000000 0.000000 0.000000
# 3 -0.003449 -0.012152 0.021613 0.000000 0.000000 0.000000
# 4 0.000000 0.000000 0.000000 0.038586 0.000000 0.000000
# 5 0.000000 0.000000 0.000000 0.000000 0.055220 0.000000
# 6 0.000000 0.000000 0.000000 0.000000 0.000000 0.039719
#
#
# Mechanical properties :
#
#
# Convention : Reuss Voigt Hill
#
# Bulk Modulus (GPa) = 35.69825 41.53480 38.61652
# Shear Modulus (GPa) = 19.14509 21.68641 20.41575
#
# Velocity S-wave (km/s) = 3.33760 3.55222 3.44658
# Velocity P-wave (km/s) = 5.96857 6.40245 6.18931
#
# Compressibility (1/GPa) = 0.02801258
#
# Stress axis : x y z
#
# Youngs Moduli (GPa) = 74.66282 26.21235 46.26771
#
# Poissons Ratio (x) = 0.18274 0.15958
# Poissons Ratio (y) = 0.52051 0.56223
# Poissons Ratio (z) = 0.25752 0.31852
#
# Static dielectric constant tensor:
#      x y z
#    x 1.605760 0.000000 0.000000 
#    y 0.000000 1.576650 0.000000 
#    z 0.000000 0.000000 1.561280 
# 
# From -- ./inp_files/24824.got.cif
#   From: 2010.05.17/outbox.cif.g08.bks.cpg/sg62_13_cif.got.tgz:24824.got - 2010.06.03 15:25:27.
