data_PCOD9462363
_publ_section_title
;
Structure prediction by ZEFSAII (Michael W. Deem and Ramdas Pophale) SiO2 
 PCOD9462363
Probable space group: P N M A
;
_chemical_formula_sum "Si O2"
_cell_formula_units_Z 48
_cell_length_a 13.989254
_cell_length_b 8.961514
_cell_length_c 24.296844
_cell_angle_alpha 90.000000
_cell_angle_beta 90.000000
_cell_angle_gamma 90.000000
_cell_volume 3045.971311
_symmetry_space_group_name_H-M "P N M A"
_symmetry_group_IT_number 62
_symmetry_cell_setting 'orthorhombic'
loop_
_space_group_symop_operation_xyz
x,y,z
1/2-x,-y,1/2+z
1/2+x,1/2-y,1/2-z
-x,1/2+y,-z
-x,-y,-z
1/2+x,y,1/2-z
1/2-x,1/2+y,1/2+z
x,1/2-y,z
loop_
_atom_site_type_symbol
_atom_site_label
_atom_site_fract_x
_atom_site_fract_y
_atom_site_fract_z
Si Si1 0.107009 0.427918 0.935183
Si Si2 0.216800 0.571981 0.835713
Si Si3 0.712308 0.428648 0.330657
Si Si4 0.906284 0.072422 0.273127
Si Si5 0.900724 0.928292 0.938428
Si Si6 0.110588 0.572446 0.272795
O O1 0.110804 0.250000 0.927797
O O2 0.176264 0.506952 0.892117
O O3 0.999086 0.486296 0.926128
O O4 0.129836 0.463107 0.999118
O O5 0.228266 0.750000 0.838656
O O6 0.140261 0.541075 0.786761
O O7 0.315517 0.497657 0.816494
O O8 0.701259 0.250000 0.321324
O O9 0.822120 0.464160 0.316428
O O10 0.677200 0.462640 0.391960
O O11 0.646554 0.511977 0.286368
O O12 0.925754 0.250000 0.275794
O O13 0.003190 0.983708 0.281811
O O14 0.920264 0.750000 0.936165
O O15 0.116006 0.750000 0.274286
#
# Coordination Sequence:
#
# PCOD9462363 Si02
#       6
#     8   8   8   8   8   8
#     4  10  19  30  47  73 101 126 157 199 240 277
#     4  10  20  34  51  69  94 129 163 193 231 284
#     4   9  18  33  51  69  93 128 163 191 226 279
#     4   9  18  32  49  68  91 122 158 192 229 277
#     4   9  18  32  49  70  98 131 162 192 233 285
#     4  11  21  31  47  72  99 123 151 194 241 280
#
# _framework density 15.758521
#
# number of rings (size 3 to 8) (size 9 to 14) (size 15 to 20)
#    0.000    2.333    0.000    4.500    0.000    8.667 
#    0.000    0.000    0.000    1.000    0.000    0.000 
#    0.000    0.000    0.000    0.000    0.000    0.000 
#
# Total GULP energy -267803.741407 kJ/mol
# GULP energy per Si atom -5579.244613 kJ/mol
# Density = 1.572265 g / cm^3
# Si number density = 15.758521 Si / 1000 Ang^3
#
#
#
# Elastic Constant Matrix: (Units=GPa)
#
#
# Indices 1 2 3 4 5 6 
#
# 1 132.3222 72.2582 86.4596 0.0000 0.0000 0.0000
# 2 72.2582 67.5353 60.8813 0.0000 0.0000 0.0000
# 3 86.4596 60.8813 115.1938 0.0000 0.0000 0.0000
# 4 0.0000 0.0000 0.0000 24.9227 0.0000 0.0000
# 5 0.0000 0.0000 0.0000 0.0000 21.8836 0.0000
# 6 0.0000 0.0000 0.0000 0.0000 0.0000 17.6050
#
#
#
# Elastic Compliance Matrix: (Units=1/GPa)
#
#
# Indices 1 2 3 4 5 6 
#
# 1 0.021064 -0.015825 -0.007447 0.000000 0.000000 0.000000
# 2 -0.015825 0.040170 -0.009353 0.000000 0.000000 0.000000
# 3 -0.007447 -0.009353 0.019213 0.000000 0.000000 0.000000
# 4 0.000000 0.000000 0.000000 0.040124 0.000000 0.000000
# 5 0.000000 0.000000 0.000000 0.000000 0.045696 0.000000
# 6 0.000000 0.000000 0.000000 0.000000 0.000000 0.056802
#
#
# Mechanical properties :
#
#
# Convention : Reuss Voigt Hill
#
# Bulk Modulus (GPa) = 65.79286 83.80548 74.79917
# Shear Modulus (GPa) = 17.04251 19.24574 18.14412
#
# Velocity S-wave (km/s) = 3.29215 3.49849 3.39689
# Velocity P-wave (km/s) = 7.50282 8.34360 7.93436
#
# Compressibility (1/GPa) = 0.01519922
#
# Stress axis : x y z
#
# Youngs Moduli (GPa) = 47.47361 24.89440 52.04756
#
# Poissons Ratio (x) = 0.39394 0.38757
# Poissons Ratio (y) = 0.75125 0.48680
# Poissons Ratio (z) = 0.35351 0.23283
#
# Static dielectric constant tensor:
#      x y z
#    x 1.501830 0.000000 0.000000 
#    y 0.000000 1.525480 0.000000 
#    z 0.000000 0.000000 1.522710 
# 
# From -- ./inp_files/29219.got.cif
#   From: 2010.05.17/outbox.cif.g08.bks.cpg/sg62_15_cif.got.tgz:29219.got - 2010.06.03 15:25:27.
