data_PCOD9462344
_publ_section_title
;
Structure prediction by ZEFSAII (Michael W. Deem and Ramdas Pophale) SiO2 
 PCOD9462344
Probable space group: P N M A
;
_chemical_formula_sum "Si O2"
_cell_formula_units_Z 48
_cell_length_a 33.816750
_cell_length_b 7.536683
_cell_length_c 6.658631
_cell_angle_alpha 90.000000
_cell_angle_beta 90.000000
_cell_angle_gamma 90.000000
_cell_volume 1697.059480
_symmetry_space_group_name_H-M "P N M A"
_symmetry_group_IT_number 62
_symmetry_cell_setting 'orthorhombic'
loop_
_space_group_symop_operation_xyz
x,y,z
1/2-x,-y,1/2+z
1/2+x,1/2-y,1/2-z
-x,1/2+y,-z
-x,-y,-z
1/2+x,y,1/2-z
1/2-x,1/2+y,1/2+z
x,1/2-y,z
loop_
_atom_site_type_symbol
_atom_site_label
_atom_site_fract_x
_atom_site_fract_y
_atom_site_fract_z
Si Si1 0.716210 0.460411 0.939820
Si Si2 0.304040 0.451736 0.496405
Si Si3 0.030675 0.956721 0.797794
Si Si4 0.114900 0.530280 0.869362
Si Si5 0.136794 0.959738 0.417402
Si Si6 0.050653 0.037968 0.335177
O O1 0.719169 0.250000 0.904382
O O2 0.699653 0.557605 0.746555
O O3 0.760822 0.531756 0.961386
O O4 0.682801 0.480170 0.113313
O O5 0.305027 0.250000 0.573907
O O6 0.348294 0.530166 0.507565
O O7 0.029400 0.750000 0.846790
O O8 0.070051 0.036049 0.899217
O O9 0.985868 0.029971 0.802718
O O10 0.041324 0.966697 0.558867
O O11 0.114737 0.750000 0.876039
O O12 0.125328 0.470841 0.640848
O O13 0.139560 0.750000 0.428136
O O14 0.096303 0.992486 0.295248
O O15 0.047438 0.250000 0.341868
#
# Coordination Sequence:
#
# PCOD9462344 Si02
#       6
#     8   8   8   8   8   8
#     4  10  19  30  46  67  88 114 150 185 217 259
#     4   9  18  31  46  65  90 118 146 180 221 261
#     4   8  13  20  31  48  72 104 136 165 204 253
#     4   7  11  22  37  51  72 104 136 164 202 251
#     4   9  16  26  38  52  76 110 141 172 216 260
#     4   9  14  19  30  50  74 100 135 173 204 247
#
# _framework density 28.284217000000002
#
# number of rings (size 3 to 8) (size 9 to 14) (size 15 to 20)
#    0.000    3.333    0.000    3.500    0.000    2.000 
#    0.000    0.000    0.000    0.000    0.000    0.000 
#    0.000    1.333    0.000    2.667    0.000   11.833 
#
# Total GULP energy -268117.589632 kJ/mol
# GULP energy per Si atom -5585.783117 kJ/mol
# Density = 2.821984 g / cm^3
# Si number density = 28.284217 Si / 1000 Ang^3
#
#
#
# Elastic Constant Matrix: (Units=GPa)
#
#
# Indices 1 2 3 4 5 6 
#
# 1 376.9256 10.0779 69.3674 0.0000 0.0000 0.0000
# 2 10.0779 127.0570 3.6455 0.0000 0.0000 0.0000
# 3 69.3674 3.6455 56.3712 0.0000 0.0000 0.0000
# 4 0.0000 0.0000 0.0000 19.2791 0.0000 0.0000
# 5 0.0000 0.0000 0.0000 0.0000 84.3777 0.0000
# 6 0.0000 0.0000 0.0000 0.0000 0.0000 25.8140
#
#
#
# Elastic Compliance Matrix: (Units=1/GPa)
#
#
# Indices 1 2 3 4 5 6 
#
# 1 0.003433 -0.000151 -0.004214 0.000000 0.000000 0.000000
# 2 -0.000151 0.007892 -0.000324 0.000000 0.000000 0.000000
# 3 -0.004214 -0.000324 0.022946 0.000000 0.000000 0.000000
# 4 0.000000 0.000000 0.000000 0.051870 0.000000 0.000000
# 5 0.000000 0.000000 0.000000 0.000000 0.011851 0.000000
# 6 0.000000 0.000000 0.000000 0.000000 0.000000 0.038739
#
#
# Mechanical properties :
#
#
# Convention : Reuss Voigt Hill
#
# Bulk Modulus (GPa) = 40.17460 80.72615 60.45037
# Shear Modulus (GPa) = 32.38192 57.71169 45.04680
#
# Velocity S-wave (km/s) = 3.38727 4.52200 3.99513
# Velocity P-wave (km/s) = 5.43442 7.47447 6.53455
#
# Compressibility (1/GPa) = 0.02489135
#
# Stress axis : x y z
#
# Youngs Moduli (GPa) = 291.31934 126.71400 43.57995
#
# Poissons Ratio (x) = 0.01918 0.18366
# Poissons Ratio (y) = 0.04409 0.01412
# Poissons Ratio (z) = 1.22769 0.04107
#
# Static dielectric constant tensor:
#      x y z
#    x 2.334750 0.000000 0.000000 
#    y 0.000000 1.980450 0.000000 
#    z 0.000000 0.000000 2.364000 
# 
# From -- ./inp_files/15613.got.cif
#   From: 2010.05.17/outbox.cif.g08.bks.cpg/sg62_8_cif.got.tgz:15613.got - 2010.06.03 15:25:27.
