data_PCOD9462063
_publ_section_title
;
Structure prediction by ZEFSAII (Michael W. Deem and Ramdas Pophale) SiO2 
 PCOD9462063
Probable space group: P N M A
;
_chemical_formula_sum "Si O2"
_cell_formula_units_Z 64
_cell_length_a 19.696065
_cell_length_b 14.036849
_cell_length_c 13.160122
_cell_angle_alpha 90.000000
_cell_angle_beta 90.000000
_cell_angle_gamma 90.000000
_cell_volume 3638.388014
_symmetry_space_group_name_H-M "P N M A"
_symmetry_group_IT_number 62
_symmetry_cell_setting 'orthorhombic'
loop_
_space_group_symop_operation_xyz
x,y,z
1/2-x,-y,1/2+z
1/2+x,1/2-y,1/2-z
-x,1/2+y,-z
-x,-y,-z
1/2+x,y,1/2-z
1/2-x,1/2+y,1/2+z
x,1/2-y,z
loop_
_atom_site_type_symbol
_atom_site_label
_atom_site_fract_x
_atom_site_fract_y
_atom_site_fract_z
Si Si1 0.118893 0.361881 0.422053
Si Si2 0.016922 0.364573 0.603253
Si Si3 0.387321 0.456065 0.803837
Si Si4 0.027750 0.140673 0.005640
Si Si5 0.258245 0.139663 0.545621
Si Si6 0.102848 0.541821 0.066387
Si Si7 0.253130 0.860583 0.289331
Si Si8 0.101225 0.138662 0.793479
O O1 0.117381 0.250000 0.396615
O O2 0.056151 0.382300 0.498507
O O3 0.113390 0.431882 0.327114
O O4 0.189576 0.379914 0.482972
O O5 0.010602 0.250000 0.613941
O O6 0.065452 0.401989 0.694219
O O7 0.943801 0.409333 0.623892
O O8 0.401606 0.430922 0.685938
O O9 0.312466 0.416387 0.825784
O O10 0.030749 0.250000 0.040297
O O11 0.051723 0.136858 0.888410
O O12 0.951652 0.099362 0.001707
O O13 0.078376 0.067509 0.060444
O O14 0.278582 0.250000 0.524033
O O15 0.321759 0.069317 0.529993
O O16 0.243150 0.135602 0.666337
O O17 0.245154 0.750000 0.319869
O O18 0.325585 0.901409 0.323764
O O19 0.115438 0.250000 0.768977
#
# Coordination Sequence:
#
# PCOD9462063 Si02
#       8
#     8   8   8   8   8   8   8   8
#     4  10  21  35  51  72 103 144 177 202 246 309
#     4  10  18  33  54  77 103 130 166 212 261 306
#     4  11  21  32  51  79 104 133 167 217 254 296
#     4  10  20  34  52  75 104 136 168 212 263 311
#     4   9  17  32  51  72 101 131 169 214 250 295
#     4  10  21  33  51  79 104 132 175 213 257 305
#     4   9  17  30  50  77 101 126 161 209 261 298
#     4   9  16  29  50  73 100 128 159 204 259 305
#
# _framework density 17.590206999999999
#
# number of rings (size 3 to 8) (size 9 to 14) (size 15 to 20)
#    0.000    2.250    2.500    1.125    1.750    1.500 
#    0.000    0.000    0.000    0.000    0.000    0.875 
#    0.000    0.000    0.000    0.000    0.000    0.000 
#
# Total GULP energy -356554.865084 kJ/mol
# GULP energy per Si atom -5571.169767 kJ/mol
# Density = 1.755017 g / cm^3
# Si number density = 17.590207 Si / 1000 Ang^3
#
#
#
# Elastic Constant Matrix: (Units=GPa)
#
#
# Indices 1 2 3 4 5 6 
#
# 1 78.8710 9.1881 0.5481 0.0000 0.0000 0.0000
# 2 9.1881 44.2902 -1.0730 0.0000 0.0000 0.0000
# 3 0.5481 -1.0730 11.7838 0.0000 0.0000 0.0000
# 4 0.0000 0.0000 0.0000 24.1079 0.0000 0.0000
# 5 0.0000 0.0000 0.0000 0.0000 13.5615 0.0000
# 6 0.0000 0.0000 0.0000 0.0000 0.0000 14.3424
#
#
#
# Elastic Compliance Matrix: (Units=1/GPa)
#
#
# Indices 1 2 3 4 5 6 
#
# 1 0.013001 -0.002718 -0.000852 0.000000 0.000000 0.000000
# 2 -0.002718 0.023196 0.002239 0.000000 0.000000 0.000000
# 3 -0.000852 0.002239 0.085106 0.000000 0.000000 0.000000
# 4 0.000000 0.000000 0.000000 0.041480 0.000000 0.000000
# 5 0.000000 0.000000 0.000000 0.000000 0.073738 0.000000
# 6 0.000000 0.000000 0.000000 0.000000 0.000000 0.069723
#
#
# Mechanical properties :
#
#
# Convention : Reuss Voigt Hill
#
# Bulk Modulus (GPa) = 8.42879 16.91904 12.67392
# Shear Modulus (GPa) = 14.34905 18.82114 16.58509
#
# Velocity S-wave (km/s) = 2.85922 3.27460 3.07393
# Velocity P-wave (km/s) = 3.96261 4.89251 4.45191
#
# Compressibility (1/GPa) = 0.11864096
#
# Stress axis : x y z
#
# Youngs Moduli (GPa) = 76.91434 43.11008 11.75006
#
# Poissons Ratio (x) = 0.11717 0.01001
# Poissons Ratio (y) = 0.20904 -0.02630
# Poissons Ratio (z) = 0.06554 -0.09650
#
# Static dielectric constant tensor:
#      x y z
#    x 1.626730 0.000000 0.000000 
#    y 0.000000 1.604450 0.000000 
#    z 0.000000 0.000000 1.583190 
# 
# From -- ./inp_files/19957.got.cif
#   From: 2010.05.17/outbox.cif.g08.bks.cpg/sg62_10_cif.got.tgz:19957.got - 2010.06.03 15:25:27.
