data_PCOD9462983
_publ_section_title
;
Structure prediction by ZEFSAII (Michael W. Deem and Ramdas Pophale) SiO2 
 PCOD9462983
Probable space group: P N M A
;
_chemical_formula_sum "Si O2"
_cell_formula_units_Z 64
_cell_length_a 22.499793
_cell_length_b 8.725343
_cell_length_c 17.744674
_cell_angle_alpha 90.000000
_cell_angle_beta 90.000000
_cell_angle_gamma 90.000000
_cell_volume 3483.606210
_symmetry_space_group_name_H-M "P N M A"
_symmetry_group_IT_number 62
_symmetry_cell_setting 'orthorhombic'
loop_
_space_group_symop_operation_xyz
x,y,z
1/2-x,-y,1/2+z
1/2+x,1/2-y,1/2-z
-x,1/2+y,-z
-x,-y,-z
1/2+x,y,1/2-z
1/2-x,1/2+y,1/2+z
x,1/2-y,z
loop_
_atom_site_type_symbol
_atom_site_label
_atom_site_fract_x
_atom_site_fract_y
_atom_site_fract_z
Si Si1 0.281998 0.934428 0.662358
Si Si2 0.381489 0.434128 0.768359
Si Si3 0.972340 0.066239 0.862708
Si Si4 0.072912 0.565366 0.428120
Si Si5 0.630061 0.434288 0.468043
Si Si6 0.934203 0.567399 0.413487
Si Si7 0.104879 0.566018 0.872207
Si Si8 0.348165 0.434916 0.209844
O O1 0.281002 0.750000 0.662624
O O2 0.313975 0.981397 0.584299
O O3 0.215365 0.989307 0.677949
O O4 0.325454 0.990734 0.728225
O O5 0.374937 0.250000 0.766895
O O6 0.439041 0.469125 0.716336
O O7 0.391063 0.482803 0.854272
O O8 0.977046 0.250000 0.870192
O O9 0.928650 0.001663 0.927266
O O10 0.037062 0.992641 0.866695
O O11 0.076169 0.750000 0.434948
O O12 0.091340 0.491602 0.506926
O O13 0.003876 0.524122 0.413451
O O14 0.625989 0.250000 0.468275
O O15 0.632926 0.496337 0.552373
O O16 0.930587 0.750000 0.409692
O O17 0.899746 0.495733 0.343937
O O18 0.104883 0.750000 0.877296
O O19 0.139216 0.519271 0.796030
O O20 0.348636 0.250000 0.207581
#
# Coordination Sequence:
#
# PCOD9462983 Si02
#       8
#     8   8   8   8   8   8   8   8
#     4   9  20  39  58  75 103 142 182 223 267 316
#     4   9  18  33  55  81 107 141 179 221 267 313
#     4  10  19  33  55  83 116 145 174 218 269 319
#     4   9  18  34  54  80 114 143 174 218 272 325
#     4  10  20  36  57  80 107 142 182 222 266 319
#     4  10  20  34  55  82 109 141 180 223 267 319
#     4  11  22  35  54  81 110 142 178 218 269 325
#     4  10  22  40  57  75 107 147 180 222 276 322
#
# _framework density 18.371766000000001
#
# number of rings (size 3 to 8) (size 9 to 14) (size 15 to 20)
#    0.000    2.250    0.000    2.625    0.000    4.500 
#    2.250    0.000    0.000    0.000    0.000    0.000 
#    0.000    0.000    0.000    0.000    0.000    0.000 
#
# Total GULP energy -357285.754873 kJ/mol
# GULP energy per Si atom -5582.589920 kJ/mol
# Density = 1.832995 g / cm^3
# Si number density = 18.371766 Si / 1000 Ang^3
#
#
#
# Elastic Constant Matrix: (Units=GPa)
#
#
# Indices 1 2 3 4 5 6 
#
# 1 62.7967 15.7968 28.8890 0.0000 0.0000 0.0000
# 2 15.7968 18.0356 19.6013 0.0000 0.0000 0.0000
# 3 28.8890 19.6013 113.5256 0.0000 0.0000 0.0000
# 4 0.0000 0.0000 0.0000 29.8315 0.0000 0.0000
# 5 0.0000 0.0000 0.0000 0.0000 6.7020 0.0000
# 6 0.0000 0.0000 0.0000 0.0000 0.0000 17.0752
#
#
#
# Elastic Compliance Matrix: (Units=1/GPa)
#
#
# Indices 1 2 3 4 5 6 
#
# 1 0.021065 -0.015541 -0.002677 0.000000 0.000000 0.000000
# 2 -0.015541 0.079718 -0.009810 0.000000 0.000000 0.000000
# 3 -0.002677 -0.009810 0.011184 0.000000 0.000000 0.000000
# 4 0.000000 0.000000 0.000000 0.033522 0.000000 0.000000
# 5 0.000000 0.000000 0.000000 0.000000 0.149210 0.000000
# 6 0.000000 0.000000 0.000000 0.000000 0.000000 0.058564
#
#
# Mechanical properties :
#
#
# Convention : Reuss Voigt Hill
#
# Bulk Modulus (GPa) = 17.88513 35.88134 26.88323
# Shear Modulus (GPa) = 11.68346 19.39314 15.53830
#
# Velocity S-wave (km/s) = 2.52453 3.25252 2.91137
# Velocity P-wave (km/s) = 4.27246 5.80330 5.09569
#
# Compressibility (1/GPa) = 0.05591238
#
# Stress axis : x y z
#
# Youngs Moduli (GPa) = 47.47131 12.54416 89.41676
#
# Poissons Ratio (x) = 0.19494 0.23939
# Poissons Ratio (y) = 0.73774 0.87714
# Poissons Ratio (z) = 0.12709 0.12305
#
# Static dielectric constant tensor:
#      x y z
#    x 1.614540 0.000000 0.000000 
#    y 0.000000 1.617390 0.000000 
#    z 0.000000 0.000000 1.629700 
# 
# From -- ./inp_files/24688.got.cif
#   From: 2010.05.17/outbox.cif.g08.bks.cpg/sg62_13_cif.got.tgz:24688.got - 2010.06.03 15:25:27.
