data_PCOD9462308
_publ_section_title
;
Structure prediction by ZEFSAII (Michael W. Deem and Ramdas Pophale) SiO2 
 PCOD9462308
Probable space group: P N M A
;
_chemical_formula_sum "Si O2"
_cell_formula_units_Z 64
_cell_length_a 19.726969
_cell_length_b 7.717699
_cell_length_c 24.090550
_cell_angle_alpha 90.000000
_cell_angle_beta 90.000000
_cell_angle_gamma 90.000000
_cell_volume 3667.709363
_symmetry_space_group_name_H-M "P N M A"
_symmetry_group_IT_number 62
_symmetry_cell_setting 'orthorhombic'
loop_
_space_group_symop_operation_xyz
x,y,z
1/2-x,-y,1/2+z
1/2+x,1/2-y,1/2-z
-x,1/2+y,-z
-x,-y,-z
1/2+x,y,1/2-z
1/2-x,1/2+y,1/2+z
x,1/2-y,z
loop_
_atom_site_type_symbol
_atom_site_label
_atom_site_fract_x
_atom_site_fract_y
_atom_site_fract_z
Si Si1 0.757390 0.039068 0.657060
Si Si2 0.517368 0.048832 0.109466
Si Si3 0.156665 0.455126 0.233415
Si Si4 0.872221 0.952929 0.217988
Si Si5 0.342976 0.451033 0.943805
Si Si6 0.787852 0.039411 0.327054
Si Si7 0.009703 0.547890 0.263207
Si Si8 0.371378 0.037422 0.066315
O O1 0.756364 0.250000 0.655967
O O2 0.682610 0.974873 0.674351
O O3 0.788561 0.973864 0.599405
O O4 0.807891 0.989640 0.707118
O O5 0.524217 0.250000 0.093877
O O6 0.447107 0.981542 0.083606
O O7 0.584067 0.957838 0.086247
O O8 0.513525 0.036776 0.176063
O O9 0.148485 0.250000 0.227117
O O10 0.211532 0.516675 0.188045
O O11 0.082235 0.533846 0.234013
O O12 0.879308 0.750000 0.204174
O O13 0.947506 0.025194 0.226921
O O14 0.835670 0.971973 0.277675
O O15 0.324132 0.250000 0.951461
O O16 0.350979 0.525518 0.005345
O O17 0.789568 0.250000 0.324203
O O18 0.818766 0.986028 0.385749
O O19 0.995129 0.750000 0.273900
O O20 0.373145 0.250000 0.065910
#
# Coordination Sequence:
#
# PCOD9462308 Si02
#       8
#     8   8   8   8   8   8   8   8
#     4   9  17  30  46  65  89 115 147 186 225 267
#     4  11  20  30  44  63  92 123 155 188 215 256
#     4  10  19  29  46  67  89 116 148 185 228 271
#     4   9  18  30  45  65  88 115 148 186 227 269
#     4  10  19  31  47  65  90 123 154 183 221 265
#     4   9  17  31  47  65  89 117 148 186 226 265
#     4  11  20  30  45  65  91 121 151 184 225 272
#     4   9  18  31  46  65  90 122 155 186 219 260
#
# _framework density 17.449581999999999
#
# number of rings (size 3 to 8) (size 9 to 14) (size 15 to 20)
#    0.000    2.250    2.500    1.500    0.000    1.000 
#    0.000    1.250    0.000    0.000    0.000    0.875 
#    0.000    0.000    0.000    0.000    0.000    0.000 
#
# Total GULP energy -356914.827380 kJ/mol
# GULP energy per Si atom -5576.794178 kJ/mol
# Density = 1.740987 g / cm^3
# Si number density = 17.449582 Si / 1000 Ang^3
#
#
#
# Elastic Constant Matrix: (Units=GPa)
#
#
# Indices 1 2 3 4 5 6 
#
# 1 89.8000 -10.8589 24.6148 0.0000 0.0000 0.0000
# 2 -10.8589 27.1634 -6.9632 0.0000 0.0000 0.0000
# 3 24.6148 -6.9632 58.9591 0.0000 0.0000 0.0000
# 4 0.0000 0.0000 0.0000 2.7039 0.0000 0.0000
# 5 0.0000 0.0000 0.0000 0.0000 17.6668 0.0000
# 6 0.0000 0.0000 0.0000 0.0000 0.0000 10.0182
#
#
#
# Elastic Compliance Matrix: (Units=1/GPa)
#
#
# Indices 1 2 3 4 5 6 
#
# 1 0.012966 0.003914 -0.004951 0.000000 0.000000 0.000000
# 2 0.003914 0.039145 0.002989 0.000000 0.000000 0.000000
# 3 -0.004951 0.002989 0.019381 0.000000 0.000000 0.000000
# 4 0.000000 0.000000 0.000000 0.369841 0.000000 0.000000
# 5 0.000000 0.000000 0.000000 0.000000 0.056603 0.000000
# 6 0.000000 0.000000 0.000000 0.000000 0.000000 0.099818
#
#
# Mechanical properties :
#
#
# Convention : Reuss Voigt Hill
#
# Bulk Modulus (GPa) = 13.26314 21.05643 17.15979
# Shear Modulus (GPa) = 8.07777 17.35309 12.71543
#
# Velocity S-wave (km/s) = 2.15389 3.15694 2.70236
# Velocity P-wave (km/s) = 3.71524 5.03802 4.42632
#
# Compressibility (1/GPa) = 0.07539691
#
# Stress axis : x y z
#
# Youngs Moduli (GPa) = 77.12308 25.54592 51.59715
#
# Poissons Ratio (x) = -0.09999 0.25546
# Poissons Ratio (y) = -0.30188 -0.15422
# Poissons Ratio (z) = 0.38184 -0.07636
#
# Static dielectric constant tensor:
#      x y z
#    x 1.614980 0.000000 0.000000 
#    y 0.000000 1.675600 0.000000 
#    z 0.000000 0.000000 1.579230 
# 
# From -- ./inp_files/30086.got.cif
#   From: 2010.05.17/outbox.cif.g08.bks.cpg/sg62_16_cif.got.tgz:30086.got - 2010.06.03 15:25:27.
