data_PCOD9462430
_publ_section_title
;
Structure prediction by ZEFSAII (Michael W. Deem and Ramdas Pophale) SiO2 
 PCOD9462430
Probable space group: P N M A
;
_chemical_formula_sum "Si O2"
_cell_formula_units_Z 56
_cell_length_a 21.346120
_cell_length_b 8.637870
_cell_length_c 19.136095
_cell_angle_alpha 90.000000
_cell_angle_beta 90.000000
_cell_angle_gamma 90.000000
_cell_volume 3528.409060
_symmetry_space_group_name_H-M "P N M A"
_symmetry_group_IT_number 62
_symmetry_cell_setting 'orthorhombic'
loop_
_space_group_symop_operation_xyz
x,y,z
1/2-x,-y,1/2+z
1/2+x,1/2-y,1/2-z
-x,1/2+y,-z
-x,-y,-z
1/2+x,y,1/2-z
1/2-x,1/2+y,1/2+z
x,1/2-y,z
loop_
_atom_site_type_symbol
_atom_site_label
_atom_site_fract_x
_atom_site_fract_y
_atom_site_fract_z
Si Si1 0.500579 0.566194 0.078258
Si Si2 0.250865 0.438117 0.581876
Si Si3 0.817240 0.433194 0.783077
Si Si4 0.376524 0.565135 0.848186
Si Si5 0.691221 0.563522 0.715787
Si Si6 0.122999 0.565150 0.649826
Si Si7 0.753319 0.437336 0.076451
O O1 0.501259 0.750000 0.074588
O O2 0.562119 0.507329 0.118210
O O3 0.438488 0.510747 0.118272
O O4 0.500000 0.500000 0.000000
O O5 0.246065 0.250000 0.583480
O O6 0.305973 0.481034 0.636448
O O7 0.185052 0.505338 0.609721
O O8 0.262056 0.491464 0.502599
O O9 0.828354 0.250000 0.780182
O O10 0.866179 0.516859 0.732410
O O11 0.750202 0.475277 0.748890
O O12 0.380094 0.750000 0.852798
O O13 0.314198 0.514941 0.891573
O O14 0.702887 0.750000 0.720763
O O15 0.633940 0.530264 0.767627
O O16 0.693811 0.522166 0.633958
O O17 0.119103 0.750000 0.641715
O O18 0.751933 0.250000 0.073238
#
# Coordination Sequence:
#
# PCOD9462430 Si02
#       7
#     8   8   8   8   8   8   8
#     4  12  24  36  49  67  92 121 154 188 223 266
#     4   9  16  27  45  68  94 122 152 189 232 273
#     4   9  16  26  42  65  91 119 151 187 229 273
#     4  10  19  32  48  65  90 124 158 189 223 266
#     4   8  15  28  45  63  86 118 154 190 227 270
#     4  10  19  31  46  65  91 123 157 189 225 270
#     4   8  14  26  45  67  89 115 147 184 225 266
#
# _framework density 15.871174999999999
#
# number of rings (size 3 to 8) (size 9 to 14) (size 15 to 20)
#    0.000    2.571    0.000    4.286    0.000    2.286 
#    0.000    2.857    0.000    0.000    0.000    1.000 
#    0.000    0.000    0.000    0.000    0.000    0.000 
#
# Total GULP energy -311846.269829 kJ/mol
# GULP energy per Si atom -5568.683390 kJ/mol
# Density = 1.583505 g / cm^3
# Si number density = 15.871175 Si / 1000 Ang^3
#
#
#
# Elastic Constant Matrix: (Units=GPa)
#
#
# Indices 1 2 3 4 5 6 
#
# 1 75.5346 34.5468 68.4591 0.0000 0.0000 0.0000
# 2 34.5468 54.0782 41.5097 0.0000 0.0000 0.0000
# 3 68.4591 41.5097 171.5684 0.0000 0.0000 0.0000
# 4 0.0000 0.0000 0.0000 21.0380 0.0000 0.0000
# 5 0.0000 0.0000 0.0000 0.0000 19.9363 0.0000
# 6 0.0000 0.0000 0.0000 0.0000 0.0000 21.8488
#
#
#
# Elastic Compliance Matrix: (Units=1/GPa)
#
#
# Indices 1 2 3 4 5 6 
#
# 1 0.024466 -0.009992 -0.007345 0.000000 0.000000 0.000000
# 2 -0.009992 0.026790 -0.002495 0.000000 0.000000 0.000000
# 3 -0.007345 -0.002495 0.009363 0.000000 0.000000 0.000000
# 4 0.000000 0.000000 0.000000 0.047533 0.000000 0.000000
# 5 0.000000 0.000000 0.000000 0.000000 0.050160 0.000000
# 6 0.000000 0.000000 0.000000 0.000000 0.000000 0.045769
#
#
# Mechanical properties :
#
#
# Convention : Reuss Voigt Hill
#
# Bulk Modulus (GPa) = 47.71950 65.57917 56.64933
# Shear Modulus (GPa) = 19.94194 23.00897 21.47546
#
# Velocity S-wave (km/s) = 3.54854 3.81167 3.68246
# Velocity P-wave (km/s) = 6.84993 7.79622 7.33835
#
# Compressibility (1/GPa) = 0.02095579
#
# Stress axis : x y z
#
# Youngs Moduli (GPa) = 40.87365 37.32792 106.80453
#
# Poissons Ratio (x) = 0.37297 0.78447
# Poissons Ratio (y) = 0.40839 0.26644
# Poissons Ratio (z) = 0.30021 0.09312
#
# Static dielectric constant tensor:
#      x y z
#    x 1.502800 0.000000 0.000000 
#    y 0.000000 1.537690 0.000000 
#    z 0.000000 0.000000 1.579450 
# 
# From -- ./inp_files/24594.got.cif
#   From: 2010.05.17/outbox.cif.g08.bks.cpg/sg62_13_cif.got.tgz:24594.got - 2010.06.03 15:25:27.
