data_PCOD9462376
_publ_section_title
;
Structure prediction by ZEFSAII (Michael W. Deem and Ramdas Pophale) SiO2 
 PCOD9462376
Probable space group: P N M A
;
_chemical_formula_sum "Si O2"
_cell_formula_units_Z 48
_cell_length_a 13.756397
_cell_length_b 9.061780
_cell_length_c 24.386032
_cell_angle_alpha 90.000000
_cell_angle_beta 90.000000
_cell_angle_gamma 90.000000
_cell_volume 3039.900399
_symmetry_space_group_name_H-M "P N M A"
_symmetry_group_IT_number 62
_symmetry_cell_setting 'orthorhombic'
loop_
_space_group_symop_operation_xyz
x,y,z
1/2-x,-y,1/2+z
1/2+x,1/2-y,1/2-z
-x,1/2+y,-z
-x,-y,-z
1/2+x,y,1/2-z
1/2-x,1/2+y,1/2+z
x,1/2-y,z
loop_
_atom_site_type_symbol
_atom_site_label
_atom_site_fract_x
_atom_site_fract_y
_atom_site_fract_z
Si Si1 0.396486 0.425254 0.226688
Si Si2 0.384907 0.424904 0.560028
Si Si3 0.115584 0.074428 0.945648
Si Si4 0.403563 0.074500 0.771516
Si Si5 0.694734 0.425857 0.332361
Si Si6 0.297822 0.573840 0.329594
O O1 0.410657 0.250000 0.230158
O O2 0.495626 0.504107 0.209699
O O3 0.305779 0.454790 0.186313
O O4 0.363727 0.488685 0.285691
O O5 0.368513 0.250000 0.563384
O O6 0.501070 0.451662 0.565838
O O7 0.357095 0.486779 0.500327
O O8 0.330369 0.507500 0.608859
O O9 0.127406 0.250000 0.955358
O O10 0.175378 0.032749 0.891504
O O11 0.413660 0.250000 0.764601
O O12 0.313835 0.046278 0.812771
O O13 0.372371 0.001981 0.713773
O O14 0.679063 0.250000 0.331642
O O15 0.315881 0.750000 0.323587
#
# Coordination Sequence:
#
# PCOD9462376 Si02
#       6
#     8   8   8   8   8   8
#     4  10  20  32  48  71  98 128 159 193 236 283
#     4  10  19  30  48  73  97 124 157 193 236 283
#     4   9  18  32  48  68  96 126 155 190 234 283
#     4  10  19  31  49  72  97 125 158 197 237 279
#     4  10  20  33  49  70  97 128 160 195 235 280
#     4   9  18  32  50  71  95 126 161 195 234 280
#
# _framework density 15.789992
#
# number of rings (size 3 to 8) (size 9 to 14) (size 15 to 20)
#    0.000    2.333    0.000    3.000    0.000    5.333 
#    0.000    0.000    0.000    1.000    0.000    0.000 
#    0.000    0.000    0.000    0.000    0.000    0.000 
#
# Total GULP energy -267836.392811 kJ/mol
# GULP energy per Si atom -5579.924850 kJ/mol
# Density = 1.575405 g / cm^3
# Si number density = 15.789992 Si / 1000 Ang^3
#
#
#
# Elastic Constant Matrix: (Units=GPa)
#
#
# Indices 1 2 3 4 5 6 
#
# 1 74.0861 53.4162 51.9910 0.0000 0.0000 0.0000
# 2 53.4162 67.1731 61.4508 0.0000 0.0000 0.0000
# 3 51.9910 61.4508 133.9717 0.0000 0.0000 0.0000
# 4 0.0000 0.0000 0.0000 28.2561 0.0000 0.0000
# 5 0.0000 0.0000 0.0000 0.0000 16.7537 0.0000
# 6 0.0000 0.0000 0.0000 0.0000 0.0000 27.7351
#
#
#
# Elastic Compliance Matrix: (Units=1/GPa)
#
#
# Indices 1 2 3 4 5 6 
#
# 1 0.031762 -0.024090 -0.001277 0.000000 0.000000 0.000000
# 2 -0.024090 0.043920 -0.010797 0.000000 0.000000 0.000000
# 3 -0.001277 -0.010797 0.012912 0.000000 0.000000 0.000000
# 4 0.000000 0.000000 0.000000 0.035391 0.000000 0.000000
# 5 0.000000 0.000000 0.000000 0.000000 0.059688 0.000000
# 6 0.000000 0.000000 0.000000 0.000000 0.000000 0.036055
#
#
# Mechanical properties :
#
#
# Convention : Reuss Voigt Hill
#
# Bulk Modulus (GPa) = 61.46943 67.66077 64.56510
# Shear Modulus (GPa) = 16.80797 21.77385 19.29091
#
# Velocity S-wave (km/s) = 3.26616 3.71747 3.49910
# Velocity P-wave (km/s) = 7.29641 7.83387 7.56991
#
# Compressibility (1/GPa) = 0.01626825
#
# Stress axis : x y z
#
# Youngs Moduli (GPa) = 31.48389 22.76855 77.44673
#
# Poissons Ratio (x) = 0.54848 0.09887
# Poissons Ratio (y) = 0.75843 0.83619
# Poissons Ratio (z) = 0.04019 0.24583
#
# Static dielectric constant tensor:
#      x y z
#    x 1.522110 0.000000 0.000000 
#    y 0.000000 1.523560 0.000000 
#    z 0.000000 0.000000 1.499720 
# 
# From -- ./inp_files/26878.got.cif
#   From: 2010.05.17/outbox.cif.g08.bks.cpg/sg62_14_cif.got.tgz:26878.got - 2010.06.03 15:25:27.
