data_PCOD9462791
_publ_section_title
;
Structure prediction by ZEFSAII (Michael W. Deem and Ramdas Pophale) SiO2 
 PCOD9462791
Probable space group: P N M A
;
_chemical_formula_sum "Si O2"
_cell_formula_units_Z 48
_cell_length_a 30.034677
_cell_length_b 8.911626
_cell_length_c 10.454637
_cell_angle_alpha 90.000000
_cell_angle_beta 90.000000
_cell_angle_gamma 90.000000
_cell_volume 2798.265228
_symmetry_space_group_name_H-M "P N M A"
_symmetry_group_IT_number 62
_symmetry_cell_setting 'orthorhombic'
loop_
_space_group_symop_operation_xyz
x,y,z
1/2-x,-y,1/2+z
1/2+x,1/2-y,1/2-z
-x,1/2+y,-z
-x,-y,-z
1/2+x,y,1/2-z
1/2-x,1/2+y,1/2+z
x,1/2-y,z
loop_
_atom_site_type_symbol
_atom_site_label
_atom_site_fract_x
_atom_site_fract_y
_atom_site_fract_z
Si Si1 0.216109 0.070172 0.513592
Si Si2 0.114504 0.069886 0.238316
Si Si3 0.879315 0.070599 0.484938
Si Si4 0.026970 0.569330 0.617535
Si Si5 0.783377 0.929722 0.784198
Si Si6 0.477621 0.930259 0.623252
O O1 0.214441 0.250000 0.517107
O O2 0.225404 0.026898 0.364648
O O3 0.167552 0.005176 0.548078
O O4 0.252084 0.009390 0.613426
O O5 0.112257 0.250000 0.262410
O O6 0.164394 0.037140 0.191006
O O7 0.074174 0.029210 0.144899
O O8 0.108545 0.986255 0.372842
O O9 0.874131 0.250000 0.484792
O O10 0.921007 0.029452 0.395506
O O11 0.023716 0.750000 0.608595
O O12 0.000000 0.500000 0.500000
O O13 0.004503 0.522348 0.749945
O O14 0.777172 0.750000 0.793774
O O15 0.479965 0.750000 0.614701
O O16 0.500000 0.000000 0.500000
#
# Coordination Sequence:
#
# PCOD9462791 Si02
#       6
#     8   8   8   8   8   8
#     4  10  21  37  57  81 109 143 178 219 271 322
#     4   9  18  35  57  78 108 145 181 220 268 321
#     4  10  19  32  55  84 109 137 178 224 268 317
#     4  10  20  34  56  82 108 139 178 223 266 312
#     4   9  19  36  57  80 107 138 177 223 267 318
#     4  10  21  37  54  77 112 147 180 222 268 319
#
# _framework density 17.153485
#
# number of rings (size 3 to 8) (size 9 to 14) (size 15 to 20)
#    0.000    2.333    1.667    2.000    0.000    5.333 
#    3.000    0.000    0.000    0.000    0.000    0.000 
#    0.000    0.000    0.000    0.000    0.000    0.000 
#
# Total GULP energy -267725.627208 kJ/mol
# GULP energy per Si atom -5577.617234 kJ/mol
# Density = 1.711444 g / cm^3
# Si number density = 17.153485 Si / 1000 Ang^3
#
#
#
# Elastic Constant Matrix: (Units=GPa)
#
#
# Indices 1 2 3 4 5 6 
#
# 1 161.7723 52.1100 102.2358 0.0000 0.0000 0.0000
# 2 52.1100 28.2312 40.0646 0.0000 0.0000 0.0000
# 3 102.2358 40.0646 125.2040 0.0000 0.0000 0.0000
# 4 0.0000 0.0000 0.0000 31.3030 0.0000 0.0000
# 5 0.0000 0.0000 0.0000 0.0000 34.7689 0.0000
# 6 0.0000 0.0000 0.0000 0.0000 0.0000 27.9434
#
#
#
# Elastic Compliance Matrix: (Units=1/GPa)
#
#
# Indices 1 2 3 4 5 6 
#
# 1 0.018559 -0.023357 -0.007680 0.000000 0.000000 0.000000
# 2 -0.023357 0.094286 -0.011098 0.000000 0.000000 0.000000
# 3 -0.007680 -0.011098 0.017810 0.000000 0.000000 0.000000
# 4 0.000000 0.000000 0.000000 0.031946 0.000000 0.000000
# 5 0.000000 0.000000 0.000000 0.000000 0.028761 0.000000
# 6 0.000000 0.000000 0.000000 0.000000 0.000000 0.035787
#
#
# Mechanical properties :
#
#
# Convention : Reuss Voigt Hill
#
# Bulk Modulus (GPa) = 21.55976 78.22535 49.89255
# Shear Modulus (GPa) = 15.29605 26.85623 21.07614
#
# Velocity S-wave (km/s) = 2.98940 3.96111 3.50906
# Velocity P-wave (km/s) = 4.95090 8.16228 6.75034
#
# Compressibility (1/GPa) = 0.04638271
#
# Stress axis : x y z
#
# Youngs Moduli (GPa) = 53.88179 10.60602 56.14906
#
# Poissons Ratio (x) = 0.24773 0.43124
# Poissons Ratio (y) = 1.25854 0.62316
# Poissons Ratio (z) = 0.41383 0.11771
#
# Static dielectric constant tensor:
#      x y z
#    x 1.591270 0.000000 0.000000 
#    y 0.000000 1.573350 0.000000 
#    z 0.000000 0.000000 1.552900 
# 
# From -- ./inp_files/10256.got.cif
#   From: 2010.05.17/outbox.cif.g08.bks.cpg/sg62_6_cif.got.tgz:10256.got - 2010.06.03 15:25:27.
