data_PCOD9462800
_publ_section_title
;
Structure prediction by ZEFSAII (Michael W. Deem and Ramdas Pophale) SiO2 
 PCOD9462800
Probable space group: P N M A
;
_chemical_formula_sum "Si O2"
_cell_formula_units_Z 48
_cell_length_a 29.044979
_cell_length_b 8.612647
_cell_length_c 10.603136
_cell_angle_alpha 90.000000
_cell_angle_beta 90.000000
_cell_angle_gamma 90.000000
_cell_volume 2652.418487
_symmetry_space_group_name_H-M "P N M A"
_symmetry_group_IT_number 62
_symmetry_cell_setting 'orthorhombic'
loop_
_space_group_symop_operation_xyz
x,y,z
1/2-x,-y,1/2+z
1/2+x,1/2-y,1/2-z
-x,1/2+y,-z
-x,-y,-z
1/2+x,y,1/2-z
1/2-x,1/2+y,1/2+z
x,1/2-y,z
loop_
_atom_site_type_symbol
_atom_site_label
_atom_site_fract_x
_atom_site_fract_y
_atom_site_fract_z
Si Si1 0.448782 0.437327 0.863298
Si Si2 0.052681 0.064641 0.645778
Si Si3 0.145936 0.562449 0.244607
Si Si4 0.854913 0.435866 0.255078
Si Si5 0.193184 0.435978 0.994429
Si Si6 0.799368 0.438996 0.503900
O O1 0.447435 0.250000 0.879141
O O2 0.500184 0.479960 0.819380
O O3 0.407078 0.481042 0.771804
O O4 0.440983 0.510477 0.000974
O O5 0.056572 0.250000 0.652638
O O6 0.092518 0.988876 0.728324
O O7 0.148304 0.750000 0.236285
O O8 0.175209 0.513055 0.367665
O O9 0.166867 0.492187 0.118739
O O10 0.853074 0.250000 0.251734
O O11 0.831457 0.501687 0.130381
O O12 0.827050 0.490218 0.379785
O O13 0.193374 0.250000 0.991036
O O14 0.246406 0.490026 0.998606
O O15 0.799985 0.250000 0.502834
#
# Coordination Sequence:
#
# PCOD9462800 Si02
#       6
#     8   8   8   8   8   8
#     4   9  18  34  57  82 111 144 183 226 275 332
#     4  10  19  32  55  87 113 138 179 234 279 320
#     4  10  19  37  59  80 108 148 185 219 270 334
#     4  11  21  38  59  81 111 152 187 221 275 339
#     4  11  23  37  53  82 116 145 182 234 277 319
#     4   9  19  36  59  81 108 144 188 229 270 323
#
# _framework density 18.096692999999998
#
# number of rings (size 3 to 8) (size 9 to 14) (size 15 to 20)
#    0.000    2.000    1.667    2.500    0.000    1.333 
#    0.000    4.167    0.000    0.000    0.000    0.000 
#    0.000    0.000    0.000    0.000    0.000    0.000 
#
# Total GULP energy -268003.646919 kJ/mol
# GULP energy per Si atom -5583.409311 kJ/mol
# Density = 1.805550 g / cm^3
# Si number density = 18.096693 Si / 1000 Ang^3
#
#
#
# Elastic Constant Matrix: (Units=GPa)
#
#
# Indices 1 2 3 4 5 6 
#
# 1 177.5613 41.1501 91.7753 0.0000 0.0000 0.0000
# 2 41.1501 29.3843 31.8002 0.0000 0.0000 0.0000
# 3 91.7753 31.8002 142.6457 0.0000 0.0000 0.0000
# 4 0.0000 0.0000 0.0000 22.5414 0.0000 0.0000
# 5 0.0000 0.0000 0.0000 0.0000 -11.6247 0.0000
# 6 0.0000 0.0000 0.0000 0.0000 0.0000 23.3821
#
#
#
# Elastic Compliance Matrix: (Units=1/GPa)
#
#
# Indices 1 2 3 4 5 6 
#
# 1 0.010069 -0.009344 -0.004395 0.000000 0.000000 0.000000
# 2 -0.009344 0.053525 -0.005920 0.000000 0.000000 0.000000
# 3 -0.004395 -0.005920 0.011158 0.000000 0.000000 0.000000
# 4 0.000000 0.000000 0.000000 0.044363 0.000000 0.000000
# 5 0.000000 0.000000 0.000000 0.000000 -0.086023 0.000000
# 6 0.000000 0.000000 0.000000 0.000000 0.000000 0.042768
#
#
# Mechanical properties :
#
#
# Convention : Reuss Voigt Hill
#
# Bulk Modulus (GPa) = 28.22288 75.44915 51.83602
# Shear Modulus (GPa) = 39.37315 19.18412 29.27863
#
# Velocity S-wave (km/s) = 4.66951 3.25943 4.02668
# Velocity P-wave (km/s) = 6.68595 7.47984 7.09401
#
# Compressibility (1/GPa) = 0.03543225
#
# Stress axis : x y z
#
# Youngs Moduli (GPa) = 99.31349 18.68282 89.62247
#
# Poissons Ratio (x) = 0.17458 0.39390
# Poissons Ratio (y) = 0.92803 0.53060
# Poissons Ratio (z) = 0.43649 0.11061
#
# Static dielectric constant tensor:
#      x y z
#    x 1.632170 0.000000 0.000000 
#    y 0.000000 1.613910 0.000000 
#    z 0.000000 0.000000 1.573130 
# 
# From -- ./inp_files/10269.got.cif
#   From: 2010.05.17/outbox.cif.g08.bks.cpg/sg62_6_cif.got.tgz:10269.got - 2010.06.03 15:25:27.
