data_PCOD9462724
_publ_section_title
;
Structure prediction by ZEFSAII (Michael W. Deem and Ramdas Pophale) SiO2 
 PCOD9462724
Probable space group: P N M A
;
_chemical_formula_sum "Si O2"
_cell_formula_units_Z 64
_cell_length_a 14.442144
_cell_length_b 14.366163
_cell_length_c 18.194000
_cell_angle_alpha 90.000000
_cell_angle_beta 90.000000
_cell_angle_gamma 90.000000
_cell_volume 3774.858276
_symmetry_space_group_name_H-M "P N M A"
_symmetry_group_IT_number 62
_symmetry_cell_setting 'orthorhombic'
loop_
_space_group_symop_operation_xyz
x,y,z
1/2-x,-y,1/2+z
1/2+x,1/2-y,1/2-z
-x,1/2+y,-z
-x,-y,-z
1/2+x,y,1/2-z
1/2-x,1/2+y,1/2+z
x,1/2-y,z
loop_
_atom_site_type_symbol
_atom_site_label
_atom_site_fract_x
_atom_site_fract_y
_atom_site_fract_z
Si Si1 0.430198 0.638832 0.205803
Si Si2 0.726258 0.357313 0.566388
Si Si3 0.396486 0.140428 0.559529
Si Si4 0.566713 0.451385 0.641032
Si Si5 0.487397 0.144386 0.398995
Si Si6 0.747887 0.450191 0.846853
Si Si7 0.289523 0.644837 0.599761
Si Si8 0.853163 0.139819 0.707501
O O1 0.420152 0.750000 0.200274
O O2 0.403368 0.602984 0.286649
O O3 0.356113 0.588655 0.154158
O O4 0.538706 0.614732 0.198446
O O5 0.690927 0.250000 0.575298
O O6 0.644709 0.429688 0.581341
O O7 0.754381 0.364602 0.481591
O O8 0.802427 0.372606 0.629220
O O9 0.387778 0.250000 0.575118
O O10 0.473188 0.094868 0.611801
O O11 0.435764 0.131037 0.477143
O O12 0.302437 0.089310 0.582103
O O13 0.548249 0.560420 0.651368
O O14 0.469147 0.250000 0.373674
O O15 0.598484 0.135471 0.408948
O O16 0.753801 0.561448 0.850306
O O17 0.802200 0.413171 0.774159
O O18 0.272051 0.750000 0.626539
O O19 0.848879 0.250000 0.725765
#
# Coordination Sequence:
#
# PCOD9462724 Si02
#       8
#     8   8   8   8   8   8   8   8
#     4  11  22  34  51  77 107 134 167 213 268 321
#     4  10  19  32  53  78 105 138 176 213 257 315
#     4  11  19  28  48  79 113 135 160 207 267 323
#     4  12  18  29  50  77 105 139 168 207 265 316
#     4  10  20  32  48  76 109 140 172 212 261 313
#     4  12  21  33  52  80 107 138 171 213 268 315
#     4  10  20  35  53  75 103 141 183 218 253 304
#     4  10  20  34  53  79 109 136 168 213 266 318
#
# _framework density 16.954279
#
# number of rings (size 3 to 8) (size 9 to 14) (size 15 to 20)
#    0.000    1.250    5.000    3.375    0.000    0.000 
#    0.000    1.250    0.000    0.750    0.000    0.000 
#    0.000    0.000    0.000    0.000    0.000    0.000 
#
# Total GULP energy -357034.928822 kJ/mol
# GULP energy per Si atom -5578.670763 kJ/mol
# Density = 1.691569 g / cm^3
# Si number density = 16.954279 Si / 1000 Ang^3
#
#
#
# Elastic Constant Matrix: (Units=GPa)
#
#
# Indices 1 2 3 4 5 6 
#
# 1 66.6062 41.2037 19.5529 0.0000 0.0000 0.0000
# 2 41.2037 109.2849 22.3953 0.0000 0.0000 0.0000
# 3 19.5529 22.3953 25.3472 0.0000 0.0000 0.0000
# 4 0.0000 0.0000 0.0000 19.6023 0.0000 0.0000
# 5 0.0000 0.0000 0.0000 0.0000 17.7692 0.0000
# 6 0.0000 0.0000 0.0000 0.0000 0.0000 21.5633
#
#
#
# Elastic Compliance Matrix: (Units=1/GPa)
#
#
# Indices 1 2 3 4 5 6 
#
# 1 0.022160 -0.005925 -0.011860 0.000000 0.000000 0.000000
# 2 -0.005925 0.012757 -0.006701 0.000000 0.000000 0.000000
# 3 -0.011860 -0.006701 0.054522 0.000000 0.000000 0.000000
# 4 0.000000 0.000000 0.000000 0.051014 0.000000 0.000000
# 5 0.000000 0.000000 0.000000 0.000000 0.056277 0.000000
# 6 0.000000 0.000000 0.000000 0.000000 0.000000 0.046375
#
#
# Mechanical properties :
#
#
# Convention : Reuss Voigt Hill
#
# Bulk Modulus (GPa) = 24.71104 40.83801 32.77453
# Shear Modulus (GPa) = 16.36303 19.65941 18.01122
#
# Velocity S-wave (km/s) = 3.11002 3.40892 3.26289
# Velocity P-wave (km/s) = 5.24433 6.29553 5.79382
#
# Compressibility (1/GPa) = 0.04046774
#
# Stress axis : x y z
#
# Youngs Moduli (GPa) = 45.12579 78.38529 18.34130
#
# Poissons Ratio (x) = 0.46441 0.21752
# Poissons Ratio (y) = 0.26736 0.12291
# Poissons Ratio (z) = 0.53518 0.52530
#
# Static dielectric constant tensor:
#      x y z
#    x 1.585250 0.000000 0.000000 
#    y 0.000000 1.593790 0.000000 
#    z 0.000000 0.000000 1.590010 
# 
# From -- ./inp_files/24110.got.cif
#   From: 2010.05.17/outbox.cif.g08.bks.cpg/sg62_13_cif.got.tgz:24110.got - 2010.06.03 15:25:27.
