data_PCOD9462407
_publ_section_title
;
Structure prediction by ZEFSAII (Michael W. Deem and Ramdas Pophale) SiO2 
 PCOD9462407
Probable space group: P N M A
;
_chemical_formula_sum "Si O2"
_cell_formula_units_Z 64
_cell_length_a 25.828866
_cell_length_b 7.523668
_cell_length_c 14.667875
_cell_angle_alpha 90.000000
_cell_angle_beta 90.000000
_cell_angle_gamma 90.000000
_cell_volume 2850.376064
_symmetry_space_group_name_H-M "P N M A"
_symmetry_group_IT_number 62
_symmetry_cell_setting 'orthorhombic'
loop_
_space_group_symop_operation_xyz
x,y,z
1/2-x,-y,1/2+z
1/2+x,1/2-y,1/2-z
-x,1/2+y,-z
-x,-y,-z
1/2+x,y,1/2-z
1/2-x,1/2+y,1/2+z
x,1/2-y,z
loop_
_atom_site_type_symbol
_atom_site_label
_atom_site_fract_x
_atom_site_fract_y
_atom_site_fract_z
Si Si1 0.543558 0.537869 0.216559
Si Si2 0.828951 0.532133 0.046176
Si Si3 0.783161 0.959266 0.746650
Si Si4 0.604243 0.537650 0.041879
Si Si5 0.216142 0.548547 0.462850
Si Si6 0.120865 0.036979 0.131576
Si Si7 0.168713 0.464625 0.744296
Si Si8 0.565442 0.036550 0.852575
O O1 0.541300 0.750000 0.203734
O O2 0.581952 0.468164 0.137242
O O3 0.568919 0.506564 0.314349
O O4 0.485801 0.469649 0.198269
O O5 0.827265 0.750000 0.048184
O O6 0.871002 0.475592 0.971961
O O7 0.771957 0.469861 0.013558
O O8 0.836937 0.476124 0.150208
O O9 0.791238 0.750000 0.729985
O O10 0.829975 0.026605 0.808727
O O11 0.783247 0.051431 0.648031
O O12 0.725854 0.980850 0.788371
O O13 0.611383 0.750000 0.051964
O O14 0.660846 0.463217 0.015081
O O15 0.565124 0.505228 0.959561
O O16 0.216343 0.750000 0.498990
O O17 0.124633 0.250000 0.129300
O O18 0.168165 0.250000 0.743092
O O19 0.119571 0.531521 0.688169
O O20 0.566364 0.250000 0.842978
#
# Coordination Sequence:
#
# PCOD9462407 Si02
#       8
#     8   8   8   8   8   8   8   8
#     4  10  21  38  55  76 108 142 179 221 268 322
#     4   8  16  32  53  74 102 139 177 212 255 319
#     4  10  19  30  50  79 109 135 169 220 267 307
#     4  10  20  33  54  80 107 144 179 214 266 327
#     4   9  17  32  53  75 106 144 177 205 256 327
#     4  10  20  33  53  79 104 136 176 220 265 309
#     4   9  19  37  56  74 104 145 181 215 264 323
#     4  10  22  37  55  78 105 141 184 228 269 312
#
# _framework density 22.453178000000001
#
# number of rings (size 3 to 8) (size 9 to 14) (size 15 to 20)
#    0.000    2.500    1.250    1.500    1.750    2.500 
#    0.000    3.125    0.000    0.000    0.000    0.000 
#    0.000    0.000    0.000    0.000    0.000    0.000 
#
# Total GULP energy -357394.348999 kJ/mol
# GULP energy per Si atom -5584.286703 kJ/mol
# Density = 2.240207 g / cm^3
# Si number density = 22.453178 Si / 1000 Ang^3
#
#
#
# Elastic Constant Matrix: (Units=GPa)
#
#
# Indices 1 2 3 4 5 6 
#
# 1 68.8964 2.1763 6.6584 0.0000 0.0000 0.0000
# 2 2.1763 62.1683 -2.3231 0.0000 0.0000 0.0000
# 3 6.6584 -2.3231 45.7332 0.0000 0.0000 0.0000
# 4 0.0000 0.0000 0.0000 2.7121 0.0000 0.0000
# 5 0.0000 0.0000 0.0000 0.0000 33.0560 0.0000
# 6 0.0000 0.0000 0.0000 0.0000 0.0000 10.8766
#
#
#
# Elastic Compliance Matrix: (Units=1/GPa)
#
#
# Indices 1 2 3 4 5 6 
#
# 1 0.014744 -0.000597 -0.002177 0.000000 0.000000 0.000000
# 2 -0.000597 0.016140 0.000907 0.000000 0.000000 0.000000
# 3 -0.002177 0.000907 0.022229 0.000000 0.000000 0.000000
# 4 0.000000 0.000000 0.000000 0.368713 0.000000 0.000000
# 5 0.000000 0.000000 0.000000 0.000000 0.030252 0.000000
# 6 0.000000 0.000000 0.000000 0.000000 0.000000 0.091940
#
#
# Mechanical properties :
#
#
# Convention : Reuss Voigt Hill
#
# Bulk Modulus (GPa) = 20.25203 21.09125 20.67164
# Shear Modulus (GPa) = 8.86192 20.68137 14.77164
#
# Velocity S-wave (km/s) = 1.98882 3.03824 2.56771
# Velocity P-wave (km/s) = 3.78327 4.66065 4.24469
#
# Compressibility (1/GPa) = 0.04937778
#
# Stress axis : x y z
#
# Youngs Moduli (GPa) = 67.82509 61.95719 44.98639
#
# Poissons Ratio (x) = 0.03702 0.09793
# Poissons Ratio (y) = 0.04052 -0.04080
# Poissons Ratio (z) = 0.14765 -0.05619
#
# Static dielectric constant tensor:
#      x y z
#    x 1.850150 0.000000 0.000000 
#    y 0.000000 1.854210 0.000000 
#    z 0.000000 0.000000 1.819420 
# 
# From -- ./inp_files/20983.got.cif
#   From: 2010.05.17/outbox.cif.g08.bks.cpg/sg62_11_cif.got.tgz:20983.got - 2010.06.03 15:25:27.
