data_PCOD9462618
_publ_section_title
;
Structure prediction by ZEFSAII (Michael W. Deem and Ramdas Pophale) SiO2 
 PCOD9462618
Probable space group: P N M A
;
_chemical_formula_sum "Si O2"
_cell_formula_units_Z 48
_cell_length_a 12.793521
_cell_length_b 8.229818
_cell_length_c 18.133751
_cell_angle_alpha 90.000000
_cell_angle_beta 90.000000
_cell_angle_gamma 90.000000
_cell_volume 1909.272711
_symmetry_space_group_name_H-M "P N M A"
_symmetry_group_IT_number 62
_symmetry_cell_setting 'orthorhombic'
loop_
_space_group_symop_operation_xyz
x,y,z
1/2-x,-y,1/2+z
1/2+x,1/2-y,1/2-z
-x,1/2+y,-z
-x,-y,-z
1/2+x,y,1/2-z
1/2-x,1/2+y,1/2+z
x,1/2-y,z
loop_
_atom_site_type_symbol
_atom_site_label
_atom_site_fract_x
_atom_site_fract_y
_atom_site_fract_z
Si Si1 0.614156 0.436313 0.202932
Si Si2 0.897594 0.554698 0.863794
Si Si3 0.637594 0.561592 0.727909
Si Si4 0.830464 0.556966 0.544758
Si Si5 0.599313 0.433174 0.572483
Si Si6 0.837182 0.054828 0.388446
O O1 0.577015 0.250000 0.193708
O O2 0.569387 0.500804 0.280778
O O3 0.736164 0.426508 0.226828
O O4 0.618798 0.511403 0.120763
O O5 0.891131 0.750000 0.861176
O O6 0.782221 0.491184 0.882129
O O7 0.982443 0.507633 0.925241
O O8 0.604871 0.750000 0.710108
O O9 0.618714 0.441944 0.660809
O O10 0.607125 0.511442 0.811292
O O11 0.839322 0.750000 0.548888
O O12 0.705828 0.516082 0.544087
O O13 0.878177 0.498346 0.467690
O O14 0.597828 0.250000 0.544949
O O15 0.834451 0.250000 0.388184
#
# Coordination Sequence:
#
# PCOD9462618 Si02
#       6
#     8   8   8   8   8   8
#     4   7  13  28  49  68  85 116 160 194 224 273
#     4   9  17  32  51  68  92 125 158 192 234 282
#     4   8  15  31  51  68  90 122 158 192 233 282
#     4  10  19  32  50  71  97 128 158 190 235 285
#     4  11  21  31  46  71  99 124 157 197 234 276
#     4   9  18  32  51  74  97 123 157 196 236 281
#
# _framework density 25.140464000000001
#
# number of rings (size 3 to 8) (size 9 to 14) (size 15 to 20)
#    0.000    3.000    0.000    5.000    0.000    2.000 
#    0.000    7.500    0.000    1.000    0.000    0.000 
#    0.000    0.000    0.000    0.000    0.000    0.000 
#
# Total GULP energy -267804.184974 kJ/mol
# GULP energy per Si atom -5579.253854 kJ/mol
# Density = 2.508324 g / cm^3
# Si number density = 25.140464 Si / 1000 Ang^3
#
#
#
# Elastic Constant Matrix: (Units=GPa)
#
#
# Indices 1 2 3 4 5 6 
#
# 1 46.1019 -8.4697 7.6782 0.0000 0.0000 0.0000
# 2 -8.4697 26.6059 12.3641 0.0000 0.0000 0.0000
# 3 7.6782 12.3641 203.8484 0.0000 0.0000 0.0000
# 4 0.0000 0.0000 0.0000 34.3450 0.0000 0.0000
# 5 0.0000 0.0000 0.0000 0.0000 26.9400 0.0000
# 6 0.0000 0.0000 0.0000 0.0000 0.0000 15.6857
#
#
#
# Elastic Compliance Matrix: (Units=1/GPa)
#
#
# Indices 1 2 3 4 5 6 
#
# 1 0.023406 0.008089 -0.001372 0.000000 0.000000 0.000000
# 2 0.008089 0.041471 -0.002820 0.000000 0.000000 0.000000
# 3 -0.001372 -0.002820 0.005128 0.000000 0.000000 0.000000
# 4 0.000000 0.000000 0.000000 0.029116 0.000000 0.000000
# 5 0.000000 0.000000 0.000000 0.000000 0.037119 0.000000
# 6 0.000000 0.000000 0.000000 0.000000 0.000000 0.063752
#
#
# Mechanical properties :
#
#
# Convention : Reuss Voigt Hill
#
# Bulk Modulus (GPa) = 12.85386 33.30016 23.07701
# Shear Modulus (GPa) = 22.92179 33.05972 27.99076
#
# Velocity S-wave (km/s) = 3.02279 3.63023 3.34035
# Velocity P-wave (km/s) = 4.16016 5.55390 4.90677
#
# Compressibility (1/GPa) = 0.07779766
#
# Stress axis : x y z
#
# Youngs Moduli (GPa) = 42.72482 24.11323 194.99510
#
# Poissons Ratio (x) = -0.19504 0.26757
# Poissons Ratio (y) = -0.34558 0.54989
# Poissons Ratio (z) = 0.05863 0.06800
#
# Static dielectric constant tensor:
#      x y z
#    x 2.139910 0.000000 0.000000 
#    y 0.000000 1.891090 0.000000 
#    z 0.000000 0.000000 2.066370 
# 
# From -- ./inp_files/23750.got.cif
#   From: 2010.05.17/outbox.cif.g08.bks.cpg/sg62_12_cif.got.tgz:23750.got - 2010.06.03 15:25:27.
