data_PCOD9462054
_publ_section_title
;
Structure prediction by ZEFSAII (Michael W. Deem and Ramdas Pophale) SiO2 
 PCOD9462054
Probable space group: P N M A
;
_chemical_formula_sum "Si O2"
_cell_formula_units_Z 64
_cell_length_a 15.276706
_cell_length_b 23.189279
_cell_length_c 9.426615
_cell_angle_alpha 90.000000
_cell_angle_beta 90.000000
_cell_angle_gamma 90.000000
_cell_volume 3339.433016
_symmetry_space_group_name_H-M "P N M A"
_symmetry_group_IT_number 62
_symmetry_cell_setting 'orthorhombic'
loop_
_space_group_symop_operation_xyz
x,y,z
1/2-x,-y,1/2+z
1/2+x,1/2-y,1/2-z
-x,1/2+y,-z
-x,-y,-z
1/2+x,y,1/2-z
1/2-x,1/2+y,1/2+z
x,1/2-y,z
loop_
_atom_site_type_symbol
_atom_site_label
_atom_site_fract_x
_atom_site_fract_y
_atom_site_fract_z
Si Si1 0.671616 0.472576 0.010553
Si Si2 0.488091 0.319091 0.394007
Si Si3 0.789542 0.182465 0.078335
Si Si4 0.648615 0.121746 0.245620
Si Si5 0.399950 0.438849 0.800984
Si Si6 0.557065 0.387906 0.656504
Si Si7 0.352041 0.975679 0.539895
Si Si8 0.272134 0.614139 0.201414
O O1 0.641674 0.420845 0.111840
O O2 0.608814 0.524499 0.055268
O O3 0.771596 0.493670 0.040048
O O4 0.683898 0.445818 0.855654
O O5 0.496905 0.250000 0.385776
O O6 0.386601 0.335331 0.372372
O O7 0.557224 0.349855 0.290243
O O8 0.511807 0.343802 0.548760
O O9 0.791721 0.250000 0.046628
O O10 0.719825 0.168318 0.200021
O O11 0.760095 0.148838 0.936362
O O12 0.681150 0.080153 0.372082
O O13 0.489023 0.404609 0.779030
O O14 0.388917 0.481096 0.661398
O O15 0.313994 0.399075 0.790985
O O16 0.580342 0.446415 0.568221
O O17 0.647422 0.360387 0.711707
#
# Coordination Sequence:
#
# PCOD9462054 Si02
#       8
#     8   8   8   8   8   8   8   8
#     4   9  18  34  51  77 113 145 177 216 264 329
#     4  10  21  37  59  85 105 136 190 235 275 329
#     4  10  20  38  61  80 104 141 182 232 281 322
#     4   9  19  35  57  83 109 142 179 226 275 320
#     4  10  18  33  50  76 110 143 181 219 263 320
#     4  11  20  33  55  78 107 146 181 225 274 324
#     4   9  18  32  51  79 110 144 180 216 261 326
#     4  10  20  34  53  78 108 142 183 222 271 328
#
# _framework density 19.164929999999998
#
# number of rings (size 3 to 8) (size 9 to 14) (size 15 to 20)
#    0.000    2.250    2.500    0.750    0.000    1.000 
#    0.000    2.500    0.000    0.000    0.000    0.000 
#    0.000    0.000    0.000    0.000    0.000    0.000 
#
# Total GULP energy -356611.672737 kJ/mol
# GULP energy per Si atom -5572.057387 kJ/mol
# Density = 1.912131 g / cm^3
# Si number density = 19.164930 Si / 1000 Ang^3
#
#
#
# Elastic Constant Matrix: (Units=GPa)
#
#
# Indices 1 2 3 4 5 6 
#
# 1 96.4235 18.2756 11.6363 0.0000 0.0000 0.0000
# 2 18.2756 37.4064 1.9850 0.0000 0.0000 0.0000
# 3 11.6363 1.9850 11.6780 0.0000 0.0000 0.0000
# 4 0.0000 0.0000 0.0000 14.0787 0.0000 0.0000
# 5 0.0000 0.0000 0.0000 0.0000 34.7127 0.0000
# 6 0.0000 0.0000 0.0000 0.0000 0.0000 18.2710
#
#
#
# Elastic Compliance Matrix: (Units=1/GPa)
#
#
# Indices 1 2 3 4 5 6 
#
# 1 0.012876 -0.005661 -0.011868 0.000000 0.000000 0.000000
# 2 -0.005661 0.029466 0.000632 0.000000 0.000000 0.000000
# 3 -0.011868 0.000632 0.097349 0.000000 0.000000 0.000000
# 4 0.000000 0.000000 0.000000 0.071029 0.000000 0.000000
# 5 0.000000 0.000000 0.000000 0.000000 0.028808 0.000000
# 6 0.000000 0.000000 0.000000 0.000000 0.000000 0.054731
#
#
# Mechanical properties :
#
#
# Convention : Reuss Voigt Hill
#
# Bulk Modulus (GPa) = 9.44306 23.25573 16.34940
# Shear Modulus (GPa) = 13.76077 20.98657 17.37367
#
# Velocity S-wave (km/s) = 2.68249 3.31274 3.01414
# Velocity P-wave (km/s) = 3.81213 5.17622 4.54563
#
# Compressibility (1/GPa) = 0.10589782
#
# Stress axis : x y z
#
# Youngs Moduli (GPa) = 77.66340 33.93777 10.27231
#
# Poissons Ratio (x) = 0.19212 0.12191
# Poissons Ratio (y) = 0.43966 -0.00650
# Poissons Ratio (z) = 0.92170 -0.02146
#
# Static dielectric constant tensor:
#      x y z
#    x 1.686380 0.000000 0.000000 
#    y 0.000000 1.672640 0.000000 
#    z 0.000000 0.000000 1.693610 
# 
# From -- ./inp_files/6972.got.cif
#   From: 2010.05.17/outbox.cif.g08.bks.cpg/sg62_4_cif.got.tgz:6972.got - 2010.06.03 15:25:27.
