data_PCOD9462465
_publ_section_title
;
Structure prediction by ZEFSAII (Michael W. Deem and Ramdas Pophale) SiO2 
 PCOD9462465
Probable space group: P N M A
;
_chemical_formula_sum "Si O2"
_cell_formula_units_Z 56
_cell_length_a 17.828004
_cell_length_b 7.413258
_cell_length_c 18.241898
_cell_angle_alpha 90.000000
_cell_angle_beta 90.000000
_cell_angle_gamma 90.000000
_cell_volume 2410.914788
_symmetry_space_group_name_H-M "P N M A"
_symmetry_group_IT_number 62
_symmetry_cell_setting 'orthorhombic'
loop_
_space_group_symop_operation_xyz
x,y,z
1/2-x,-y,1/2+z
1/2+x,1/2-y,1/2-z
-x,1/2+y,-z
-x,-y,-z
1/2+x,y,1/2-z
1/2-x,1/2+y,1/2+z
x,1/2-y,z
loop_
_atom_site_type_symbol
_atom_site_label
_atom_site_fract_x
_atom_site_fract_y
_atom_site_fract_z
Si Si1 0.923483 0.040990 0.402589
Si Si2 0.342518 0.530104 0.784304
Si Si3 0.374639 0.544578 0.360731
Si Si4 0.303994 0.452847 0.211751
Si Si5 0.092876 0.030993 0.432216
Si Si6 0.045632 0.468600 0.165085
Si Si7 0.088581 0.464755 0.013421
O O1 0.933462 0.250000 0.380085
O O2 0.864177 0.963286 0.344250
O O3 0.008485 0.968202 0.409769
O O4 0.891751 0.031520 0.485282
O O5 0.336217 0.750000 0.785024
O O6 0.275435 0.461898 0.733095
O O7 0.349604 0.473709 0.868659
O O8 0.418777 0.484142 0.742266
O O9 0.346179 0.750000 0.359008
O O10 0.340521 0.443180 0.292326
O O11 0.463749 0.546710 0.346383
O O12 0.366890 0.464778 0.442742
O O13 0.288626 0.250000 0.183043
O O14 0.091574 0.250000 0.434284
O O15 0.038696 0.250000 0.161557
O O16 0.098740 0.525093 0.096874
O O17 0.100043 0.250000 0.011272
O O18 0.000000 0.500000 0.000000
#
# Coordination Sequence:
#
# PCOD9462465 Si02
#       7
#     8   8   8   8   8   8   8
#     4   9  18  33  54  79 101 129 173 218 254 300
#     4   9  18  33  53  76 101 132 173 213 251 304
#     4  10  19  31  48  75 105 132 165 209 255 300
#     4  10  20  35  52  73 102 137 176 210 250 308
#     4   9  17  32  54  77 102 130 168 216 262 302
#     4   9  16  31  54  74  95 131 173 211 247 293
#     4   8  15  27  45  70  97 123 157 197 240 287
#
# _framework density 23.227696000000002
#
# number of rings (size 3 to 8) (size 9 to 14) (size 15 to 20)
#    0.000    2.857    0.000    1.286    0.000    3.429 
#    2.571    5.000    0.000    0.000    0.000    0.000 
#    0.000    0.000    0.000    0.000    0.000    0.000 
#
# Total GULP energy -312187.122262 kJ/mol
# GULP energy per Si atom -5574.770040 kJ/mol
# Density = 2.317483 g / cm^3
# Si number density = 23.227696 Si / 1000 Ang^3
#
#
#
# Elastic Constant Matrix: (Units=GPa)
#
#
# Indices 1 2 3 4 5 6 
#
# 1 23.8874 -3.3616 1.1954 0.0000 0.0000 0.0000
# 2 -3.3616 78.4826 -6.4754 0.0000 0.0000 0.0000
# 3 1.1954 -6.4754 87.0765 0.0000 0.0000 0.0000
# 4 0.0000 0.0000 0.0000 125.1279 0.0000 0.0000
# 5 0.0000 0.0000 0.0000 0.0000 28.1464 0.0000
# 6 0.0000 0.0000 0.0000 0.0000 0.0000 5.4964
#
#
#
# Elastic Compliance Matrix: (Units=1/GPa)
#
#
# Indices 1 2 3 4 5 6 
#
# 1 0.042134 0.001768 -0.000447 0.000000 0.000000 0.000000
# 2 0.001768 0.012895 0.000935 0.000000 0.000000 0.000000
# 3 -0.000447 0.000935 0.011560 0.000000 0.000000 0.000000
# 4 0.000000 0.000000 0.000000 0.007992 0.000000 0.000000
# 5 0.000000 0.000000 0.000000 0.000000 0.035528 0.000000
# 6 0.000000 0.000000 0.000000 0.000000 0.000000 0.181939
#
#
# Mechanical properties :
#
#
# Convention : Reuss Voigt Hill
#
# Bulk Modulus (GPa) = 14.06479 19.12927 16.59703
# Shear Modulus (GPa) = 16.06495 44.96000 30.51248
#
# Velocity S-wave (km/s) = 2.63274 4.40434 3.62833
# Velocity P-wave (km/s) = 3.91281 5.84104 4.97131
#
# Compressibility (1/GPa) = 0.07109954
#
# Stress axis : x y z
#
# Youngs Moduli (GPa) = 23.73363 77.55238 86.50678
#
# Poissons Ratio (x) = -0.13710 0.03867
# Poissons Ratio (y) = -0.04196 -0.08085
# Poissons Ratio (z) = 0.01061 -0.07248
#
# Static dielectric constant tensor:
#      x y z
#    x 1.876240 0.000000 0.000000 
#    y 0.000000 1.935370 0.000000 
#    z 0.000000 0.000000 1.892210 
# 
# From -- ./inp_files/24653.got.cif
#   From: 2010.05.17/outbox.cif.g08.bks.cpg/sg62_13_cif.got.tgz:24653.got - 2010.06.03 15:25:27.
