data_PCOD9462458
_publ_section_title
;
Structure prediction by ZEFSAII (Michael W. Deem and Ramdas Pophale) SiO2 
 PCOD9462458
Probable space group: P N M A
;
_chemical_formula_sum "Si O2"
_cell_formula_units_Z 64
_cell_length_a 5.420360
_cell_length_b 23.417739
_cell_length_c 26.873390
_cell_angle_alpha 90.000000
_cell_angle_beta 90.000000
_cell_angle_gamma 90.000000
_cell_volume 3411.108612
_symmetry_space_group_name_H-M "P N M A"
_symmetry_group_IT_number 62
_symmetry_cell_setting 'orthorhombic'
loop_
_space_group_symop_operation_xyz
x,y,z
1/2-x,-y,1/2+z
1/2+x,1/2-y,1/2-z
-x,1/2+y,-z
-x,-y,-z
1/2+x,y,1/2-z
1/2-x,1/2+y,1/2+z
x,1/2-y,z
loop_
_atom_site_type_symbol
_atom_site_label
_atom_site_fract_x
_atom_site_fract_y
_atom_site_fract_z
Si Si1 0.376730 0.072550 0.444731
Si Si2 0.894190 0.184925 0.999541
Si Si3 0.102700 0.684779 0.434434
Si Si4 0.119810 0.491632 0.726645
Si Si5 0.597778 0.495367 0.127771
Si Si6 0.762265 0.032574 0.947708
Si Si7 0.104892 0.400934 0.871735
Si Si8 0.535353 0.138177 0.733955
O O1 0.417468 0.138273 0.457149
O O2 0.244439 0.050133 0.495274
O O3 0.222592 0.060187 0.394980
O O4 0.612158 0.030131 0.442984
O O5 0.861919 0.250000 0.017164
O O6 0.650417 0.172958 0.964970
O O7 0.152638 0.182749 0.969423
O O8 0.080460 0.750000 0.415741
O O9 0.178238 0.640002 0.391883
O O10 0.367453 0.515285 0.750414
O O11 0.091672 0.423400 0.738339
O O12 0.114095 0.506821 0.668408
O O13 0.496565 0.528068 0.079332
O O14 0.791831 0.539725 0.150586
O O15 0.932570 0.076914 0.916705
O O16 0.981421 0.370735 0.824605
O O17 0.301907 0.166797 0.759685
#
# Coordination Sequence:
#
# PCOD9462458 Si02
#       8
#     8   8   8   8   8   8   8   8
#     4  10  21  32  48  78 111 140 173 212 264 318
#     4  10  21  39  57  73 103 143 180 218 255 305
#     4  10  22  37  55  76  97 133 185 228 261 305
#     4  10  19  34  49  70 102 134 178 211 251 314
#     4  11  21  30  52  75 109 144 171 214 269 322
#     4  10  20  32  46  76 111 141 171 208 264 325
#     4  11  20  31  54  73 100 141 177 223 267 321
#     4  10  19  31  48  72  96 129 177 214 262 317
#
# _framework density 18.762228
#
# number of rings (size 3 to 8) (size 9 to 14) (size 15 to 20)
#    0.000    1.750    3.750    2.625    3.500    0.000 
#    0.000    0.000    0.000    0.750    0.000    0.000 
#    0.000    1.000    0.000    0.000    0.000    0.000 
#
# Total GULP energy -356722.340450 kJ/mol
# GULP energy per Si atom -5573.786570 kJ/mol
# Density = 1.871952 g / cm^3
# Si number density = 18.762228 Si / 1000 Ang^3
#
#
#
# Elastic Constant Matrix: (Units=GPa)
#
#
# Indices 1 2 3 4 5 6 
#
# 1 88.4966 12.9668 8.7512 0.0000 0.0000 0.0000
# 2 12.9668 88.3779 20.1473 0.0000 0.0000 0.0000
# 3 8.7512 20.1473 42.7573 0.0000 0.0000 0.0000
# 4 0.0000 0.0000 0.0000 7.7805 0.0000 0.0000
# 5 0.0000 0.0000 0.0000 0.0000 18.3509 0.0000
# 6 0.0000 0.0000 0.0000 0.0000 0.0000 19.5106
#
#
#
# Elastic Compliance Matrix: (Units=1/GPa)
#
#
# Indices 1 2 3 4 5 6 
#
# 1 0.011667 -0.001308 -0.001772 0.000000 0.000000 0.000000
# 2 -0.001308 0.012823 -0.005775 0.000000 0.000000 0.000000
# 3 -0.001772 -0.005775 0.026471 0.000000 0.000000 0.000000
# 4 0.000000 0.000000 0.000000 0.128526 0.000000 0.000000
# 5 0.000000 0.000000 0.000000 0.000000 0.054493 0.000000
# 6 0.000000 0.000000 0.000000 0.000000 0.000000 0.051254
#
#
# Mechanical properties :
#
#
# Convention : Reuss Voigt Hill
#
# Bulk Modulus (GPa) = 30.07227 33.70693 31.88960
# Shear Modulus (GPa) = 15.92217 20.97951 18.45084
#
# Velocity S-wave (km/s) = 2.91628 3.34754 3.13933
# Velocity P-wave (km/s) = 5.23474 5.73984 5.49310
#
# Compressibility (1/GPa) = 0.03325322
#
# Stress axis : x y z
#
# Youngs Moduli (GPa) = 85.71411 77.98261 37.77660
#
# Poissons Ratio (x) = 0.10199 0.06692
# Poissons Ratio (y) = 0.11210 0.21815
# Poissons Ratio (z) = 0.15185 0.45033
#
# Static dielectric constant tensor:
#      x y z
#    x 1.753940 0.000000 0.000000 
#    y 0.000000 1.663810 0.000000 
#    z 0.000000 0.000000 1.690230 
# 
# From -- ./inp_files/30588.got.cif
#   From: 2010.05.17/outbox.cif.g08.bks.cpg/sg62_16_cif.got.tgz:30588.got - 2010.06.03 15:25:27.
