data_PCOD9462662
_publ_section_title
;
Structure prediction by ZEFSAII (Michael W. Deem and Ramdas Pophale) SiO2 
 PCOD9462662
Probable space group: P N M A
;
_chemical_formula_sum "Si O2"
_cell_formula_units_Z 48
_cell_length_a 14.745444
_cell_length_b 7.466419
_cell_length_c 17.812497
_cell_angle_alpha 90.000000
_cell_angle_beta 90.000000
_cell_angle_gamma 90.000000
_cell_volume 1961.078671
_symmetry_space_group_name_H-M "P N M A"
_symmetry_group_IT_number 62
_symmetry_cell_setting 'orthorhombic'
loop_
_space_group_symop_operation_xyz
x,y,z
1/2-x,-y,1/2+z
1/2+x,1/2-y,1/2-z
-x,1/2+y,-z
-x,-y,-z
1/2+x,y,1/2-z
1/2-x,1/2+y,1/2+z
x,1/2-y,z
loop_
_atom_site_type_symbol
_atom_site_label
_atom_site_fract_x
_atom_site_fract_y
_atom_site_fract_z
Si Si1 0.122532 0.465779 0.054801
Si Si2 0.684004 0.545977 0.748324
Si Si3 0.062397 0.042270 0.888892
Si Si4 0.349547 0.540740 0.840519
Si Si5 0.314010 0.466228 0.008259
Si Si6 0.950493 0.470095 0.374390
O O1 0.119105 0.250000 0.057038
O O2 0.227209 0.520745 0.058204
O O3 0.046780 0.528706 0.113241
O O4 0.090545 0.525932 0.971448
O O5 0.704618 0.750000 0.772306
O O6 0.616372 0.551131 0.677042
O O7 0.778161 0.463877 0.719137
O O8 0.623643 0.467198 0.814121
O O9 0.088843 0.250000 0.885270
O O10 0.360296 0.750000 0.821222
O O11 0.450126 0.464617 0.851610
O O12 0.305465 0.530203 0.923273
O O13 0.313269 0.250000 0.005538
O O14 0.407932 0.524958 0.046009
O O15 0.953844 0.250000 0.373850
#
# Coordination Sequence:
#
# PCOD9462662 Si02
#       6
#     8   8   8   8   8   8
#     4   9  18  31  51  79 107 141 178 218 266 320
#     4  10  20  35  55  78 108 146 183 224 273 326
#     4  10  19  32  51  78 109 140 178 222 269 321
#     4  10  20  35  57  82 107 140 182 228 273 321
#     4  10  19  35  58  82 110 145 183 226 273 325
#     4   9  20  36  55  81 109 142 187 227 266 324
#
# _framework density 24.476324000000002
#
# number of rings (size 3 to 8) (size 9 to 14) (size 15 to 20)
#    0.000    2.333    1.667    1.000    0.000    2.667 
#    0.000    6.667    0.000    2.000    0.000    0.000 
#    0.000    0.000    0.000    0.000    0.000    0.000 
#
# Total GULP energy -268170.298779 kJ/mol
# GULP energy per Si atom -5586.881225 kJ/mol
# Density = 2.442062 g / cm^3
# Si number density = 24.476324 Si / 1000 Ang^3
#
#
#
# Elastic Constant Matrix: (Units=GPa)
#
#
# Indices 1 2 3 4 5 6 
#
# 1 156.0530 -6.1522 12.5417 0.0000 0.0000 0.0000
# 2 -6.1522 73.6095 -13.0938 0.0000 0.0000 0.0000
# 3 12.5417 -13.0938 23.4313 0.0000 0.0000 0.0000
# 4 0.0000 0.0000 0.0000 3.0848 0.0000 0.0000
# 5 0.0000 0.0000 0.0000 0.0000 26.2479 0.0000
# 6 0.0000 0.0000 0.0000 0.0000 0.0000 1.3358
#
#
#
# Elastic Compliance Matrix: (Units=1/GPa)
#
#
# Indices 1 2 3 4 5 6 
#
# 1 0.006697 -0.000086 -0.003633 0.000000 0.000000 0.000000
# 2 -0.000086 0.015086 0.008477 0.000000 0.000000 0.000000
# 3 -0.003633 0.008477 0.049359 0.000000 0.000000 0.000000
# 4 0.000000 0.000000 0.000000 0.324167 0.000000 0.000000
# 5 0.000000 0.000000 0.000000 0.000000 0.038098 0.000000
# 6 0.000000 0.000000 0.000000 0.000000 0.000000 0.748617
#
#
# Mechanical properties :
#
#
# Convention : Reuss Voigt Hill
#
# Bulk Modulus (GPa) = 12.39832 26.63167 19.51499
# Shear Modulus (GPa) = 4.16877 23.45358 13.81118
#
# Velocity S-wave (km/s) = 1.30648 3.09886 2.37801
# Velocity P-wave (km/s) = 2.71151 4.86910 3.94084
#
# Compressibility (1/GPa) = 0.08065611
#
# Stress axis : x y z
#
# Youngs Moduli (GPa) = 149.32895 66.28751 20.25968
#
# Poissons Ratio (x) = 0.00573 0.07360
# Poissons Ratio (y) = 0.01292 -0.17173
# Poissons Ratio (z) = 0.54247 -0.56189
#
# Static dielectric constant tensor:
#      x y z
#    x 1.981660 0.000000 0.000000 
#    y 0.000000 1.931390 0.000000 
#    z 0.000000 0.000000 1.922300 
# 
# From -- ./inp_files/23643.got.cif
#   From: 2010.05.17/outbox.cif.g08.bks.cpg/sg62_12_cif.got.tgz:23643.got - 2010.06.03 15:25:27.
