data_PCOD9462919
_publ_section_title
;
Structure prediction by ZEFSAII (Michael W. Deem and Ramdas Pophale) SiO2 
 PCOD9462919
Probable space group: P N M A
;
_chemical_formula_sum "Si O2"
_cell_formula_units_Z 64
_cell_length_a 18.306713
_cell_length_b 13.864606
_cell_length_c 13.518337
_cell_angle_alpha 90.000000
_cell_angle_beta 90.000000
_cell_angle_gamma 90.000000
_cell_volume 3431.161611
_symmetry_space_group_name_H-M "P N M A"
_symmetry_group_IT_number 62
_symmetry_cell_setting 'orthorhombic'
loop_
_space_group_symop_operation_xyz
x,y,z
1/2-x,-y,1/2+z
1/2+x,1/2-y,1/2-z
-x,1/2+y,-z
-x,-y,-z
1/2+x,y,1/2-z
1/2-x,1/2+y,1/2+z
x,1/2-y,z
loop_
_atom_site_type_symbol
_atom_site_label
_atom_site_fract_x
_atom_site_fract_y
_atom_site_fract_z
Si Si1 0.399893 0.041081 0.715038
Si Si2 0.298047 0.861516 0.494490
Si Si3 0.492425 0.864819 0.009910
Si Si4 0.034980 0.986100 0.664901
Si Si5 0.299382 0.641720 0.728588
Si Si6 0.361672 0.364045 0.299400
Si Si7 0.414696 0.025743 0.491224
Si Si8 0.151355 0.637553 0.402606
O O1 0.483671 0.027913 0.748502
O O2 0.359303 0.940565 0.739150
O O3 0.392737 0.063991 0.600001
O O4 0.363475 0.117215 0.788326
O O5 0.312304 0.750000 0.464827
O O6 0.280470 0.859858 0.611502
O O7 0.367690 0.928370 0.475851
O O8 0.227119 0.905467 0.440341
O O9 0.480940 0.750000 0.012907
O O10 0.576786 0.888298 0.040937
O O11 0.446674 0.925452 0.090710
O O12 0.487669 0.911348 0.901822
O O13 0.100575 0.927449 0.713622
O O14 0.326319 0.750000 0.751697
O O15 0.225606 0.623655 0.789910
O O16 0.377083 0.250000 0.285440
O O17 0.394345 0.402010 0.402886
O O18 0.500000 0.000000 0.500000
O O19 0.160059 0.750000 0.421936
#
# Coordination Sequence:
#
# PCOD9462919 Si02
#       8
#     8   8   8   8   8   8   8   8
#     4  10  20  35  54  76 107 144 179 225 270 324
#     4   9  18  34  57  80 104 136 179 230 278 332
#     4   9  18  32  53  83 113 138 172 225 283 338
#     4  10  19  33  54  79 109 142 181 222 276 337
#     4   9  19  34  54  80 104 132 176 228 279 326
#     4  11  22  36  56  79 108 147 190 234 277 325
#     4  11  22  37  50  75 114 147 190 227 266 324
#     4   9  17  32  55  79 102 134 177 219 273 330
#
# _framework density 18.652574000000001
#
# number of rings (size 3 to 8) (size 9 to 14) (size 15 to 20)
#    0.000    2.250    1.250    1.875    0.000    4.000 
#    0.000    0.625    0.000    0.750    0.000    0.000 
#    0.000    0.000    0.000    0.000    0.000    0.000 
#
# Total GULP energy -356711.095190 kJ/mol
# GULP energy per Si atom -5573.610862 kJ/mol
# Density = 1.861012 g / cm^3
# Si number density = 18.652574 Si / 1000 Ang^3
#
#
#
# Elastic Constant Matrix: (Units=GPa)
#
#
# Indices 1 2 3 4 5 6 
#
# 1 46.9695 4.1514 6.4455 0.0000 0.0000 0.0000
# 2 4.1514 54.4956 11.1974 0.0000 0.0000 0.0000
# 3 6.4455 11.1974 59.3499 0.0000 0.0000 0.0000
# 4 0.0000 0.0000 0.0000 29.3929 0.0000 0.0000
# 5 0.0000 0.0000 0.0000 0.0000 24.4299 0.0000
# 6 0.0000 0.0000 0.0000 0.0000 0.0000 23.5271
#
#
#
# Elastic Compliance Matrix: (Units=1/GPa)
#
#
# Indices 1 2 3 4 5 6 
#
# 1 0.021690 -0.001215 -0.002126 0.000000 0.000000 0.000000
# 2 -0.001215 0.019158 -0.003483 0.000000 0.000000 0.000000
# 3 -0.002126 -0.003483 0.017737 0.000000 0.000000 0.000000
# 4 0.000000 0.000000 0.000000 0.034022 0.000000 0.000000
# 5 0.000000 0.000000 0.000000 0.000000 0.040933 0.000000
# 6 0.000000 0.000000 0.000000 0.000000 0.000000 0.042504
#
#
# Mechanical properties :
#
#
# Convention : Reuss Voigt Hill
#
# Bulk Modulus (GPa) = 22.25353 22.71153 22.48253
# Shear Modulus (GPa) = 24.42936 24.73803 24.58369
#
# Velocity S-wave (km/s) = 3.62291 3.64573 3.63434
# Velocity P-wave (km/s) = 5.42744 5.47031 5.44892
#
# Compressibility (1/GPa) = 0.04493668
#
# Stress axis : x y z
#
# Youngs Moduli (GPa) = 46.10498 52.19679 56.37878
#
# Poissons Ratio (x) = 0.06344 0.11987
# Poissons Ratio (y) = 0.05604 0.19634
# Poissons Ratio (z) = 0.09803 0.18178
#
# Static dielectric constant tensor:
#      x y z
#    x 1.651460 0.000000 0.000000 
#    y 0.000000 1.639280 0.000000 
#    z 0.000000 0.000000 1.657560 
# 
# From -- ./inp_files/14331.got.cif
#   From: 2010.05.17/outbox.cif.g08.bks.cpg/sg62_8_cif.got.tgz:14331.got - 2010.06.03 15:25:27.
