data_PCOD9462001
_publ_section_title
;
Structure prediction by ZEFSAII (Michael W. Deem and Ramdas Pophale) SiO2 
 PCOD9462001
Probable space group: P N M A
;
_chemical_formula_sum "Si O2"
_cell_formula_units_Z 40
_cell_length_a 7.621619
_cell_length_b 11.128431
_cell_length_c 20.610970
_cell_angle_alpha 90.000000
_cell_angle_beta 90.000000
_cell_angle_gamma 90.000000
_cell_volume 1748.153658
_symmetry_space_group_name_H-M "P N M A"
_symmetry_group_IT_number 62
_symmetry_cell_setting 'orthorhombic'
loop_
_space_group_symop_operation_xyz
x,y,z
1/2-x,-y,1/2+z
1/2+x,1/2-y,1/2-z
-x,1/2+y,-z
-x,-y,-z
1/2+x,y,1/2-z
1/2-x,1/2+y,1/2+z
x,1/2-y,z
loop_
_atom_site_type_symbol
_atom_site_label
_atom_site_fract_x
_atom_site_fract_y
_atom_site_fract_z
Si Si1 0.793374 0.750000 0.354725
Si Si2 0.957607 0.888253 0.790920
Si Si3 0.705419 0.512703 0.176080
Si Si4 0.714348 0.106446 0.547995
Si Si5 0.082152 0.250000 0.780580
Si Si6 0.680880 0.516441 0.414525
O O1 0.604635 0.750000 0.316659
O O2 0.933933 0.750000 0.297253
O O3 0.794820 0.632450 0.398030
O O4 0.920190 0.750000 0.777060
O O5 0.938806 0.972146 0.727536
O O6 0.836749 0.939480 0.848683
O O7 0.152998 0.905810 0.817787
O O8 0.667382 0.538704 0.101310
O O9 0.808870 0.632259 0.199245
O O10 0.731008 0.250000 0.552960
O O11 0.513993 0.067910 0.567211
O O12 0.743583 0.060808 0.475313
#
# Coordination Sequence:
#
# PCOD9462001 Si02
#       6
#     4   8   8   8   4   8
#     4  12  20  36  58  88 118 141 197 233 285 338
#     4  11  22  36  53  82 115 149 186 229 287 341
#     4  11  20  36  58  83 111 144 190 234 283 337
#     4  10  18  32  53  81 115 144 184 234 289 335
#     4  12  18  36  58  88 114 141 191 247 271 334
#     4  10  19  32  52  80 113 148 179 233 283 334
#
# _framework density 22.881283
#
# number of rings (size 3 to 8) (size 9 to 14) (size 15 to 20)
#    0.000    1.200    8.000    1.200    0.000    0.000 
#    3.600    0.000    0.000    1.200    0.000    0.000 
#    0.000    0.000    0.000    0.000    0.000    0.000 
#
# Total GULP energy -223890.503578 kJ/mol
# GULP energy per Si atom -5597.262589 kJ/mol
# Density = 2.282920 g / cm^3
# Si number density = 22.881283 Si / 1000 Ang^3
#
#
#
# Elastic Constant Matrix: (Units=GPa)
#
#
# Indices 1 2 3 4 5 6 
#
# 1 59.1273 21.6990 24.9358 0.0000 0.0000 0.0000
# 2 21.6990 139.9275 38.6151 0.0000 0.0000 0.0000
# 3 24.9358 38.6151 115.9459 0.0000 0.0000 0.0000
# 4 0.0000 0.0000 0.0000 45.0573 0.0000 0.0000
# 5 0.0000 0.0000 0.0000 0.0000 21.5664 0.0000
# 6 0.0000 0.0000 0.0000 0.0000 0.0000 20.0863
#
#
#
# Elastic Compliance Matrix: (Units=1/GPa)
#
#
# Indices 1 2 3 4 5 6 
#
# 1 0.019101 -0.002013 -0.003437 0.000000 0.000000 0.000000
# 2 -0.002013 0.008082 -0.002259 0.000000 0.000000 0.000000
# 3 -0.003437 -0.002259 0.010116 0.000000 0.000000 0.000000
# 4 0.000000 0.000000 0.000000 0.022194 0.000000 0.000000
# 5 0.000000 0.000000 0.000000 0.000000 0.046368 0.000000
# 6 0.000000 0.000000 0.000000 0.000000 0.000000 0.049785
#
#
# Mechanical properties :
#
#
# Convention : Reuss Voigt Hill
#
# Bulk Modulus (GPa) = 45.70291 53.94449 49.82370
# Shear Modulus (GPa) = 28.03322 32.65871 30.34597
#
# Velocity S-wave (km/s) = 3.50403 3.78208 3.64570
# Velocity P-wave (km/s) = 6.03226 6.53446 6.28838
#
# Compressibility (1/GPa) = 0.02188044
#
# Stress axis : x y z
#
# Youngs Moduli (GPa) = 52.35256 123.73003 98.85128
#
# Poissons Ratio (x) = 0.24913 0.33979
# Poissons Ratio (y) = 0.10541 0.22327
# Poissons Ratio (z) = 0.17996 0.27946
#
# Static dielectric constant tensor:
#      x y z
#    x 1.928880 0.000000 0.000000 
#    y 0.000000 1.795640 0.000000 
#    z 0.000000 0.000000 1.876970 
# 
# From -- ./inp_files/25786.got.cif
#   From: 2010.05.17/outbox.cif.g08.bks.cpg/sg62_13_cif.got.tgz:25786.got - 2010.06.03 15:25:27.
