data_PCOD9462327
_publ_section_title
;
Structure prediction by ZEFSAII (Michael W. Deem and Ramdas Pophale) SiO2 
 PCOD9462327
Probable space group: P N M A
;
_chemical_formula_sum "Si O2"
_cell_formula_units_Z 56
_cell_length_a 21.136990
_cell_length_b 9.243934
_cell_length_c 18.824500
_cell_angle_alpha 90.000000
_cell_angle_beta 90.000000
_cell_angle_gamma 90.000000
_cell_volume 3678.099111
_symmetry_space_group_name_H-M "P N M A"
_symmetry_group_IT_number 62
_symmetry_cell_setting 'orthorhombic'
loop_
_space_group_symop_operation_xyz
x,y,z
1/2-x,-y,1/2+z
1/2+x,1/2-y,1/2-z
-x,1/2+y,-z
-x,-y,-z
1/2+x,y,1/2-z
1/2-x,1/2+y,1/2+z
x,1/2-y,z
loop_
_atom_site_type_symbol
_atom_site_label
_atom_site_fract_x
_atom_site_fract_y
_atom_site_fract_z
Si Si1 0.499422 0.423249 0.575801
Si Si2 0.749999 0.424686 0.074663
Si Si3 0.376345 0.422984 0.663115
Si Si4 0.366919 0.922674 0.349000
Si Si5 0.257732 0.922792 0.090347
Si Si6 0.322467 0.915600 0.791304
Si Si7 0.183513 0.916829 0.717066
O O1 0.500000 0.500000 0.500000
O O2 0.493884 0.250000 0.565361
O O3 0.439113 0.471565 0.622219
O O4 0.564711 0.450768 0.617099
O O5 0.759473 0.250000 0.081534
O O6 0.812834 0.504989 0.101945
O O7 0.693188 0.464389 0.128625
O O8 0.736558 0.457186 0.992729
O O9 0.378790 0.250000 0.670088
O O10 0.313699 0.457801 0.616724
O O11 0.366744 0.491086 0.740666
O O12 0.356743 0.750000 0.344797
O O13 0.359770 0.993669 0.271302
O O14 0.266264 0.750000 0.099746
O O15 0.305504 0.007751 0.141439
O O16 0.344558 0.750000 0.792466
O O17 0.253060 0.918239 0.754177
O O18 0.163742 0.750000 0.710972
#
# Coordination Sequence:
#
# PCOD9462327 Si02
#       7
#     8   8   8   8   8   8   8
#     4  10  21  33  45  64  89 118 151 183 213 251
#     4   9  17  29  45  66  92 118 143 177 222 265
#     4   9  17  29  43  60  85 116 147 176 209 251
#     4  10  19  30  44  63  88 118 152 184 214 255
#     4   9  16  27  45  66  88 115 143 174 216 263
#     4   8  15  27  42  61  84 111 143 176 212 256
#     4   9  17  29  44  62  86 114 144 180 220 261
#
# _framework density 15.225255000000001
#
# number of rings (size 3 to 8) (size 9 to 14) (size 15 to 20)
#    0.000    2.857    0.000    2.571    0.000    6.857 
#    0.000    2.857    0.000    0.000    0.000    1.000 
#    0.000    0.000    0.000    0.000    0.000    0.000 
#
# Total GULP energy -311938.084853 kJ/mol
# GULP energy per Si atom -5570.322944 kJ/mol
# Density = 1.519060 g / cm^3
# Si number density = 15.225255 Si / 1000 Ang^3
#
#
#
# Elastic Constant Matrix: (Units=GPa)
#
#
# Indices 1 2 3 4 5 6 
#
# 1 64.5363 42.6263 61.8607 0.0000 0.0000 0.0000
# 2 42.6263 48.7089 65.1618 0.0000 0.0000 0.0000
# 3 61.8607 65.1618 163.2379 0.0000 0.0000 0.0000
# 4 0.0000 0.0000 0.0000 28.7350 0.0000 0.0000
# 5 0.0000 0.0000 0.0000 0.0000 21.6858 0.0000
# 6 0.0000 0.0000 0.0000 0.0000 0.0000 16.3229
#
#
#
# Elastic Compliance Matrix: (Units=1/GPa)
#
#
# Indices 1 2 3 4 5 6 
#
# 1 0.037140 -0.029343 -0.002361 0.000000 0.000000 0.000000
# 2 -0.029343 0.067241 -0.015722 0.000000 0.000000 0.000000
# 3 -0.002361 -0.015722 0.013297 0.000000 0.000000 0.000000
# 4 0.000000 0.000000 0.000000 0.034801 0.000000 0.000000
# 5 0.000000 0.000000 0.000000 0.000000 0.046113 0.000000
# 6 0.000000 0.000000 0.000000 0.000000 0.000000 0.061264
#
#
# Mechanical properties :
#
#
# Convention : Reuss Voigt Hill
#
# Bulk Modulus (GPa) = 43.81051 68.42007 56.11529
# Shear Modulus (GPa) = 13.80014 20.47102 17.13558
#
# Velocity S-wave (km/s) = 3.01391 3.67078 3.35844
# Velocity P-wave (km/s) = 6.39913 7.93740 7.20941
#
# Compressibility (1/GPa) = 0.02282557
#
# Stress axis : x y z
#
# Youngs Moduli (GPa) = 26.92542 14.87186 75.20706
#
# Poissons Ratio (x) = 0.43639 0.17758
# Poissons Ratio (y) = 0.79007 1.18238
# Poissons Ratio (z) = 0.06358 0.23381
#
# Static dielectric constant tensor:
#      x y z
#    x 1.485970 0.000000 0.000000 
#    y 0.000000 1.513430 0.000000 
#    z 0.000000 0.000000 1.509350 
# 
# From -- ./inp_files/24553.got.cif
#   From: 2010.05.17/outbox.cif.g08.bks.cpg/sg62_13_cif.got.tgz:24553.got - 2010.06.03 15:25:27.
