data_PCOD9462155
_publ_section_title
;
Structure prediction by ZEFSAII (Michael W. Deem and Ramdas Pophale) SiO2 
 PCOD9462155
Probable space group: P N M A
;
_chemical_formula_sum "Si O2"
_cell_formula_units_Z 48
_cell_length_a 9.769771
_cell_length_b 16.773678
_cell_length_c 14.966672
_cell_angle_alpha 90.000000
_cell_angle_beta 90.000000
_cell_angle_gamma 90.000000
_cell_volume 2452.663268
_symmetry_space_group_name_H-M "P N M A"
_symmetry_group_IT_number 62
_symmetry_cell_setting 'orthorhombic'
loop_
_space_group_symop_operation_xyz
x,y,z
1/2-x,-y,1/2+z
1/2+x,1/2-y,1/2-z
-x,1/2+y,-z
-x,-y,-z
1/2+x,y,1/2-z
1/2-x,1/2+y,1/2+z
x,1/2-y,z
loop_
_atom_site_type_symbol
_atom_site_label
_atom_site_fract_x
_atom_site_fract_y
_atom_site_fract_z
Si Si1 0.798256 0.929880 0.588917
Si Si2 0.502166 0.590209 0.539854
Si Si3 0.364360 0.581014 0.220061
Si Si4 0.115429 0.466871 0.219773
Si Si5 0.475632 0.661524 0.044404
Si Si6 0.274792 0.618603 0.410822
O O1 0.660060 0.887316 0.554346
O O2 0.923142 0.901260 0.528606
O O3 0.833326 0.919218 0.693244
O O4 0.765712 0.024290 0.581474
O O5 0.500000 0.500000 0.500000
O O6 0.432959 0.585372 0.636942
O O7 0.406165 0.637065 0.471442
O O8 0.239434 0.524348 0.190415
O O9 0.488972 0.523593 0.250915
O O10 0.313009 0.628826 0.307070
O O11 0.413242 0.634981 0.139177
O O12 0.429503 0.750000 0.019289
O O13 0.638472 0.660824 0.056796
#
# Coordination Sequence:
#
# PCOD9462155 Si02
#       6
#     8   8   8   8   8   8
#     4  10  21  36  60  89 116 153 204 256 297 352
#     4  10  18  34  59  94 119 144 187 260 307 351
#     4  11  20  36  56  90 123 152 194 244 302 359
#     4  11  19  34  62  96 118 146 196 252 310 349
#     4  12  26  40  56  84 127 171 203 245 309 375
#     4  10  21  37  62  88 120 154 205 252 294 357
#
# _framework density 19.570563
#
# number of rings (size 3 to 8) (size 9 to 14) (size 15 to 20)
#    0.000    1.333    8.333    2.500    2.333    0.667 
#    0.000    0.833    0.000    4.000    0.000    0.000 
#    0.000    0.000    0.000    0.000    0.000    0.000 
#
# Total GULP energy -267964.518947 kJ/mol
# GULP energy per Si atom -5582.594145 kJ/mol
# Density = 1.952602 g / cm^3
# Si number density = 19.570563 Si / 1000 Ang^3
#
#
#
# Elastic Constant Matrix: (Units=GPa)
#
#
# Indices 1 2 3 4 5 6 
#
# 1 95.6115 -7.3015 9.6508 0.0000 0.0000 0.0000
# 2 -7.3015 15.9106 8.3182 0.0000 0.0000 0.0000
# 3 9.6508 8.3182 90.2623 0.0000 0.0000 0.0000
# 4 0.0000 0.0000 0.0000 -0.1064 0.0000 0.0000
# 5 0.0000 0.0000 0.0000 0.0000 43.4254 0.0000
# 6 0.0000 0.0000 0.0000 0.0000 0.0000 3.9021
#
#
#
# Elastic Compliance Matrix: (Units=1/GPa)
#
#
# Indices 1 2 3 4 5 6 
#
# 1 0.011093 0.006000 -0.001739 0.000000 0.000000 0.000000
# 2 0.006000 0.069277 -0.007026 0.000000 0.000000 0.000000
# 3 -0.001739 -0.007026 0.011912 0.000000 0.000000 0.000000
# 4 0.000000 0.000000 0.000000 -9.398626 0.000000 0.000000
# 5 0.000000 0.000000 0.000000 0.000000 0.023028 0.000000
# 6 0.000000 0.000000 0.000000 0.000000 0.000000 0.256271
#
#
# Mechanical properties :
#
#
# Convention : Reuss Voigt Hill
#
# Bulk Modulus (GPa) = 11.52710 24.79105 18.15908
# Shear Modulus (GPa) = -0.55601 22.18535 10.81467
#
# Velocity S-wave (km/s) = -0.53359 3.37056 2.35329
# Velocity P-wave (km/s) = 2.35014 5.27661 4.08447
#
# Compressibility (1/GPa) = 0.08675207
#
# Stress axis : x y z
#
# Youngs Moduli (GPa) = 90.14956 14.43473 83.94755
#
# Poissons Ratio (x) = -0.08660 0.14598
# Poissons Ratio (y) = -0.54086 0.58979
# Poissons Ratio (z) = 0.15676 0.10141
#
# Static dielectric constant tensor:
#      x y z
#    x 1.718500 0.000000 0.000000 
#    y 0.000000 1.713100 0.000000 
#    z 0.000000 0.000000 1.685750 
# 
# From -- ./inp_files/16913.got.cif
#   From: 2010.05.17/outbox.cif.g08.bks.cpg/sg62_9_cif.got.tgz:16913.got - 2010.06.03 15:25:27.
