data_PCOD9462230
_publ_section_title
;
Structure prediction by ZEFSAII (Michael W. Deem and Ramdas Pophale) SiO2 
 PCOD9462230
Probable space group: P N M A
;
_chemical_formula_sum "Si O2"
_cell_formula_units_Z 64
_cell_length_a 31.349209
_cell_length_b 17.603692
_cell_length_c 5.561142
_cell_angle_alpha 90.000000
_cell_angle_beta 90.000000
_cell_angle_gamma 90.000000
_cell_volume 3068.981944
_symmetry_space_group_name_H-M "P N M A"
_symmetry_group_IT_number 62
_symmetry_cell_setting 'orthorhombic'
loop_
_space_group_symop_operation_xyz
x,y,z
1/2-x,-y,1/2+z
1/2+x,1/2-y,1/2-z
-x,1/2+y,-z
-x,-y,-z
1/2+x,y,1/2-z
1/2-x,1/2+y,1/2+z
x,1/2-y,z
loop_
_atom_site_type_symbol
_atom_site_label
_atom_site_fract_x
_atom_site_fract_y
_atom_site_fract_z
Si Si1 0.204732 0.167481 0.910610
Si Si2 0.163331 0.664291 0.720203
Si Si3 0.052861 0.419842 0.581652
Si Si4 0.821342 0.537515 0.778606
Si Si5 0.105626 0.538455 0.895527
Si Si6 0.789365 0.125652 0.773100
Si Si7 0.865853 0.834555 0.463428
Si Si8 0.029457 0.543763 0.189779
O O1 0.212400 0.250000 0.020474
O O2 0.240823 0.153729 0.711723
O O3 0.157789 0.166352 0.793970
O O4 0.208213 0.097503 0.086504
O O5 0.146414 0.750000 0.741847
O O6 0.127580 0.598255 0.717137
O O7 0.189666 0.660588 0.470015
O O8 0.188658 0.646679 0.971598
O O9 0.079767 0.471583 0.767030
O O10 0.083662 0.349228 0.537359
O O11 0.046999 0.476946 0.359599
O O12 0.004770 0.404135 0.671581
O O13 0.793646 0.464134 0.716042
O O14 0.845338 0.591351 0.588734
O O15 0.857925 0.501248 0.946923
O O16 0.070443 0.579757 0.062886
O O17 0.857107 0.750000 0.568094
O O18 0.000000 0.500000 0.000000
#
# Coordination Sequence:
#
# PCOD9462230 Si02
#       8
#     8   8   8   8   8   8   8   8
#     4  11  25  42  61  92 132 174 219 275 339 393
#     4  11  24  44  66  96 132 172 217 274 338 394
#     4  10  18  37  61  87 123 159 214 260 320 398
#     4  11  23  38  64  90 127 167 225 271 321 395
#     4  10  20  36  63  92 119 163 212 268 323 388
#     4  11  27  43  69  94 131 179 228 274 325 396
#     4  11  23  38  60  92 129 172 213 274 339 396
#     4   9  19  34  61  91 116 158 207 263 317 386
#
# _framework density 20.853821
#
# number of rings (size 3 to 8) (size 9 to 14) (size 15 to 20)
#    0.000    1.500    2.500    2.250    7.000    0.000 
#    0.000    0.625    0.000    6.750    0.000    0.000 
#    0.000    0.000    0.000    0.000    0.000    0.000 
#
# Total GULP energy -356812.887021 kJ/mol
# GULP energy per Si atom -5575.201360 kJ/mol
# Density = 2.080636 g / cm^3
# Si number density = 20.853821 Si / 1000 Ang^3
#
#
#
# Elastic Constant Matrix: (Units=GPa)
#
#
# Indices 1 2 3 4 5 6 
#
# 1 74.1072 11.7526 6.1076 0.0000 0.0000 0.0000
# 2 11.7526 120.8826 -0.8709 0.0000 0.0000 0.0000
# 3 6.1076 -0.8709 50.9669 0.0000 0.0000 0.0000
# 4 0.0000 0.0000 0.0000 12.2250 0.0000 0.0000
# 5 0.0000 0.0000 0.0000 0.0000 32.6592 0.0000
# 6 0.0000 0.0000 0.0000 0.0000 0.0000 11.1270
#
#
#
# Elastic Compliance Matrix: (Units=1/GPa)
#
#
# Indices 1 2 3 4 5 6 
#
# 1 0.013848 -0.001358 -0.001683 0.000000 0.000000 0.000000
# 2 -0.001358 0.008407 0.000306 0.000000 0.000000 0.000000
# 3 -0.001683 0.000306 0.019827 0.000000 0.000000 0.000000
# 4 0.000000 0.000000 0.000000 0.081800 0.000000 0.000000
# 5 0.000000 0.000000 0.000000 0.000000 0.030619 0.000000
# 6 0.000000 0.000000 0.000000 0.000000 0.000000 0.089872
#
#
# Mechanical properties :
#
#
# Convention : Reuss Voigt Hill
#
# Bulk Modulus (GPa) = 27.31279 31.10390 29.20835
# Shear Modulus (GPa) = 19.08057 26.46673 22.77365
#
# Velocity S-wave (km/s) = 3.02812 3.56638 3.30822
# Velocity P-wave (km/s) = 5.03505 5.64857 5.35061
#
# Compressibility (1/GPa) = 0.03661288
#
# Stress axis : x y z
#
# Youngs Moduli (GPa) = 72.21219 118.95169 50.43515
#
# Poissons Ratio (x) = 0.16159 0.08487
# Poissons Ratio (y) = 0.09810 -0.01546
# Poissons Ratio (z) = 0.12151 -0.03645
#
# Static dielectric constant tensor:
#      x y z
#    x 1.838220 0.000000 0.000000 
#    y 0.000000 1.752860 0.000000 
#    z 0.000000 0.000000 1.848090 
# 
# From -- ./inp_files/3680.got.cif
#   From: 2010.05.17/outbox.cif.g08.bks.cpg/sg62_2_cif.got.tgz:3680.got - 2010.06.03 15:25:27.
