data_PCOD9462547
_publ_section_title
;
Structure prediction by ZEFSAII (Michael W. Deem and Ramdas Pophale) SiO2 
 PCOD9462547
Probable space group: P N M A
;
_chemical_formula_sum "Si O2"
_cell_formula_units_Z 64
_cell_length_a 8.372892
_cell_length_b 13.513442
_cell_length_c 28.508089
_cell_angle_alpha 90.000000
_cell_angle_beta 90.000000
_cell_angle_gamma 90.000000
_cell_volume 3225.593070
_symmetry_space_group_name_H-M "P N M A"
_symmetry_group_IT_number 62
_symmetry_cell_setting 'orthorhombic'
loop_
_space_group_symop_operation_xyz
x,y,z
1/2-x,-y,1/2+z
1/2+x,1/2-y,1/2-z
-x,1/2+y,-z
-x,-y,-z
1/2+x,y,1/2-z
1/2-x,1/2+y,1/2+z
x,1/2-y,z
loop_
_atom_site_type_symbol
_atom_site_label
_atom_site_fract_x
_atom_site_fract_y
_atom_site_fract_z
Si Si1 0.268118 0.362488 0.735975
Si Si2 0.690217 0.390310 0.901376
Si Si3 0.902366 0.141679 0.540678
Si Si4 0.486469 0.065270 0.815519
Si Si5 0.994005 0.857508 0.148582
Si Si6 0.723209 0.455357 0.463520
Si Si7 0.120913 0.634730 0.966481
Si Si8 0.240796 0.487331 0.384866
O O1 0.201465 0.250000 0.734628
O O2 0.347483 0.382049 0.786089
O O3 0.408858 0.366994 0.697206
O O4 0.132986 0.442042 0.721362
O O5 0.585869 0.352943 0.944532
O O6 0.578145 0.373797 0.856297
O O7 0.865732 0.353004 0.890403
O O8 0.719313 0.505326 0.913469
O O9 0.829010 0.250000 0.544819
O O10 0.867312 0.098632 0.489823
O O11 0.824557 0.066315 0.577112
O O12 0.395984 0.979214 0.844837
O O13 0.909972 0.750000 0.148117
O O14 0.888003 0.952778 0.138101
O O15 0.568723 0.386351 0.461419
O O16 0.673524 0.552515 0.494608
O O17 0.149231 0.750000 0.977848
O O18 0.203610 0.603836 0.916934
#
# Coordination Sequence:
#
# PCOD9462547 Si02
#       8
#     8   8   8   8   8   8   8   8
#     4  10  20  33  51  81 117 151 184 218 270 340
#     4  10  20  35  50  76 115 154 192 226 269 326
#     4  10  20  32  51  80 115 155 191 231 278 325
#     4  10  21  34  54  77 113 149 182 223 271 329
#     4  10  19  31  51  78 113 153 187 223 271 331
#     4  10  20  37  55  80 114 151 194 240 283 338
#     4  10  21  37  58  82 111 147 193 248 294 333
#     4  10  20  35  52  79 112 149 191 232 276 335
#
# _framework density 19.841311000000001
#
# number of rings (size 3 to 8) (size 9 to 14) (size 15 to 20)
#    0.000    2.000    1.250    2.625    0.000    8.500 
#    0.000    0.000    0.000    3.000    0.000    3.500 
#    0.000    0.000    0.000    0.000    0.000    0.000 
#
# Total GULP energy -356557.586397 kJ/mol
# GULP energy per Si atom -5571.212287 kJ/mol
# Density = 1.979615 g / cm^3
# Si number density = 19.841311 Si / 1000 Ang^3
#
#
#
# Elastic Constant Matrix: (Units=GPa)
#
#
# Indices 1 2 3 4 5 6 
#
# 1 69.4764 15.9887 26.7132 0.0000 0.0000 0.0000
# 2 15.9887 61.3400 13.8872 0.0000 0.0000 0.0000
# 3 26.7132 13.8872 62.5755 0.0000 0.0000 0.0000
# 4 0.0000 0.0000 0.0000 13.5027 0.0000 0.0000
# 5 0.0000 0.0000 0.0000 0.0000 42.1146 0.0000
# 6 0.0000 0.0000 0.0000 0.0000 0.0000 14.0351
#
#
#
# Elastic Compliance Matrix: (Units=1/GPa)
#
#
# Indices 1 2 3 4 5 6 
#
# 1 0.017751 -0.003065 -0.006897 0.000000 0.000000 0.000000
# 2 -0.003065 0.017694 -0.002618 0.000000 0.000000 0.000000
# 3 -0.006897 -0.002618 0.019506 0.000000 0.000000 0.000000
# 4 0.000000 0.000000 0.000000 0.074059 0.000000 0.000000
# 5 0.000000 0.000000 0.000000 0.000000 0.023745 0.000000
# 6 0.000000 0.000000 0.000000 0.000000 0.000000 0.071250
#
#
# Mechanical properties :
#
#
# Convention : Reuss Voigt Hill
#
# Bulk Modulus (GPa) = 33.56909 34.06333 33.81621
# Shear Modulus (GPa) = 19.29779 23.05068 21.17424
#
# Velocity S-wave (km/s) = 3.12205 3.41215 3.27031
# Velocity P-wave (km/s) = 5.47282 5.72091 5.59824
#
# Compressibility (1/GPa) = 0.02978931
#
# Stress axis : x y z
#
# Youngs Moduli (GPa) = 56.33541 56.51529 51.26556
#
# Poissons Ratio (x) = 0.17324 0.35360
# Poissons Ratio (y) = 0.17268 0.13423
# Poissons Ratio (z) = 0.38857 0.14797
#
# Static dielectric constant tensor:
#      x y z
#    x 1.776540 0.000000 0.000000 
#    y 0.000000 1.692760 0.000000 
#    z 0.000000 0.000000 1.786680 
# 
# From -- ./inp_files/32256.got.cif
#   From: 2010.05.17/outbox.cif.g08.bks.cpg/sg62_17_cif.got.tgz:32256.got - 2010.06.03 15:25:27.
