data_PCOD9462608
_publ_section_title
;
Structure prediction by ZEFSAII (Michael W. Deem and Ramdas Pophale) SiO2 
 PCOD9462608
Probable space group: P N M A
;
_chemical_formula_sum "Si O2"
_cell_formula_units_Z 40
_cell_length_a 26.382236
_cell_length_b 8.683950
_cell_length_c 9.978119
_cell_angle_alpha 90.000000
_cell_angle_beta 90.000000
_cell_angle_gamma 90.000000
_cell_volume 2286.007202
_symmetry_space_group_name_H-M "P N M A"
_symmetry_group_IT_number 62
_symmetry_cell_setting 'orthorhombic'
loop_
_space_group_symop_operation_xyz
x,y,z
1/2-x,-y,1/2+z
1/2+x,1/2-y,1/2-z
-x,1/2+y,-z
-x,-y,-z
1/2+x,y,1/2-z
1/2-x,1/2+y,1/2+z
x,1/2-y,z
loop_
_atom_site_type_symbol
_atom_site_label
_atom_site_fract_x
_atom_site_fract_y
_atom_site_fract_z
Si Si1 0.634771 0.565482 0.715749
Si Si2 0.638985 0.435553 0.292111
Si Si3 0.282518 0.064618 0.501726
Si Si4 0.056252 0.434759 0.991756
Si Si5 0.334894 0.563743 0.002106
O O1 0.631887 0.750000 0.714845
O O2 0.684529 0.518475 0.628637
O O3 0.586934 0.497420 0.636304
O O4 0.640092 0.504811 0.865664
O O5 0.641834 0.250000 0.294793
O O6 0.687930 0.498718 0.370363
O O7 0.590099 0.482279 0.379070
O O8 0.639399 0.484245 0.137688
O O9 0.283524 0.250000 0.508198
O O10 0.224248 0.015690 0.496307
O O11 0.054890 0.250000 0.987126
O O12 0.000000 0.500000 0.000000
O O13 0.336430 0.750000 0.010230
#
# Coordination Sequence:
#
# PCOD9462608 Si02
#       5
#     8   8   8   8   8
#     4  10  20  34  52  77 105 135 172 211 250 299
#     4   9  19  34  52  74 102 134 170 208 250 299
#     4   9  18  31  49  73 104 139 172 203 240 290
#     4  10  20  37  59  78  97 128 168 213 261 310
#     4  10  19  32  49  74 107 138 166 203 248 294
#
# _framework density 17.497758000000001
#
# number of rings (size 3 to 8) (size 9 to 14) (size 15 to 20)
#    0.000    2.400    0.000    2.400    0.000    4.800 
#    0.000    1.000    0.000    0.000    0.000    0.000 
#    0.000    0.000    0.000    0.000    0.000    0.000 
#
# Total GULP energy -223229.459612 kJ/mol
# GULP energy per Si atom -5580.736490 kJ/mol
# Density = 1.745793 g / cm^3
# Si number density = 17.497758 Si / 1000 Ang^3
#
#
#
# Elastic Constant Matrix: (Units=GPa)
#
#
# Indices 1 2 3 4 5 6 
#
# 1 134.8737 34.8483 81.5819 0.0000 0.0000 0.0000
# 2 34.8483 24.4449 38.5745 0.0000 0.0000 0.0000
# 3 81.5819 38.5745 184.7252 0.0000 0.0000 0.0000
# 4 0.0000 0.0000 0.0000 27.0605 0.0000 0.0000
# 5 0.0000 0.0000 0.0000 0.0000 5.3424 0.0000
# 6 0.0000 0.0000 0.0000 0.0000 0.0000 26.4175
#
#
#
# Elastic Compliance Matrix: (Units=1/GPa)
#
#
# Indices 1 2 3 4 5 6 
#
# 1 0.012581 -0.013673 -0.002701 0.000000 0.000000 0.000000
# 2 -0.013673 0.075873 -0.009805 0.000000 0.000000 0.000000
# 3 -0.002701 -0.009805 0.008654 0.000000 0.000000 0.000000
# 4 0.000000 0.000000 0.000000 0.036954 0.000000 0.000000
# 5 0.000000 0.000000 0.000000 0.000000 0.187182 0.000000
# 6 0.000000 0.000000 0.000000 0.000000 0.000000 0.037854
#
#
# Mechanical properties :
#
#
# Convention : Reuss Voigt Hill
#
# Bulk Modulus (GPa) = 22.34665 72.67256 47.50961
# Shear Modulus (GPa) = 11.72681 24.36667 18.04674
#
# Velocity S-wave (km/s) = 2.59161 3.73575 3.21499
# Velocity P-wave (km/s) = 4.66413 7.76083 6.40252
#
# Compressibility (1/GPa) = 0.04474944
#
# Stress axis : x y z
#
# Youngs Moduli (GPa) = 79.48567 13.17987 115.55455
#
# Poissons Ratio (x) = 0.18021 0.31212
# Poissons Ratio (y) = 1.08679 1.13307
# Poissons Ratio (z) = 0.21469 0.12923
#
# Static dielectric constant tensor:
#      x y z
#    x 1.571490 0.000000 0.000000 
#    y 0.000000 1.587230 0.000000 
#    z 0.000000 0.000000 1.588380 
# 
# From -- ./inp_files/9071.got.cif
#   From: 2010.05.17/outbox.cif.g08.bks.cpg/sg62_5_cif.got.tgz:9071.got - 2010.06.03 15:25:27.
