data_PCOD9462754
_publ_section_title
;
Structure prediction by ZEFSAII (Michael W. Deem and Ramdas Pophale) SiO2 
 PCOD9462754
Probable space group: P N M A
;
_chemical_formula_sum "Si O2"
_cell_formula_units_Z 60
_cell_length_a 5.434213
_cell_length_b 27.246005
_cell_length_c 19.680136
_cell_angle_alpha 90.000000
_cell_angle_beta 90.000000
_cell_angle_gamma 90.000000
_cell_volume 2913.852637
_symmetry_space_group_name_H-M "P N M A"
_symmetry_group_IT_number 62
_symmetry_cell_setting 'orthorhombic'
loop_
_space_group_symop_operation_xyz
x,y,z
1/2-x,-y,1/2+z
1/2+x,1/2-y,1/2-z
-x,1/2+y,-z
-x,-y,-z
1/2+x,y,1/2-z
1/2-x,1/2+y,1/2+z
x,1/2-y,z
loop_
_atom_site_type_symbol
_atom_site_label
_atom_site_fract_x
_atom_site_fract_y
_atom_site_fract_z
Si Si1 0.894653 0.075543 0.532540
Si Si2 0.743496 0.026188 0.068620
Si Si3 0.127834 0.804845 0.008655
Si Si4 0.619921 0.154655 0.267233
Si Si5 0.376679 0.173822 0.909016
Si Si6 0.423297 0.615264 0.583640
Si Si7 0.567978 0.455409 0.213148
Si Si8 0.574560 0.750000 0.208673
O O1 0.913899 0.114986 0.592116
O O2 0.794419 0.107385 0.469513
O O3 0.132478 0.049235 0.500672
O O4 0.716225 0.030907 0.553478
O O5 0.562814 0.030378 0.133900
O O6 0.962933 0.061269 0.091622
O O7 0.101101 0.750000 0.979997
O O8 0.388447 0.808199 0.046856
O O9 0.890501 0.813709 0.057898
O O10 0.110923 0.847354 0.952549
O O11 0.362813 0.181370 0.257066
O O12 0.644532 0.137558 0.344634
O O13 0.590588 0.103968 0.222974
O O14 0.392550 0.202329 0.838740
O O15 0.321903 0.472846 0.251474
O O16 0.300173 0.750000 0.238735
#
# Coordination Sequence:
#
# PCOD9462754 Si02
#       8
#     8   8   8   8   8   8   8   4
#     4  10  23  36  56  88 124 158 195 258 313 362
#     4  11  20  36  56  87 121 163 202 245 304 370
#     4  11  21  38  64  93 118 152 194 258 305 361
#     4  10  19  32  54  78 108 150 201 238 272 343
#     4  11  22  42  63  91 122 155 198 253 311 365
#     4  11  21  34  60  84 120 156 205 248 310 366
#     4  10  19  33  53  76 106 149 205 233 269 338
#     4  12  24  42  72  92 120 164 212 256 318 390
#
# _framework density 20.591294000000001
#
# number of rings (size 3 to 8) (size 9 to 14) (size 15 to 20)
#    0.000    1.333    5.333    2.800    0.000    0.000 
#    0.000    1.333    0.000    0.800    0.000    0.000 
#    0.000    0.000    0.000    0.000    0.000    0.000 
#
# Total GULP energy -334718.852768 kJ/mol
# GULP energy per Si atom -5578.647546 kJ/mol
# Density = 2.054443 g / cm^3
# Si number density = 20.591294 Si / 1000 Ang^3
#
#
#
# Elastic Constant Matrix: (Units=GPa)
#
#
# Indices 1 2 3 4 5 6 
#
# 1 107.4690 2.9969 6.5831 0.0000 0.0000 0.0000
# 2 2.9969 92.8721 10.5848 0.0000 0.0000 0.0000
# 3 6.5831 10.5848 57.0993 0.0000 0.0000 0.0000
# 4 0.0000 0.0000 0.0000 12.2723 0.0000 0.0000
# 5 0.0000 0.0000 0.0000 0.0000 32.3216 0.0000
# 6 0.0000 0.0000 0.0000 0.0000 0.0000 11.7468
#
#
#
# Elastic Compliance Matrix: (Units=1/GPa)
#
#
# Indices 1 2 3 4 5 6 
#
# 1 0.009374 -0.000183 -0.001047 0.000000 0.000000 0.000000
# 2 -0.000183 0.011003 -0.002019 0.000000 0.000000 0.000000
# 3 -0.001047 -0.002019 0.018008 0.000000 0.000000 0.000000
# 4 0.000000 0.000000 0.000000 0.081484 0.000000 0.000000
# 5 0.000000 0.000000 0.000000 0.000000 0.030939 0.000000
# 6 0.000000 0.000000 0.000000 0.000000 0.000000 0.085130
#
#
# Mechanical properties :
#
#
# Convention : Reuss Voigt Hill
#
# Bulk Modulus (GPa) = 31.35912 33.08555 32.22234
# Shear Modulus (GPa) = 19.75772 27.08651 23.42212
#
# Velocity S-wave (km/s) = 3.10097 3.63083 3.37631
# Velocity P-wave (km/s) = 5.29941 5.80343 5.55714
#
# Compressibility (1/GPa) = 0.03188865
#
# Stress axis : x y z
#
# Youngs Moduli (GPa) = 106.67529 90.88034 55.53009
#
# Poissons Ratio (x) = 0.01665 0.05813
# Poissons Ratio (y) = 0.01954 0.11210
# Poissons Ratio (z) = 0.11167 0.18346
#
# Static dielectric constant tensor:
#      x y z
#    x 1.838140 0.000000 0.000000 
#    y 0.000000 1.744180 0.000000 
#    z 0.000000 0.000000 1.745230 
# 
# From -- ./inp_files/21653.got.cif
#   From: 2010.05.17/outbox.cif.g08.bks.cpg/sg62_11_cif.got.tgz:21653.got - 2010.06.03 15:25:27.
