data_PCOD9462481
_publ_section_title
;
Structure prediction by ZEFSAII (Michael W. Deem and Ramdas Pophale) SiO2 
 PCOD9462481
Probable space group: P N M A
;
_chemical_formula_sum "Si O2"
_cell_formula_units_Z 48
_cell_length_a 18.577073
_cell_length_b 9.011696
_cell_length_c 16.922384
_cell_angle_alpha 90.000000
_cell_angle_beta 90.000000
_cell_angle_gamma 90.000000
_cell_volume 2832.992118
_symmetry_space_group_name_H-M "P N M A"
_symmetry_group_IT_number 62
_symmetry_cell_setting 'orthorhombic'
loop_
_space_group_symop_operation_xyz
x,y,z
1/2-x,-y,1/2+z
1/2+x,1/2-y,1/2-z
-x,1/2+y,-z
-x,-y,-z
1/2+x,y,1/2-z
1/2-x,1/2+y,1/2+z
x,1/2-y,z
loop_
_atom_site_type_symbol
_atom_site_label
_atom_site_fract_x
_atom_site_fract_y
_atom_site_fract_z
Si Si1 0.298102 0.420296 0.580421
Si Si2 0.800176 0.581071 0.578190
Si Si3 0.422165 0.927689 0.487939
Si Si4 0.329899 0.072111 0.162604
Si Si5 0.577215 0.573631 0.990739
Si Si6 0.341619 0.428674 0.340541
O O1 0.316610 0.250000 0.599111
O O2 0.249058 0.418785 0.500927
O O3 0.367982 0.513766 0.556136
O O4 0.246021 0.493431 0.644873
O O5 0.824147 0.750000 0.592929
O O6 0.867956 0.479908 0.558860
O O7 0.742774 0.535096 0.644392
O O8 0.425650 0.750000 0.488613
O O9 0.500000 0.000000 0.500000
O O10 0.388775 0.986114 0.405096
O O11 0.318943 0.250000 0.158343
O O12 0.385259 0.030959 0.092765
O O13 0.358715 0.037179 0.249799
O O14 0.570435 0.750000 0.992356
O O15 0.500000 0.500000 0.000000
O O16 0.348952 0.250000 0.353898
#
# Coordination Sequence:
#
# PCOD9462481 Si02
#       6
#     8   8   8   8   8   8
#     4   9  17  31  51  74  99 128 164 204 246 296
#     4   8  15  29  49  70  93 123 158 196 239 289
#     4  11  21  34  53  76 103 135 172 211 256 309
#     4   9  18  33  53  76 101 132 169 209 253 302
#     4  10  19  31  49  72  99 131 167 203 242 292
#     4   9  18  34  54  76 102 131 166 209 256 304
#
# _framework density 16.943216
#
# number of rings (size 3 to 8) (size 9 to 14) (size 15 to 20)
#    0.000    2.667    0.000    3.500    0.000    5.333 
#    0.000    1.667    0.000    4.000    0.000    0.000 
#    0.000    0.000    0.000    0.000    0.000    0.000 
#
# Total GULP energy -267472.588890 kJ/mol
# GULP energy per Si atom -5572.345602 kJ/mol
# Density = 1.690465 g / cm^3
# Si number density = 16.943216 Si / 1000 Ang^3
#
#
#
# Elastic Constant Matrix: (Units=GPa)
#
#
# Indices 1 2 3 4 5 6 
#
# 1 132.6514 75.2046 41.7150 0.0000 0.0000 0.0000
# 2 75.2046 92.5938 41.4076 0.0000 0.0000 0.0000
# 3 41.7150 41.4076 72.7710 0.0000 0.0000 0.0000
# 4 0.0000 0.0000 0.0000 20.3080 0.0000 0.0000
# 5 0.0000 0.0000 0.0000 0.0000 15.5730 0.0000
# 6 0.0000 0.0000 0.0000 0.0000 0.0000 33.0750
#
#
#
# Elastic Compliance Matrix: (Units=1/GPa)
#
#
# Indices 1 2 3 4 5 6 
#
# 1 0.014211 -0.010596 -0.002118 0.000000 0.000000 0.000000
# 2 -0.010596 0.022386 -0.006664 0.000000 0.000000 0.000000
# 3 -0.002118 -0.006664 0.018747 0.000000 0.000000 0.000000
# 4 0.000000 0.000000 0.000000 0.049242 0.000000 0.000000
# 5 0.000000 0.000000 0.000000 0.000000 0.064214 0.000000
# 6 0.000000 0.000000 0.000000 0.000000 0.000000 0.030234
#
#
# Mechanical properties :
#
#
# Convention : Reuss Voigt Hill
#
# Bulk Modulus (GPa) = 60.27549 68.29671 64.28610
# Shear Modulus (GPa) = 20.54922 23.10383 21.82652
#
# Velocity S-wave (km/s) = 3.48635 3.69671 3.59307
# Velocity P-wave (km/s) = 7.20128 7.65621 7.43222
#
# Compressibility (1/GPa) = 0.01659049
#
# Stress axis : x y z
#
# Youngs Moduli (GPa) = 70.36589 44.67149 53.34065
#
# Poissons Ratio (x) = 0.47332 0.11295
# Poissons Ratio (y) = 0.74557 0.35546
# Poissons Ratio (z) = 0.14900 0.29769
#
# Static dielectric constant tensor:
#      x y z
#    x 1.557510 0.000000 0.000000 
#    y 0.000000 1.575080 0.000000 
#    z 0.000000 0.000000 1.588910 
# 
# From -- ./inp_files/24183.got.cif
#   From: 2010.05.17/outbox.cif.g08.bks.cpg/sg62_13_cif.got.tgz:24183.got - 2010.06.03 15:25:27.
