data_PCOD9462338
_publ_section_title
;
Structure prediction by ZEFSAII (Michael W. Deem and Ramdas Pophale) SiO2 
 PCOD9462338
Probable space group: P N M A
;
_chemical_formula_sum "Si O2"
_cell_formula_units_Z 64
_cell_length_a 11.981826
_cell_length_b 10.300661
_cell_length_c 22.901881
_cell_angle_alpha 90.000000
_cell_angle_beta 90.000000
_cell_angle_gamma 90.000000
_cell_volume 2826.566821
_symmetry_space_group_name_H-M "P N M A"
_symmetry_group_IT_number 62
_symmetry_cell_setting 'orthorhombic'
loop_
_space_group_symop_operation_xyz
x,y,z
1/2-x,-y,1/2+z
1/2+x,1/2-y,1/2-z
-x,1/2+y,-z
-x,-y,-z
1/2+x,y,1/2-z
1/2-x,1/2+y,1/2+z
x,1/2-y,z
loop_
_atom_site_type_symbol
_atom_site_label
_atom_site_fract_x
_atom_site_fract_y
_atom_site_fract_z
Si Si1 0.360930 0.398737 0.216690
Si Si2 0.893869 0.036716 0.873935
Si Si3 0.169680 0.599634 0.589488
Si Si4 0.097270 0.608136 0.841884
Si Si5 0.413200 0.386034 0.502680
Si Si6 0.133590 0.402364 0.350308
Si Si7 0.829273 0.399670 0.747475
Si Si8 0.161838 0.401378 0.482721
O O1 0.311028 0.250000 0.216963
O O2 0.400425 0.417621 0.150014
O O3 0.438582 0.396450 0.273570
O O4 0.279962 0.516817 0.234173
O O5 0.795436 0.930093 0.885175
O O6 0.020385 0.987947 0.876634
O O7 0.875377 0.122283 0.930082
O O8 0.886679 0.101155 0.810831
O O9 0.161056 0.750000 0.571004
O O10 0.141448 0.502349 0.535967
O O11 0.067709 0.750000 0.862844
O O12 0.229719 0.595675 0.845793
O O13 0.500000 0.500000 0.500000
O O14 0.466490 0.250000 0.486226
O O15 0.295537 0.407530 0.471360
O O16 0.103336 0.250000 0.336090
O O17 0.109545 0.516342 0.303088
O O18 0.108170 0.427952 0.419025
O O19 0.808792 0.250000 0.729164
O O20 0.136076 0.250000 0.498043
#
# Coordination Sequence:
#
# PCOD9462338 Si02
#       8
#     8   8   8   8   8   8   8   8
#     4   8  16  31  47  65  89 119 154 191 229 270
#     4  10  19  30  45  67  96 125 154 187 227 270
#     4   9  17  28  45  68  92 117 151 190 223 262
#     4   9  16  28  47  67  90 121 155 187 222 267
#     4  10  20  32  44  61  90 126 156 183 216 260
#     4   9  18  33  49  67  91 120 155 193 230 273
#     4  10  19  31  47  66  90 121 154 192 234 274
#     4   9  18  31  46  63  87 119 151 183 225 272
#
# _framework density 22.642309999999998
#
# number of rings (size 3 to 8) (size 9 to 14) (size 15 to 20)
#    0.000    2.750    0.000    2.625    0.000    8.500 
#    0.000    7.500    0.000    0.000    0.000    0.875 
#    0.000    0.000    0.000    0.000    0.000    0.000 
#
# Total GULP energy -356319.936454 kJ/mol
# GULP energy per Si atom -5567.499007 kJ/mol
# Density = 2.259077 g / cm^3
# Si number density = 22.642310 Si / 1000 Ang^3
#
#
#
# Elastic Constant Matrix: (Units=GPa)
#
#
# Indices 1 2 3 4 5 6 
#
# 1 30.1248 24.0814 2.1913 0.0000 0.0000 0.0000
# 2 24.0814 158.7743 84.0340 0.0000 0.0000 0.0000
# 3 2.1913 84.0340 180.9762 0.0000 0.0000 0.0000
# 4 0.0000 0.0000 0.0000 79.6652 0.0000 0.0000
# 5 0.0000 0.0000 0.0000 0.0000 33.6823 0.0000
# 6 0.0000 0.0000 0.0000 0.0000 0.0000 10.6867
#
#
#
# Elastic Compliance Matrix: (Units=1/GPa)
#
#
# Indices 1 2 3 4 5 6 
#
# 1 0.038977 -0.007507 0.003014 0.000000 0.000000 0.000000
# 2 -0.007507 0.009796 -0.004458 0.000000 0.000000 0.000000
# 3 0.003014 -0.004458 0.007559 0.000000 0.000000 0.000000
# 4 0.000000 0.000000 0.000000 0.012553 0.000000 0.000000
# 5 0.000000 0.000000 0.000000 0.000000 0.029689 0.000000
# 6 0.000000 0.000000 0.000000 0.000000 0.000000 0.093574
#
#
# Mechanical properties :
#
#
# Convention : Reuss Voigt Hill
#
# Bulk Modulus (GPa) = 26.02113 65.60984 45.81549
# Shear Modulus (GPa) = 22.43565 42.11142 32.27354
#
# Velocity S-wave (km/s) = 3.15123 4.31728 3.77950
# Velocity P-wave (km/s) = 4.97569 7.34108 6.27092
#
# Compressibility (1/GPa) = 0.03843030
#
# Stress axis : x y z
#
# Youngs Moduli (GPa) = 25.65635 102.08066 132.29197
#
# Poissons Ratio (x) = 0.76629 -0.39869
# Poissons Ratio (y) = 0.19259 0.58974
# Poissons Ratio (z) = -0.07732 0.45506
#
# Static dielectric constant tensor:
#      x y z
#    x 1.917410 0.000000 0.000000 
#    y 0.000000 1.808950 0.000000 
#    z 0.000000 0.000000 1.932970 
# 
# From -- ./inp_files/29924.got.cif
#   From: 2010.05.17/outbox.cif.g08.bks.cpg/sg62_15_cif.got.tgz:29924.got - 2010.06.03 15:25:27.
