data_PCOD9462053
_publ_section_title
;
Structure prediction by ZEFSAII (Michael W. Deem and Ramdas Pophale) SiO2 
 PCOD9462053
Probable space group: P N M A
;
_chemical_formula_sum "Si O2"
_cell_formula_units_Z 40
_cell_length_a 10.287831
_cell_length_b 18.275530
_cell_length_c 7.772925
_cell_angle_alpha 90.000000
_cell_angle_beta 90.000000
_cell_angle_gamma 90.000000
_cell_volume 1461.430878
_symmetry_space_group_name_H-M "P N M A"
_symmetry_group_IT_number 62
_symmetry_cell_setting 'orthorhombic'
loop_
_space_group_symop_operation_xyz
x,y,z
1/2-x,-y,1/2+z
1/2+x,1/2-y,1/2-z
-x,1/2+y,-z
-x,-y,-z
1/2+x,y,1/2-z
1/2-x,1/2+y,1/2+z
x,1/2-y,z
loop_
_atom_site_type_symbol
_atom_site_label
_atom_site_fract_x
_atom_site_fract_y
_atom_site_fract_z
Si Si1 0.593101 0.661112 0.101004
Si Si2 0.148958 0.750000 0.819927
Si Si3 0.110687 0.054635 0.562826
Si Si4 0.376915 0.750000 0.555498
Si Si5 0.122546 0.600656 0.008749
Si Si6 0.850171 0.905993 0.051631
O O1 0.602392 0.750000 0.115462
O O2 0.454557 0.634375 0.029684
O O3 0.613442 0.624346 0.289944
O O4 0.702648 0.612633 0.995151
O O5 0.245167 0.750000 0.661967
O O6 0.992048 0.750000 0.804369
O O7 0.168014 0.674414 0.917717
O O8 0.256382 0.045276 0.490010
O O9 0.134086 0.055057 0.766797
O O10 0.000000 0.000000 0.500000
O O11 0.387277 0.681072 0.431244
O O12 0.980194 0.573841 0.942658
#
# Coordination Sequence:
#
# PCOD9462053 Si02
#       6
#     8   4   8   4   8   8
#     4  10  18  32  64 100 126 164 213 276 340 397
#     4  10  20  33  56  90 132 159 217 269 332 396
#     4  10  22  36  60  95 136 173 224 266 320 412
#     4  10  20  35  60  96 134 171 207 279 348 384
#     4   9  19  34  61  91 129 164 211 275 333 389
#     4   9  19  37  64  92 128 165 214 268 342 397
#
# _framework density 27.370432999999998
#
# number of rings (size 3 to 8) (size 9 to 14) (size 15 to 20)
#    0.000    2.400    2.000    0.000    5.600    1.600 
#    0.000    1.000   39.600    0.000    0.000    0.000 
#    0.000    0.000    0.000    0.000    0.000    0.000 
#
# Total GULP energy -222901.262636 kJ/mol
# GULP energy per Si atom -5572.531566 kJ/mol
# Density = 2.730814 g / cm^3
# Si number density = 27.370433 Si / 1000 Ang^3
#
#
#
# Elastic Constant Matrix: (Units=GPa)
#
#
# Indices 1 2 3 4 5 6 
#
# 1 221.5727 0.6019 41.6904 0.0000 0.0000 0.0000
# 2 0.6019 48.1106 23.9780 0.0000 0.0000 0.0000
# 3 41.6904 23.9780 65.8034 0.0000 0.0000 0.0000
# 4 0.0000 0.0000 0.0000 38.5620 0.0000 0.0000
# 5 0.0000 0.0000 0.0000 0.0000 38.3391 0.0000
# 6 0.0000 0.0000 0.0000 0.0000 0.0000 39.3656
#
#
#
# Elastic Compliance Matrix: (Units=1/GPa)
#
#
# Indices 1 2 3 4 5 6 
#
# 1 0.005270 0.001953 -0.004050 0.000000 0.000000 0.000000
# 2 0.001953 0.026122 -0.010756 0.000000 0.000000 0.000000
# 3 -0.004050 -0.010756 0.021682 0.000000 0.000000 0.000000
# 4 0.000000 0.000000 0.000000 0.025932 0.000000 0.000000
# 5 0.000000 0.000000 0.000000 0.000000 0.026083 0.000000
# 6 0.000000 0.000000 0.000000 0.000000 0.000000 0.025403
#
#
# Mechanical properties :
#
#
# Convention : Reuss Voigt Hill
#
# Bulk Modulus (GPa) = 36.54005 52.00303 44.27154
# Shear Modulus (GPa) = 30.24421 41.20109 35.72265
#
# Velocity S-wave (km/s) = 3.32775 3.88405 3.61661
# Velocity P-wave (km/s) = 5.30513 6.25743 5.80085
#
# Compressibility (1/GPa) = 0.02736723
#
# Stress axis : x y z
#
# Youngs Moduli (GPa) = 189.75328 38.28257 46.12081
#
# Poissons Ratio (x) = -0.07476 0.18681
# Poissons Ratio (y) = -0.37055 0.49606
# Poissons Ratio (z) = 0.76858 0.41175
#
# Static dielectric constant tensor:
#      x y z
#    x 2.385720 0.000000 0.000000 
#    y 0.000000 2.270250 0.000000 
#    z 0.000000 0.000000 2.063530 
# 
# From -- ./inp_files/5080.got.cif
#   From: 2010.05.17/outbox.cif.g08.bks.cpg/sg62_3_cif.got.tgz:5080.got - 2010.06.03 15:25:27.
