data_PCOD9462305
_publ_section_title
;
Structure prediction by ZEFSAII (Michael W. Deem and Ramdas Pophale) SiO2 
 PCOD9462305
Probable space group: P N M A
;
_chemical_formula_sum "Si O2"
_cell_formula_units_Z 56
_cell_length_a 19.651942
_cell_length_b 8.779253
_cell_length_c 18.048757
_cell_angle_alpha 90.000000
_cell_angle_beta 90.000000
_cell_angle_gamma 90.000000
_cell_volume 3113.940688
_symmetry_space_group_name_H-M "P N M A"
_symmetry_group_IT_number 62
_symmetry_cell_setting 'orthorhombic'
loop_
_space_group_symop_operation_xyz
x,y,z
1/2-x,-y,1/2+z
1/2+x,1/2-y,1/2-z
-x,1/2+y,-z
-x,-y,-z
1/2+x,y,1/2-z
1/2-x,1/2+y,1/2+z
x,1/2-y,z
loop_
_atom_site_type_symbol
_atom_site_label
_atom_site_fract_x
_atom_site_fract_y
_atom_site_fract_z
Si Si1 0.354004 0.572846 0.658284
Si Si2 0.791992 0.432763 0.068712
Si Si3 0.426070 0.432903 0.517903
Si Si4 0.815633 0.568354 0.681052
Si Si5 0.067817 0.922861 0.409027
Si Si6 0.716088 0.573218 0.932101
Si Si7 0.430318 0.074413 0.088110
O O1 0.377070 0.750000 0.661975
O O2 0.400970 0.485880 0.599317
O O3 0.343324 0.507722 0.740517
O O4 0.278530 0.571450 0.623809
O O5 0.795436 0.250000 0.072908
O O6 0.755434 0.488063 0.144436
O O7 0.866652 0.485382 0.040501
O O8 0.740436 0.479393 0.002955
O O9 0.500000 0.500000 0.500000
O O10 0.428732 0.250000 0.515335
O O11 0.807967 0.750000 0.691243
O O12 0.874976 0.532468 0.622877
O O13 0.082419 0.750000 0.386361
O O14 0.068043 0.928560 0.498292
O O15 0.992915 0.975130 0.384180
O O16 0.704747 0.750000 0.955298
O O17 0.645976 0.520718 0.894916
O O18 0.439489 0.250000 0.111970
#
# Coordination Sequence:
#
# PCOD9462305 Si02
#       7
#     8   8   8   8   8   8   8
#     4   9  19  34  54  77 102 133 169 213 265 315
#     4   9  18  31  51  76 101 131 169 213 260 308
#     4  10  20  36  57  81 107 138 179 225 267 314
#     4  10  19  33  51  74 103 134 168 210 262 318
#     4  10  19  29  45  70 100 134 168 204 246 297
#     4   9  16  30  50  72  97 126 167 210 249 299
#     4   9  17  29  45  69  98 129 166 207 248 294
#
# _framework density 17.983644000000002
#
# number of rings (size 3 to 8) (size 9 to 14) (size 15 to 20)
#    0.000    2.571    1.429    0.857    0.000    2.286 
#    0.000    1.429    0.000    5.143    0.000    0.000 
#    0.000    0.000    0.000    0.000    0.000    0.000 
#
# Total GULP energy -311765.203617 kJ/mol
# GULP energy per Si atom -5567.235779 kJ/mol
# Density = 1.794271 g / cm^3
# Si number density = 17.983644 Si / 1000 Ang^3
#
#
#
# Elastic Constant Matrix: (Units=GPa)
#
#
# Indices 1 2 3 4 5 6 
#
# 1 116.0519 13.0673 32.2781 0.0000 0.0000 0.0000
# 2 13.0673 12.4007 13.5703 0.0000 0.0000 0.0000
# 3 32.2781 13.5703 63.1056 0.0000 0.0000 0.0000
# 4 0.0000 0.0000 0.0000 16.3556 0.0000 0.0000
# 5 0.0000 0.0000 0.0000 0.0000 10.2397 0.0000
# 6 0.0000 0.0000 0.0000 0.0000 0.0000 22.6835
#
#
#
# Elastic Compliance Matrix: (Units=1/GPa)
#
#
# Indices 1 2 3 4 5 6 
#
# 1 0.010462 -0.006759 -0.003898 0.000000 0.000000 0.000000
# 2 -0.006759 0.109823 -0.020159 0.000000 0.000000 0.000000
# 3 -0.003898 -0.020159 0.022175 0.000000 0.000000 0.000000
# 4 0.000000 0.000000 0.000000 0.061141 0.000000 0.000000
# 5 0.000000 0.000000 0.000000 0.000000 0.097659 0.000000
# 6 0.000000 0.000000 0.000000 0.000000 0.000000 0.044085
#
#
# Mechanical properties :
#
#
# Convention : Reuss Voigt Hill
#
# Bulk Modulus (GPa) = 12.37189 34.37662 23.37426
# Shear Modulus (GPa) = 11.52284 18.69858 15.11071
#
# Velocity S-wave (km/s) = 2.53403 3.22802 2.90185
# Velocity P-wave (km/s) = 3.93144 5.74895 4.92477
#
# Compressibility (1/GPa) = 0.08082836
#
# Stress axis : x y z
#
# Youngs Moduli (GPa) = 95.58410 9.10554 45.09531
#
# Poissons Ratio (x) = 0.06154 0.17577
# Poissons Ratio (y) = 0.64604 0.90909
# Poissons Ratio (z) = 0.37257 0.18356
#
# Static dielectric constant tensor:
#      x y z
#    x 1.642640 0.000000 0.000000 
#    y 0.000000 1.626080 0.000000 
#    z 0.000000 0.000000 1.630110 
# 
# From -- ./inp_files/24557.got.cif
#   From: 2010.05.17/outbox.cif.g08.bks.cpg/sg62_13_cif.got.tgz:24557.got - 2010.06.03 15:25:27.
