data_PCOD9462740
_publ_section_title
;
Structure prediction by ZEFSAII (Michael W. Deem and Ramdas Pophale) SiO2 
 PCOD9462740
Probable space group: P N M A
;
_chemical_formula_sum "Si O2"
_cell_formula_units_Z 64
_cell_length_a 10.471661
_cell_length_b 23.237658
_cell_length_c 12.425771
_cell_angle_alpha 90.000000
_cell_angle_beta 90.000000
_cell_angle_gamma 90.000000
_cell_volume 3023.648310
_symmetry_space_group_name_H-M "P N M A"
_symmetry_group_IT_number 62
_symmetry_cell_setting 'orthorhombic'
loop_
_space_group_symop_operation_xyz
x,y,z
1/2-x,-y,1/2+z
1/2+x,1/2-y,1/2-z
-x,1/2+y,-z
-x,-y,-z
1/2+x,y,1/2-z
1/2-x,1/2+y,1/2+z
x,1/2-y,z
loop_
_atom_site_type_symbol
_atom_site_label
_atom_site_fract_x
_atom_site_fract_y
_atom_site_fract_z
Si Si1 0.374040 0.936495 0.669388
Si Si2 0.595989 0.016332 0.624250
Si Si3 0.678075 0.641581 0.313028
Si Si4 0.157478 0.436850 0.412399
Si Si5 0.064538 0.312286 0.093472
Si Si6 0.609101 0.354885 0.634924
Si Si7 0.825485 0.527523 0.362731
Si Si8 0.233012 0.686548 0.955526
O O1 0.404158 0.945923 0.796370
O O2 0.380609 0.868907 0.648835
O O3 0.475909 0.975505 0.606161
O O4 0.238763 0.964894 0.639425
O O5 0.608156 0.081100 0.582402
O O6 0.598448 0.030973 0.752300
O O7 0.716576 0.977153 0.593874
O O8 0.768614 0.653299 0.211105
O O9 0.526054 0.649780 0.301312
O O10 0.712796 0.575751 0.348224
O O11 0.718694 0.679575 0.415453
O O12 0.101685 0.455016 0.528518
O O13 0.190851 0.369384 0.418148
O O14 0.099765 0.250000 0.140199
O O15 0.910463 0.317749 0.091568
O O16 0.105199 0.314224 0.968246
O O17 0.284748 0.750000 0.929954
#
# Coordination Sequence:
#
# PCOD9462740 Si02
#       8
#     8   8   8   8   8   8   8   8
#     4  11  20  33  55  78 104 143 179 224 275 330
#     4  10  19  32  53  81 111 136 175 225 277 334
#     4   9  18  32  55  84 113 142 181 227 282 334
#     4  10  20  33  53  77 105 143 179 221 281 326
#     4  10  21  35  54  79 104 139 189 232 267 315
#     4  10  19  34  56  84 116 145 177 230 282 332
#     4   9  19  33  50  82 110 136 175 223 276 337
#     4   9  18  34  54  75 101 140 188 231 268 323
#
# _framework density 21.166482999999999
#
# number of rings (size 3 to 8) (size 9 to 14) (size 15 to 20)
#    0.000    2.250    2.500    0.750    0.000    2.500 
#    0.000    0.000    5.500    0.000    0.000    0.000 
#    0.000    0.000    0.000    0.000    0.000    0.000 
#
# Total GULP energy -356974.069973 kJ/mol
# GULP energy per Si atom -5577.719843 kJ/mol
# Density = 2.111831 g / cm^3
# Si number density = 21.166483 Si / 1000 Ang^3
#
#
#
# Elastic Constant Matrix: (Units=GPa)
#
#
# Indices 1 2 3 4 5 6 
#
# 1 11.8196 -6.0813 -5.8688 0.0000 0.0000 0.0000
# 2 -6.0813 129.7433 9.0529 0.0000 0.0000 0.0000
# 3 -5.8688 9.0529 71.4779 0.0000 0.0000 0.0000
# 4 0.0000 0.0000 0.0000 12.9615 0.0000 0.0000
# 5 0.0000 0.0000 0.0000 0.0000 18.6675 0.0000
# 6 0.0000 0.0000 0.0000 0.0000 0.0000 14.4017
#
#
#
# Elastic Compliance Matrix: (Units=1/GPa)
#
#
# Indices 1 2 3 4 5 6 
#
# 1 0.089959 0.003734 0.006913 0.000000 0.000000 0.000000
# 2 0.003734 0.007931 -0.000698 0.000000 0.000000 0.000000
# 3 0.006913 -0.000698 0.014646 0.000000 0.000000 0.000000
# 4 0.000000 0.000000 0.000000 0.077151 0.000000 0.000000
# 5 0.000000 0.000000 0.000000 0.000000 0.053569 0.000000
# 6 0.000000 0.000000 0.000000 0.000000 0.000000 0.069436
#
#
# Mechanical properties :
#
#
# Convention : Reuss Voigt Hill
#
# Bulk Modulus (GPa) = 7.55086 23.02738 15.28912
# Shear Modulus (GPa) = 14.83947 23.60201 19.22074
#
# Velocity S-wave (km/s) = 2.65067 3.34288 3.01670
# Velocity P-wave (km/s) = 3.59766 5.07963 4.40146
#
# Compressibility (1/GPa) = 0.13243532
#
# Stress axis : x y z
#
# Youngs Moduli (GPa) = 11.11620 126.08351 68.27640
#
# Poissons Ratio (x) = -0.47081 -0.47201
# Poissons Ratio (y) = -0.04151 0.04765
# Poissons Ratio (z) = -0.07685 0.08800
#
# Static dielectric constant tensor:
#      x y z
#    x 1.766950 0.000000 0.000000 
#    y 0.000000 1.772670 0.000000 
#    z 0.000000 0.000000 1.821180 
# 
# From -- ./inp_files/12601.got.cif
#   From: 2010.05.17/outbox.cif.g08.bks.cpg/sg62_7_cif.got.tgz:12601.got - 2010.06.03 15:25:27.
