data_PCOD9462042
_publ_section_title
;
Structure prediction by ZEFSAII (Michael W. Deem and Ramdas Pophale) SiO2 
 PCOD9462042
Probable space group: P N M A
;
_chemical_formula_sum "Si O2"
_cell_formula_units_Z 32
_cell_length_a 12.686599
_cell_length_b 8.652916
_cell_length_c 14.630100
_cell_angle_alpha 90.000000
_cell_angle_beta 90.000000
_cell_angle_gamma 90.000000
_cell_volume 1606.034962
_symmetry_space_group_name_H-M "P N M A"
_symmetry_group_IT_number 62
_symmetry_cell_setting 'orthorhombic'
loop_
_space_group_symop_operation_xyz
x,y,z
1/2-x,-y,1/2+z
1/2+x,1/2-y,1/2-z
-x,1/2+y,-z
-x,-y,-z
1/2+x,y,1/2-z
1/2-x,1/2+y,1/2+z
x,1/2-y,z
loop_
_atom_site_type_symbol
_atom_site_label
_atom_site_fract_x
_atom_site_fract_y
_atom_site_fract_z
Si Si1 0.541376 0.565026 0.095299
Si Si2 0.958160 0.565080 0.212148
Si Si3 0.229170 0.934222 0.911683
Si Si4 0.594720 0.434981 0.436611
O O1 0.549821 0.750000 0.090228
O O2 0.466213 0.527503 0.181076
O O3 0.656039 0.494167 0.113586
O O4 0.500000 0.500000 0.000000
O O5 0.954242 0.750000 0.200094
O O6 0.857834 0.492302 0.161083
O O7 0.063353 0.501567 0.161746
O O8 0.225542 0.750000 0.916428
O O9 0.197071 0.003058 0.011077
O O10 0.500000 0.500000 0.500000
O O11 0.593549 0.250000 0.435697
#
# Coordination Sequence:
#
# PCOD9462042 Si02
#       4
#     8   8   8   8
#     4  11  25  43  62  86 120 158 197 244 296 351
#     4  10  21  39  62  88 119 155 198 246 296 351
#     4  11  22  38  62  89 120 157 197 243 295 351
#     4  10  18  32  57  87 118 150 191 241 289 343
#
# _framework density 19.924847
#
# number of rings (size 3 to 8) (size 9 to 14) (size 15 to 20)
#    0.000    1.500    0.000    9.000    0.000    6.000 
#    0.000    2.500    0.000    0.000    0.000    0.000 
#    0.000    0.000    0.000    0.000    0.000    0.000 
#
# Total GULP energy -178802.772976 kJ/mol
# GULP energy per Si atom -5587.586655 kJ/mol
# Density = 1.987950 g / cm^3
# Si number density = 19.924847 Si / 1000 Ang^3
#
#
#
# Elastic Constant Matrix: (Units=GPa)
#
#
# Indices 1 2 3 4 5 6 
#
# 1 84.0884 32.1081 43.3019 0.0000 0.0000 0.0000
# 2 32.1081 130.1698 64.1982 0.0000 0.0000 0.0000
# 3 43.3019 64.1982 146.6002 0.0000 0.0000 0.0000
# 4 0.0000 0.0000 0.0000 31.8866 0.0000 0.0000
# 5 0.0000 0.0000 0.0000 0.0000 25.0415 0.0000
# 6 0.0000 0.0000 0.0000 0.0000 0.0000 31.9454
#
#
#
# Elastic Compliance Matrix: (Units=1/GPa)
#
#
# Indices 1 2 3 4 5 6 
#
# 1 0.014367 -0.001851 -0.003433 0.000000 0.000000 0.000000
# 2 -0.001851 0.010037 -0.003849 0.000000 0.000000 0.000000
# 3 -0.003433 -0.003849 0.009521 0.000000 0.000000 0.000000
# 4 0.000000 0.000000 0.000000 0.031361 0.000000 0.000000
# 5 0.000000 0.000000 0.000000 0.000000 0.039934 0.000000
# 6 0.000000 0.000000 0.000000 0.000000 0.000000 0.031303
#
#
# Mechanical properties :
#
#
# Convention : Reuss Voigt Hill
#
# Bulk Modulus (GPa) = 63.85875 71.11941 67.48908
# Shear Modulus (GPa) = 31.24857 32.52472 31.88664
#
# Velocity S-wave (km/s) = 3.96450 4.04464 4.00477
# Velocity P-wave (km/s) = 7.28531 7.58838 7.43839
#
# Compressibility (1/GPa) = 0.01565956
#
# Stress axis : x y z
#
# Youngs Moduli (GPa) = 69.60485 99.63280 105.03386
#
# Poissons Ratio (x) = 0.18437 0.36060
# Poissons Ratio (y) = 0.12881 0.40424
# Poissons Ratio (z) = 0.23897 0.38345
#
# Static dielectric constant tensor:
#      x y z
#    x 1.681700 0.000000 0.000000 
#    y 0.000000 1.660480 0.000000 
#    z 0.000000 0.000000 1.756640 
# 
# From -- ./inp_files/17577.got.cif
#   From: 2010.05.17/outbox.cif.g08.bks.cpg/sg62_9_cif.got.tgz:17577.got - 2010.06.03 15:25:27.
