data_PCOD9462644
_publ_section_title
;
Structure prediction by ZEFSAII (Michael W. Deem and Ramdas Pophale) SiO2 
 PCOD9462644
Probable space group: P N M A
;
_chemical_formula_sum "Si O2"
_cell_formula_units_Z 48
_cell_length_a 12.520846
_cell_length_b 9.525478
_cell_length_c 17.691634
_cell_angle_alpha 90.000000
_cell_angle_beta 90.000000
_cell_angle_gamma 90.000000
_cell_volume 2110.028875
_symmetry_space_group_name_H-M "P N M A"
_symmetry_group_IT_number 62
_symmetry_cell_setting 'orthorhombic'
loop_
_space_group_symop_operation_xyz
x,y,z
1/2-x,-y,1/2+z
1/2+x,1/2-y,1/2-z
-x,1/2+y,-z
-x,-y,-z
1/2+x,y,1/2-z
1/2-x,1/2+y,1/2+z
x,1/2-y,z
loop_
_atom_site_type_symbol
_atom_site_label
_atom_site_fract_x
_atom_site_fract_y
_atom_site_fract_z
Si Si1 0.339604 0.408437 0.782502
Si Si2 0.181381 0.914147 0.569114
Si Si3 0.332773 0.913461 0.924572
Si Si4 0.851741 0.094802 0.265572
Si Si5 0.109136 0.590686 0.112288
Si Si6 0.922954 0.404123 0.102486
O O1 0.333026 0.250000 0.811955
O O2 0.374264 0.511721 0.848919
O O3 0.225278 0.467361 0.755606
O O4 0.401316 0.406317 0.703391
O O5 0.193211 0.750000 0.549684
O O6 0.115437 0.922941 0.647669
O O7 0.136146 0.001975 0.499391
O O8 0.295449 0.985644 0.589863
O O9 0.361846 0.750000 0.928051
O O10 0.201897 0.921530 0.918182
O O11 0.794808 0.250000 0.264310
O O12 0.928788 0.102468 0.194260
O O13 0.134852 0.750000 0.088508
O O14 0.999164 0.530688 0.080104
O O15 0.958334 0.250000 0.075148
#
# Coordination Sequence:
#
# PCOD9462644 Si02
#       6
#     8   8   8   8   8   8
#     4   9  17  30  48  69  92 121 158 196 232 274
#     4  10  19  32  51  72  96 127 159 194 238 283
#     4  10  20  33  49  71  98 126 158 196 236 281
#     4   8  16  31  49  69  92 121 159 197 232 276
#     4  10  20  32  48  72  99 125 157 196 234 278
#     4   9  18  32  49  69  95 126 157 191 234 282
#
# _framework density 22.748502999999999
#
# number of rings (size 3 to 8) (size 9 to 14) (size 15 to 20)
#    0.000    2.667    0.000    3.000    0.000    6.667 
#    0.000    0.000    0.000    1.000    0.000    0.000 
#    0.000    0.000    0.000    0.000    0.000    0.000 
#
# Total GULP energy -267780.524993 kJ/mol
# GULP energy per Si atom -5578.760937 kJ/mol
# Density = 2.269673 g / cm^3
# Si number density = 22.748503 Si / 1000 Ang^3
#
#
#
# Elastic Constant Matrix: (Units=GPa)
#
#
# Indices 1 2 3 4 5 6 
#
# 1 45.2233 38.7078 -12.3987 0.0000 0.0000 0.0000
# 2 38.7078 191.0802 64.9427 0.0000 0.0000 0.0000
# 3 -12.3987 64.9427 179.7366 0.0000 0.0000 0.0000
# 4 0.0000 0.0000 0.0000 37.9220 0.0000 0.0000
# 5 0.0000 0.0000 0.0000 0.0000 -6.1395 0.0000
# 6 0.0000 0.0000 0.0000 0.0000 0.0000 11.4097
#
#
#
# Elastic Compliance Matrix: (Units=1/GPa)
#
#
# Indices 1 2 3 4 5 6 
#
# 1 0.030084 -0.007751 0.004876 0.000000 0.000000 0.000000
# 2 -0.007751 0.007963 -0.003412 0.000000 0.000000 0.000000
# 3 0.004876 -0.003412 0.007133 0.000000 0.000000 0.000000
# 4 0.000000 0.000000 0.000000 0.026370 0.000000 0.000000
# 5 0.000000 0.000000 0.000000 0.000000 -0.162878 0.000000
# 6 0.000000 0.000000 0.000000 0.000000 0.000000 0.087645
#
#
# Mechanical properties :
#
#
# Convention : Reuss Voigt Hill
#
# Bulk Modulus (GPa) = 30.66983 66.50485 48.58734
# Shear Modulus (GPa) = 253.03665 30.29098 141.66381
#
# Velocity S-wave (km/s) = 10.55811 3.65301 7.89994
# Velocity P-wave (km/s) = 12.73354 6.86228 10.22824
#
# Compressibility (1/GPa) = 0.03260533
#
# Stress axis : x y z
#
# Youngs Moduli (GPa) = 33.24024 125.57624 140.19559
#
# Poissons Ratio (x) = 0.97340 -0.68360
# Poissons Ratio (y) = 0.25766 0.47835
# Poissons Ratio (z) = -0.16208 0.42847
#
# Static dielectric constant tensor:
#      x y z
#    x 1.830500 0.000000 0.000000 
#    y 0.000000 1.808280 0.000000 
#    z 0.000000 0.000000 1.901690 
# 
# From -- ./inp_files/19563.got.cif
#   From: 2010.05.17/outbox.cif.g08.bks.cpg/sg62_10_cif.got.tgz:19563.got - 2010.06.03 15:25:27.
