data_PCOD9462691
_publ_section_title
;
Structure prediction by ZEFSAII (Michael W. Deem and Ramdas Pophale) SiO2 
 PCOD9462691
Probable space group: P N M A
;
_chemical_formula_sum "Si O2"
_cell_formula_units_Z 48
_cell_length_a 16.851694
_cell_length_b 9.188147
_cell_length_c 17.169743
_cell_angle_alpha 90.000000
_cell_angle_beta 90.000000
_cell_angle_gamma 90.000000
_cell_volume 2658.491609
_symmetry_space_group_name_H-M "P N M A"
_symmetry_group_IT_number 62
_symmetry_cell_setting 'orthorhombic'
loop_
_space_group_symop_operation_xyz
x,y,z
1/2-x,-y,1/2+z
1/2+x,1/2-y,1/2-z
-x,1/2+y,-z
-x,-y,-z
1/2+x,y,1/2-z
1/2-x,1/2+y,1/2+z
x,1/2-y,z
loop_
_atom_site_type_symbol
_atom_site_label
_atom_site_fract_x
_atom_site_fract_y
_atom_site_fract_z
Si Si1 0.237713 0.075971 0.893842
Si Si2 0.103418 0.077210 0.425683
Si Si3 0.938369 0.922452 0.399773
Si Si4 0.985300 0.916717 0.878533
Si Si5 0.375550 0.417085 0.510072
Si Si6 0.103392 0.077016 0.769995
O O1 0.242875 0.250000 0.900698
O O2 0.180819 0.039888 0.820617
O O3 0.323437 0.004439 0.886627
O O4 0.193814 0.008151 0.969204
O O5 0.107888 0.250000 0.413334
O O6 0.105595 0.047959 0.519016
O O7 0.019183 0.014143 0.398607
O O8 0.958421 0.750000 0.400209
O O9 0.889698 0.952903 0.321496
O O10 0.963678 0.750000 0.862121
O O11 0.028487 0.992966 0.806293
O O12 0.052847 0.915175 0.946433
O O13 0.912267 0.006858 0.913979
O O14 0.351864 0.250000 0.524329
O O15 0.089925 0.250000 0.780614
#
# Coordination Sequence:
#
# PCOD9462691 Si02
#       6
#     8   8   8   8   8   8
#     4  10  19  32  52  77 105 136 171 214 262 310
#     4  10  20  35  56  79 102 132 172 215 259 309
#     4   9  19  37  58  77  99 132 174 214 254 306
#     4   9  16  26  43  69 100 133 169 207 249 300
#     4   9  16  27  44  67  98 136 173 207 247 300
#     4   9  18  33  53  76 102 134 171 211 257 309
#
# _framework density 18.055351000000002
#
# number of rings (size 3 to 8) (size 9 to 14) (size 15 to 20)
#    0.000    2.667    0.000    2.000    0.000    6.000 
#    0.000    1.667    0.000    8.000    0.000    0.000 
#    0.000    0.000    0.000    0.000    0.000    0.000 
#
# Total GULP energy -267659.449626 kJ/mol
# GULP energy per Si atom -5576.238534 kJ/mol
# Density = 1.801426 g / cm^3
# Si number density = 18.055351 Si / 1000 Ang^3
#
#
#
# Elastic Constant Matrix: (Units=GPa)
#
#
# Indices 1 2 3 4 5 6 
#
# 1 59.4107 39.1151 24.5949 0.0000 0.0000 0.0000
# 2 39.1151 72.4919 35.1836 0.0000 0.0000 0.0000
# 3 24.5949 35.1836 69.3260 0.0000 0.0000 0.0000
# 4 0.0000 0.0000 0.0000 20.5893 0.0000 0.0000
# 5 0.0000 0.0000 0.0000 0.0000 7.0346 0.0000
# 6 0.0000 0.0000 0.0000 0.0000 0.0000 28.7628
#
#
#
# Elastic Compliance Matrix: (Units=1/GPa)
#
#
# Indices 1 2 3 4 5 6 
#
# 1 0.026523 -0.012929 -0.002848 0.000000 0.000000 0.000000
# 2 -0.012929 0.024606 -0.007901 0.000000 0.000000 0.000000
# 3 -0.002848 -0.007901 0.019445 0.000000 0.000000 0.000000
# 4 0.000000 0.000000 0.000000 0.048569 0.000000 0.000000
# 5 0.000000 0.000000 0.000000 0.000000 0.142154 0.000000
# 6 0.000000 0.000000 0.000000 0.000000 0.000000 0.034767
#
#
# Mechanical properties :
#
#
# Convention : Reuss Voigt Hill
#
# Bulk Modulus (GPa) = 43.07034 44.33507 43.70271
# Shear Modulus (GPa) = 14.23859 18.09967 16.16913
#
# Velocity S-wave (km/s) = 2.81126 3.16959 2.99579
# Velocity P-wave (km/s) = 5.86890 6.16470 6.01862
#
# Compressibility (1/GPa) = 0.02321784
#
# Stress axis : x y z
#
# Youngs Moduli (GPa) = 37.70253 40.64131 51.42801
#
# Poissons Ratio (x) = 0.52546 0.14647
# Poissons Ratio (y) = 0.48746 0.40631
# Poissons Ratio (z) = 0.10738 0.32109
#
# Static dielectric constant tensor:
#      x y z
#    x 1.597810 0.000000 0.000000 
#    y 0.000000 1.605720 0.000000 
#    z 0.000000 0.000000 1.629680 
# 
# From -- ./inp_files/19664.got.cif
#   From: 2010.05.17/outbox.cif.g08.bks.cpg/sg62_10_cif.got.tgz:19664.got - 2010.06.03 15:25:27.
