data_PCOD9462180
_publ_section_title
;
Structure prediction by ZEFSAII (Michael W. Deem and Ramdas Pophale) SiO2 
 PCOD9462180
Probable space group: P N M A
;
_chemical_formula_sum "Si O2"
_cell_formula_units_Z 64
_cell_length_a 29.179724
_cell_length_b 7.791611
_cell_length_c 12.990627
_cell_angle_alpha 90.000000
_cell_angle_beta 90.000000
_cell_angle_gamma 90.000000
_cell_volume 2953.510743
_symmetry_space_group_name_H-M "P N M A"
_symmetry_group_IT_number 62
_symmetry_cell_setting 'orthorhombic'
loop_
_space_group_symop_operation_xyz
x,y,z
1/2-x,-y,1/2+z
1/2+x,1/2-y,1/2-z
-x,1/2+y,-z
-x,-y,-z
1/2+x,y,1/2-z
1/2-x,1/2+y,1/2+z
x,1/2-y,z
loop_
_atom_site_type_symbol
_atom_site_label
_atom_site_fract_x
_atom_site_fract_y
_atom_site_fract_z
Si Si1 0.457903 0.048853 0.287819
Si Si2 0.095042 0.451963 0.355349
Si Si3 0.205758 0.956485 0.856273
Si Si4 0.946503 0.052267 0.858428
Si Si5 0.562635 0.944850 0.926251
Si Si6 0.304099 0.542115 0.920630
Si Si7 0.885464 0.039377 0.046914
Si Si8 0.162449 0.453747 0.638609
O O1 0.448546 0.250000 0.271235
O O2 0.463770 0.975501 0.172064
O O3 0.415962 0.979682 0.355559
O O4 0.504124 0.034759 0.352799
O O5 0.096716 0.250000 0.332595
O O6 0.074350 0.539563 0.255495
O O7 0.066358 0.472159 0.461319
O O8 0.146899 0.517093 0.376480
O O9 0.208163 0.750000 0.865339
O O10 0.257070 0.023884 0.872424
O O11 0.166895 0.016240 0.936952
O O12 0.185924 0.999871 0.744763
O O13 0.955123 0.250000 0.884754
O O14 0.911096 0.983296 0.943310
O O15 0.547049 0.750000 0.943674
O O16 0.614719 0.951468 0.882488
O O17 0.304983 0.750000 0.909655
O O18 0.305172 0.504933 0.042069
O O19 0.885466 0.250000 0.047769
O O20 0.152361 0.250000 0.634928
#
# Coordination Sequence:
#
# PCOD9462180 Si02
#       8
#     8   8   8   8   8   8   8   8
#     4  10  20  37  59  84 111 145 188 237 291 337
#     4  10  21  39  57  80 117 153 186 236 291 339
#     4  10  18  35  59  81 107 147 190 231 277 334
#     4  11  23  37  56  83 114 153 193 230 283 349
#     4  10  19  35  61  85 107 144 191 233 279 340
#     4   8  18  34  55  79 107 145 183 222 280 335
#     4   9  19  36  57  82 112 145 188 235 280 334
#     4  10  19  33  52  81 115 145 181 232 286 332
#
# _framework density 21.669128000000001
#
# number of rings (size 3 to 8) (size 9 to 14) (size 15 to 20)
#    0.000    2.250    1.250    2.625    0.000    2.500 
#    0.000    6.875    0.000    0.000    0.000    0.000 
#    0.000    0.000    0.000    0.000    0.000    0.000 
#
# Total GULP energy -357264.482099 kJ/mol
# GULP energy per Si atom -5582.257533 kJ/mol
# Density = 2.161981 g / cm^3
# Si number density = 21.669128 Si / 1000 Ang^3
#
#
#
# Elastic Constant Matrix: (Units=GPa)
#
#
# Indices 1 2 3 4 5 6 
#
# 1 39.8264 7.0870 8.9029 0.0000 0.0000 0.0000
# 2 7.0870 32.6309 -4.4210 0.0000 0.0000 0.0000
# 3 8.9029 -4.4210 66.6077 0.0000 0.0000 0.0000
# 4 0.0000 0.0000 0.0000 13.4409 0.0000 0.0000
# 5 0.0000 0.0000 0.0000 0.0000 31.8648 0.0000
# 6 0.0000 0.0000 0.0000 0.0000 0.0000 15.3370
#
#
#
# Elastic Compliance Matrix: (Units=1/GPa)
#
#
# Indices 1 2 3 4 5 6 
#
# 1 0.027164 -0.006450 -0.004059 0.000000 0.000000 0.000000
# 2 -0.006450 0.032455 0.003016 0.000000 0.000000 0.000000
# 3 -0.004059 0.003016 0.015756 0.000000 0.000000 0.000000
# 4 0.000000 0.000000 0.000000 0.074400 0.000000 0.000000
# 5 0.000000 0.000000 0.000000 0.000000 0.031383 0.000000
# 6 0.000000 0.000000 0.000000 0.000000 0.000000 0.065202
#
#
# Mechanical properties :
#
#
# Convention : Reuss Voigt Hill
#
# Bulk Modulus (GPa) = 16.55881 18.02253 17.29067
# Shear Modulus (GPa) = 17.76364 20.62830 19.19597
#
# Velocity S-wave (km/s) = 2.86626 3.08874 2.97958
# Velocity P-wave (km/s) = 4.31419 4.58864 4.45353
#
# Compressibility (1/GPa) = 0.06039080
#
# Stress axis : x y z
#
# Youngs Moduli (GPa) = 36.81345 30.81170 63.46795
#
# Poissons Ratio (x) = 0.19872 0.25761
# Poissons Ratio (y) = 0.23743 -0.19143
# Poissons Ratio (z) = 0.14942 -0.09294
#
# Static dielectric constant tensor:
#      x y z
#    x 1.796650 0.000000 0.000000 
#    y 0.000000 1.795720 0.000000 
#    z 0.000000 0.000000 1.795810 
# 
# From -- ./inp_files/15814.got.cif
#   From: 2010.05.17/outbox.cif.g08.bks.cpg/sg62_8_cif.got.tgz:15814.got - 2010.06.03 15:25:27.
