data_PCOD9462034
_publ_section_title
;
Structure prediction by ZEFSAII (Michael W. Deem and Ramdas Pophale) SiO2 
 PCOD9462034
Probable space group: P N M A
;
_chemical_formula_sum "Si O2"
_cell_formula_units_Z 64
_cell_length_a 12.048213
_cell_length_b 9.016996
_cell_length_c 34.236887
_cell_angle_alpha 90.000000
_cell_angle_beta 90.000000
_cell_angle_gamma 90.000000
_cell_volume 3719.450500
_symmetry_space_group_name_H-M "P N M A"
_symmetry_group_IT_number 62
_symmetry_cell_setting 'orthorhombic'
loop_
_space_group_symop_operation_xyz
x,y,z
1/2-x,-y,1/2+z
1/2+x,1/2-y,1/2-z
-x,1/2+y,-z
-x,-y,-z
1/2+x,y,1/2-z
1/2-x,1/2+y,1/2+z
x,1/2-y,z
loop_
_atom_site_type_symbol
_atom_site_label
_atom_site_fract_x
_atom_site_fract_y
_atom_site_fract_z
Si Si1 0.254978 0.575484 0.890179
Si Si2 0.543872 0.424380 0.170973
Si Si3 0.383962 0.926374 0.046178
Si Si4 0.646210 0.926555 0.035336
Si Si5 0.869764 0.572964 0.813013
Si Si6 0.320383 0.072231 0.126704
Si Si7 0.392432 0.572749 0.325899
Si Si8 0.306754 0.426290 0.766482
O O1 0.231961 0.750000 0.894197
O O2 0.366883 0.559857 0.864049
O O3 0.278575 0.501202 0.931680
O O4 0.159765 0.495853 0.865190
O O5 0.540611 0.250000 0.181960
O O6 0.424487 0.469213 0.154416
O O7 0.590515 0.518823 0.206847
O O8 0.368724 0.750000 0.043666
O O9 0.516872 0.956146 0.046313
O O10 0.332606 0.990749 0.085637
O O11 0.337141 0.004384 0.007419
O O12 0.661985 0.750000 0.034582
O O13 0.881250 0.750000 0.809909
O O14 0.792281 0.539768 0.850220
O O15 0.811197 0.510396 0.774313
O O16 0.989263 0.497837 0.816961
O O17 0.328509 0.250000 0.120395
O O18 0.400434 0.750000 0.329234
O O19 0.304018 0.539409 0.291375
O O20 0.313163 0.250000 0.760621
#
# Coordination Sequence:
#
# PCOD9462034 Si02
#       8
#     8   8   8   8   8   8   8   8
#     4  10  18  32  57  83 110 144 183 227 274 328
#     4   9  18  33  54  80 109 142 179 222 274 329
#     4  10  20  32  51  80 115 151 186 227 274 330
#     4  10  19  31  51  81 116 151 184 225 275 328
#     4  11  24  39  58  81 108 146 188 228 276 331
#     4  10  21  37  55  80 112 148 184 227 278 331
#     4  10  22  40  58  80 111 145 185 231 277 328
#     4  10  22  38  57  81 108 140 181 232 280 323
#
# _framework density 17.206842999999999
#
# number of rings (size 3 to 8) (size 9 to 14) (size 15 to 20)
#    0.000    2.000    1.250    2.250    1.750    4.500 
#    0.000    0.000    0.000    0.750    0.000    0.000 
#    0.000    0.000    0.000    0.000    0.000    0.000 
#
# Total GULP energy -357408.905107 kJ/mol
# GULP energy per Si atom -5584.514142 kJ/mol
# Density = 1.716768 g / cm^3
# Si number density = 17.206843 Si / 1000 Ang^3
#
#
#
# Elastic Constant Matrix: (Units=GPa)
#
#
# Indices 1 2 3 4 5 6 
#
# 1 84.1621 53.7431 56.2365 0.0000 0.0000 0.0000
# 2 53.7431 76.2397 76.9817 0.0000 0.0000 0.0000
# 3 56.2365 76.9817 142.7171 0.0000 0.0000 0.0000
# 4 0.0000 0.0000 0.0000 36.6249 0.0000 0.0000
# 5 0.0000 0.0000 0.0000 0.0000 16.5293 0.0000
# 6 0.0000 0.0000 0.0000 0.0000 0.0000 24.2155
#
#
#
# Elastic Compliance Matrix: (Units=1/GPa)
#
#
# Indices 1 2 3 4 5 6 
#
# 1 0.021637 -0.014590 -0.000656 0.000000 0.000000 0.000000
# 2 -0.014590 0.038643 -0.015095 0.000000 0.000000 0.000000
# 3 -0.000656 -0.015095 0.015408 0.000000 0.000000 0.000000
# 4 0.000000 0.000000 0.000000 0.027304 0.000000 0.000000
# 5 0.000000 0.000000 0.000000 0.000000 0.060499 0.000000
# 6 0.000000 0.000000 0.000000 0.000000 0.000000 0.041296
#
#
# Mechanical properties :
#
#
# Convention : Reuss Voigt Hill
#
# Bulk Modulus (GPa) = 66.64143 75.22684 70.93414
# Shear Modulus (GPa) = 18.48629 23.21777 20.85203
#
# Velocity S-wave (km/s) = 3.28129 3.67731 3.48493
# Velocity P-wave (km/s) = 7.29174 7.86411 7.58333
#
# Compressibility (1/GPa) = 0.01500568
#
# Stress axis : x y z
#
# Youngs Moduli (GPa) = 46.21759 25.87758 64.90224
#
# Poissons Ratio (x) = 0.37755 0.04258
# Poissons Ratio (y) = 0.67431 0.97972
# Poissons Ratio (z) = 0.03032 0.39063
#
# Static dielectric constant tensor:
#      x y z
#    x 1.564930 0.000000 0.000000 
#    y 0.000000 1.569430 0.000000 
#    z 0.000000 0.000000 1.560160 
# 
# From -- ./inp_files/32468.got.cif
#   From: 2010.05.17/outbox.cif.g08.bks.cpg/sg62_17_cif.got.tgz:32468.got - 2010.06.03 15:25:27.
