data_PCOD9462920
_publ_section_title
;
Structure prediction by ZEFSAII (Michael W. Deem and Ramdas Pophale) SiO2 
 PCOD9462920
Probable space group: P N M A
;
_chemical_formula_sum "Si O2"
_cell_formula_units_Z 48
_cell_length_a 28.413110
_cell_length_b 9.385969
_cell_length_c 7.862562
_cell_angle_alpha 90.000000
_cell_angle_beta 90.000000
_cell_angle_gamma 90.000000
_cell_volume 2096.823963
_symmetry_space_group_name_H-M "P N M A"
_symmetry_group_IT_number 62
_symmetry_cell_setting 'orthorhombic'
loop_
_space_group_symop_operation_xyz
x,y,z
1/2-x,-y,1/2+z
1/2+x,1/2-y,1/2-z
-x,1/2+y,-z
-x,-y,-z
1/2+x,y,1/2-z
1/2-x,1/2+y,1/2+z
x,1/2-y,z
loop_
_atom_site_type_symbol
_atom_site_label
_atom_site_fract_x
_atom_site_fract_y
_atom_site_fract_z
Si Si1 0.321410 0.581728 0.414882
Si Si2 0.566053 0.411845 0.897142
Si Si3 0.266629 0.087156 0.131502
Si Si4 0.356938 0.408848 0.941046
Si Si5 0.404107 0.415464 0.569990
Si Si6 0.986563 0.586505 0.766057
O O1 0.328950 0.750000 0.396686
O O2 0.286455 0.559145 0.575921
O O3 0.291065 0.517798 0.262066
O O4 0.370191 0.500482 0.443508
O O5 0.567885 0.250000 0.834699
O O6 0.616423 0.475355 0.945575
O O7 0.536157 0.511970 0.772848
O O8 0.538898 0.410927 0.079933
O O9 0.269157 0.250000 0.197852
O O10 0.301240 0.080871 0.967340
O O11 0.371101 0.250000 0.002604
O O12 0.375714 0.419475 0.750129
O O13 0.410053 0.250000 0.523347
O O14 0.453130 0.493014 0.613110
O O15 0.990324 0.750000 0.823213
#
# Coordination Sequence:
#
# PCOD9462920 Si02
#       6
#     8   8   8   8   8   8
#     4  11  23  38  57  81 107 137 176 219 264 316
#     4   9  16  26  44  73 106 139 176 218 263 308
#     4  10  22  39  57  78 106 139 175 216 263 315
#     4   9  18  33  53  77 106 141 179 218 262 312
#     4  10  19  33  54  79 109 143 178 219 266 313
#     4   9  16  27  45  72 106 141 178 219 260 306
#
# _framework density 22.891764999999999
#
# number of rings (size 3 to 8) (size 9 to 14) (size 15 to 20)
#    0.000    2.333    0.000    3.000    0.000    8.000 
#    0.000    0.000    0.000    1.000    0.000    0.000 
#    0.000    0.000    0.000    0.000    0.000    0.000 
#
# Total GULP energy -268513.626063 kJ/mol
# GULP energy per Si atom -5594.033876 kJ/mol
# Density = 2.283966 g / cm^3
# Si number density = 22.891765 Si / 1000 Ang^3
#
#
#
# Elastic Constant Matrix: (Units=GPa)
#
#
# Indices 1 2 3 4 5 6 
#
# 1 121.9946 56.8348 11.6352 0.0000 0.0000 0.0000
# 2 56.8348 132.1237 34.7308 0.0000 0.0000 0.0000
# 3 11.6352 34.7308 64.8108 0.0000 0.0000 0.0000
# 4 0.0000 0.0000 0.0000 19.9972 0.0000 0.0000
# 5 0.0000 0.0000 0.0000 0.0000 37.8052 0.0000
# 6 0.0000 0.0000 0.0000 0.0000 0.0000 27.7479
#
#
#
# Elastic Compliance Matrix: (Units=1/GPa)
#
#
# Indices 1 2 3 4 5 6 
#
# 1 0.010272 -0.004579 0.000610 0.000000 0.000000 0.000000
# 2 -0.004579 0.010851 -0.004993 0.000000 0.000000 0.000000
# 3 0.000610 -0.004993 0.017996 0.000000 0.000000 0.000000
# 4 0.000000 0.000000 0.000000 0.050007 0.000000 0.000000
# 5 0.000000 0.000000 0.000000 0.000000 0.026451 0.000000
# 6 0.000000 0.000000 0.000000 0.000000 0.000000 0.036039
#
#
# Mechanical properties :
#
#
# Convention : Reuss Voigt Hill
#
# Bulk Modulus (GPa) = 47.18194 58.37009 52.77602
# Shear Modulus (GPa) = 28.31183 31.49194 29.90189
#
# Velocity S-wave (km/s) = 3.52059 3.71305 3.61810
# Velocity P-wave (km/s) = 6.09768 6.62842 6.36858
#
# Compressibility (1/GPa) = 0.02119455
#
# Stress axis : x y z
#
# Youngs Moduli (GPa) = 97.35016 92.15928 55.56927
#
# Poissons Ratio (x) = 0.42200 -0.03388
# Poissons Ratio (y) = 0.44577 0.27744
# Poissons Ratio (z) = -0.05935 0.46012
#
# Static dielectric constant tensor:
#      x y z
#    x 1.810900 0.000000 0.000000 
#    y 0.000000 1.802220 0.000000 
#    z 0.000000 0.000000 1.885860 
# 
# From -- ./inp_files/10137.got.cif
#   From: 2010.05.17/outbox.cif.g08.bks.cpg/sg62_6_cif.got.tgz:10137.got - 2010.06.03 15:25:27.
