data_PCOD9462197
_publ_section_title
;
Structure prediction by ZEFSAII (Michael W. Deem and Ramdas Pophale) SiO2 
 PCOD9462197
Probable space group: P N M A
;
_chemical_formula_sum "Si O2"
_cell_formula_units_Z 36
_cell_length_a 5.446471
_cell_length_b 14.795578
_cell_length_c 16.020052
_cell_angle_alpha 90.000000
_cell_angle_beta 90.000000
_cell_angle_gamma 90.000000
_cell_volume 1290.954848
_symmetry_space_group_name_H-M "P N M A"
_symmetry_group_IT_number 62
_symmetry_cell_setting 'orthorhombic'
loop_
_space_group_symop_operation_xyz
x,y,z
1/2-x,-y,1/2+z
1/2+x,1/2-y,1/2-z
-x,1/2+y,-z
-x,-y,-z
1/2+x,y,1/2-z
1/2-x,1/2+y,1/2+z
x,1/2-y,z
loop_
_atom_site_type_symbol
_atom_site_label
_atom_site_fract_x
_atom_site_fract_y
_atom_site_fract_z
Si Si1 0.173615 0.898062 0.554430
Si Si2 0.480726 0.250000 0.473614
Si Si3 0.633080 0.140537 0.204818
Si Si4 0.154179 0.908938 0.105924
Si Si5 0.849903 0.145311 0.640682
O O1 0.380504 0.827940 0.583785
O O2 0.932798 0.890121 0.611140
O O3 0.122375 0.863342 0.461110
O O4 0.275187 0.998306 0.560973
O O5 0.386047 0.171330 0.539319
O O6 0.887826 0.110589 0.245337
O O7 0.640933 0.250000 0.200491
O O8 0.379909 0.884891 0.166703
O O9 0.894461 0.912406 0.153407
O O10 0.806605 0.250000 0.662048
#
# Coordination Sequence:
#
# PCOD9462197 Si02
#       5
#     8   4   8   8   8
#     4  11  21  37  58  84 113 158 184 231 285 325
#     4  10  18  36  52  82 120 146 174 222 266 350
#     4  10  22  40  57  80 108 146 195 238 279 327
#     4  11  22  34  54  82 117 154 187 219 270 350
#     4  11  19  36  52  78 120 150 179 221 271 341
#
# _framework density 27.886334999999999
#
# number of rings (size 3 to 8) (size 9 to 14) (size 15 to 20)
#    0.000    1.333    6.667    3.333    0.000    5.333 
#    4.000    0.000    0.000    0.000    0.000    1.556 
#    0.000    0.000    0.000    0.000    0.000    0.000 
#
# Total GULP energy -200781.817801 kJ/mol
# GULP energy per Si atom -5577.272717 kJ/mol
# Density = 2.782286 g / cm^3
# Si number density = 27.886335 Si / 1000 Ang^3
#
#
#
# Elastic Constant Matrix: (Units=GPa)
#
#
# Indices 1 2 3 4 5 6 
#
# 1 165.2132 -2.1796 -0.5975 0.0000 0.0000 0.0000
# 2 -2.1796 179.3483 -17.2574 0.0000 0.0000 0.0000
# 3 -0.5975 -17.2574 105.6063 0.0000 0.0000 0.0000
# 4 0.0000 0.0000 0.0000 17.3249 0.0000 0.0000
# 5 0.0000 0.0000 0.0000 0.0000 -33.7041 0.0000
# 6 0.0000 0.0000 0.0000 0.0000 0.0000 -25.5102
#
#
#
# Elastic Compliance Matrix: (Units=1/GPa)
#
#
# Indices 1 2 3 4 5 6 
#
# 1 0.006054 0.000078 0.000047 0.000000 0.000000 0.000000
# 2 0.000078 0.005666 0.000926 0.000000 0.000000 0.000000
# 3 0.000047 0.000926 0.009621 0.000000 0.000000 0.000000
# 4 0.000000 0.000000 0.000000 0.057720 0.000000 0.000000
# 5 0.000000 0.000000 0.000000 0.000000 -0.029670 0.000000
# 6 0.000000 0.000000 0.000000 0.000000 0.000000 -0.039200
#
#
# Mechanical properties :
#
#
# Convention : Reuss Voigt Hill
#
# Bulk Modulus (GPa) = 42.65592 45.56656 44.11124
# Shear Modulus (GPa) = 314.41582 22.96894 168.69238
#
# Velocity S-wave (km/s) = 10.62986 2.87307 7.78615
# Velocity P-wave (km/s) = 12.88363 5.23274 9.83284
#
# Compressibility (1/GPa) = 0.02344341
#
# Stress axis : x y z
#
# Youngs Moduli (GPa) = 165.18043 176.49684 103.94183
#
# Poissons Ratio (x) = -0.01378 -0.00489
# Poissons Ratio (y) = -0.01290 -0.09628
# Poissons Ratio (z) = -0.00777 -0.16349
#
# Static dielectric constant tensor:
#      x y z
#    x 2.462860 0.000000 0.000000 
#    y 0.000000 2.061080 0.000000 
#    z 0.000000 0.000000 2.325970 
# 
# From -- ./inp_files/25200.got.cif
#   From: 2010.05.17/outbox.cif.g08.bks.cpg/sg62_13_cif.got.tgz:25200.got - 2010.06.03 15:25:27.
