data_PCOD9462109
_publ_section_title
;
Structure prediction by ZEFSAII (Michael W. Deem and Ramdas Pophale) SiO2 
 PCOD9462109
Probable space group: P N M A
;
_chemical_formula_sum "Si O2"
_cell_formula_units_Z 56
_cell_length_a 21.994557
_cell_length_b 14.075652
_cell_length_c 9.048745
_cell_angle_alpha 90.000000
_cell_angle_beta 90.000000
_cell_angle_gamma 90.000000
_cell_volume 2801.380426
_symmetry_space_group_name_H-M "P N M A"
_symmetry_group_IT_number 62
_symmetry_cell_setting 'orthorhombic'
loop_
_space_group_symop_operation_xyz
x,y,z
1/2-x,-y,1/2+z
1/2+x,1/2-y,1/2-z
-x,1/2+y,-z
-x,-y,-z
1/2+x,y,1/2-z
1/2-x,1/2+y,1/2+z
x,1/2-y,z
loop_
_atom_site_type_symbol
_atom_site_label
_atom_site_fract_x
_atom_site_fract_y
_atom_site_fract_z
Si Si1 0.669927 0.007732 0.257907
Si Si2 0.133312 0.637841 0.482296
Si Si3 0.549317 0.972575 0.805728
Si Si4 0.776441 0.351031 0.241572
Si Si5 0.495691 0.361509 0.631363
Si Si6 0.371812 0.079114 0.463863
Si Si7 0.941589 0.860366 0.819333
O O1 0.730189 0.063771 0.215359
O O2 0.612130 0.077793 0.251740
O O3 0.670139 0.982340 0.430202
O O4 0.658268 0.912759 0.164153
O O5 0.114890 0.750000 0.463489
O O6 0.082220 0.564627 0.546940
O O7 0.186415 0.638148 0.605801
O O8 0.600040 0.973260 0.677595
O O9 0.502532 0.889002 0.765802
O O10 0.513134 0.070461 0.769016
O O11 0.742894 0.250000 0.246879
O O12 0.827048 0.347833 0.113972
O O13 0.498890 0.250000 0.667409
O O14 0.428854 0.384655 0.562898
O O15 0.541018 0.381013 0.491585
O O16 0.928382 0.750000 0.808130
#
# Coordination Sequence:
#
# PCOD9462109 Si02
#       7
#     8   8   8   8   8   8   8
#     4  12  21  37  59  88 118 149 196 246 290 339
#     4  10  24  41  59  83 121 158 192 239 298 352
#     4  10  18  39  58  85 116 157 196 234 292 354
#     4  10  22  40  60  83 111 158 201 238 292 350
#     4  10  18  33  59  92 120 150 195 246 288 340
#     4  10  19  36  61  83 115 152 202 246 279 341
#     4  10  19  33  57  87 119 152 189 237 291 344
#
# _framework density 19.990144999999998
#
# number of rings (size 3 to 8) (size 9 to 14) (size 15 to 20)
#    0.000    1.714    2.857    3.000    0.000    5.143 
#    0.000    1.429    0.000    0.000    0.000    0.000 
#    0.000    0.000    0.000    0.000    0.000    0.000 
#
# Total GULP energy -312033.595705 kJ/mol
# GULP energy per Si atom -5572.028495 kJ/mol
# Density = 1.994465 g / cm^3
# Si number density = 19.990145 Si / 1000 Ang^3
#
#
#
# Elastic Constant Matrix: (Units=GPa)
#
#
# Indices 1 2 3 4 5 6 
#
# 1 61.4467 37.0465 32.2927 0.0000 0.0000 0.0000
# 2 37.0465 102.1008 33.3709 0.0000 0.0000 0.0000
# 3 32.2927 33.3709 48.3629 0.0000 0.0000 0.0000
# 4 0.0000 0.0000 0.0000 10.8931 0.0000 0.0000
# 5 0.0000 0.0000 0.0000 0.0000 24.8161 0.0000
# 6 0.0000 0.0000 0.0000 0.0000 0.0000 18.5632
#
#
#
# Elastic Compliance Matrix: (Units=1/GPa)
#
#
# Indices 1 2 3 4 5 6 
#
# 1 0.026934 -0.005029 -0.014514 0.000000 0.000000 0.000000
# 2 -0.005029 0.013585 -0.006016 0.000000 0.000000 0.000000
# 3 -0.014514 -0.006016 0.034520 0.000000 0.000000 0.000000
# 4 0.000000 0.000000 0.000000 0.091801 0.000000 0.000000
# 5 0.000000 0.000000 0.000000 0.000000 0.040296 0.000000
# 6 0.000000 0.000000 0.000000 0.000000 0.000000 0.053870
#
#
# Mechanical properties :
#
#
# Convention : Reuss Voigt Hill
#
# Bulk Modulus (GPa) = 41.80545 46.37006 44.08776
# Shear Modulus (GPa) = 15.62018 18.13449 16.87734
#
# Velocity S-wave (km/s) = 2.79837 3.01520 2.90881
# Velocity P-wave (km/s) = 5.60354 5.94716 5.77790
#
# Compressibility (1/GPa) = 0.02392032
#
# Stress axis : x y z
#
# Youngs Moduli (GPa) = 37.12772 73.60922 28.96905
#
# Poissons Ratio (x) = 0.37018 0.42047
# Poissons Ratio (y) = 0.18671 0.17428
# Poissons Ratio (z) = 0.53888 0.44284
#
# Static dielectric constant tensor:
#      x y z
#    x 1.720160 0.000000 0.000000 
#    y 0.000000 1.726170 0.000000 
#    z 0.000000 0.000000 1.720190 
# 
# From -- ./inp_files/8706.got.cif
#   From: 2010.05.17/outbox.cif.g08.bks.cpg/sg62_5_cif.got.tgz:8706.got - 2010.06.03 15:25:27.
