data_PCOD9462905
_publ_section_title
;
Structure prediction by ZEFSAII (Michael W. Deem and Ramdas Pophale) SiO2 
 PCOD9462905
Probable space group: P N M A
;
_chemical_formula_sum "Si O2"
_cell_formula_units_Z 28
_cell_length_a 5.377509
_cell_length_b 27.027167
_cell_length_c 8.355748
_cell_angle_alpha 90.000000
_cell_angle_beta 90.000000
_cell_angle_gamma 90.000000
_cell_volume 1214.414670
_symmetry_space_group_name_H-M "P N M A"
_symmetry_group_IT_number 62
_symmetry_cell_setting 'orthorhombic'
loop_
_space_group_symop_operation_xyz
x,y,z
1/2-x,-y,1/2+z
1/2+x,1/2-y,1/2-z
-x,1/2+y,-z
-x,-y,-z
1/2+x,y,1/2-z
1/2-x,1/2+y,1/2+z
x,1/2-y,z
loop_
_atom_site_type_symbol
_atom_site_label
_atom_site_fract_x
_atom_site_fract_y
_atom_site_fract_z
Si Si1 0.867234 0.750000 0.650770
Si Si2 0.045984 0.506193 0.687318
Si Si3 0.207987 0.141201 0.353834
Si Si4 0.607490 0.393834 0.809662
O O1 0.654886 0.750000 0.791488
O O2 0.814352 0.697033 0.572367
O O3 0.810407 0.530311 0.774044
O O4 0.074474 0.450071 0.755079
O O5 0.000000 0.500000 0.500000
O O6 0.823199 0.605513 0.495532
O O7 0.471866 0.136860 0.264935
O O8 0.838117 0.370232 0.716644
#
# Coordination Sequence:
#
# PCOD9462905 Si02
#       4
#     4   8   8   8
#     4   8  16  30  48  72 100 126 162 210 248 278
#     4  10  21  36  54  75 102 133 166 206 250 295
#     4  10  19  33  54  76  98 132 173 207 241 294
#     4  10  21  36  51  74 107 134 159 205 259 296
#
# _framework density 23.056377000000001
#
# number of rings (size 3 to 8) (size 9 to 14) (size 15 to 20)
#    0.000    2.286    0.000    2.571    0.000    2.286 
#    0.000    1.429    0.000    0.000    0.000    0.000 
#    0.000    0.000    0.000    0.000    0.000    0.000 
#
# Total GULP energy -156282.655625 kJ/mol
# GULP energy per Si atom -5581.523415 kJ/mol
# Density = 2.300390 g / cm^3
# Si number density = 23.056377 Si / 1000 Ang^3
#
#
#
# Elastic Constant Matrix: (Units=GPa)
#
#
# Indices 1 2 3 4 5 6 
#
# 1 201.7933 10.0267 43.6961 0.0000 0.0000 0.0000
# 2 10.0267 75.1058 -5.6626 0.0000 0.0000 0.0000
# 3 43.6961 -5.6626 79.7614 0.0000 0.0000 0.0000
# 4 0.0000 0.0000 0.0000 16.2332 0.0000 0.0000
# 5 0.0000 0.0000 0.0000 0.0000 38.0755 0.0000
# 6 0.0000 0.0000 0.0000 0.0000 0.0000 19.1990
#
#
#
# Elastic Compliance Matrix: (Units=1/GPa)
#
#
# Indices 1 2 3 4 5 6 
#
# 1 0.005696 -0.001001 -0.003192 0.000000 0.000000 0.000000
# 2 -0.001001 0.013562 0.001511 0.000000 0.000000 0.000000
# 3 -0.003192 0.001511 0.014393 0.000000 0.000000 0.000000
# 4 0.000000 0.000000 0.000000 0.061602 0.000000 0.000000
# 5 0.000000 0.000000 0.000000 0.000000 0.026264 0.000000
# 6 0.000000 0.000000 0.000000 0.000000 0.000000 0.052086
#
#
# Mechanical properties :
#
#
# Convention : Reuss Voigt Hill
#
# Bulk Modulus (GPa) = 35.34993 50.30900 42.82946
# Shear Modulus (GPa) = 26.53974 35.27487 30.90731
#
# Velocity S-wave (km/s) = 3.39644 3.91569 3.66527
# Velocity P-wave (km/s) = 5.54493 6.50468 6.04389
#
# Compressibility (1/GPa) = 0.02828860
#
# Stress axis : x y z
#
# Youngs Moduli (GPa) = 175.54764 73.73464 69.47696
#
# Poissons Ratio (x) = 0.07382 0.22176
# Poissons Ratio (y) = 0.17575 -0.10500
# Poissons Ratio (z) = 0.56031 -0.11143
#
# Static dielectric constant tensor:
#      x y z
#    x 1.982350 0.000000 0.000000 
#    y 0.000000 1.990720 0.000000 
#    z 0.000000 0.000000 1.803170 
# 
# From -- ./inp_files/3800.got.cif
#   From: 2010.05.17/outbox.cif.g08.bks.cpg/sg62_2_cif.got.tgz:3800.got - 2010.06.03 15:25:27.
