data_PCOD9462280
_publ_section_title
;
Structure prediction by ZEFSAII (Michael W. Deem and Ramdas Pophale) SiO2 
 PCOD9462280
Probable space group: P N M A
;
_chemical_formula_sum "Si O2"
_cell_formula_units_Z 64
_cell_length_a 17.999871
_cell_length_b 8.390322
_cell_length_c 23.344914
_cell_angle_alpha 90.000000
_cell_angle_beta 90.000000
_cell_angle_gamma 90.000000
_cell_volume 3525.658952
_symmetry_space_group_name_H-M "P N M A"
_symmetry_group_IT_number 62
_symmetry_cell_setting 'orthorhombic'
loop_
_space_group_symop_operation_xyz
x,y,z
1/2-x,-y,1/2+z
1/2+x,1/2-y,1/2-z
-x,1/2+y,-z
-x,-y,-z
1/2+x,y,1/2-z
1/2-x,1/2+y,1/2+z
x,1/2-y,z
loop_
_atom_site_type_symbol
_atom_site_label
_atom_site_fract_x
_atom_site_fract_y
_atom_site_fract_z
Si Si1 0.485125 0.932483 0.561602
Si Si2 0.872713 0.443683 0.651492
Si Si3 0.710189 0.443025 0.607626
Si Si4 0.175518 0.068646 0.115023
Si Si5 0.935780 0.932905 0.165830
Si Si6 0.766011 0.561190 0.488737
Si Si7 0.925872 0.058953 0.530577
Si Si8 0.915840 0.056605 0.777942
O O1 0.512878 0.750000 0.568914
O O2 0.398549 0.930073 0.576186
O O3 0.500000 0.000000 0.500000
O O4 0.523422 0.053852 0.604992
O O5 0.875185 0.250000 0.653062
O O6 0.788758 0.488312 0.635321
O O7 0.921934 0.495148 0.597180
O O8 0.895279 0.498843 0.714379
O O9 0.704521 0.250000 0.605906
O O10 0.644239 0.503613 0.649030
O O11 0.714153 0.498602 0.541414
O O12 0.198577 0.250000 0.126563
O O13 0.236155 0.987455 0.074025
O O14 0.145043 0.993789 0.174421
O O15 0.923822 0.750000 0.184154
O O16 0.000728 0.003498 0.206067
O O17 0.766877 0.750000 0.492615
O O18 0.849110 0.497151 0.501039
O O19 0.925147 0.250000 0.530123
O O20 0.000000 0.000000 0.500000
O O21 0.918633 0.250000 0.779376
#
# Coordination Sequence:
#
# PCOD9462280 Si02
#       8
#     8   8   8   8   8   8   8   8
#     4  10  19  28  41  62  92 127 161 196 240 289
#     4   8  16  32  54  75 100 134 172 213 260 309
#     4   9  17  31  49  71  99 133 169 212 266 317
#     4  10  20  33  47  68 100 136 167 203 253 306
#     4   9  17  28  45  67  93 125 165 208 250 297
#     4  11  21  33  52  78 103 133 172 215 261 312
#     4  10  20  37  59  83 109 136 169 215 267 317
#     4   9  17  32  51  72  99 136 179 218 254 307
#
# _framework density 18.152633999999999
#
# number of rings (size 3 to 8) (size 9 to 14) (size 15 to 20)
#    0.000    2.500    0.000    3.750    0.000    5.000 
#    0.000    4.375    0.000    4.500    0.000    0.000 
#    0.000    0.000    0.000    0.000    0.000    0.000 
#
# Total GULP energy -356352.413356 kJ/mol
# GULP energy per Si atom -5568.006459 kJ/mol
# Density = 1.811132 g / cm^3
# Si number density = 18.152634 Si / 1000 Ang^3
#
#
#
# Elastic Constant Matrix: (Units=GPa)
#
#
# Indices 1 2 3 4 5 6 
#
# 1 92.7957 18.2171 75.4486 0.0000 0.0000 0.0000
# 2 18.2171 48.0163 21.4483 0.0000 0.0000 0.0000
# 3 75.4486 21.4483 141.7355 0.0000 0.0000 0.0000
# 4 0.0000 0.0000 0.0000 14.0740 0.0000 0.0000
# 5 0.0000 0.0000 0.0000 0.0000 21.1055 0.0000
# 6 0.0000 0.0000 0.0000 0.0000 0.0000 18.6910
#
#
#
# Elastic Compliance Matrix: (Units=1/GPa)
#
#
# Indices 1 2 3 4 5 6 
#
# 1 0.019380 -0.002943 -0.009871 0.000000 0.000000 0.000000
# 2 -0.002943 0.022783 -0.001881 0.000000 0.000000 0.000000
# 3 -0.009871 -0.001881 0.012594 0.000000 0.000000 0.000000
# 4 0.000000 0.000000 0.000000 0.071053 0.000000 0.000000
# 5 0.000000 0.000000 0.000000 0.000000 0.047381 0.000000
# 6 0.000000 0.000000 0.000000 0.000000 0.000000 0.053502
#
#
# Mechanical properties :
#
#
# Convention : Reuss Voigt Hill
#
# Bulk Modulus (GPa) = 39.42100 56.97505 48.19802
# Shear Modulus (GPa) = 18.90084 21.93635 20.41859
#
# Velocity S-wave (km/s) = 3.23029 3.48003 3.35748
# Velocity P-wave (km/s) = 5.97299 6.89944 6.45286
#
# Compressibility (1/GPa) = 0.02536719
#
# Stress axis : x y z
#
# Youngs Moduli (GPa) = 51.60024 43.89219 79.40013
#
# Poissons Ratio (x) = 0.12919 0.78374
# Poissons Ratio (y) = 0.15188 0.14934
# Poissons Ratio (z) = 0.50934 0.08255
#
# Static dielectric constant tensor:
#      x y z
#    x 1.647560 0.000000 0.000000 
#    y 0.000000 1.669910 0.000000 
#    z 0.000000 0.000000 1.624850 
# 
# From -- ./inp_files/27686.got.cif
#   From: 2010.05.17/outbox.cif.g08.bks.cpg/sg62_14_cif.got.tgz:27686.got - 2010.06.03 15:25:27.
