data_PCOD9462314
_publ_section_title
;
Structure prediction by ZEFSAII (Michael W. Deem and Ramdas Pophale) SiO2 
 PCOD9462314
Probable space group: P N M A
;
_chemical_formula_sum "Si O2"
_cell_formula_units_Z 64
_cell_length_a 24.944562
_cell_length_b 9.515836
_cell_length_c 14.703299
_cell_angle_alpha 90.000000
_cell_angle_beta 90.000000
_cell_angle_gamma 90.000000
_cell_volume 3490.097986
_symmetry_space_group_name_H-M "P N M A"
_symmetry_group_IT_number 62
_symmetry_cell_setting 'orthorhombic'
loop_
_space_group_symop_operation_xyz
x,y,z
1/2-x,-y,1/2+z
1/2+x,1/2-y,1/2-z
-x,1/2+y,-z
-x,-y,-z
1/2+x,y,1/2-z
1/2-x,1/2+y,1/2+z
x,1/2-y,z
loop_
_atom_site_type_symbol
_atom_site_label
_atom_site_fract_x
_atom_site_fract_y
_atom_site_fract_z
Si Si1 0.343150 0.596006 0.631596
Si Si2 0.010837 0.913984 0.240511
Si Si3 0.812056 0.080262 0.555180
Si Si4 0.295611 0.918537 0.332330
Si Si5 0.927128 0.411207 0.951961
Si Si6 0.215988 0.588957 0.648135
Si Si7 0.398239 0.587500 0.829473
Si Si8 0.917167 0.582187 0.124051
O O1 0.360006 0.750000 0.593552
O O2 0.369085 0.469407 0.577300
O O3 0.279755 0.590541 0.631203
O O4 0.365441 0.588757 0.734038
O O5 0.012955 0.750000 0.268966
O O6 0.949955 0.956223 0.215723
O O7 0.045477 0.011003 0.307108
O O8 0.039332 0.923105 0.141170
O O9 0.817507 0.250000 0.564214
O O10 0.755698 0.041229 0.605449
O O11 0.809394 0.046457 0.448131
O O12 0.861182 0.000499 0.602291
O O13 0.293313 0.750000 0.322774
O O14 0.354273 0.952824 0.371986
O O15 0.293241 0.990935 0.234199
O O16 0.927051 0.250000 0.980052
O O17 0.942452 0.506782 0.036953
O O18 0.199705 0.750000 0.669033
O O19 0.405437 0.750000 0.857089
O O20 0.923133 0.750000 0.114974
#
# Coordination Sequence:
#
# PCOD9462314 Si02
#       8
#     8   8   8   8   8   8   8   8
#     4   9  17  31  49  70 102 139 171 206 257 316
#     4   9  19  34  52  74 104 141 179 219 265 319
#     4  10  20  34  54  78 108 142 175 214 264 322
#     4  10  21  36  55  79 108 143 179 216 259 315
#     4  10  19  29  47  77 106 136 178 222 259 304
#     4  10  20  35  54  77 107 143 179 217 268 321
#     4  10  19  32  53  77 102 133 173 220 261 305
#     4  10  20  35  52  72 105 146 179 212 266 326
#
# _framework density 18.337595
#
# number of rings (size 3 to 8) (size 9 to 14) (size 15 to 20)
#    0.000    2.250    1.250    1.875    0.000    5.000 
#    0.000    1.250    0.000    0.750    0.000    0.000 
#    0.000    0.000    0.000    0.000    0.000    0.000 
#
# Total GULP energy -356845.981740 kJ/mol
# GULP energy per Si atom -5575.718465 kJ/mol
# Density = 1.829586 g / cm^3
# Si number density = 18.337595 Si / 1000 Ang^3
#
#
#
# Elastic Constant Matrix: (Units=GPa)
#
#
# Indices 1 2 3 4 5 6 
#
# 1 21.6672 6.5398 -1.0281 0.0000 0.0000 0.0000
# 2 6.5398 24.2935 16.4189 0.0000 0.0000 0.0000
# 3 -1.0281 16.4189 56.1828 0.0000 0.0000 0.0000
# 4 0.0000 0.0000 0.0000 26.0756 0.0000 0.0000
# 5 0.0000 0.0000 0.0000 0.0000 22.1557 0.0000
# 6 0.0000 0.0000 0.0000 0.0000 0.0000 12.2764
#
#
#
# Elastic Compliance Matrix: (Units=1/GPa)
#
#
# Indices 1 2 3 4 5 6 
#
# 1 0.051952 -0.018228 0.006278 0.000000 0.000000 0.000000
# 2 -0.018228 0.057690 -0.017193 0.000000 0.000000 0.000000
# 3 0.006278 -0.017193 0.022938 0.000000 0.000000 0.000000
# 4 0.000000 0.000000 0.000000 0.038350 0.000000 0.000000
# 5 0.000000 0.000000 0.000000 0.000000 0.045135 0.000000
# 6 0.000000 0.000000 0.000000 0.000000 0.000000 0.081457
#
#
# Mechanical properties :
#
#
# Convention : Reuss Voigt Hill
#
# Bulk Modulus (GPa) = 13.46006 16.22274 14.84140
# Shear Modulus (GPa) = 13.13799 17.44908 15.29353
#
# Velocity S-wave (km/s) = 2.67956 3.08806 2.89104
# Velocity P-wave (km/s) = 4.11455 4.64551 4.38807
#
# Compressibility (1/GPa) = 0.07429386
#
# Stress axis : x y z
#
# Youngs Moduli (GPa) = 19.24837 17.33393 43.59492
#
# Poissons Ratio (x) = 0.31597 -0.27368
# Poissons Ratio (y) = 0.35087 0.74953
# Poissons Ratio (z) = -0.12084 0.29802
#
# Static dielectric constant tensor:
#      x y z
#    x 1.656650 0.000000 0.000000 
#    y 0.000000 1.624060 0.000000 
#    z 0.000000 0.000000 1.627060 
# 
# From -- ./inp_files/20908.got.cif
#   From: 2010.05.17/outbox.cif.g08.bks.cpg/sg62_11_cif.got.tgz:20908.got - 2010.06.03 15:25:27.
