data_PCOD9462849
_publ_section_title
;
Structure prediction by ZEFSAII (Michael W. Deem and Ramdas Pophale) SiO2 
 PCOD9462849
Probable space group: P N M A
;
_chemical_formula_sum "Si O2"
_cell_formula_units_Z 64
_cell_length_a 17.200870
_cell_length_b 8.202556
_cell_length_c 21.939468
_cell_angle_alpha 90.000000
_cell_angle_beta 90.000000
_cell_angle_gamma 90.000000
_cell_volume 3095.463661
_symmetry_space_group_name_H-M "P N M A"
_symmetry_group_IT_number 62
_symmetry_cell_setting 'orthorhombic'
loop_
_space_group_symop_operation_xyz
x,y,z
1/2-x,-y,1/2+z
1/2+x,1/2-y,1/2-z
-x,1/2+y,-z
-x,-y,-z
1/2+x,y,1/2-z
1/2-x,1/2+y,1/2+z
x,1/2-y,z
loop_
_atom_site_type_symbol
_atom_site_label
_atom_site_fract_x
_atom_site_fract_y
_atom_site_fract_z
Si Si1 0.282173 0.060806 0.235141
Si Si2 0.852030 0.945029 0.137171
Si Si3 0.427284 0.440962 0.792536
Si Si4 0.492353 0.055042 0.570795
Si Si5 0.587870 0.946247 0.991595
Si Si6 0.188622 0.949543 0.396546
Si Si7 0.624662 0.440133 0.328923
Si Si8 0.422425 0.060529 0.141430
O O1 0.264499 0.250000 0.250415
O O2 0.205389 0.991268 0.200670
O O3 0.351467 0.055760 0.187032
O O4 0.320815 0.982411 0.294999
O O5 0.858121 0.750000 0.133384
O O6 0.933336 0.009234 0.110563
O O7 0.777621 0.000748 0.098107
O O8 0.417324 0.250000 0.778944
O O9 0.354743 0.499424 0.834071
O O10 0.433040 0.533774 0.728622
O O11 0.503933 0.464429 0.833026
O O12 0.495275 0.250000 0.569776
O O13 0.500000 0.000000 0.500000
O O14 0.415378 0.008284 0.609923
O O15 0.593200 0.750000 0.994483
O O16 0.608038 0.999225 0.923645
O O17 0.639790 0.010337 0.046324
O O18 0.500000 0.000000 0.000000
O O19 0.186807 0.750000 0.395336
O O20 0.638427 0.250000 0.340421
O O21 0.447849 0.250000 0.134840
#
# Coordination Sequence:
#
# PCOD9462849 Si02
#       8
#     8   8   8   8   8   8   8   8
#     4  10  22  38  58  88 121 156 197 247 306 360
#     4  10  21  40  64  89 116 154 203 254 306 364
#     4  11  20  34  58  86 117 154 196 241 298 361
#     4  11  25  44  68  95 125 166 213 262 319 379
#     4  10  19  33  52  76 109 148 186 226 276 339
#     4   9  18  33  56  83 112 150 194 242 293 353
#     4  11  23  40  63  90 121 157 202 254 310 370
#     4  10  21  35  54  81 116 153 192 239 291 353
#
# _framework density 20.675418000000001
#
# number of rings (size 3 to 8) (size 9 to 14) (size 15 to 20)
#    0.000    1.750    2.500    1.875    0.000    5.000 
#    0.000    4.375    0.000    1.500    0.000    0.000 
#    0.000    0.000    0.000    0.000    0.000    0.000 
#
# Total GULP energy -356911.436106 kJ/mol
# GULP energy per Si atom -5576.741189 kJ/mol
# Density = 2.062836 g / cm^3
# Si number density = 20.675418 Si / 1000 Ang^3
#
#
#
# Elastic Constant Matrix: (Units=GPa)
#
#
# Indices 1 2 3 4 5 6 
#
# 1 92.6640 16.6962 42.1387 0.0000 0.0000 0.0000
# 2 16.6962 21.8494 12.3403 0.0000 0.0000 0.0000
# 3 42.1387 12.3403 99.7101 0.0000 0.0000 0.0000
# 4 0.0000 0.0000 0.0000 23.1290 0.0000 0.0000
# 5 0.0000 0.0000 0.0000 0.0000 31.8279 0.0000
# 6 0.0000 0.0000 0.0000 0.0000 0.0000 22.1763
#
#
#
# Elastic Compliance Matrix: (Units=1/GPa)
#
#
# Indices 1 2 3 4 5 6 
#
# 1 0.014626 -0.008263 -0.005159 0.000000 0.000000 0.000000
# 2 -0.008263 0.053876 -0.003176 0.000000 0.000000 0.000000
# 3 -0.005159 -0.003176 0.012602 0.000000 0.000000 0.000000
# 4 0.000000 0.000000 0.000000 0.043236 0.000000 0.000000
# 5 0.000000 0.000000 0.000000 0.000000 0.031419 0.000000
# 6 0.000000 0.000000 0.000000 0.000000 0.000000 0.045093
#
#
# Mechanical properties :
#
#
# Convention : Reuss Voigt Hill
#
# Bulk Modulus (GPa) = 20.87275 39.61934 30.24605
# Shear Modulus (GPa) = 19.99863 24.96317 22.48090
#
# Velocity S-wave (km/s) = 3.11346 3.47851 3.30104
# Velocity P-wave (km/s) = 4.80023 5.94454 5.40277
#
# Compressibility (1/GPa) = 0.04790935
#
# Stress axis : x y z
#
# Youngs Moduli (GPa) = 68.36948 18.56124 79.35131
#
# Poissons Ratio (x) = 0.15338 0.40934
# Poissons Ratio (y) = 0.56495 0.25199
# Poissons Ratio (z) = 0.35269 0.05894
#
# Static dielectric constant tensor:
#      x y z
#    x 1.758200 0.000000 0.000000 
#    y 0.000000 1.766130 0.000000 
#    z 0.000000 0.000000 1.724410 
# 
# From -- ./inp_files/27781.got.cif
#   From: 2010.05.17/outbox.cif.g08.bks.cpg/sg62_14_cif.got.tgz:27781.got - 2010.06.03 15:25:27.
