data_PCOD9462868
_publ_section_title
;
Structure prediction by ZEFSAII (Michael W. Deem and Ramdas Pophale) SiO2 
 PCOD9462868
Probable space group: P N M A
;
_chemical_formula_sum "Si O2"
_cell_formula_units_Z 40
_cell_length_a 16.209832
_cell_length_b 8.519162
_cell_length_c 16.260603
_cell_angle_alpha 90.000000
_cell_angle_beta 90.000000
_cell_angle_gamma 90.000000
_cell_volume 2245.494716
_symmetry_space_group_name_H-M "P N M A"
_symmetry_group_IT_number 62
_symmetry_cell_setting 'orthorhombic'
loop_
_space_group_symop_operation_xyz
x,y,z
1/2-x,-y,1/2+z
1/2+x,1/2-y,1/2-z
-x,1/2+y,-z
-x,-y,-z
1/2+x,y,1/2-z
1/2-x,1/2+y,1/2+z
x,1/2-y,z
loop_
_atom_site_type_symbol
_atom_site_label
_atom_site_fract_x
_atom_site_fract_y
_atom_site_fract_z
Si Si1 0.460759 0.439666 0.375520
Si Si2 0.124008 0.561912 0.043795
Si Si3 0.939625 0.058945 0.308082
Si Si4 0.568320 0.061906 0.064142
Si Si5 0.306079 0.062254 0.056188
O O1 0.461676 0.250000 0.374667
O O2 0.402538 0.489197 0.451301
O O3 0.552333 0.498008 0.397137
O O4 0.432942 0.495135 0.285560
O O5 0.123643 0.750000 0.046198
O O6 0.214147 0.500211 0.065145
O O7 0.936639 0.250000 0.308004
O O8 0.866661 0.006906 0.369692
O O9 0.028177 0.016062 0.348540
O O10 0.572545 0.250000 0.060716
O O11 0.500000 0.000000 0.000000
O O12 0.653296 0.993766 0.029807
O O13 0.306139 0.250000 0.057298
#
# Coordination Sequence:
#
# PCOD9462868 Si02
#       5
#     8   8   8   8   8
#     4   9  18  36  57  73  96 134 176 211 249 305
#     4  10  20  34  53  76 103 134 170 211 259 304
#     4   8  16  32  54  77  98 130 174 211 246 300
#     4   9  16  29  50  75 103 133 167 205 254 304
#     4  10  19  33  53  76 105 137 173 210 252 304
#
# _framework density 17.813447
#
# number of rings (size 3 to 8) (size 9 to 14) (size 15 to 20)
#    0.000    2.800    0.000    3.000    0.000    0.800 
#    3.600    6.000    0.000    0.000    0.000    0.000 
#    0.000    0.000    0.000    0.000    0.000    0.000 
#
# Total GULP energy -222820.052029 kJ/mol
# GULP energy per Si atom -5570.501301 kJ/mol
# Density = 1.777290 g / cm^3
# Si number density = 17.813447 Si / 1000 Ang^3
#
#
#
# Elastic Constant Matrix: (Units=GPa)
#
#
# Indices 1 2 3 4 5 6 
#
# 1 116.6380 14.6477 52.9787 0.0000 0.0000 0.0000
# 2 14.6477 17.6750 12.7029 0.0000 0.0000 0.0000
# 3 52.9787 12.7029 109.9994 0.0000 0.0000 0.0000
# 4 0.0000 0.0000 0.0000 17.2639 0.0000 0.0000
# 5 0.0000 0.0000 0.0000 0.0000 11.2022 0.0000
# 6 0.0000 0.0000 0.0000 0.0000 0.0000 31.5895
#
#
#
# Elastic Compliance Matrix: (Units=1/GPa)
#
#
# Indices 1 2 3 4 5 6 
#
# 1 0.011543 -0.006075 -0.004858 0.000000 0.000000 0.000000
# 2 -0.006075 0.064895 -0.004568 0.000000 0.000000 0.000000
# 3 -0.004858 -0.004568 0.011958 0.000000 0.000000 0.000000
# 4 0.000000 0.000000 0.000000 0.057924 0.000000 0.000000
# 5 0.000000 0.000000 0.000000 0.000000 0.089268 0.000000
# 6 0.000000 0.000000 0.000000 0.000000 0.000000 0.031656
#
#
# Mechanical properties :
#
#
# Convention : Reuss Voigt Hill
#
# Bulk Modulus (GPa) = 17.42345 44.99677 31.21011
# Shear Modulus (GPa) = 15.75412 22.94333 19.34872
#
# Velocity S-wave (km/s) = 2.97710 3.59273 3.29931
# Velocity P-wave (km/s) = 4.64971 6.52113 5.66326
#
# Compressibility (1/GPa) = 0.05739390
#
# Stress axis : x y z
#
# Youngs Moduli (GPa) = 86.63324 15.40962 83.62451
#
# Poissons Ratio (x) = 0.09361 0.40624
# Poissons Ratio (y) = 0.52626 0.38203
# Poissons Ratio (z) = 0.42085 0.07040
#
# Static dielectric constant tensor:
#      x y z
#    x 1.592600 0.000000 0.000000 
#    y 0.000000 1.608560 0.000000 
#    z 0.000000 0.000000 1.637990 
# 
# From -- ./inp_files/18634.got.cif
#   From: 2010.05.17/outbox.cif.g08.bks.cpg/sg62_10_cif.got.tgz:18634.got - 2010.06.03 15:25:27.
