data_PCOD9462080
_publ_section_title
;
Structure prediction by ZEFSAII (Michael W. Deem and Ramdas Pophale) SiO2 
 PCOD9462080
Probable space group: P N M A
;
_chemical_formula_sum "Si O2"
_cell_formula_units_Z 64
_cell_length_a 19.812945
_cell_length_b 8.634732
_cell_length_c 21.095595
_cell_angle_alpha 90.000000
_cell_angle_beta 90.000000
_cell_angle_gamma 90.000000
_cell_volume 3609.023216
_symmetry_space_group_name_H-M "P N M A"
_symmetry_group_IT_number 62
_symmetry_cell_setting 'orthorhombic'
loop_
_space_group_symop_operation_xyz
x,y,z
1/2-x,-y,1/2+z
1/2+x,1/2-y,1/2-z
-x,1/2+y,-z
-x,-y,-z
1/2+x,y,1/2-z
1/2-x,1/2+y,1/2+z
x,1/2-y,z
loop_
_atom_site_type_symbol
_atom_site_label
_atom_site_fract_x
_atom_site_fract_y
_atom_site_fract_z
Si Si1 0.461108 0.938309 0.811765
Si Si2 0.037925 0.436084 0.061364
Si Si3 0.176772 0.435180 0.759569
Si Si4 0.456544 0.063124 0.312609
Si Si5 0.322529 0.564056 0.755792
Si Si6 0.462819 0.435694 0.061554
Si Si7 0.672912 0.436362 0.887947
Si Si8 0.826904 0.435992 0.886089
O O1 0.462757 0.750000 0.812262
O O2 0.502099 0.988732 0.749536
O O3 0.383613 0.984308 0.801495
O O4 0.496744 0.991392 0.875794
O O5 0.040095 0.250000 0.059405
O O6 0.113689 0.499619 0.070117
O O7 0.995596 0.483825 0.123968
O O8 0.000000 0.500000 0.000000
O O9 0.178529 0.250000 0.760632
O O10 0.118234 0.497772 0.804409
O O11 0.250174 0.500333 0.776132
O O12 0.162924 0.483332 0.686072
O O13 0.453761 0.250000 0.311918
O O14 0.320693 0.750000 0.752771
O O15 0.336893 0.501555 0.684977
O O16 0.464279 0.250000 0.060223
O O17 0.385829 0.490845 0.070105
O O18 0.500000 0.500000 0.000000
O O19 0.667709 0.250000 0.891016
O O20 0.750066 0.479062 0.905220
O O21 0.830216 0.250000 0.883675
#
# Coordination Sequence:
#
# PCOD9462080 Si02
#       8
#     8   8   8   8   8   8   8   8
#     4   9  18  34  56  82 108 139 184 229 272 326
#     4  11  23  39  59  84 116 151 192 235 282 342
#     4  10  20  33  52  85 118 144 181 235 288 333
#     4  10  19  36  58  82 109 144 188 229 274 335
#     4  10  18  33  56  82 112 148 188 232 281 337
#     4  11  22  37  57  81 112 147 185 230 279 333
#     4   9  19  35  54  80 112 144 182 226 274 332
#     4  10  20  35  56  84 116 147 185 234 285 334
#
# _framework density 17.733331
#
# number of rings (size 3 to 8) (size 9 to 14) (size 15 to 20)
#    0.000    2.000    2.500    2.625    0.000    3.500 
#    0.000    3.750    0.000    3.000    0.000    0.000 
#    0.000    0.000    0.000    0.000    0.000    0.000 
#
# Total GULP energy -357206.426464 kJ/mol
# GULP energy per Si atom -5581.350414 kJ/mol
# Density = 1.769297 g / cm^3
# Si number density = 17.733331 Si / 1000 Ang^3
#
#
#
# Elastic Constant Matrix: (Units=GPa)
#
#
# Indices 1 2 3 4 5 6 
#
# 1 169.1869 38.9652 79.7253 0.0000 0.0000 0.0000
# 2 38.9652 36.8082 31.5619 0.0000 0.0000 0.0000
# 3 79.7253 31.5619 111.0525 0.0000 0.0000 0.0000
# 4 0.0000 0.0000 0.0000 24.8468 0.0000 0.0000
# 5 0.0000 0.0000 0.0000 0.0000 31.6363 0.0000
# 6 0.0000 0.0000 0.0000 0.0000 0.0000 27.3963
#
#
#
# Elastic Compliance Matrix: (Units=1/GPa)
#
#
# Indices 1 2 3 4 5 6 
#
# 1 0.009766 -0.005720 -0.005385 0.000000 0.000000 0.000000
# 2 -0.005720 0.039273 -0.007055 0.000000 0.000000 0.000000
# 3 -0.005385 -0.007055 0.014876 0.000000 0.000000 0.000000
# 4 0.000000 0.000000 0.000000 0.040247 0.000000 0.000000
# 5 0.000000 0.000000 0.000000 0.000000 0.031609 0.000000
# 6 0.000000 0.000000 0.000000 0.000000 0.000000 0.036501
#
#
# Mechanical properties :
#
#
# Convention : Reuss Voigt Hill
#
# Bulk Modulus (GPa) = 36.24035 68.61694 52.42864
# Shear Modulus (GPa) = 22.95790 27.89558 25.42674
#
# Velocity S-wave (km/s) = 3.60198 3.97048 3.79071
# Velocity P-wave (km/s) = 6.14652 7.73288 6.98488
#
# Compressibility (1/GPa) = 0.02759356
#
# Stress axis : x y z
#
# Youngs Moduli (GPa) = 102.39970 25.46286 67.22344
#
# Poissons Ratio (x) = 0.14566 0.36200
# Poissons Ratio (y) = 0.58577 0.47426
# Poissons Ratio (z) = 0.55143 0.17964
#
# Static dielectric constant tensor:
#      x y z
#    x 1.610800 0.000000 0.000000 
#    y 0.000000 1.600010 0.000000 
#    z 0.000000 0.000000 1.582430 
# 
# From -- ./inp_files/27698.got.cif
#   From: 2010.05.17/outbox.cif.g08.bks.cpg/sg62_14_cif.got.tgz:27698.got - 2010.06.03 15:25:27.
