data_PCOD9462839
_publ_section_title
;
Structure prediction by ZEFSAII (Michael W. Deem and Ramdas Pophale) SiO2 
 PCOD9462839
Probable space group: P N M A
;
_chemical_formula_sum "Si O2"
_cell_formula_units_Z 64
_cell_length_a 19.583149
_cell_length_b 8.706084
_cell_length_c 23.935468
_cell_angle_alpha 90.000000
_cell_angle_beta 90.000000
_cell_angle_gamma 90.000000
_cell_volume 4080.818740
_symmetry_space_group_name_H-M "P N M A"
_symmetry_group_IT_number 62
_symmetry_cell_setting 'orthorhombic'
loop_
_space_group_symop_operation_xyz
x,y,z
1/2-x,-y,1/2+z
1/2+x,1/2-y,1/2-z
-x,1/2+y,-z
-x,-y,-z
1/2+x,y,1/2-z
1/2-x,1/2+y,1/2+z
x,1/2-y,z
loop_
_atom_site_type_symbol
_atom_site_label
_atom_site_fract_x
_atom_site_fract_y
_atom_site_fract_z
Si Si1 0.860267 0.564638 0.438765
Si Si2 0.001601 0.934409 0.251212
Si Si3 0.726978 0.065561 0.833074
Si Si4 0.643145 0.933635 0.061746
Si Si5 0.642052 0.565652 0.729557
Si Si6 0.998347 0.436789 0.618556
Si Si7 0.228556 0.065832 0.340143
Si Si8 0.353699 0.934055 0.727719
O O1 0.861755 0.750000 0.442217
O O2 0.802733 0.522191 0.393442
O O3 0.848631 0.497763 0.499758
O O4 0.933553 0.513327 0.413791
O O5 0.000546 0.750000 0.249757
O O6 0.000786 0.984484 0.316635
O O7 0.071174 0.996370 0.224590
O O8 0.933487 0.000272 0.223254
O O9 0.728527 0.250000 0.829166
O O10 0.674913 0.002861 0.786100
O O11 0.800651 0.997961 0.817713
O O12 0.641691 0.750000 0.060037
O O13 0.570575 0.988160 0.087761
O O14 0.701636 0.988047 0.104114
O O15 0.640806 0.750000 0.734193
O O16 0.695321 0.524951 0.680350
O O17 0.998502 0.250000 0.618686
O O18 0.225203 0.250000 0.346429
O O19 0.178961 0.023210 0.288194
O O20 0.355755 0.750000 0.724723
#
# Coordination Sequence:
#
# PCOD9462839 Si02
#       8
#     8   8   8   8   8   8   8   8
#     4  10  20  35  50  67  98 136 174 208 247 294
#     4  11  19  32  52  75 102 134 171 205 247 304
#     4  10  19  33  52  72  96 133 171 208 251 299
#     4  11  21  32  49  72  98 131 174 213 246 288
#     4  10  20  33  50  74 102 129 165 210 256 301
#     4   9  18  32  46  68  99 133 171 206 237 285
#     4   9  19  34  49  68  97 132 165 203 251 298
#     4  10  20  33  50  74 102 130 164 209 257 300
#
# _framework density 15.683127000000001
#
# number of rings (size 3 to 8) (size 9 to 14) (size 15 to 20)
#    0.000    2.000    2.500    3.000    0.000    3.500 
#    0.000    0.625    0.000    0.000    0.000    0.875 
#    0.000    0.000    0.000    0.000    0.000    0.000 
#
# Total GULP energy -357171.248691 kJ/mol
# GULP energy per Si atom -5580.800761 kJ/mol
# Density = 1.564743 g / cm^3
# Si number density = 15.683127 Si / 1000 Ang^3
#
#
#
# Elastic Constant Matrix: (Units=GPa)
#
#
# Indices 1 2 3 4 5 6 
#
# 1 151.8263 42.8617 70.2329 0.0000 0.0000 0.0000
# 2 42.8617 38.9624 31.1076 0.0000 0.0000 0.0000
# 3 70.2329 31.1076 99.0654 0.0000 0.0000 0.0000
# 4 0.0000 0.0000 0.0000 21.6809 0.0000 0.0000
# 5 0.0000 0.0000 0.0000 0.0000 19.9482 0.0000
# 6 0.0000 0.0000 0.0000 0.0000 0.0000 26.6146
#
#
#
# Elastic Compliance Matrix: (Units=1/GPa)
#
#
# Indices 1 2 3 4 5 6 
#
# 1 0.011467 -0.008173 -0.005563 0.000000 0.000000 0.000000
# 2 -0.008173 0.040079 -0.006791 0.000000 0.000000 0.000000
# 3 -0.005563 -0.006791 0.016171 0.000000 0.000000 0.000000
# 4 0.000000 0.000000 0.000000 0.046124 0.000000 0.000000
# 5 0.000000 0.000000 0.000000 0.000000 0.050130 0.000000
# 6 0.000000 0.000000 0.000000 0.000000 0.000000 0.037573
#
#
# Mechanical properties :
#
#
# Convention : Reuss Voigt Hill
#
# Bulk Modulus (GPa) = 37.50609 64.25093 50.87851
# Shear Modulus (GPa) = 19.88185 23.35886 21.62036
#
# Velocity S-wave (km/s) = 3.56437 3.86350 3.71694
# Velocity P-wave (km/s) = 6.39582 7.80764 7.13673
#
# Compressibility (1/GPa) = 0.02666234
#
# Stress axis : x y z
#
# Youngs Moduli (GPa) = 87.20390 24.95097 61.83965
#
# Poissons Ratio (x) = 0.20393 0.34404
# Poissons Ratio (y) = 0.71274 0.41993
# Poissons Ratio (z) = 0.48515 0.16943
#
# Static dielectric constant tensor:
#      x y z
#    x 1.523840 0.000000 0.000000 
#    y 0.000000 1.526300 0.000000 
#    z 0.000000 0.000000 1.496660 
# 
# From -- ./inp_files/27706.got.cif
#   From: 2010.05.17/outbox.cif.g08.bks.cpg/sg62_14_cif.got.tgz:27706.got - 2010.06.03 15:25:27.
