data_PCOD9462087
_publ_section_title
;
Structure prediction by ZEFSAII (Michael W. Deem and Ramdas Pophale) SiO2 
 PCOD9462087
Probable space group: P N M A
;
_chemical_formula_sum "Si O2"
_cell_formula_units_Z 56
_cell_length_a 15.505035
_cell_length_b 9.388992
_cell_length_c 21.848298
_cell_angle_alpha 90.000000
_cell_angle_beta 90.000000
_cell_angle_gamma 90.000000
_cell_volume 3180.602022
_symmetry_space_group_name_H-M "P N M A"
_symmetry_group_IT_number 62
_symmetry_cell_setting 'orthorhombic'
loop_
_space_group_symop_operation_xyz
x,y,z
1/2-x,-y,1/2+z
1/2+x,1/2-y,1/2-z
-x,1/2+y,-z
-x,-y,-z
1/2+x,y,1/2-z
1/2-x,1/2+y,1/2+z
x,1/2-y,z
loop_
_atom_site_type_symbol
_atom_site_label
_atom_site_fract_x
_atom_site_fract_y
_atom_site_fract_z
Si Si1 0.001829 0.910306 0.904923
Si Si2 0.222342 0.584310 0.468753
Si Si3 0.128343 0.922815 0.795376
Si Si4 0.878650 0.409794 0.976008
Si Si5 0.008805 0.577032 0.684148
Si Si6 0.055463 0.914781 0.548445
Si Si7 0.814858 0.922861 0.657513
O O1 0.972000 0.750000 0.887929
O O2 0.070926 0.959677 0.854749
O O3 0.051978 0.898391 0.969144
O O4 0.924260 0.017708 0.917906
O O5 0.236677 0.750000 0.452521
O O6 0.306158 0.510848 0.496386
O O7 0.151495 0.579153 0.522339
O O8 0.191589 0.497726 0.408822
O O9 0.130541 0.750000 0.792809
O O10 0.228108 0.965489 0.805350
O O11 0.074054 0.974340 0.736754
O O12 0.846926 0.250000 0.963283
O O13 0.011741 0.750000 0.686563
O O14 0.907026 0.539412 0.688141
O O15 0.042123 0.531832 0.617254
O O16 0.027032 0.750000 0.548144
O O17 0.000000 0.000000 0.500000
O O18 0.813061 0.750000 0.649538
#
# Coordination Sequence:
#
# PCOD9462087 Si02
#       7
#     8   8   8   8   8   8   8
#     4   9  17  31  51  76 105 134 172 222 269 312
#     4  11  21  32  51  80 109 139 175 223 272 318
#     4   9  17  32  53  80 107 135 179 225 267 319
#     4  10  19  32  51  76 106 142 178 217 263 319
#     4   9  18  33  54  80 107 136 176 227 274 320
#     4  10  20  34  54  80 107 135 172 222 276 323
#     4  10  18  33  57  79 101 140 182 217 266 327
#
# _framework density 17.606729000000001
#
# number of rings (size 3 to 8) (size 9 to 14) (size 15 to 20)
#    0.000    2.286    2.857    0.857    0.000    1.143 
#    2.571    0.000    0.000    3.429    0.000    0.000 
#    0.000    0.000    0.000    0.000    0.000    0.000 
#
# Total GULP energy -311883.636893 kJ/mol
# GULP energy per Si atom -5569.350659 kJ/mol
# Density = 1.756666 g / cm^3
# Si number density = 17.606729 Si / 1000 Ang^3
#
#
#
# Elastic Constant Matrix: (Units=GPa)
#
#
# Indices 1 2 3 4 5 6 
#
# 1 92.0466 31.0618 55.1839 0.0000 0.0000 0.0000
# 2 31.0618 46.4967 18.3072 0.0000 0.0000 0.0000
# 3 55.1839 18.3072 96.1530 0.0000 0.0000 0.0000
# 4 0.0000 0.0000 0.0000 19.3739 0.0000 0.0000
# 5 0.0000 0.0000 0.0000 0.0000 26.1583 0.0000
# 6 0.0000 0.0000 0.0000 0.0000 0.0000 18.5010
#
#
#
# Elastic Compliance Matrix: (Units=1/GPa)
#
#
# Indices 1 2 3 4 5 6 
#
# 1 0.019781 -0.009454 -0.009553 0.000000 0.000000 0.000000
# 2 -0.009454 0.027768 0.000139 0.000000 0.000000 0.000000
# 3 -0.009553 0.000139 0.015856 0.000000 0.000000 0.000000
# 4 0.000000 0.000000 0.000000 0.051616 0.000000 0.000000
# 5 0.000000 0.000000 0.000000 0.000000 0.038229 0.000000
# 6 0.000000 0.000000 0.000000 0.000000 0.000000 0.054051
#
#
# Mechanical properties :
#
#
# Convention : Reuss Voigt Hill
#
# Bulk Modulus (GPa) = 38.95641 49.31135 44.13388
# Shear Modulus (GPa) = 19.71658 21.48286 20.59972
#
# Velocity S-wave (km/s) = 3.35002 3.49685 3.42422
# Velocity P-wave (km/s) = 6.09405 6.66122 6.38394
#
# Compressibility (1/GPa) = 0.02566972
#
# Stress axis : x y z
#
# Youngs Moduli (GPa) = 50.55236 36.01308 63.06634
#
# Poissons Ratio (x) = 0.34045 0.60247
# Poissons Ratio (y) = 0.47790 -0.00875
# Poissons Ratio (z) = 0.48293 -0.00499
#
# Static dielectric constant tensor:
#      x y z
#    x 1.639050 0.000000 0.000000 
#    y 0.000000 1.619220 0.000000 
#    z 0.000000 0.000000 1.590590 
# 
# From -- ./inp_files/27268.got.cif
#   From: 2010.05.17/outbox.cif.g08.bks.cpg/sg62_14_cif.got.tgz:27268.got - 2010.06.03 15:25:27.
