data_PCOD9462045
_publ_section_title
;
Structure prediction by ZEFSAII (Michael W. Deem and Ramdas Pophale) SiO2 
 PCOD9462045
Probable space group: P N M A
;
_chemical_formula_sum "Si O2"
_cell_formula_units_Z 56
_cell_length_a 12.304933
_cell_length_b 13.796354
_cell_length_c 15.676093
_cell_angle_alpha 90.000000
_cell_angle_beta 90.000000
_cell_angle_gamma 90.000000
_cell_volume 2661.223893
_symmetry_space_group_name_H-M "P N M A"
_symmetry_group_IT_number 62
_symmetry_cell_setting 'orthorhombic'
loop_
_space_group_symop_operation_xyz
x,y,z
1/2-x,-y,1/2+z
1/2+x,1/2-y,1/2-z
-x,1/2+y,-z
-x,-y,-z
1/2+x,y,1/2-z
1/2-x,1/2+y,1/2+z
x,1/2-y,z
loop_
_atom_site_type_symbol
_atom_site_label
_atom_site_fract_x
_atom_site_fract_y
_atom_site_fract_z
Si Si1 0.381041 0.445002 0.811694
Si Si2 0.718861 0.363756 0.575747
Si Si3 0.910837 0.992545 0.871243
Si Si4 0.958606 0.856493 0.615161
Si Si5 0.186655 0.940180 0.597601
Si Si6 0.477320 0.363356 0.496668
Si Si7 0.922642 0.856955 0.411596
O O1 0.260413 0.408508 0.835380
O O2 0.422513 0.448218 0.715050
O O3 0.394580 0.554752 0.844511
O O4 0.463902 0.377542 0.864350
O O5 0.743413 0.250000 0.574909
O O6 0.788358 0.414992 0.500982
O O7 0.592414 0.372104 0.548759
O O8 0.802644 0.928683 0.858606
O O9 0.896588 0.071279 0.947373
O O10 0.001335 0.918581 0.907255
O O11 0.927366 0.750000 0.645877
O O12 0.086630 0.876523 0.629502
O O13 0.942386 0.860439 0.513144
O O14 0.151784 0.051488 0.609474
O O15 0.450407 0.250000 0.488408
O O16 0.880718 0.750000 0.389286
#
# Coordination Sequence:
#
# PCOD9462045 Si02
#       7
#     8   8   8   8   8   8   8
#     4  11  20  34  54  87 118 140 180 237 282 324
#     4  10  18  32  58  83 107 144 186 227 275 332
#     4  10  23  37  57  82 111 150 192 235 273 320
#     4  10  19  34  58  85 114 149 182 223 284 344
#     4  10  18  35  55  81 109 144 187 229 273 340
#     4   9  21  42  60  75 107 157 198 225 268 331
#     4  10  19  33  56  86 115 146 180 225 287 343
#
# _framework density 21.042950000000001
#
# number of rings (size 3 to 8) (size 9 to 14) (size 15 to 20)
#    0.000    2.000    2.857    1.714    0.000    5.143 
#    0.000    1.429    0.000    0.000    0.000    0.000 
#    0.000    0.000    0.000    0.000    0.000    0.000 
#
# Total GULP energy -312372.815870 kJ/mol
# GULP energy per Si atom -5578.085998 kJ/mol
# Density = 2.099506 g / cm^3
# Si number density = 21.042950 Si / 1000 Ang^3
#
#
#
# Elastic Constant Matrix: (Units=GPa)
#
#
# Indices 1 2 3 4 5 6 
#
# 1 22.9232 -11.3980 1.3245 0.0000 0.0000 0.0000
# 2 -11.3980 114.8284 10.7716 0.0000 0.0000 0.0000
# 3 1.3245 10.7716 52.2173 0.0000 0.0000 0.0000
# 4 0.0000 0.0000 0.0000 8.0813 0.0000 0.0000
# 5 0.0000 0.0000 0.0000 0.0000 8.4203 0.0000
# 6 0.0000 0.0000 0.0000 0.0000 0.0000 16.7973
#
#
#
# Elastic Compliance Matrix: (Units=1/GPa)
#
#
# Indices 1 2 3 4 5 6 
#
# 1 0.046126 0.004781 -0.002156 0.000000 0.000000 0.000000
# 2 0.004781 0.009376 -0.002055 0.000000 0.000000 0.000000
# 3 -0.002156 -0.002055 0.019629 0.000000 0.000000 0.000000
# 4 0.000000 0.000000 0.000000 0.123743 0.000000 0.000000
# 5 0.000000 0.000000 0.000000 0.000000 0.118760 0.000000
# 6 0.000000 0.000000 0.000000 0.000000 0.000000 0.059533
#
#
# Mechanical properties :
#
#
# Convention : Reuss Voigt Hill
#
# Bulk Modulus (GPa) = 13.11144 21.26280 17.18712
# Shear Modulus (GPa) = 12.45480 19.27784 15.86632
#
# Velocity S-wave (km/s) = 2.43549 3.03003 2.74888
# Velocity P-wave (km/s) = 3.76206 4.72947 4.27323
#
# Compressibility (1/GPa) = 0.07626930
#
# Stress axis : x y z
#
# Youngs Moduli (GPa) = 21.67996 106.65533 50.94393
#
# Poissons Ratio (x) = -0.50989 0.10984
# Poissons Ratio (y) = -0.10365 0.10471
# Poissons Ratio (z) = 0.04675 0.21922
#
# Static dielectric constant tensor:
#      x y z
#    x 1.808170 0.000000 0.000000 
#    y 0.000000 1.739880 0.000000 
#    z 0.000000 0.000000 1.798450 
# 
# From -- ./inp_files/18062.got.cif
#   From: 2010.05.17/outbox.cif.g08.bks.cpg/sg62_10_cif.got.tgz:18062.got - 2010.06.03 15:25:27.
