data_PCOD9462085
_publ_section_title
;
Structure prediction by ZEFSAII (Michael W. Deem and Ramdas Pophale) SiO2 
 PCOD9462085
Probable space group: P N M A
;
_chemical_formula_sum "Si O2"
_cell_formula_units_Z 40
_cell_length_a 10.883572
_cell_length_b 16.520343
_cell_length_c 8.749871
_cell_angle_alpha 90.000000
_cell_angle_beta 90.000000
_cell_angle_gamma 90.000000
_cell_volume 1573.229803
_symmetry_space_group_name_H-M "P N M A"
_symmetry_group_IT_number 62
_symmetry_cell_setting 'orthorhombic'
loop_
_space_group_symop_operation_xyz
x,y,z
1/2-x,-y,1/2+z
1/2+x,1/2-y,1/2-z
-x,1/2+y,-z
-x,-y,-z
1/2+x,y,1/2-z
1/2-x,1/2+y,1/2+z
x,1/2-y,z
loop_
_atom_site_type_symbol
_atom_site_label
_atom_site_fract_x
_atom_site_fract_y
_atom_site_fract_z
Si Si1 0.665905 0.846174 0.846721
Si Si2 0.322424 0.957871 0.821399
Si Si3 0.577124 0.847205 0.183271
Si Si4 0.553914 0.979156 0.663610
Si Si5 0.690196 0.344608 0.886717
O O1 0.674810 0.750000 0.834633
O O2 0.793335 0.892828 0.813161
O O3 0.578739 0.885295 0.715019
O O4 0.614724 0.873749 0.010669
O O5 0.447238 0.004261 0.783007
O O6 0.195172 0.007449 0.826514
O O7 0.329789 0.906287 0.974666
O O8 0.592918 0.750000 0.164668
O O9 0.431531 0.853841 0.217564
O O10 0.678884 0.863121 0.312288
O O11 0.500000 0.000000 0.500000
O O12 0.690696 0.250000 0.938658
#
# Coordination Sequence:
#
# PCOD9462085 Si02
#       5
#     8   8   8   8   8
#     4   9  19  37  69 103 140 180 234 302 362 426
#     4  10  21  40  68  97 135 181 239 300 355 427
#     4   9  18  32  54  92 141 179 216 275 360 429
#     4  10  23  44  70 103 139 190 245 294 363 440
#     4  10  18  33  56  95 142 183 220 282 362 431
#
# _framework density 25.425402999999999
#
# number of rings (size 3 to 8) (size 9 to 14) (size 15 to 20)
#    1.200    1.200    2.000    0.600    0.000    2.400 
#    0.000    7.000    0.000    0.000    0.000    1.400 
#    0.000    0.000    0.000    0.000    0.000    0.800 
#
# Total GULP energy -223397.298639 kJ/mol
# GULP energy per Si atom -5584.932466 kJ/mol
# Density = 2.536753 g / cm^3
# Si number density = 25.425403 Si / 1000 Ang^3
#
#
#
# Elastic Constant Matrix: (Units=GPa)
#
#
# Indices 1 2 3 4 5 6 
#
# 1 159.6000 29.4840 45.8489 0.0000 0.0000 0.0000
# 2 29.4840 67.9646 33.4594 0.0000 0.0000 0.0000
# 3 45.8489 33.4594 106.3740 0.0000 0.0000 0.0000
# 4 0.0000 0.0000 0.0000 47.4849 0.0000 0.0000
# 5 0.0000 0.0000 0.0000 0.0000 48.1676 0.0000
# 6 0.0000 0.0000 0.0000 0.0000 0.0000 49.6000
#
#
#
# Elastic Compliance Matrix: (Units=1/GPa)
#
#
# Indices 1 2 3 4 5 6 
#
# 1 0.007359 -0.001930 -0.002565 0.000000 0.000000 0.000000
# 2 -0.001930 0.017915 -0.004803 0.000000 0.000000 0.000000
# 3 -0.002565 -0.004803 0.012017 0.000000 0.000000 0.000000
# 4 0.000000 0.000000 0.000000 0.021059 0.000000 0.000000
# 5 0.000000 0.000000 0.000000 0.000000 0.020761 0.000000
# 6 0.000000 0.000000 0.000000 0.000000 0.000000 0.020161
#
#
# Mechanical properties :
#
#
# Convention : Reuss Voigt Hill
#
# Bulk Modulus (GPa) = 53.48874 61.28035 57.38454
# Shear Modulus (GPa) = 40.28975 44.06024 42.17499
#
# Velocity S-wave (km/s) = 3.98505 4.16735 4.07722
# Velocity P-wave (km/s) = 6.50057 6.87824 6.69207
#
# Compressibility (1/GPa) = 0.01869552
#
# Stress axis : x y z
#
# Youngs Moduli (GPa) = 135.88850 55.81771 83.21413
#
# Poissons Ratio (x) = 0.10771 0.21343
# Poissons Ratio (y) = 0.26223 0.39972
# Poissons Ratio (z) = 0.34853 0.26812
#
# Static dielectric constant tensor:
#      x y z
#    x 2.026730 0.000000 0.000000 
#    y 0.000000 2.226550 0.000000 
#    z 0.000000 0.000000 2.003160 
# 
# From -- ./inp_files/5020.got.cif
#   From: 2010.05.17/outbox.cif.g08.bks.cpg/sg62_3_cif.got.tgz:5020.got - 2010.06.03 15:25:27.
