data_PCOD9462293
_publ_section_title
;
Structure prediction by ZEFSAII (Michael W. Deem and Ramdas Pophale) SiO2 
 PCOD9462293
Probable space group: P N M A
;
_chemical_formula_sum "Si O2"
_cell_formula_units_Z 64
_cell_length_a 18.735850
_cell_length_b 8.919669
_cell_length_c 26.644586
_cell_angle_alpha 90.000000
_cell_angle_beta 90.000000
_cell_angle_gamma 90.000000
_cell_volume 4452.778744
_symmetry_space_group_name_H-M "P N M A"
_symmetry_group_IT_number 62
_symmetry_cell_setting 'orthorhombic'
loop_
_space_group_symop_operation_xyz
x,y,z
1/2-x,-y,1/2+z
1/2+x,1/2-y,1/2-z
-x,1/2+y,-z
-x,-y,-z
1/2+x,y,1/2-z
1/2-x,1/2+y,1/2+z
x,1/2-y,z
loop_
_atom_site_type_symbol
_atom_site_label
_atom_site_fract_x
_atom_site_fract_y
_atom_site_fract_z
Si Si1 0.077886 0.071207 0.750394
Si Si2 0.338972 0.429166 0.649251
Si Si3 0.417051 0.427993 0.447499
Si Si4 0.085141 0.428370 0.054867
Si Si5 0.206503 0.923036 0.697326
Si Si6 0.838212 0.573194 0.145392
Si Si7 0.077301 0.430718 0.243334
Si Si8 0.210568 0.421803 0.304315
O O1 0.070940 0.250000 0.744789
O O2 0.113542 0.042503 0.805117
O O3 0.132527 0.005171 0.709376
O O4 0.001701 0.991544 0.748385
O O5 0.339880 0.250000 0.652175
O O6 0.369192 0.487094 0.596612
O O7 0.259616 0.491573 0.659983
O O8 0.389423 0.496924 0.693105
O O9 0.409469 0.250000 0.454726
O O10 0.398923 0.512833 0.499027
O O11 0.500760 0.458465 0.436153
O O12 0.369881 0.484289 0.401416
O O13 0.096427 0.250000 0.058329
O O14 0.196089 0.750000 0.682527
O O15 0.248629 0.922482 0.750620
O O16 0.841027 0.750000 0.135570
O O17 0.758131 0.522648 0.159476
O O18 0.078173 0.250000 0.237993
O O19 0.130778 0.469524 0.289290
O O20 0.209972 0.250000 0.322498
#
# Coordination Sequence:
#
# PCOD9462293 Si02
#       8
#     8   8   8   8   8   8   8   8
#     4  10  19  29  43  65  90 116 147 182 218 257
#     4  11  20  30  45  64  87 115 148 183 219 259
#     4  10  20  32  46  63  85 113 145 182 219 254
#     4  10  20  33  47  63  85 113 146 182 219 258
#     4   9  17  30  45  61  84 114 146 179 216 258
#     4  10  19  29  43  62  85 114 146 178 215 258
#     4  10  19  30  44  63  87 117 150 181 217 260
#     4   8  16  29  43  59  81 110 144 179 213 252
#
# _framework density 14.373047
#
# number of rings (size 3 to 8) (size 9 to 14) (size 15 to 20)
#    0.000    2.250    0.000    4.875    0.000    8.500 
#    0.000    0.000    0.000    0.000    0.000    0.000 
#    0.000    1.000    0.000    3.750    0.000    5.750 
#
# Total GULP energy -356934.045591 kJ/mol
# GULP energy per Si atom -5577.094462 kJ/mol
# Density = 1.434033 g / cm^3
# Si number density = 14.373047 Si / 1000 Ang^3
#
#
#
# Elastic Constant Matrix: (Units=GPa)
#
#
# Indices 1 2 3 4 5 6 
#
# 1 101.6971 53.6423 42.8296 0.0000 0.0000 0.0000
# 2 53.6423 85.8877 46.0411 0.0000 0.0000 0.0000
# 3 42.8296 46.0411 62.9528 0.0000 0.0000 0.0000
# 4 0.0000 0.0000 0.0000 23.5619 0.0000 0.0000
# 5 0.0000 0.0000 0.0000 0.0000 23.4137 0.0000
# 6 0.0000 0.0000 0.0000 0.0000 0.0000 25.1372
#
#
#
# Elastic Compliance Matrix: (Units=1/GPa)
#
#
# Indices 1 2 3 4 5 6 
#
# 1 0.015868 -0.006783 -0.005835 0.000000 0.000000 0.000000
# 2 -0.006783 0.022051 -0.011512 0.000000 0.000000 0.000000
# 3 -0.005835 -0.011512 0.028275 0.000000 0.000000 0.000000
# 4 0.000000 0.000000 0.000000 0.042441 0.000000 0.000000
# 5 0.000000 0.000000 0.000000 0.000000 0.042710 0.000000
# 6 0.000000 0.000000 0.000000 0.000000 0.000000 0.039782
#
#
# Mechanical properties :
#
#
# Convention : Reuss Voigt Hill
#
# Bulk Modulus (GPa) = 55.76372 59.50706 57.63539
# Shear Modulus (GPa) = 20.37778 21.62420 21.00099
#
# Velocity S-wave (km/s) = 3.76942 3.88299 3.82663
# Velocity P-wave (km/s) = 7.60437 7.84826 7.72728
#
# Compressibility (1/GPa) = 0.01793281
#
# Stress axis : x y z
#
# Youngs Moduli (GPa) = 63.01854 45.35005 35.36728
#
# Poissons Ratio (x) = 0.30759 0.20638
# Poissons Ratio (y) = 0.42743 0.40716
# Poissons Ratio (z) = 0.36774 0.52209
#
# Static dielectric constant tensor:
#      x y z
#    x 1.471630 0.000000 0.000000 
#    y 0.000000 1.477280 0.000000 
#    z 0.000000 0.000000 1.446420 
# 
# From -- ./inp_files/27774.got.cif
#   From: 2010.05.17/outbox.cif.g08.bks.cpg/sg62_14_cif.got.tgz:27774.got - 2010.06.03 15:25:27.
