data_PCOD9462210
_publ_section_title
;
Structure prediction by ZEFSAII (Michael W. Deem and Ramdas Pophale) SiO2 
 PCOD9462210
Probable space group: P N M A
;
_chemical_formula_sum "Si O2"
_cell_formula_units_Z 48
_cell_length_a 16.087874
_cell_length_b 14.732813
_cell_length_c 9.457139
_cell_angle_alpha 90.000000
_cell_angle_beta 90.000000
_cell_angle_gamma 90.000000
_cell_volume 2241.527674
_symmetry_space_group_name_H-M "P N M A"
_symmetry_group_IT_number 62
_symmetry_cell_setting 'orthorhombic'
loop_
_space_group_symop_operation_xyz
x,y,z
1/2-x,-y,1/2+z
1/2+x,1/2-y,1/2-z
-x,1/2+y,-z
-x,-y,-z
1/2+x,y,1/2-z
1/2-x,1/2+y,1/2+z
x,1/2-y,z
loop_
_atom_site_type_symbol
_atom_site_label
_atom_site_fract_x
_atom_site_fract_y
_atom_site_fract_z
Si Si1 0.351606 0.646377 0.945616
Si Si2 0.478927 0.412915 0.402157
Si Si3 0.599448 0.470142 0.810387
Si Si4 0.712996 0.034640 0.316617
Si Si5 0.669774 0.849345 0.410139
Si Si6 0.634569 0.350729 0.543311
O O1 0.382319 0.750000 0.931618
O O2 0.408354 0.579518 0.039786
O O3 0.263524 0.650772 0.030489
O O4 0.325350 0.601206 0.798651
O O5 0.500000 0.500000 0.500000
O O6 0.464803 0.454852 0.247551
O O7 0.395506 0.368374 0.464170
O O8 0.556356 0.349703 0.436168
O O9 0.689404 0.518507 0.801640
O O10 0.604108 0.390035 0.692669
O O11 0.667722 0.936851 0.309629
O O12 0.696406 0.077684 0.471055
O O13 0.652022 0.750000 0.348053
O O14 0.669415 0.250000 0.559024
#
# Coordination Sequence:
#
# PCOD9462210 Si02
#       6
#     8   8   8   8   8   8
#     4  10  20  33  55  84 117 151 185 232 291 342
#     4  10  18  36  58  84 111 147 190 239 284 320
#     4  10  19  36  57  82 115 152 190 232 284 339
#     4  11  19  36  55  85 117 148 187 239 288 330
#     4  10  19  34  57  82 111 151 193 232 283 340
#     4  11  22  36  61  87 113 147 194 237 280 340
#
# _framework density 21.413969000000002
#
# number of rings (size 3 to 8) (size 9 to 14) (size 15 to 20)
#    0.000    1.667    5.000    2.500    0.000    0.667 
#    0.000    0.833    0.000    2.000    0.000    0.000 
#    0.000    0.000    0.000    0.000    0.000    0.000 
#
# Total GULP energy -267846.892908 kJ/mol
# GULP energy per Si atom -5580.143602 kJ/mol
# Density = 2.136523 g / cm^3
# Si number density = 21.413969 Si / 1000 Ang^3
#
#
#
# Elastic Constant Matrix: (Units=GPa)
#
#
# Indices 1 2 3 4 5 6 
#
# 1 36.1378 -5.2577 -9.6693 0.0000 0.0000 0.0000
# 2 -5.2577 78.7941 1.5879 0.0000 0.0000 0.0000
# 3 -9.6693 1.5879 53.0163 0.0000 0.0000 0.0000
# 4 0.0000 0.0000 0.0000 21.2105 0.0000 0.0000
# 5 0.0000 0.0000 0.0000 0.0000 29.9824 0.0000
# 6 0.0000 0.0000 0.0000 0.0000 0.0000 14.6856
#
#
#
# Elastic Compliance Matrix: (Units=1/GPa)
#
#
# Indices 1 2 3 4 5 6 
#
# 1 0.029359 0.001852 0.005299 0.000000 0.000000 0.000000
# 2 0.001852 0.012816 -0.000046 0.000000 0.000000 0.000000
# 3 0.005299 -0.000046 0.019830 0.000000 0.000000 0.000000
# 4 0.000000 0.000000 0.000000 0.047147 0.000000 0.000000
# 5 0.000000 0.000000 0.000000 0.000000 0.033353 0.000000
# 6 0.000000 0.000000 0.000000 0.000000 0.000000 0.068094
#
#
# Mechanical properties :
#
#
# Convention : Reuss Voigt Hill
#
# Bulk Modulus (GPa) = 13.12063 15.69667 14.40865
# Shear Modulus (GPa) = 22.54358 25.26153 23.90256
#
# Velocity S-wave (km/s) = 3.24813 3.43837 3.34460
# Velocity P-wave (km/s) = 4.49529 4.80720 4.65386
#
# Compressibility (1/GPa) = 0.07621584
#
# Stress axis : x y z
#
# Youngs Moduli (GPa) = 34.06086 78.02856 50.42864
#
# Poissons Ratio (x) = -0.14453 -0.26723
# Poissons Ratio (y) = -0.06309 0.00232
# Poissons Ratio (z) = -0.18049 0.00359
#
# Static dielectric constant tensor:
#      x y z
#    x 1.816290 0.000000 0.000000 
#    y 0.000000 1.812150 0.000000 
#    z 0.000000 0.000000 1.804820 
# 
# From -- ./inp_files/7678.got.cif
#   From: 2010.05.17/outbox.cif.g08.bks.cpg/sg62_4_cif.got.tgz:7678.got - 2010.06.03 15:25:27.
