data_PCOD9462369
_publ_section_title
;
Structure prediction by ZEFSAII (Michael W. Deem and Ramdas Pophale) SiO2 
 PCOD9462369
Probable space group: P N M A
;
_chemical_formula_sum "Si O2"
_cell_formula_units_Z 64
_cell_length_a 20.790881
_cell_length_b 8.881424
_cell_length_c 20.137896
_cell_angle_alpha 90.000000
_cell_angle_beta 90.000000
_cell_angle_gamma 90.000000
_cell_volume 3718.515449
_symmetry_space_group_name_H-M "P N M A"
_symmetry_group_IT_number 62
_symmetry_cell_setting 'orthorhombic'
loop_
_space_group_symop_operation_xyz
x,y,z
1/2-x,-y,1/2+z
1/2+x,1/2-y,1/2-z
-x,1/2+y,-z
-x,-y,-z
1/2+x,y,1/2-z
1/2-x,1/2+y,1/2+z
x,1/2-y,z
loop_
_atom_site_type_symbol
_atom_site_label
_atom_site_fract_x
_atom_site_fract_y
_atom_site_fract_z
Si Si1 0.455840 0.429373 0.557675
Si Si2 0.719949 0.423819 0.179012
Si Si3 0.666087 0.072329 0.503549
Si Si4 0.352219 0.928142 0.338759
Si Si5 0.513632 0.569206 0.690883
Si Si6 0.060223 0.067721 0.462098
Si Si7 0.421016 0.566783 0.810048
Si Si8 0.797843 0.923645 0.518698
O O1 0.500000 0.500000 0.500000
O O2 0.462508 0.250000 0.557234
O O3 0.383505 0.479506 0.540729
O O4 0.479999 0.496148 0.626941
O O5 0.729984 0.250000 0.199307
O O6 0.784258 0.517561 0.190829
O O7 0.651981 0.482227 0.207159
O O8 0.708892 0.423429 0.099107
O O9 0.657481 0.250000 0.492597
O O10 0.650450 0.041075 0.581540
O O11 0.739626 0.023271 0.492099
O O12 0.359986 0.750000 0.330555
O O13 0.412957 0.013893 0.308691
O O14 0.511905 0.750000 0.685159
O O15 0.473551 0.523166 0.755997
O O16 0.057762 0.250000 0.463226
O O17 0.061361 0.019125 0.384782
O O18 0.129243 0.024528 0.493921
O O19 0.000000 0.000000 0.500000
O O20 0.418008 0.750000 0.811354
O O21 0.790237 0.750000 0.497074
#
# Coordination Sequence:
#
# PCOD9462369 Si02
#       8
#     8   8   8   8   8   8   8   8
#     4  12  23  35  51  74 105 140 177 216 259 307
#     4   8  14  29  52  73  95 126 168 212 252 300
#     4  10  19  31  49  73 103 134 171 215 256 301
#     4  10  19  30  47  75 106 132 167 215 259 304
#     4  11  21  34  54  76 102 139 179 217 263 312
#     4   9  17  32  55  82 109 135 170 215 263 314
#     4   8  17  34  55  78 103 134 174 216 257 314
#     4   8  15  28  48  74 102 132 166 208 257 304
#
# _framework density 17.211169000000002
#
# number of rings (size 3 to 8) (size 9 to 14) (size 15 to 20)
#    0.000    2.500    1.250    3.750    0.000    1.500 
#    0.000    4.375    2.750    0.000    0.000    0.000 
#    0.000    0.000    0.000    0.000    0.000    0.000 
#
# Total GULP energy -356822.381818 kJ/mol
# GULP energy per Si atom -5575.349716 kJ/mol
# Density = 1.717200 g / cm^3
# Si number density = 17.211169 Si / 1000 Ang^3
#
#
#
# Elastic Constant Matrix: (Units=GPa)
#
#
# Indices 1 2 3 4 5 6 
#
# 1 168.0328 53.5879 54.8406 0.0000 0.0000 0.0000
# 2 53.5879 56.3006 24.4633 0.0000 0.0000 0.0000
# 3 54.8406 24.4633 53.4244 0.0000 0.0000 0.0000
# 4 0.0000 0.0000 0.0000 16.7972 0.0000 0.0000
# 5 0.0000 0.0000 0.0000 0.0000 25.2940 0.0000
# 6 0.0000 0.0000 0.0000 0.0000 0.0000 30.7313
#
#
#
# Elastic Compliance Matrix: (Units=1/GPa)
#
#
# Indices 1 2 3 4 5 6 
#
# 1 0.010666 -0.006735 -0.007865 0.000000 0.000000 0.000000
# 2 -0.006735 0.026426 -0.005187 0.000000 0.000000 0.000000
# 3 -0.007865 -0.005187 0.029167 0.000000 0.000000 0.000000
# 4 0.000000 0.000000 0.000000 0.059534 0.000000 0.000000
# 5 0.000000 0.000000 0.000000 0.000000 0.039535 0.000000
# 6 0.000000 0.000000 0.000000 0.000000 0.000000 0.032540
#
#
# Mechanical properties :
#
#
# Convention : Reuss Voigt Hill
#
# Bulk Modulus (GPa) = 37.47451 60.39348 48.93400
# Shear Modulus (GPa) = 20.29751 24.22222 22.25987
#
# Velocity S-wave (km/s) = 3.43785 3.75554 3.60020
# Velocity P-wave (km/s) = 6.13018 7.34652 6.76574
#
# Compressibility (1/GPa) = 0.02668480
#
# Stress axis : x y z
#
# Youngs Moduli (GPa) = 93.75804 37.84165 34.28585
#
# Poissons Ratio (x) = 0.25485 0.26965
# Poissons Ratio (y) = 0.63142 0.17786
# Poissons Ratio (z) = 0.73738 0.19630
#
# Static dielectric constant tensor:
#      x y z
#    x 1.603130 0.000000 0.000000 
#    y 0.000000 1.577880 0.000000 
#    z 0.000000 0.000000 1.563680 
# 
# From -- ./inp_files/24742.got.cif
#   From: 2010.05.17/outbox.cif.g08.bks.cpg/sg62_13_cif.got.tgz:24742.got - 2010.06.03 15:25:27.
