data_PCOD9462193
_publ_section_title
;
Structure prediction by ZEFSAII (Michael W. Deem and Ramdas Pophale) SiO2 
 PCOD9462193
Probable space group: P N M A
;
_chemical_formula_sum "Si O2"
_cell_formula_units_Z 28
_cell_length_a 4.989563
_cell_length_b 8.377470
_cell_length_c 27.565849
_cell_angle_alpha 90.000000
_cell_angle_beta 90.000000
_cell_angle_gamma 90.000000
_cell_volume 1152.250127
_symmetry_space_group_name_H-M "P N M A"
_symmetry_group_IT_number 62
_symmetry_cell_setting 'orthorhombic'
loop_
_space_group_symop_operation_xyz
x,y,z
1/2-x,-y,1/2+z
1/2+x,1/2-y,1/2-z
-x,1/2+y,-z
-x,-y,-z
1/2+x,y,1/2-z
1/2-x,1/2+y,1/2+z
x,1/2-y,z
loop_
_atom_site_type_symbol
_atom_site_label
_atom_site_fract_x
_atom_site_fract_y
_atom_site_fract_z
Si Si1 0.558490 0.420571 0.850357
Si Si2 0.581114 0.750000 0.286001
Si Si3 0.221996 0.062968 0.537470
Si Si4 0.010182 0.250000 0.070204
Si Si5 0.978582 0.750000 0.637763
O O1 0.413235 0.250000 0.843390
O O2 0.838493 0.395970 0.821783
O O3 0.601097 0.432305 0.907868
O O4 0.431886 0.585691 0.834226
O O5 0.818472 0.750000 0.245702
O O6 0.294633 0.250000 0.528673
O O7 0.434683 0.917487 0.542741
O O8 0.000000 0.000000 0.500000
O O9 0.219828 0.250000 0.115721
O O10 0.715722 0.250000 0.091566
#
# Coordination Sequence:
#
# PCOD9462193 Si02
#       5
#     8   4   8   4   4
#     4   8  20  39  62  90 128 165 207 262 323 375
#     4  10  22  41  66  95 124 162 214 264 322 384
#     4  10  18  35  63  91 132 172 216 262 320 383
#     4  10  22  35  58  87 124 162 209 249 304 370
#     4  10  20  40  60  90 118 160 205 251 310 380
#
# _framework density 24.300279
#
# number of rings (size 3 to 8) (size 9 to 14) (size 15 to 20)
#    0.857    1.714    1.429    0.000    0.000    5.714 
#    0.000    7.143    0.000    0.000    0.000    0.000 
#    0.000    0.000    0.000    0.000    0.000    0.000 
#
# Total GULP energy -156153.398907 kJ/mol
# GULP energy per Si atom -5576.907104 kJ/mol
# Density = 2.424497 g / cm^3
# Si number density = 24.300279 Si / 1000 Ang^3
#
#
#
# Elastic Constant Matrix: (Units=GPa)
#
#
# Indices 1 2 3 4 5 6 
#
# 1 61.5223 22.6612 16.8579 0.0000 0.0000 0.0000
# 2 22.6612 245.7807 -8.1270 0.0000 0.0000 0.0000
# 3 16.8579 -8.1270 90.0532 0.0000 0.0000 0.0000
# 4 0.0000 0.0000 0.0000 10.9914 0.0000 0.0000
# 5 0.0000 0.0000 0.0000 0.0000 41.3665 0.0000
# 6 0.0000 0.0000 0.0000 0.0000 0.0000 18.6047
#
#
#
# Elastic Compliance Matrix: (Units=1/GPa)
#
#
# Indices 1 2 3 4 5 6 
#
# 1 0.017863 -0.001763 -0.003503 0.000000 0.000000 0.000000
# 2 -0.001763 0.004255 0.000714 0.000000 0.000000 0.000000
# 3 -0.003503 0.000714 0.011825 0.000000 0.000000 0.000000
# 4 0.000000 0.000000 0.000000 0.090980 0.000000 0.000000
# 5 0.000000 0.000000 0.000000 0.000000 0.024174 0.000000
# 6 0.000000 0.000000 0.000000 0.000000 0.000000 0.053750
#
#
# Mechanical properties :
#
#
# Convention : Reuss Voigt Hill
#
# Bulk Modulus (GPa) = 40.25914 51.12670 45.69292
# Shear Modulus (GPa) = 22.70348 38.59014 30.64681
#
# Velocity S-wave (km/s) = 3.05993 3.98936 3.55515
# Velocity P-wave (km/s) = 5.39329 6.50425 5.97465
#
# Compressibility (1/GPa) = 0.02483908
#
# Stress axis : x y z
#
# Youngs Moduli (GPa) = 55.98010 235.02795 84.56825
#
# Poissons Ratio (x) = 0.41432 0.29625
# Poissons Ratio (y) = 0.09869 -0.06038
# Poissons Ratio (z) = 0.19611 -0.16781
#
# Static dielectric constant tensor:
#      x y z
#    x 1.989260 0.000000 0.000000 
#    y 0.000000 2.025790 0.000000 
#    z 0.000000 0.000000 1.956860 
# 
# From -- ./inp_files/30193.got.cif
#   From: 2010.05.17/outbox.cif.g08.bks.cpg/sg62_16_cif.got.tgz:30193.got - 2010.06.03 15:25:27.
