data_PCOD9462425
_publ_section_title
;
Structure prediction by ZEFSAII (Michael W. Deem and Ramdas Pophale) SiO2 
 PCOD9462425
Probable space group: P N M A
;
_chemical_formula_sum "Si O2"
_cell_formula_units_Z 64
_cell_length_a 5.660970
_cell_length_b 20.942363
_cell_length_c 23.883851
_cell_angle_alpha 90.000000
_cell_angle_beta 90.000000
_cell_angle_gamma 90.000000
_cell_volume 2831.528189
_symmetry_space_group_name_H-M "P N M A"
_symmetry_group_IT_number 62
_symmetry_cell_setting 'orthorhombic'
loop_
_space_group_symop_operation_xyz
x,y,z
1/2-x,-y,1/2+z
1/2+x,1/2-y,1/2-z
-x,1/2+y,-z
-x,-y,-z
1/2+x,y,1/2-z
1/2-x,1/2+y,1/2+z
x,1/2-y,z
loop_
_atom_site_type_symbol
_atom_site_label
_atom_site_fract_x
_atom_site_fract_y
_atom_site_fract_z
Si Si1 0.086935 0.007553 0.936638
Si Si2 0.618618 0.642454 0.926062
Si Si3 0.634890 0.674188 0.058437
Si Si4 0.412939 0.990776 0.097370
Si Si5 0.031977 0.680678 0.716151
Si Si6 0.618955 0.638476 0.578294
Si Si7 0.036563 0.964189 0.716814
Si Si8 0.865058 0.327736 0.947023
O O1 0.353415 0.034909 0.934472
O O2 0.117789 0.937047 0.909232
O O3 0.850793 0.035983 0.909769
O O4 0.000000 0.000000 0.000000
O O5 0.613107 0.564997 0.924242
O O6 0.367793 0.666889 0.903164
O O7 0.868980 0.664754 0.900750
O O8 0.628893 0.662631 0.991324
O O9 0.636162 0.750000 0.452520
O O10 0.381446 0.652897 0.080637
O O11 0.888424 0.652692 0.080506
O O12 0.470972 0.991345 0.162733
O O13 0.770281 0.680585 0.744837
O O14 0.049861 0.750000 0.687564
O O15 0.045294 0.608568 0.692980
O O16 0.625317 0.645730 0.510716
O O17 0.788925 0.972070 0.750811
O O18 0.363401 0.250000 0.933278
#
# Coordination Sequence:
#
# PCOD9462425 Si02
#       8
#     8   8   8   8   8   8   8   8
#     4  10  19  31  46  62  81 106 134 168 214 256
#     4   8  14  23  34  48  67  90 113 145 186 224
#     4   8  12  18  28  42  61  84 110 139 175 222
#     4  10  19  31  45  62  82 102 131 169 207 256
#     4   8  14  25  41  59  79 105 138 174 212 261
#     4   8  14  23  35  50  68  90 118 149 184 229
#     4  10  19  31  47  65  85 111 141 176 223 270
#     4   8  12  18  29  44  62  86 112 140 178 220
#
# _framework density 22.602637000000001
#
# number of rings (size 3 to 8) (size 9 to 14) (size 15 to 20)
#    0.000    3.250    0.000    1.125    0.000    0.000 
#    0.000    0.625    0.000    1.500    0.000   17.500 
#    0.000    0.000    0.000    0.000    0.000    0.000 
#
# Total GULP energy -356484.836987 kJ/mol
# GULP energy per Si atom -5570.075578 kJ/mol
# Density = 2.255119 g / cm^3
# Si number density = 22.602637 Si / 1000 Ang^3
#
#
#
# Elastic Constant Matrix: (Units=GPa)
#
#
# Indices 1 2 3 4 5 6 
#
# 1 306.0535 32.1334 30.6828 0.0000 0.0000 0.0000
# 2 32.1334 58.1471 -1.1273 0.0000 0.0000 0.0000
# 3 30.6828 -1.1273 55.5032 0.0000 0.0000 0.0000
# 4 0.0000 0.0000 0.0000 19.9119 0.0000 0.0000
# 5 0.0000 0.0000 0.0000 0.0000 24.0148 0.0000
# 6 0.0000 0.0000 0.0000 0.0000 0.0000 34.1396
#
#
#
# Elastic Compliance Matrix: (Units=1/GPa)
#
#
# Indices 1 2 3 4 5 6 
#
# 1 0.003695 -0.002082 -0.002085 0.000000 0.000000 0.000000
# 2 -0.002082 0.018378 0.001524 0.000000 0.000000 0.000000
# 3 -0.002085 0.001524 0.019201 0.000000 0.000000 0.000000
# 4 0.000000 0.000000 0.000000 0.050221 0.000000 0.000000
# 5 0.000000 0.000000 0.000000 0.000000 0.041641 0.000000
# 6 0.000000 0.000000 0.000000 0.000000 0.000000 0.029292
#
#
# Mechanical properties :
#
#
# Convention : Reuss Voigt Hill
#
# Bulk Modulus (GPa) = 27.78716 60.34239 44.06478
# Shear Modulus (GPa) = 27.82269 39.48090 33.65179
#
# Velocity S-wave (km/s) = 3.51229 4.18393 3.86274
# Velocity P-wave (km/s) = 5.36365 7.07781 6.27950
#
# Compressibility (1/GPa) = 0.03598784
#
# Stress axis : x y z
#
# Youngs Moduli (GPa) = 270.63141 54.41261 52.08186
#
# Poissons Ratio (x) = 0.11331 0.10859
# Poissons Ratio (y) = 0.56356 -0.07940
# Poissons Ratio (z) = 0.56426 -0.08295
#
# Static dielectric constant tensor:
#      x y z
#    x 1.893450 0.000000 0.000000 
#    y 0.000000 1.778360 0.000000 
#    z 0.000000 0.000000 2.142810 
# 
# From -- ./inp_files/28454.got.cif
#   From: 2010.05.17/outbox.cif.g08.bks.cpg/sg62_15_cif.got.tgz:28454.got - 2010.06.03 15:25:27.
