data_PCOD9462759
_publ_section_title
;
Structure prediction by ZEFSAII (Michael W. Deem and Ramdas Pophale) SiO2 
 PCOD9462759
Probable space group: P N M A
;
_chemical_formula_sum "Si O2"
_cell_formula_units_Z 64
_cell_length_a 19.279180
_cell_length_b 28.582283
_cell_length_c 5.296307
_cell_angle_alpha 90.000000
_cell_angle_beta 90.000000
_cell_angle_gamma 90.000000
_cell_volume 2918.492786
_symmetry_space_group_name_H-M "P N M A"
_symmetry_group_IT_number 62
_symmetry_cell_setting 'orthorhombic'
loop_
_space_group_symop_operation_xyz
x,y,z
1/2-x,-y,1/2+z
1/2+x,1/2-y,1/2-z
-x,1/2+y,-z
-x,-y,-z
1/2+x,y,1/2-z
1/2-x,1/2+y,1/2+z
x,1/2-y,z
loop_
_atom_site_type_symbol
_atom_site_label
_atom_site_fract_x
_atom_site_fract_y
_atom_site_fract_z
Si Si1 0.846302 0.535445 0.880693
Si Si2 0.451906 0.936183 0.961292
Si Si3 0.212373 0.551144 0.375688
Si Si4 0.657671 0.803828 0.847763
Si Si5 0.909986 0.031138 0.276720
Si Si6 0.488575 0.858569 0.333245
Si Si7 0.489177 0.696766 0.829646
Si Si8 0.343775 0.140333 0.646126
O O1 0.888687 0.573507 0.725621
O O2 0.796742 0.502326 0.712570
O O3 0.792779 0.558827 0.071186
O O4 0.895571 0.497154 0.020436
O O5 0.523965 0.934931 0.804009
O O6 0.459612 0.906779 0.216046
O O7 0.431369 0.989089 0.035242
O O8 0.158491 0.555266 0.610334
O O9 0.186487 0.588706 0.174837
O O10 0.681271 0.750000 0.843413
O O11 0.573459 0.802789 0.829793
O O12 0.676173 0.829786 0.106601
O O13 0.679996 0.833198 0.604288
O O14 0.470776 0.822832 0.104881
O O15 0.572348 0.863661 0.348347
O O16 0.466519 0.836574 0.599442
O O17 0.465737 0.750000 0.791474
#
# Coordination Sequence:
#
# PCOD9462759 Si02
#       8
#     8   8   8   8   8   8   8   8
#     4  11  23  37  57  77 117 160 194 247 287 340
#     4  10  22  36  55  85 108 156 195 237 290 343
#     4  11  22  36  56  82 113 158 202 238 289 343
#     4   9  18  33  52  81 116 146 181 238 302 348
#     4  10  21  39  55  78 116 149 199 237 289 336
#     4  10  19  32  54  80 115 145 188 238 285 349
#     4   9  18  31  51  80 114 147 179 231 299 353
#     4  10  20  32  55  84 112 150 191 237 286 354
#
# _framework density 21.929129
#
# number of rings (size 3 to 8) (size 9 to 14) (size 15 to 20)
#    0.000    2.000    2.500    1.125    3.500    4.000 
#    0.000    0.000    0.000    0.000    0.000    5.250 
#    0.000    0.000    0.000    0.000    0.000    0.000 
#
# Total GULP energy -357511.065643 kJ/mol
# GULP energy per Si atom -5586.110401 kJ/mol
# Density = 2.187922 g / cm^3
# Si number density = 21.929129 Si / 1000 Ang^3
#
#
#
# Elastic Constant Matrix: (Units=GPa)
#
#
# Indices 1 2 3 4 5 6 
#
# 1 37.5474 15.2532 14.4797 0.0000 0.0000 0.0000
# 2 15.2532 91.4264 20.8183 0.0000 0.0000 0.0000
# 3 14.4797 20.8183 91.4115 0.0000 0.0000 0.0000
# 4 0.0000 0.0000 0.0000 35.3877 0.0000 0.0000
# 5 0.0000 0.0000 0.0000 0.0000 6.5929 0.0000
# 6 0.0000 0.0000 0.0000 0.0000 0.0000 8.1365
#
#
#
# Elastic Compliance Matrix: (Units=1/GPa)
#
#
# Indices 1 2 3 4 5 6 
#
# 1 0.029758 -0.004104 -0.003779 0.000000 0.000000 0.000000
# 2 -0.004104 0.012102 -0.002106 0.000000 0.000000 0.000000
# 3 -0.003779 -0.002106 0.012018 0.000000 0.000000 0.000000
# 4 0.000000 0.000000 0.000000 0.028258 0.000000 0.000000
# 5 0.000000 0.000000 0.000000 0.000000 0.151677 0.000000
# 6 0.000000 0.000000 0.000000 0.000000 0.000000 0.122903
#
#
# Mechanical properties :
#
#
# Convention : Reuss Voigt Hill
#
# Bulk Modulus (GPa) = 29.49931 35.72084 32.61007
# Shear Modulus (GPa) = 12.88679 21.34570 17.11624
#
# Velocity S-wave (km/s) = 2.42679 3.12331 2.79682
# Velocity P-wave (km/s) = 4.61885 5.41584 5.03314
#
# Compressibility (1/GPa) = 0.03389910
#
# Stress axis : x y z
#
# Youngs Moduli (GPa) = 33.60490 82.63072 83.21011
#
# Poissons Ratio (x) = 0.33913 0.31445
# Poissons Ratio (y) = 0.13792 0.17524
# Poissons Ratio (z) = 0.12699 0.17402
#
# Static dielectric constant tensor:
#      x y z
#    x 1.816190 0.000000 0.000000 
#    y 0.000000 1.822370 0.000000 
#    z 0.000000 0.000000 1.880600 
# 
# From -- ./inp_files/2396.got.cif
#   From: 2010.05.17/outbox.cif.g08.bks.cpg/sg62_2_cif.got.tgz:2396.got - 2010.06.03 15:25:27.
