data_PCOD9462051
_publ_section_title
;
Structure prediction by ZEFSAII (Michael W. Deem and Ramdas Pophale) SiO2 
 PCOD9462051
Probable space group: P N M A
;
_chemical_formula_sum "Si O2"
_cell_formula_units_Z 64
_cell_length_a 9.241119
_cell_length_b 17.224814
_cell_length_c 18.906699
_cell_angle_alpha 90.000000
_cell_angle_beta 90.000000
_cell_angle_gamma 90.000000
_cell_volume 3009.503231
_symmetry_space_group_name_H-M "P N M A"
_symmetry_group_IT_number 62
_symmetry_cell_setting 'orthorhombic'
loop_
_space_group_symop_operation_xyz
x,y,z
1/2-x,-y,1/2+z
1/2+x,1/2-y,1/2-z
-x,1/2+y,-z
-x,-y,-z
1/2+x,y,1/2-z
1/2-x,1/2+y,1/2+z
x,1/2-y,z
loop_
_atom_site_type_symbol
_atom_site_label
_atom_site_fract_x
_atom_site_fract_y
_atom_site_fract_z
Si Si1 0.836700 0.393112 0.747795
Si Si2 0.222152 0.377257 0.282966
Si Si3 0.094696 0.487360 0.816105
Si Si4 0.713953 0.333303 0.373430
Si Si5 0.475491 0.444348 0.117506
Si Si6 0.920002 0.627171 0.351207
Si Si7 0.597229 0.626472 0.587131
Si Si8 0.633719 0.162917 0.008811
O O1 0.719895 0.423508 0.689690
O O2 0.730944 0.362728 0.809113
O O3 0.943153 0.455505 0.787671
O O4 0.953333 0.345856 0.702027
O O5 0.330921 0.448322 0.264946
O O6 0.183838 0.335905 0.210928
O O7 0.314556 0.337624 0.345492
O O8 0.080234 0.409281 0.321621
O O9 0.087921 0.535384 0.889128
O O10 0.821487 0.402920 0.387776
O O11 0.563730 0.342720 0.413645
O O12 0.454837 0.535549 0.131963
O O13 0.557298 0.409697 0.048252
O O14 0.910324 0.663897 0.427613
O O15 0.718516 0.750000 0.890221
O O16 0.695892 0.644967 0.520555
O O17 0.604271 0.250000 0.038443
#
# Coordination Sequence:
#
# PCOD9462051 Si02
#       8
#     8   8   8   8   8   8   8   8
#     4  10  18  32  61  90 119 140 186 252 303 341
#     4   9  19  30  51  78 118 157 195 235 281 339
#     4   9  16  31  52  84 114 148 181 234 291 340
#     4  12  22  31  49  83 120 162 203 238 282 341
#     4  11  22  37  60  85 123 156 204 236 292 352
#     4  11  22  39  67  91 113 152 195 247 308 355
#     4   9  20  34  54  74 113 158 199 234 284 351
#     4  11  24  44  60  81 119 163 199 240 297 360
#
# _framework density 21.265968000000001
#
# number of rings (size 3 to 8) (size 9 to 14) (size 15 to 20)
#    0.750    1.000    1.250    4.875    1.750    4.000 
#    0.000    5.625    0.000    0.000    0.000    0.000 
#    0.000    0.000    0.000    0.000    0.000    0.000 
#
# Total GULP energy -356359.451503 kJ/mol
# GULP energy per Si atom -5568.116430 kJ/mol
# Density = 2.121757 g / cm^3
# Si number density = 21.265968 Si / 1000 Ang^3
#
#
#
# Elastic Constant Matrix: (Units=GPa)
#
#
# Indices 1 2 3 4 5 6 
#
# 1 125.0366 14.9477 24.2655 0.0000 0.0000 0.0000
# 2 14.9477 50.8538 -1.9404 0.0000 0.0000 0.0000
# 3 24.2655 -1.9404 54.7059 0.0000 0.0000 0.0000
# 4 0.0000 0.0000 0.0000 23.1115 0.0000 0.0000
# 5 0.0000 0.0000 0.0000 0.0000 15.8254 0.0000
# 6 0.0000 0.0000 0.0000 0.0000 0.0000 -10.5253
#
#
#
# Elastic Compliance Matrix: (Units=1/GPa)
#
#
# Indices 1 2 3 4 5 6 
#
# 1 0.009145 -0.002847 -0.004157 0.000000 0.000000 0.000000
# 2 -0.002847 0.020577 0.001992 0.000000 0.000000 0.000000
# 3 -0.004157 0.001992 0.020194 0.000000 0.000000 0.000000
# 4 0.000000 0.000000 0.000000 0.043268 0.000000 0.000000
# 5 0.000000 0.000000 0.000000 0.000000 0.063190 0.000000
# 6 0.000000 0.000000 0.000000 0.000000 0.000000 -0.095009
#
#
# Mechanical properties :
#
#
# Convention : Reuss Voigt Hill
#
# Bulk Modulus (GPa) = 25.06691 33.90468 29.48579
# Shear Modulus (GPa) = 59.04194 18.57055 38.80625
#
# Velocity S-wave (km/s) = 5.27483 2.95829 4.27641
# Velocity P-wave (km/s) = 6.99367 5.25799 6.18699
#
# Compressibility (1/GPa) = 0.03989323
#
# Stress axis : x y z
#
# Youngs Moduli (GPa) = 109.35252 48.59811 49.51911
#
# Poissons Ratio (x) = 0.13834 0.20586
# Poissons Ratio (y) = 0.31128 -0.09867
# Poissons Ratio (z) = 0.45460 -0.09683
#
# Static dielectric constant tensor:
#      x y z
#    x 1.775430 0.000000 0.000000 
#    y 0.000000 1.746460 0.000000 
#    z 0.000000 0.000000 1.794600 
# 
# From -- ./inp_files/22558.got.cif
#   From: 2010.05.17/outbox.cif.g08.bks.cpg/sg62_12_cif.got.tgz:22558.got - 2010.06.03 15:25:27.
