data_PCOD9462543
_publ_section_title
;
Structure prediction by ZEFSAII (Michael W. Deem and Ramdas Pophale) SiO2 
 PCOD9462543
Probable space group: P N M A
;
_chemical_formula_sum "Si O2"
_cell_formula_units_Z 64
_cell_length_a 18.822401
_cell_length_b 8.654311
_cell_length_c 22.189495
_cell_angle_alpha 90.000000
_cell_angle_beta 90.000000
_cell_angle_gamma 90.000000
_cell_volume 3614.555836
_symmetry_space_group_name_H-M "P N M A"
_symmetry_group_IT_number 62
_symmetry_cell_setting 'orthorhombic'
loop_
_space_group_symop_operation_xyz
x,y,z
1/2-x,-y,1/2+z
1/2+x,1/2-y,1/2-z
-x,1/2+y,-z
-x,-y,-z
1/2+x,y,1/2-z
1/2-x,1/2+y,1/2+z
x,1/2-y,z
loop_
_atom_site_type_symbol
_atom_site_label
_atom_site_fract_x
_atom_site_fract_y
_atom_site_fract_z
Si Si1 0.516301 0.934303 0.065920
Si Si2 0.315286 0.934353 0.411335
Si Si3 0.472698 0.064854 0.185939
Si Si4 0.431488 0.435122 0.646936
Si Si5 0.376821 0.432474 0.771766
Si Si6 0.584493 0.934202 0.688708
Si Si7 0.834035 0.931460 0.610281
Si Si8 0.076775 0.435094 0.017986
O O1 0.509752 0.750000 0.066923
O O2 0.596837 0.982382 0.083948
O O3 0.464989 0.007421 0.117506
O O4 0.500000 0.000000 0.000000
O O5 0.154919 0.250000 0.396919
O O6 0.354311 0.986276 0.349986
O O7 0.239199 0.013337 0.418237
O O8 0.367182 0.977448 0.466357
O O9 0.485641 0.250000 0.185708
O O10 0.416303 0.033316 0.239223
O O11 0.543020 0.975453 0.208284
O O12 0.440986 0.250000 0.645498
O O13 0.377225 0.472093 0.701273
O O14 0.508274 0.509123 0.662566
O O15 0.405584 0.496581 0.583146
O O16 0.364526 0.250000 0.779469
O O17 0.329531 0.525880 0.818657
O O18 0.588907 0.750000 0.680748
O O19 0.693465 0.250000 0.589213
O O20 0.073055 0.250000 0.021246
O O21 0.000000 0.500000 0.000000
#
# Coordination Sequence:
#
# PCOD9462543 Si02
#       8
#     8   8   8   8   8   8   8   8
#     4  11  21  36  60  87 114 145 183 229 280 335
#     4  11  23  37  54  77 109 150 189 231 282 336
#     4   9  17  30  50  80 110 135 171 219 268 318
#     4  10  19  31  51  78 108 141 180 226 271 317
#     4   9  17  31  52  77 104 135 172 217 266 319
#     4  10  19  31  51  78 108 142 180 225 272 318
#     4  11  22  37  58  83 110 142 183 231 282 338
#     4  11  22  34  52  78 111 149 192 235 277 328
#
# _framework density 17.706187
#
# number of rings (size 3 to 8) (size 9 to 14) (size 15 to 20)
#    0.000    1.750    1.250    6.000    0.000    4.500 
#    0.000    0.000    2.750    0.000    0.000    0.000 
#    0.000    0.000    0.000    0.000    0.000    0.000 
#
# Total GULP energy -357046.306084 kJ/mol
# GULP energy per Si atom -5578.848533 kJ/mol
# Density = 1.766589 g / cm^3
# Si number density = 17.706187 Si / 1000 Ang^3
#
#
#
# Elastic Constant Matrix: (Units=GPa)
#
#
# Indices 1 2 3 4 5 6 
#
# 1 46.7851 13.2063 26.7569 0.0000 0.0000 0.0000
# 2 13.2063 54.0432 28.7582 0.0000 0.0000 0.0000
# 3 26.7569 28.7582 139.3976 0.0000 0.0000 0.0000
# 4 0.0000 0.0000 0.0000 32.4957 0.0000 0.0000
# 5 0.0000 0.0000 0.0000 0.0000 21.0824 0.0000
# 6 0.0000 0.0000 0.0000 0.0000 0.0000 23.4441
#
#
#
# Elastic Compliance Matrix: (Units=1/GPa)
#
#
# Indices 1 2 3 4 5 6 
#
# 1 0.024739 -0.003952 -0.003933 0.000000 0.000000 0.000000
# 2 -0.003952 0.021417 -0.003660 0.000000 0.000000 0.000000
# 3 -0.003933 -0.003660 0.008684 0.000000 0.000000 0.000000
# 4 0.000000 0.000000 0.000000 0.030773 0.000000 0.000000
# 5 0.000000 0.000000 0.000000 0.000000 0.047433 0.000000
# 6 0.000000 0.000000 0.000000 0.000000 0.000000 0.042655
#
#
# Mechanical properties :
#
#
# Convention : Reuss Voigt Hill
#
# Bulk Modulus (GPa) = 31.49674 41.96319 36.72997
# Shear Modulus (GPa) = 23.88057 26.83806 25.35931
#
# Velocity S-wave (km/s) = 3.67647 3.89748 3.78859
# Velocity P-wave (km/s) = 5.98741 6.63363 6.31878
#
# Compressibility (1/GPa) = 0.03174931
#
# Stress axis : x y z
#
# Youngs Moduli (GPa) = 40.42121 46.69177 115.15804
#
# Poissons Ratio (x) = 0.18455 0.45294
# Poissons Ratio (y) = 0.15976 0.42145
# Poissons Ratio (z) = 0.15899 0.17088
#
# Static dielectric constant tensor:
#      x y z
#    x 1.586970 0.000000 0.000000 
#    y 0.000000 1.590530 0.000000 
#    z 0.000000 0.000000 1.685160 
# 
# From -- ./inp_files/27680.got.cif
#   From: 2010.05.17/outbox.cif.g08.bks.cpg/sg62_14_cif.got.tgz:27680.got - 2010.06.03 15:25:27.
