data_PCOD9462205
_publ_section_title
;
Structure prediction by ZEFSAII (Michael W. Deem and Ramdas Pophale) SiO2 
 PCOD9462205
Probable space group: P N M A
;
_chemical_formula_sum "Si O2"
_cell_formula_units_Z 56
_cell_length_a 9.332878
_cell_length_b 17.241140
_cell_length_c 20.385217
_cell_angle_alpha 90.000000
_cell_angle_beta 90.000000
_cell_angle_gamma 90.000000
_cell_volume 3280.174182
_symmetry_space_group_name_H-M "P N M A"
_symmetry_group_IT_number 62
_symmetry_cell_setting 'orthorhombic'
loop_
_space_group_symop_operation_xyz
x,y,z
1/2-x,-y,1/2+z
1/2+x,1/2-y,1/2-z
-x,1/2+y,-z
-x,-y,-z
1/2+x,y,1/2-z
1/2-x,1/2+y,1/2+z
x,1/2-y,z
loop_
_atom_site_type_symbol
_atom_site_label
_atom_site_fract_x
_atom_site_fract_y
_atom_site_fract_z
Si Si1 0.325201 0.441813 0.469199
Si Si2 0.093384 0.501053 0.105265
Si Si3 0.442191 0.657901 0.935371
Si Si4 0.550258 0.430583 0.734366
Si Si5 0.908862 0.035918 0.358251
Si Si6 0.176152 0.660807 0.312221
Si Si7 0.896332 0.080093 0.557167
O O1 0.369868 0.440268 0.545445
O O2 0.466992 0.448013 0.424776
O O3 0.217919 0.373936 0.448307
O O4 0.233712 0.521772 0.459890
O O5 0.241489 0.459314 0.124381
O O6 0.034197 0.542849 0.169851
O O7 0.448155 0.750000 0.932976
O O8 0.507462 0.615447 0.871559
O O9 0.537657 0.623084 0.994913
O O10 0.568843 0.500440 0.786195
O O11 0.464945 0.363284 0.772301
O O12 0.702249 0.397184 0.713019
O O13 0.982976 0.974067 0.408390
O O14 0.213592 0.750000 0.302244
O O15 0.151476 0.641472 0.388368
#
# Coordination Sequence:
#
# PCOD9462205 Si02
#       7
#     8   8   8   8   8   8   8
#     4  10  20  35  61  85 110 145 195 237 278 336
#     4  11  19  36  61  84 108 144 197 239 271 324
#     4  11  21  37  59  87 117 148 186 243 294 334
#     4  11  22  36  57  82 111 159 193 230 277 336
#     4  10  20  36  59  81 111 151 204 226 272 348
#     4  11  22  35  52  84 120 151 187 230 281 338
#     4  10  18  36  56  83 111 154 189 225 275 350
#
# _framework density 17.072263
#
# number of rings (size 3 to 8) (size 9 to 14) (size 15 to 20)
#    0.000    1.429    5.714    1.714    0.000    0.000 
#    0.000    3.571    0.000    3.429    0.000    0.000 
#    0.000    0.000    0.000    0.000    0.000    0.000 
#
# Total GULP energy -312512.129816 kJ/mol
# GULP energy per Si atom -5580.573747 kJ/mol
# Density = 1.703341 g / cm^3
# Si number density = 17.072263 Si / 1000 Ang^3
#
#
#
# Elastic Constant Matrix: (Units=GPa)
#
#
# Indices 1 2 3 4 5 6 
#
# 1 92.4036 27.1415 27.3134 0.0000 0.0000 0.0000
# 2 27.1415 99.1738 35.0597 0.0000 0.0000 0.0000
# 3 27.3134 35.0597 99.9434 0.0000 0.0000 0.0000
# 4 0.0000 0.0000 0.0000 12.3477 0.0000 0.0000
# 5 0.0000 0.0000 0.0000 0.0000 24.1808 0.0000
# 6 0.0000 0.0000 0.0000 0.0000 0.0000 18.5561
#
#
#
# Elastic Compliance Matrix: (Units=1/GPa)
#
#
# Indices 1 2 3 4 5 6 
#
# 1 0.012287 -0.002483 -0.002487 0.000000 0.000000 0.000000
# 2 -0.002483 0.012013 -0.003535 0.000000 0.000000 0.000000
# 3 -0.002487 -0.003535 0.011925 0.000000 0.000000 0.000000
# 4 0.000000 0.000000 0.000000 0.080987 0.000000 0.000000
# 5 0.000000 0.000000 0.000000 0.000000 0.041355 0.000000
# 6 0.000000 0.000000 0.000000 0.000000 0.000000 0.053891
#
#
# Mechanical properties :
#
#
# Convention : Reuss Voigt Hill
#
# Bulk Modulus (GPa) = 52.04549 52.28331 52.16440
# Shear Modulus (GPa) = 21.19789 24.48400 22.84094
#
# Velocity S-wave (km/s) = 3.52754 3.79111 3.66170
# Velocity P-wave (km/s) = 6.86607 7.06078 6.96410
#
# Compressibility (1/GPa) = 0.01921396
#
# Stress axis : x y z
#
# Youngs Moduli (GPa) = 81.38970 83.24469 83.85470
#
# Poissons Ratio (x) = 0.20674 0.20851
# Poissons Ratio (y) = 0.20213 0.29645
# Poissons Ratio (z) = 0.20238 0.29430
#
# Static dielectric constant tensor:
#      x y z
#    x 1.596850 0.000000 0.000000 
#    y 0.000000 1.540600 0.000000 
#    z 0.000000 0.000000 1.591810 
# 
# From -- ./inp_files/26129.got.cif
#   From: 2010.05.17/outbox.cif.g08.bks.cpg/sg62_14_cif.got.tgz:26129.got - 2010.06.03 15:25:27.
