data_PCOD9462843
_publ_section_title
;
Structure prediction by ZEFSAII (Michael W. Deem and Ramdas Pophale) SiO2 
 PCOD9462843
Probable space group: P N M A
;
_chemical_formula_sum "Si O2"
_cell_formula_units_Z 64
_cell_length_a 20.754294
_cell_length_b 7.611064
_cell_length_c 19.257139
_cell_angle_alpha 90.000000
_cell_angle_beta 90.000000
_cell_angle_gamma 90.000000
_cell_volume 3041.901196
_symmetry_space_group_name_H-M "P N M A"
_symmetry_group_IT_number 62
_symmetry_cell_setting 'orthorhombic'
loop_
_space_group_symop_operation_xyz
x,y,z
1/2-x,-y,1/2+z
1/2+x,1/2-y,1/2-z
-x,1/2+y,-z
-x,-y,-z
1/2+x,y,1/2-z
1/2-x,1/2+y,1/2+z
x,1/2-y,z
loop_
_atom_site_type_symbol
_atom_site_label
_atom_site_fract_x
_atom_site_fract_y
_atom_site_fract_z
Si Si1 0.565192 0.038756 0.041061
Si Si2 0.320581 0.537045 0.056991
Si Si3 0.174537 0.964941 0.048786
Si Si4 0.837912 0.452939 0.794847
Si Si5 0.064500 0.533878 0.794195
Si Si6 0.691085 0.544288 0.783982
Si Si7 0.939277 0.039361 0.048285
Si Si8 0.950256 0.953339 0.695825
O O1 0.573398 0.250000 0.045095
O O2 0.559946 0.968446 0.119474
O O3 0.625509 0.972496 0.996054
O O4 0.500000 0.000000 0.000000
O O5 0.321572 0.750000 0.058024
O O6 0.248280 0.481907 0.036576
O O7 0.331294 0.478546 0.136239
O O8 0.173753 0.750000 0.050203
O O9 0.155198 0.023823 0.126529
O O10 0.124526 0.025866 0.991150
O O11 0.857423 0.250000 0.795975
O O12 0.762030 0.462771 0.777367
O O13 0.884586 0.541520 0.739802
O O14 0.063599 0.750000 0.793950
O O15 0.134220 0.478213 0.765454
O O16 0.053472 0.474607 0.873105
O O17 0.007953 0.472079 0.742780
O O18 0.699734 0.750000 0.769900
O O19 0.933392 0.250000 0.052770
O O20 0.000000 0.000000 0.000000
O O21 0.968262 0.750000 0.684240
#
# Coordination Sequence:
#
# PCOD9462843 Si02
#       8
#     8   8   8   8   8   8   8   8
#     4  10  21  35  54  77 105 139 176 219 268 320
#     4   9  18  34  53  75 101 134 173 215 260 311
#     4   8  16  31  51  71  96 129 167 205 248 300
#     4  10  20  35  53  77 107 139 174 216 260 310
#     4   9  19  33  52  77 105 134 170 213 258 306
#     4  10  19  34  56  80 105 138 173 212 261 314
#     4  10  19  33  52  74  99 131 167 207 250 299
#     4  10  20  35  53  77 106 138 176 219 263 314
#
# _framework density 21.039473999999998
#
# number of rings (size 3 to 8) (size 9 to 14) (size 15 to 20)
#    0.000    2.500    0.000    3.000    0.000    3.000 
#    0.000    8.750    0.000    0.000    0.000    0.000 
#    0.000    0.000    0.000    0.000    0.000    0.000 
#
# Total GULP energy -357383.371206 kJ/mol
# GULP energy per Si atom -5584.115175 kJ/mol
# Density = 2.099159 g / cm^3
# Si number density = 21.039474 Si / 1000 Ang^3
#
#
#
# Elastic Constant Matrix: (Units=GPa)
#
#
# Indices 1 2 3 4 5 6 
#
# 1 84.3891 -13.0166 62.2183 0.0000 0.0000 0.0000
# 2 -13.0166 41.8903 -9.9140 0.0000 0.0000 0.0000
# 3 62.2183 -9.9140 108.6029 0.0000 0.0000 0.0000
# 4 0.0000 0.0000 0.0000 2.9616 0.0000 0.0000
# 5 0.0000 0.0000 0.0000 0.0000 42.5772 0.0000
# 6 0.0000 0.0000 0.0000 0.0000 0.0000 18.0028
#
#
#
# Elastic Compliance Matrix: (Units=1/GPa)
#
#
# Indices 1 2 3 4 5 6 
#
# 1 0.021083 0.003774 -0.011734 0.000000 0.000000 0.000000
# 2 0.003774 0.025075 0.000127 0.000000 0.000000 0.000000
# 3 -0.011734 0.000127 0.015942 0.000000 0.000000 0.000000
# 4 0.000000 0.000000 0.000000 0.337659 0.000000 0.000000
# 5 0.000000 0.000000 0.000000 0.000000 0.023487 0.000000
# 6 0.000000 0.000000 0.000000 0.000000 0.000000 0.055547
#
#
# Mechanical properties :
#
#
# Convention : Reuss Voigt Hill
#
# Bulk Modulus (GPa) = 21.53615 34.82862 28.18239
# Shear Modulus (GPa) = 9.80516 25.74796 17.77656
#
# Velocity S-wave (km/s) = 2.16113 3.50207 2.90989
# Velocity P-wave (km/s) = 4.06025 5.73956 4.97132
#
# Compressibility (1/GPa) = 0.04643356
#
# Stress axis : x y z
#
# Youngs Moduli (GPa) = 47.43105 39.88096 62.72821
#
# Poissons Ratio (x) = -0.15052 0.73605
# Poissons Ratio (y) = -0.17901 -0.00795
# Poissons Ratio (z) = 0.55656 -0.00506
#
# Static dielectric constant tensor:
#      x y z
#    x 1.719340 0.000000 0.000000 
#    y 0.000000 1.744340 0.000000 
#    z 0.000000 0.000000 1.737080 
# 
# From -- ./inp_files/24772.got.cif
#   From: 2010.05.17/outbox.cif.g08.bks.cpg/sg62_13_cif.got.tgz:24772.got - 2010.06.03 15:25:27.
