data_PCOD9462560
_publ_section_title
;
Structure prediction by ZEFSAII (Michael W. Deem and Ramdas Pophale) SiO2 
 PCOD9462560
Probable space group: P N M A
;
_chemical_formula_sum "Si O2"
_cell_formula_units_Z 64
_cell_length_a 22.389626
_cell_length_b 8.688030
_cell_length_c 17.608528
_cell_angle_alpha 90.000000
_cell_angle_beta 90.000000
_cell_angle_gamma 90.000000
_cell_volume 3425.241547
_symmetry_space_group_name_H-M "P N M A"
_symmetry_group_IT_number 62
_symmetry_cell_setting 'orthorhombic'
loop_
_space_group_symop_operation_xyz
x,y,z
1/2-x,-y,1/2+z
1/2+x,1/2-y,1/2-z
-x,1/2+y,-z
-x,-y,-z
1/2+x,y,1/2-z
1/2-x,1/2+y,1/2+z
x,1/2-y,z
loop_
_atom_site_type_symbol
_atom_site_label
_atom_site_fract_x
_atom_site_fract_y
_atom_site_fract_z
Si Si1 0.279091 0.936651 0.661210
Si Si2 0.380980 0.565555 0.779238
Si Si3 0.967527 0.434649 0.844945
Si Si4 0.077410 0.565936 0.431262
Si Si5 0.627398 0.436487 0.461930
Si Si6 0.938866 0.566159 0.408205
Si Si7 0.106253 0.435611 0.865763
Si Si8 0.350054 0.434350 0.212355
O O1 0.277346 0.750000 0.659987
O O2 0.322564 0.980309 0.730859
O O3 0.313347 0.984456 0.584501
O O4 0.212019 0.990470 0.674980
O O5 0.383840 0.750000 0.781920
O O6 0.436961 0.503401 0.730331
O O7 0.382658 0.497658 0.863264
O O8 0.963741 0.250000 0.841640
O O9 0.928569 0.495783 0.915604
O O10 0.036646 0.478085 0.853919
O O11 0.081023 0.750000 0.434926
O O12 0.089882 0.496654 0.513947
O O13 0.008762 0.521640 0.411116
O O14 0.623059 0.250000 0.458182
O O15 0.626036 0.481889 0.549693
O O16 0.935885 0.750000 0.406547
O O17 0.904984 0.498898 0.336222
O O18 0.110342 0.250000 0.860373
O O19 0.144035 0.509686 0.798527
O O20 0.351304 0.250000 0.210005
#
# Coordination Sequence:
#
# PCOD9462560 Si02
#       8
#     8   8   8   8   8   8   8   8
#     4   8  18  37  56  74 103 141 181 224 266 312
#     4  10  19  34  56  79 108 146 182 219 268 321
#     4  10  19  31  51  82 116 141 171 219 269 320
#     4  10  20  35  56  84 112 138 178 225 271 324
#     4   9  18  36  58  77 104 143 181 218 269 325
#     4  10  21  37  56  79 111 145 176 220 275 329
#     4  10  21  35  53  80 111 141 175 219 270 329
#     4  11  22  37  56  77 107 144 184 229 270 315
#
# _framework density 18.684812999999998
#
# number of rings (size 3 to 8) (size 9 to 14) (size 15 to 20)
#    0.000    2.250    0.000    3.750    0.000    6.000 
#    2.250    6.250    0.000    0.000    0.000    0.000 
#    0.000    0.000    0.000    0.000    0.000    0.000 
#
# Total GULP energy -357325.291277 kJ/mol
# GULP energy per Si atom -5583.207676 kJ/mol
# Density = 1.864229 g / cm^3
# Si number density = 18.684813 Si / 1000 Ang^3
#
#
#
# Elastic Constant Matrix: (Units=GPa)
#
#
# Indices 1 2 3 4 5 6 
#
# 1 47.5596 9.1411 4.3488 0.0000 0.0000 0.0000
# 2 9.1411 22.9688 13.1553 0.0000 0.0000 0.0000
# 3 4.3488 13.1553 84.3950 0.0000 0.0000 0.0000
# 4 0.0000 0.0000 0.0000 34.2423 0.0000 0.0000
# 5 0.0000 0.0000 0.0000 0.0000 9.1583 0.0000
# 6 0.0000 0.0000 0.0000 0.0000 0.0000 17.1123
#
#
#
# Elastic Compliance Matrix: (Units=1/GPa)
#
#
# Indices 1 2 3 4 5 6 
#
# 1 0.022773 -0.009214 0.000263 0.000000 0.000000 0.000000
# 2 -0.009214 0.051533 -0.007558 0.000000 0.000000 0.000000
# 3 0.000263 -0.007558 0.013014 0.000000 0.000000 0.000000
# 4 0.000000 0.000000 0.000000 0.029204 0.000000 0.000000
# 5 0.000000 0.000000 0.000000 0.000000 0.109191 0.000000
# 6 0.000000 0.000000 0.000000 0.000000 0.000000 0.058437
#
#
# Mechanical properties :
#
#
# Convention : Reuss Voigt Hill
#
# Bulk Modulus (GPa) = 18.41562 23.13485 20.77524
# Shear Modulus (GPa) = 14.91332 20.65446 17.78389
#
# Velocity S-wave (km/s) = 2.82822 3.32838 3.08845
# Velocity P-wave (km/s) = 4.53238 5.21338 4.88476
#
# Compressibility (1/GPa) = 0.05430173
#
# Stress axis : x y z
#
# Youngs Moduli (GPa) = 43.91141 19.40502 76.84246
#
# Poissons Ratio (x) = 0.17879 -0.02019
# Poissons Ratio (y) = 0.40459 0.58078
# Poissons Ratio (z) = -0.01154 0.14666
#
# Static dielectric constant tensor:
#      x y z
#    x 1.640470 0.000000 0.000000 
#    y 0.000000 1.628550 0.000000 
#    z 0.000000 0.000000 1.635270 
# 
# From -- ./inp_files/24690.got.cif
#   From: 2010.05.17/outbox.cif.g08.bks.cpg/sg62_13_cif.got.tgz:24690.got - 2010.06.03 15:25:27.
