data_PCOD9462345
_publ_section_title
;
Structure prediction by ZEFSAII (Michael W. Deem and Ramdas Pophale) SiO2 
 PCOD9462345
Probable space group: P N M A
;
_chemical_formula_sum "Si O2"
_cell_formula_units_Z 64
_cell_length_a 14.587256
_cell_length_b 22.795549
_cell_length_c 6.912631
_cell_angle_alpha 90.000000
_cell_angle_beta 90.000000
_cell_angle_gamma 90.000000
_cell_volume 2298.619229
_symmetry_space_group_name_H-M "P N M A"
_symmetry_group_IT_number 62
_symmetry_cell_setting 'orthorhombic'
loop_
_space_group_symop_operation_xyz
x,y,z
1/2-x,-y,1/2+z
1/2+x,1/2-y,1/2-z
-x,1/2+y,-z
-x,-y,-z
1/2+x,y,1/2-z
1/2-x,1/2+y,1/2+z
x,1/2-y,z
loop_
_atom_site_type_symbol
_atom_site_label
_atom_site_fract_x
_atom_site_fract_y
_atom_site_fract_z
Si Si1 0.310189 0.564752 0.682471
Si Si2 0.512233 0.313570 0.251258
Si Si3 0.546639 0.062428 0.809860
Si Si4 0.274206 0.813480 0.696523
Si Si5 0.754759 0.566762 0.263840
Si Si6 0.214832 0.812721 0.266288
Si Si7 0.022432 0.935672 0.722760
Si Si8 0.933574 0.813244 0.296077
O O1 0.261792 0.621341 0.781039
O O2 0.281200 0.498726 0.724651
O O3 0.288255 0.574596 0.456740
O O4 0.416821 0.566801 0.720903
O O5 0.469982 0.250000 0.289480
O O6 0.614711 0.314027 0.346765
O O7 0.448881 0.370406 0.284476
O O8 0.536694 0.316151 0.021219
O O9 0.651196 0.068367 0.886993
O O10 0.531553 0.125213 0.708569
O O11 0.553320 0.999475 0.704365
O O12 0.474848 0.059112 0.987563
O O13 0.260543 0.750000 0.796994
O O14 0.215761 0.811359 0.499955
O O15 0.687614 0.621848 0.299332
O O16 0.174425 0.750000 0.203290
O O17 0.323378 0.812111 0.213376
O O18 0.965311 0.750000 0.220239
#
# Coordination Sequence:
#
# PCOD9462345 Si02
#       8
#     8   8   8   8   8   8   8   8
#     4  10  19  30  46  67  91 118 147 181 220 263
#     4   8  13  22  38  60  83 106 136 175 215 253
#     4   9  17  29  45  65  89 116 145 178 217 260
#     4   8  14  25  41  61  83 107 139 179 219 256
#     4  10  19  30  46  67  91 118 147 181 220 263
#     4   8  14  25  41  61  83 107 139 179 219 256
#     4   9  17  29  45  65  89 116 145 178 217 260
#     4   8  13  22  38  60  83 106 136 175 215 253
#
# _framework density 27.842801000000001
#
# number of rings (size 3 to 8) (size 9 to 14) (size 15 to 20)
#    0.000    3.250    0.000    0.750    0.000    1.500 
#    0.000    0.000    0.000    1.500    0.000    7.000 
#    0.000    0.000    0.000    0.000    0.000    0.000 
#
# Total GULP energy -357046.757777 kJ/mol
# GULP energy per Si atom -5578.855590 kJ/mol
# Density = 2.777943 g / cm^3
# Si number density = 27.842801 Si / 1000 Ang^3
#
#
#
# Elastic Constant Matrix: (Units=GPa)
#
#
# Indices 1 2 3 4 5 6 
#
# 1 79.0857 13.0684 1.2065 0.0000 0.0000 0.0000
# 2 13.0684 339.1259 13.2188 0.0000 0.0000 0.0000
# 3 1.2065 13.2188 88.9373 0.0000 0.0000 0.0000
# 4 0.0000 0.0000 0.0000 14.9856 0.0000 0.0000
# 5 0.0000 0.0000 0.0000 0.0000 14.9423 0.0000
# 6 0.0000 0.0000 0.0000 0.0000 0.0000 16.3305
#
#
#
# Elastic Compliance Matrix: (Units=1/GPa)
#
#
# Indices 1 2 3 4 5 6 
#
# 1 0.012726 -0.000487 -0.000100 0.000000 0.000000 0.000000
# 2 -0.000487 0.002985 -0.000437 0.000000 0.000000 0.000000
# 3 -0.000100 -0.000437 0.011310 0.000000 0.000000 0.000000
# 4 0.000000 0.000000 0.000000 0.066731 0.000000 0.000000
# 5 0.000000 0.000000 0.000000 0.000000 0.066924 0.000000
# 6 0.000000 0.000000 0.000000 0.000000 0.000000 0.061235
#
#
# Mechanical properties :
#
#
# Convention : Reuss Voigt Hill
#
# Bulk Modulus (GPa) = 40.04244 62.45959 51.25102
# Shear Modulus (GPa) = 21.52542 41.22869 31.37705
#
# Velocity S-wave (km/s) = 2.78349 3.85225 3.36063
# Velocity P-wave (km/s) = 4.97426 6.50139 5.78841
#
# Compressibility (1/GPa) = 0.02497350
#
# Stress axis : x y z
#
# Youngs Moduli (GPa) = 78.57658 335.06016 88.41587
#
# Poissons Ratio (x) = 0.16301 0.00887
# Poissons Ratio (y) = 0.03823 0.03864
# Poissons Ratio (z) = 0.00788 0.14642
#
# Static dielectric constant tensor:
#      x y z
#    x 2.142390 0.000000 0.000000 
#    y 0.000000 2.305550 0.000000 
#    z 0.000000 0.000000 2.189730 
# 
# From -- ./inp_files/8986.got.cif
#   From: 2010.05.17/outbox.cif.g08.bks.cpg/sg62_5_cif.got.tgz:8986.got - 2010.06.03 15:25:27.
