data_PCOD9462806
_publ_section_title
;
Structure prediction by ZEFSAII (Michael W. Deem and Ramdas Pophale) SiO2 
 PCOD9462806
Probable space group: P N M A
;
_chemical_formula_sum "Si O2"
_cell_formula_units_Z 64
_cell_length_a 33.889264
_cell_length_b 8.680961
_cell_length_c 11.720663
_cell_angle_alpha 90.000000
_cell_angle_beta 90.000000
_cell_angle_gamma 90.000000
_cell_volume 3448.118012
_symmetry_space_group_name_H-M "P N M A"
_symmetry_group_IT_number 62
_symmetry_cell_setting 'orthorhombic'
loop_
_space_group_symop_operation_xyz
x,y,z
1/2-x,-y,1/2+z
1/2+x,1/2-y,1/2-z
-x,1/2+y,-z
-x,-y,-z
1/2+x,y,1/2-z
1/2-x,1/2+y,1/2+z
x,1/2-y,z
loop_
_atom_site_type_symbol
_atom_site_label
_atom_site_fract_x
_atom_site_fract_y
_atom_site_fract_z
Si Si1 0.476816 0.565789 0.668615
Si Si2 0.634390 0.065884 0.704610
Si Si3 0.555932 0.435726 0.577316
Si Si4 0.200367 0.934389 0.948161
Si Si5 0.166776 0.562758 0.189533
Si Si6 0.366081 0.064449 0.046008
Si Si7 0.786649 0.064495 0.586884
Si Si8 0.911491 0.435891 0.680408
O O1 0.478459 0.750000 0.670181
O O2 0.520655 0.499457 0.655481
O O3 0.453928 0.515588 0.552273
O O4 0.452103 0.505101 0.775334
O O5 0.636494 0.250000 0.700098
O O6 0.598276 0.013085 0.623662
O O7 0.674900 0.996936 0.656846
O O8 0.626615 0.012263 0.833114
O O9 0.554801 0.250000 0.580269
O O10 0.199415 0.750000 0.947324
O O11 0.245247 0.990030 0.943298
O O12 0.179667 0.990928 0.065206
O O13 0.166008 0.750000 0.188173
O O14 0.198194 0.518564 0.287018
O O15 0.123787 0.513200 0.233888
O O16 0.367444 0.250000 0.057428
O O17 0.322453 0.024296 0.998462
O O18 0.396926 0.020960 0.946275
O O19 0.782673 0.250000 0.585487
O O20 0.913490 0.250000 0.684458
#
# Coordination Sequence:
#
# PCOD9462806 Si02
#       8
#     8   8   8   8   8   8   8   8
#     4  10  19  32  56  86 113 139 176 227 274 322
#     4  11  23  38  56  78 109 147 182 222 273 324
#     4   9  20  37  54  79 113 147 181 220 272 328
#     4  11  22  34  53  81 107 137 179 221 267 325
#     4   8  17  34  54  75 102 136 175 217 261 318
#     4   9  20  38  58  79 108 145 185 227 272 324
#     4   9  19  37  56  76 105 139 177 223 272 317
#     4   9  17  34  58  79 104 143 180 218 271 323
#
# _framework density 18.560849000000001
#
# number of rings (size 3 to 8) (size 9 to 14) (size 15 to 20)
#    0.000    2.500    0.000    3.375    1.750    2.500 
#    0.000    3.750    0.000    0.000    0.000    0.000 
#    0.000    0.000    0.000    0.000    0.000    0.000 
#
# Total GULP energy -357179.650222 kJ/mol
# GULP energy per Si atom -5580.932035 kJ/mol
# Density = 1.851860 g / cm^3
# Si number density = 18.560849 Si / 1000 Ang^3
#
#
#
# Elastic Constant Matrix: (Units=GPa)
#
#
# Indices 1 2 3 4 5 6 
#
# 1 54.5350 13.2858 3.3095 0.0000 0.0000 0.0000
# 2 13.2858 14.5037 7.2326 0.0000 0.0000 0.0000
# 3 3.3095 7.2326 40.0251 0.0000 0.0000 0.0000
# 4 0.0000 0.0000 0.0000 24.9054 0.0000 0.0000
# 5 0.0000 0.0000 0.0000 0.0000 15.5516 0.0000
# 6 0.0000 0.0000 0.0000 0.0000 0.0000 26.6344
#
#
#
# Elastic Compliance Matrix: (Units=1/GPa)
#
#
# Indices 1 2 3 4 5 6 
#
# 1 0.023774 -0.022857 0.002165 0.000000 0.000000 0.000000
# 2 -0.022857 0.097752 -0.015774 0.000000 0.000000 0.000000
# 3 0.002165 -0.015774 0.027656 0.000000 0.000000 0.000000
# 4 0.000000 0.000000 0.000000 0.040152 0.000000 0.000000
# 5 0.000000 0.000000 0.000000 0.000000 0.064302 0.000000
# 6 0.000000 0.000000 0.000000 0.000000 0.000000 0.037545
#
#
# Mechanical properties :
#
#
# Convention : Reuss Voigt Hill
#
# Bulk Modulus (GPa) = 13.11501 17.41328 15.26414
# Shear Modulus (GPa) = 12.83599 19.10067 15.96833
#
# Velocity S-wave (km/s) = 2.63261 3.21141 2.93631
# Velocity P-wave (km/s) = 4.04007 4.81176 4.44270
#
# Compressibility (1/GPa) = 0.07624853
#
# Stress axis : x y z
#
# Youngs Moduli (GPa) = 42.06293 10.23001 36.15886
#
# Poissons Ratio (x) = 0.23383 -0.07827
# Poissons Ratio (y) = 0.96143 0.57037
# Poissons Ratio (z) = -0.09105 0.16137
#
# Static dielectric constant tensor:
#      x y z
#    x 1.622940 0.000000 0.000000 
#    y 0.000000 1.626000 0.000000 
#    z 0.000000 0.000000 1.638130 
# 
# From -- ./inp_files/15800.got.cif
#   From: 2010.05.17/outbox.cif.g08.bks.cpg/sg62_8_cif.got.tgz:15800.got - 2010.06.03 15:25:27.
