data_PCOD9462847
_publ_section_title
;
Structure prediction by ZEFSAII (Michael W. Deem and Ramdas Pophale) SiO2 
 PCOD9462847
Probable space group: P N M A
;
_chemical_formula_sum "Si O2"
_cell_formula_units_Z 40
_cell_length_a 8.568998
_cell_length_b 7.319690
_cell_length_c 25.035545
_cell_angle_alpha 90.000000
_cell_angle_beta 90.000000
_cell_angle_gamma 90.000000
_cell_volume 1570.289692
_symmetry_space_group_name_H-M "P N M A"
_symmetry_group_IT_number 62
_symmetry_cell_setting 'orthorhombic'
loop_
_space_group_symop_operation_xyz
x,y,z
1/2-x,-y,1/2+z
1/2+x,1/2-y,1/2-z
-x,1/2+y,-z
-x,-y,-z
1/2+x,y,1/2-z
1/2-x,1/2+y,1/2+z
x,1/2-y,z
loop_
_atom_site_type_symbol
_atom_site_label
_atom_site_fract_x
_atom_site_fract_y
_atom_site_fract_z
Si Si1 0.161548 0.957055 0.371867
Si Si2 0.639943 0.026494 0.723622
Si Si3 0.146629 0.027278 0.570543
Si Si4 0.313988 0.028440 0.674529
Si Si5 0.834892 0.466177 0.028340
O O1 0.111887 0.750000 0.358841
O O2 0.223649 0.035717 0.316658
O O3 0.017495 0.036925 0.405145
O O4 0.305901 0.952574 0.413369
O O5 0.639260 0.250000 0.722369
O O6 0.476354 0.965985 0.699430
O O7 0.678512 0.973897 0.783979
O O8 0.143261 0.250000 0.567530
O O9 0.274978 0.972456 0.614630
O O10 0.201484 0.964388 0.512564
O O11 0.317555 0.250000 0.673911
O O12 0.818896 0.250000 0.034827
O O13 0.000000 0.500000 0.000000
#
# Coordination Sequence:
#
# PCOD9462847 Si02
#       5
#     8   8   8   8   8
#     4  10  19  33  52  76 103 133 167 208 254 304
#     4   9  16  25  43  70 102 134 166 205 252 299
#     4   9  18  31  49  73 103 133 168 212 256 299
#     4   9  15  25  41  68 102 133 164 205 252 296
#     4  11  22  36  53  75 102 135 171 212 257 306
#
# _framework density 25.473009000000001
#
# number of rings (size 3 to 8) (size 9 to 14) (size 15 to 20)
#    0.000    2.400    0.000    3.600    0.000    8.000 
#    0.000    1.000    0.000    0.000    0.000   14.000 
#    0.000    0.000    0.000    0.000    0.000    0.000 
#
# Total GULP energy -223801.053815 kJ/mol
# GULP energy per Si atom -5595.026345 kJ/mol
# Density = 2.541503 g / cm^3
# Si number density = 25.473009 Si / 1000 Ang^3
#
#
#
# Elastic Constant Matrix: (Units=GPa)
#
#
# Indices 1 2 3 4 5 6 
#
# 1 65.0661 -7.4910 -18.3424 0.0000 0.0000 0.0000
# 2 -7.4910 110.3589 -6.0891 0.0000 0.0000 0.0000
# 3 -18.3424 -6.0891 103.7732 0.0000 0.0000 0.0000
# 4 0.0000 0.0000 0.0000 -2.9292 0.0000 0.0000
# 5 0.0000 0.0000 0.0000 0.0000 45.9037 0.0000
# 6 0.0000 0.0000 0.0000 0.0000 0.0000 -5.8244
#
#
#
# Elastic Compliance Matrix: (Units=1/GPa)
#
#
# Indices 1 2 3 4 5 6 
#
# 1 0.016351 0.001273 0.002965 0.000000 0.000000 0.000000
# 2 0.001273 0.009190 0.000764 0.000000 0.000000 0.000000
# 3 0.002965 0.000764 0.010205 0.000000 0.000000 0.000000
# 4 0.000000 0.000000 0.000000 -0.341387 0.000000 0.000000
# 5 0.000000 0.000000 0.000000 0.000000 0.021785 0.000000
# 6 0.000000 0.000000 0.000000 0.000000 0.000000 -0.171693
#
#
# Mechanical properties :
#
#
# Convention : Reuss Voigt Hill
#
# Bulk Modulus (GPa) = 21.85688 23.92814 22.89251
# Shear Modulus (GPa) = -11.10362 28.17141 8.53390
#
# Velocity S-wave (km/s) = -2.09008 3.32916 1.83233
# Velocity P-wave (km/s) = 1.66567 4.91850 3.67193
#
# Compressibility (1/GPa) = 0.04575218
#
# Stress axis : x y z
#
# Youngs Moduli (GPa) = 61.15676 108.81444 97.98822
#
# Poissons Ratio (x) = -0.13857 -0.29053
# Poissons Ratio (y) = -0.07788 -0.07490
# Poissons Ratio (z) = -0.18132 -0.08317
#
# Static dielectric constant tensor:
#      x y z
#    x 2.023760 0.000000 0.000000 
#    y 0.000000 2.016220 0.000000 
#    z 0.000000 0.000000 1.917200 
# 
# From -- ./inp_files/25750.got.cif
#   From: 2010.05.17/outbox.cif.g08.bks.cpg/sg62_13_cif.got.tgz:25750.got - 2010.06.03 15:25:27.
