data_PCOD9462962
_publ_section_title
;
Structure prediction by ZEFSAII (Michael W. Deem and Ramdas Pophale) SiO2 
 PCOD9462962
Probable space group: P N M A
;
_chemical_formula_sum "Si O2"
_cell_formula_units_Z 48
_cell_length_a 28.443863
_cell_length_b 7.891023
_cell_length_c 10.130309
_cell_angle_alpha 90.000000
_cell_angle_beta 90.000000
_cell_angle_gamma 90.000000
_cell_volume 2273.759780
_symmetry_space_group_name_H-M "P N M A"
_symmetry_group_IT_number 62
_symmetry_cell_setting 'orthorhombic'
loop_
_space_group_symop_operation_xyz
x,y,z
1/2-x,-y,1/2+z
1/2+x,1/2-y,1/2-z
-x,1/2+y,-z
-x,-y,-z
1/2+x,y,1/2-z
1/2-x,1/2+y,1/2+z
x,1/2-y,z
loop_
_atom_site_type_symbol
_atom_site_label
_atom_site_fract_x
_atom_site_fract_y
_atom_site_fract_z
Si Si1 0.794285 0.045662 0.836118
Si Si2 0.893016 0.454901 0.201583
Si Si3 0.289000 0.951114 0.354145
Si Si4 0.551208 0.953263 0.452708
Si Si5 0.447139 0.045707 0.043026
Si Si6 0.392943 0.457184 0.790495
O O1 0.794972 0.250000 0.828998
O O2 0.752482 0.981562 0.740881
O O3 0.843748 0.986290 0.772767
O O4 0.788542 0.006551 0.991864
O O5 0.894595 0.250000 0.201830
O O6 0.838937 0.504926 0.211721
O O7 0.911820 0.516417 0.060671
O O8 0.928401 0.515859 0.315479
O O9 0.284045 0.750000 0.357336
O O10 0.554387 0.750000 0.450244
O O11 0.565864 0.013150 0.308887
O O12 0.500000 0.000000 0.500000
O O13 0.445926 0.250000 0.045947
O O14 0.408915 0.986950 0.934733
O O15 0.500000 0.000000 0.000000
O O16 0.391419 0.250000 0.793482
#
# Coordination Sequence:
#
# PCOD9462962 Si02
#       6
#     8   8   8   8   8   8
#     4  10  22  42  63  86 120 155 194 243 296 358
#     4  10  21  38  59  82 118 160 193 233 295 360
#     4  11  24  39  63  94 118 151 198 248 298 348
#     4  10  19  33  55  80 108 148 190 233 287 340
#     4  10  21  36  58  85 115 156 198 238 291 348
#     4   9  18  36  58  79 109 153 192 226 282 352
#
# _framework density 21.110410000000002
#
# number of rings (size 3 to 8) (size 9 to 14) (size 15 to 20)
#    0.000    2.000    1.667    1.500    2.333    2.667 
#    0.000    0.833    0.000    0.000    0.000    0.000 
#    0.000    0.000    0.000    0.000    0.000    0.000 
#
# Total GULP energy -267927.764071 kJ/mol
# GULP energy per Si atom -5581.828418 kJ/mol
# Density = 2.106236 g / cm^3
# Si number density = 21.110410 Si / 1000 Ang^3
#
#
#
# Elastic Constant Matrix: (Units=GPa)
#
#
# Indices 1 2 3 4 5 6 
#
# 1 88.1028 -3.7815 1.4154 0.0000 0.0000 0.0000
# 2 -3.7815 18.9656 8.5440 0.0000 0.0000 0.0000
# 3 1.4154 8.5440 79.1436 0.0000 0.0000 0.0000
# 4 0.0000 0.0000 0.0000 17.4199 0.0000 0.0000
# 5 0.0000 0.0000 0.0000 0.0000 41.9903 0.0000
# 6 0.0000 0.0000 0.0000 0.0000 0.0000 27.6367
#
#
#
# Elastic Compliance Matrix: (Units=1/GPa)
#
#
# Indices 1 2 3 4 5 6 
#
# 1 0.011465 0.002500 -0.000475 0.000000 0.000000 0.000000
# 2 0.002500 0.055967 -0.006087 0.000000 0.000000 0.000000
# 3 -0.000475 -0.006087 0.013301 0.000000 0.000000 0.000000
# 4 0.000000 0.000000 0.000000 0.057405 0.000000 0.000000
# 5 0.000000 0.000000 0.000000 0.000000 0.023815 0.000000
# 6 0.000000 0.000000 0.000000 0.000000 0.000000 0.036184
#
#
# Mechanical properties :
#
#
# Convention : Reuss Voigt Hill
#
# Bulk Modulus (GPa) = 13.77216 22.06310 17.91763
# Shear Modulus (GPa) = 21.69530 29.41165 25.55347
#
# Velocity S-wave (km/s) = 3.20926 3.73665 3.48295
# Velocity P-wave (km/s) = 4.50228 5.39358 4.96796
#
# Compressibility (1/GPa) = 0.07261024
#
# Stress axis : x y z
#
# Youngs Moduli (GPa) = 87.21960 17.86753 75.18312
#
# Poissons Ratio (x) = -0.04467 0.03571
# Poissons Ratio (y) = -0.21805 0.45762
# Poissons Ratio (z) = 0.04142 0.10875
#
# Static dielectric constant tensor:
#      x y z
#    x 1.768620 0.000000 0.000000 
#    y 0.000000 1.774420 0.000000 
#    z 0.000000 0.000000 2.362280 
# 
# From -- ./inp_files/10170.got.cif
#   From: 2010.05.17/outbox.cif.g08.bks.cpg/sg62_6_cif.got.tgz:10170.got - 2010.06.03 15:25:27.
