data_PCOD9462474
_publ_section_title
;
Structure prediction by ZEFSAII (Michael W. Deem and Ramdas Pophale) SiO2 
 PCOD9462474
Probable space group: P N M A
;
_chemical_formula_sum "Si O2"
_cell_formula_units_Z 40
_cell_length_a 5.395142
_cell_length_b 7.412396
_cell_length_c 45.592610
_cell_angle_alpha 90.000000
_cell_angle_beta 90.000000
_cell_angle_gamma 90.000000
_cell_volume 1823.290829
_symmetry_space_group_name_H-M "P N M A"
_symmetry_group_IT_number 62
_symmetry_cell_setting 'orthorhombic'
loop_
_space_group_symop_operation_xyz
x,y,z
1/2-x,-y,1/2+z
1/2+x,1/2-y,1/2-z
-x,1/2+y,-z
-x,-y,-z
1/2+x,y,1/2-z
1/2-x,1/2+y,1/2+z
x,1/2-y,z
loop_
_atom_site_type_symbol
_atom_site_label
_atom_site_fract_x
_atom_site_fract_y
_atom_site_fract_z
Si Si1 0.999713 0.529244 0.066208
Si Si2 0.000288 0.034553 0.534579
Si Si3 0.999331 0.029502 0.865813
Si Si4 0.500681 0.533292 0.166274
Si Si5 0.501822 0.964468 0.764633
O O1 0.999679 0.750000 0.065566
O O2 0.248223 0.467397 0.049769
O O3 0.751000 0.467385 0.049815
O O4 0.000039 0.475906 0.100202
O O5 0.000321 0.250000 0.538747
O O6 0.000000 0.000000 0.500000
O O7 0.999286 0.250000 0.865259
O O8 0.248182 0.968709 0.849339
O O9 0.749979 0.968707 0.849450
O O10 0.500758 0.750000 0.163469
O O11 0.499865 0.490587 0.200593
O O12 0.252389 0.038405 0.749861
O O13 0.502222 0.750000 0.758928
#
# Coordination Sequence:
#
# PCOD9462474 Si02
#       5
#     8   8   8   8   8
#     4   9  17  30  49  71  95 126 161 193 232 286
#     4  10  19  31  49  71  95 126 161 197 236 278
#     4   9  17  30  49  74  99 122 155 197 238 282
#     4  10  19  31  51  76  98 121 153 199 244 276
#     4  10  21  36  52  70  96 131 164 192 228 280
#
# _framework density 21.938355000000001
#
# number of rings (size 3 to 8) (size 9 to 14) (size 15 to 20)
#    0.000    2.400    0.000    3.000    0.000    5.600 
#    0.000    0.000    0.000    7.200    0.000    0.000 
#    0.000    0.000    0.000    0.000    0.000    0.000 
#
# Total GULP energy -223644.643256 kJ/mol
# GULP energy per Si atom -5591.116081 kJ/mol
# Density = 2.188842 g / cm^3
# Si number density = 21.938355 Si / 1000 Ang^3
#
#
#
# Elastic Constant Matrix: (Units=GPa)
#
#
# Indices 1 2 3 4 5 6 
#
# 1 291.5208 11.8292 163.1318 0.0000 0.0000 0.0000
# 2 11.8292 71.8771 -14.0921 0.0000 0.0000 0.0000
# 3 163.1318 -14.0921 220.8171 0.0000 0.0000 0.0000
# 4 0.0000 0.0000 0.0000 10.7463 0.0000 0.0000
# 5 0.0000 0.0000 0.0000 0.0000 53.2238 0.0000
# 6 0.0000 0.0000 0.0000 0.0000 0.0000 -16.9889
#
#
#
# Elastic Compliance Matrix: (Units=1/GPa)
#
#
# Indices 1 2 3 4 5 6 
#
# 1 0.006096 -0.001910 -0.004626 0.000000 0.000000 0.000000
# 2 -0.001910 0.014687 0.002348 0.000000 0.000000 0.000000
# 3 -0.004626 0.002348 0.008096 0.000000 0.000000 0.000000
# 4 0.000000 0.000000 0.000000 0.093055 0.000000 0.000000
# 5 0.000000 0.000000 0.000000 0.000000 0.018789 0.000000
# 6 0.000000 0.000000 0.000000 0.000000 0.000000 -0.058862
#
#
# Mechanical properties :
#
#
# Convention : Reuss Voigt Hill
#
# Bulk Modulus (GPa) = 48.76890 100.66142 74.71516
# Shear Modulus (GPa) = 51.50891 37.61932 44.56411
#
# Velocity S-wave (km/s) = 4.85076 4.14548 4.51192
# Velocity P-wave (km/s) = 7.32471 8.30040 7.82777
#
# Compressibility (1/GPa) = 0.02050487
#
# Stress axis : x y z
#
# Youngs Moduli (GPa) = 164.03637 68.08537 123.52224
#
# Poissons Ratio (x) = 0.13005 0.57136
# Poissons Ratio (y) = 0.31334 -0.29009
# Poissons Ratio (z) = 0.75876 -0.15990
#
# Static dielectric constant tensor:
#      x y z
#    x 1.798820 0.000000 0.000000 
#    y 0.000000 1.886270 0.000000 
#    z 0.000000 0.000000 1.715810 
# 
# From -- ./inp_files/31517.got.cif
#   From: 2010.05.17/outbox.cif.g08.bks.cpg/sg62_16_cif.got.tgz:31517.got - 2010.06.03 15:25:27.
