data_PCOD9462585
_publ_section_title
;
Structure prediction by ZEFSAII (Michael W. Deem and Ramdas Pophale) SiO2 
 PCOD9462585
Probable space group: P N M A
;
_chemical_formula_sum "Si O2"
_cell_formula_units_Z 48
_cell_length_a 32.817093
_cell_length_b 8.794558
_cell_length_c 8.885025
_cell_angle_alpha 90.000000
_cell_angle_beta 90.000000
_cell_angle_gamma 90.000000
_cell_volume 2564.323305
_symmetry_space_group_name_H-M "P N M A"
_symmetry_group_IT_number 62
_symmetry_cell_setting 'orthorhombic'
loop_
_space_group_symop_operation_xyz
x,y,z
1/2-x,-y,1/2+z
1/2+x,1/2-y,1/2-z
-x,1/2+y,-z
-x,-y,-z
1/2+x,y,1/2-z
1/2-x,1/2+y,1/2+z
x,1/2-y,z
loop_
_atom_site_type_symbol
_atom_site_label
_atom_site_fract_x
_atom_site_fract_y
_atom_site_fract_z
Si Si1 0.589341 0.582080 0.556525
Si Si2 0.932735 0.435833 0.704778
Si Si3 0.109799 0.250000 0.391604
Si Si4 0.984772 0.928326 0.156614
Si Si5 0.250774 0.250000 0.394647
Si Si6 0.318503 0.750000 0.648737
Si Si7 0.180351 0.498924 0.893202
Si Si8 0.320271 0.750000 0.137693
O O1 0.572245 0.750000 0.579263
O O2 0.583747 0.549551 0.377946
O O3 0.562108 0.476926 0.663802
O O4 0.636438 0.577556 0.597902
O O5 0.926236 0.250000 0.664508
O O6 0.913892 0.585035 0.619445
O O7 0.981524 0.464487 0.717540
O O8 0.141196 0.250000 0.250690
O O9 0.139171 0.250000 0.536567
O O10 0.986233 0.750000 0.139317
O O11 0.000000 0.000000 0.000000
O O12 0.221286 0.250000 0.251586
O O13 0.281071 0.392085 0.394426
O O14 0.219726 0.250000 0.533848
O O15 0.318074 0.605989 0.540179
O O16 0.180798 0.395133 0.745785
#
# Coordination Sequence:
#
# PCOD9462585 Si02
#       8
#     8   8   4   8   4   4   8   4
#     4  10  19  31  53  88 116 149 198 244 295 344
#     4   9  19  33  53  90 122 155 200 244 292 343
#     4  11  20  38  61  82 122 160 194 242 294 345
#     4   9  18  27  47  83 122 149 189 247 291 335
#     4  11  22  42  61  84 115 147 187 241 300 349
#     4  10  22  36  62  82 110 151 192 229 292 360
#     4  11  21  39  60  86 114 147 189 243 288 355
#     4  10  26  40  58  92 115 148 197 232 296 368
#
# _framework density 18.718388999999998
#
# number of rings (size 3 to 8) (size 9 to 14) (size 15 to 20)
#    0.000    2.000    2.500    2.500    8.167    0.000 
#    1.500    0.000    3.667    1.000    0.000    0.000 
#    0.000    0.000    0.000    0.000    0.000    0.000 
#
# Total GULP energy -267276.397468 kJ/mol
# GULP energy per Si atom -5568.258281 kJ/mol
# Density = 1.867578 g / cm^3
# Si number density = 18.718389 Si / 1000 Ang^3
#
#
#
# Elastic Constant Matrix: (Units=GPa)
#
#
# Indices 1 2 3 4 5 6 
#
# 1 79.2500 5.8742 0.5459 0.0000 0.0000 0.0000
# 2 5.8742 58.4796 4.2220 0.0000 0.0000 0.0000
# 3 0.5459 4.2220 43.5464 0.0000 0.0000 0.0000
# 4 0.0000 0.0000 0.0000 37.9557 0.0000 0.0000
# 5 0.0000 0.0000 0.0000 0.0000 14.4510 0.0000
# 6 0.0000 0.0000 0.0000 0.0000 0.0000 40.4743
#
#
#
# Elastic Compliance Matrix: (Units=1/GPa)
#
#
# Indices 1 2 3 4 5 6 
#
# 1 0.012713 -0.001274 -0.000036 0.000000 0.000000 0.000000
# 2 -0.001274 0.017348 -0.001666 0.000000 0.000000 0.000000
# 3 -0.000036 -0.001666 0.023126 0.000000 0.000000 0.000000
# 4 0.000000 0.000000 0.000000 0.026346 0.000000 0.000000
# 5 0.000000 0.000000 0.000000 0.000000 0.069200 0.000000
# 6 0.000000 0.000000 0.000000 0.000000 0.000000 0.024707
#
#
# Mechanical properties :
#
#
# Convention : Reuss Voigt Hill
#
# Bulk Modulus (GPa) = 21.17081 22.50667 21.83874
# Shear Modulus (GPa) = 25.62292 29.95180 27.78736
#
# Velocity S-wave (km/s) = 3.70383 4.00450 3.85709
# Velocity P-wave (km/s) = 5.44296 5.78198 5.61503
#
# Compressibility (1/GPa) = 0.04723484
#
# Stress axis : x y z
#
# Youngs Moduli (GPa) = 78.65957 57.64266 43.24136
#
# Poissons Ratio (x) = 0.07346 0.00155
# Poissons Ratio (y) = 0.10024 0.07204
# Poissons Ratio (z) = 0.00282 0.09603
#
# Static dielectric constant tensor:
#      x y z
#    x 1.668920 0.000000 0.000000 
#    y 0.000000 1.659720 0.000000 
#    z 0.000000 0.000000 1.628350 
# 
# From -- ./inp_files/10334.got.cif
#   From: 2010.05.17/outbox.cif.g08.bks.cpg/sg62_6_cif.got.tgz:10334.got - 2010.06.03 15:25:27.
