data_PCOD9462227
_publ_section_title
;
Structure prediction by ZEFSAII (Michael W. Deem and Ramdas Pophale) SiO2 
 PCOD9462227
Probable space group: P N M A
;
_chemical_formula_sum "Si O2"
_cell_formula_units_Z 48
_cell_length_a 8.763533
_cell_length_b 20.672084
_cell_length_c 12.424038
_cell_angle_alpha 90.000000
_cell_angle_beta 90.000000
_cell_angle_gamma 90.000000
_cell_volume 2250.744816
_symmetry_space_group_name_H-M "P N M A"
_symmetry_group_IT_number 62
_symmetry_cell_setting 'orthorhombic'
loop_
_space_group_symop_operation_xyz
x,y,z
1/2-x,-y,1/2+z
1/2+x,1/2-y,1/2-z
-x,1/2+y,-z
-x,-y,-z
1/2+x,y,1/2-z
1/2-x,1/2+y,1/2+z
x,1/2-y,z
loop_
_atom_site_type_symbol
_atom_site_label
_atom_site_fract_x
_atom_site_fract_y
_atom_site_fract_z
Si Si1 0.427693 0.823847 0.398089
Si Si2 0.111775 0.489765 0.184984
Si Si3 0.095238 0.593306 0.684939
Si Si4 0.878803 0.124469 0.713064
Si Si5 0.393447 0.093208 0.426338
Si Si6 0.445654 0.575402 0.010729
O O1 0.405347 0.750000 0.432303
O O2 0.547713 0.826976 0.298867
O O3 0.270578 0.852447 0.350155
O O4 0.497056 0.865596 0.496491
O O5 0.255547 0.446946 0.154925
O O6 0.043781 0.455728 0.290642
O O7 0.379251 0.376206 0.304036
O O8 0.972504 0.475513 0.104563
O O9 0.035631 0.622644 0.574519
O O10 0.000000 0.500000 0.500000
O O11 0.844261 0.061083 0.784767
O O12 0.005332 0.101751 0.626848
O O13 0.232659 0.082021 0.483124
#
# Coordination Sequence:
#
# PCOD9462227 Si02
#       6
#     8   8   8   8   8   8
#     4  12  28  48  68  92 135 193 244 281 323 408
#     4  10  20  38  61 102 136 168 208 275 359 403
#     4  10  18  37  59  97 140 166 207 265 344 423
#     4  12  25  41  66 100 135 182 227 283 344 408
#     4  10  22  42  66  95 135 175 228 280 343 410
#     4  12  22  37  65 102 143 172 208 276 357 429
#
# _framework density 21.326274000000002
#
# number of rings (size 3 to 8) (size 9 to 14) (size 15 to 20)
#    1.000    0.000    3.333    3.500    4.667    0.667 
#    0.000    0.833    0.000   10.000    0.000    0.000 
#    0.000    0.000    0.000    0.000    0.000    0.000 
#
# Total GULP energy -267522.545528 kJ/mol
# GULP energy per Si atom -5573.386365 kJ/mol
# Density = 2.127773 g / cm^3
# Si number density = 21.326274 Si / 1000 Ang^3
#
#
#
# Elastic Constant Matrix: (Units=GPa)
#
#
# Indices 1 2 3 4 5 6 
#
# 1 137.9960 32.3768 37.9537 0.0000 0.0000 0.0000
# 2 32.3768 71.9168 25.1433 0.0000 0.0000 0.0000
# 3 37.9537 25.1433 145.5581 0.0000 0.0000 0.0000
# 4 0.0000 0.0000 0.0000 16.9583 0.0000 0.0000
# 5 0.0000 0.0000 0.0000 0.0000 35.8149 0.0000
# 6 0.0000 0.0000 0.0000 0.0000 0.0000 3.9557
#
#
#
# Elastic Compliance Matrix: (Units=1/GPa)
#
#
# Indices 1 2 3 4 5 6 
#
# 1 0.008458 -0.003232 -0.001647 0.000000 0.000000 0.000000
# 2 -0.003232 0.016034 -0.001927 0.000000 0.000000 0.000000
# 3 -0.001647 -0.001927 0.007632 0.000000 0.000000 0.000000
# 4 0.000000 0.000000 0.000000 0.058968 0.000000 0.000000
# 5 0.000000 0.000000 0.000000 0.000000 0.027921 0.000000
# 6 0.000000 0.000000 0.000000 0.000000 0.000000 0.252797
#
#
# Mechanical properties :
#
#
# Convention : Reuss Voigt Hill
#
# Bulk Modulus (GPa) = 54.01847 60.71316 57.36582
# Shear Modulus (GPa) = 12.76836 28.67895 20.72365
#
# Velocity S-wave (km/s) = 2.44952 3.67109 3.12066
# Velocity P-wave (km/s) = 5.77795 6.81907 6.31999
#
# Compressibility (1/GPa) = 0.01851219
#
# Stress axis : x y z
#
# Youngs Moduli (GPa) = 118.23323 62.36903 131.01991
#
# Poissons Ratio (x) = 0.20157 0.21580
# Poissons Ratio (y) = 0.38211 0.25246
# Poissons Ratio (z) = 0.19474 0.12018
#
# Static dielectric constant tensor:
#      x y z
#    x 1.804950 0.000000 0.000000 
#    y 0.000000 1.753090 0.000000 
#    z 0.000000 0.000000 1.910350 
# 
# From -- ./inp_files/11317.got.cif
#   From: 2010.05.17/outbox.cif.g08.bks.cpg/sg62_6_cif.got.tgz:11317.got - 2010.06.03 15:25:27.
