data_PCOD9462945
_publ_section_title
;
Structure prediction by ZEFSAII (Michael W. Deem and Ramdas Pophale) SiO2 
 PCOD9462945
Probable space group: P N M A
;
_chemical_formula_sum "Si O2"
_cell_formula_units_Z 64
_cell_length_a 9.289879
_cell_length_b 14.848532
_cell_length_c 23.811150
_cell_angle_alpha 90.000000
_cell_angle_beta 90.000000
_cell_angle_gamma 90.000000
_cell_volume 3284.535404
_symmetry_space_group_name_H-M "P N M A"
_symmetry_group_IT_number 62
_symmetry_cell_setting 'orthorhombic'
loop_
_space_group_symop_operation_xyz
x,y,z
1/2-x,-y,1/2+z
1/2+x,1/2-y,1/2-z
-x,1/2+y,-z
-x,-y,-z
1/2+x,y,1/2-z
1/2-x,1/2+y,1/2+z
x,1/2-y,z
loop_
_atom_site_type_symbol
_atom_site_label
_atom_site_fract_x
_atom_site_fract_y
_atom_site_fract_z
Si Si1 0.452290 0.642007 0.820904
Si Si2 0.696742 0.641005 0.002033
Si Si3 0.605214 0.359073 0.046529
Si Si4 0.049393 0.515396 0.180450
Si Si5 0.407174 0.090259 0.486513
Si Si6 0.388241 0.852752 0.603565
Si Si7 0.431272 0.850327 0.411638
Si Si8 0.291023 0.045119 0.243731
O O1 0.455927 0.750000 0.815164
O O2 0.426014 0.621608 0.887330
O O3 0.605273 0.601988 0.798752
O O4 0.321930 0.602727 0.782095
O O5 0.710440 0.750000 0.002405
O O6 0.784864 0.614314 0.057841
O O7 0.531917 0.619242 0.992394
O O8 0.776373 0.614604 0.943980
O O9 0.631308 0.250000 0.042951
O O10 0.738274 0.414960 0.021792
O O11 0.096199 0.419148 0.154677
O O12 0.193049 0.533029 0.215750
O O13 0.002469 0.583503 0.132579
O O14 0.909202 0.500441 0.217034
O O15 0.462378 0.136897 0.429723
O O16 0.454988 0.152722 0.537496
O O17 0.500000 0.000000 0.500000
O O18 0.357825 0.750000 0.619019
O O19 0.406216 0.750000 0.389262
#
# Coordination Sequence:
#
# PCOD9462945 Si02
#       8
#     8   8   8   8   8   8   8   8
#     4  10  20  35  57  85 122 166 199 235 293 351
#     4   8  17  33  55  86 119 149 191 240 285 346
#     4  10  19  33  54  86 124 157 192 238 292 350
#     4  11  22  40  60  82 114 152 199 246 305 350
#     4  11  20  34  56  87 121 152 190 229 277 355
#     4  10  19  34  57  83 117 159 192 226 282 357
#     4  10  21  40  63  83 111 154 199 243 293 356
#     4  10  23  37  55  83 117 149 202 261 286 344
#
# _framework density 19.485251000000002
#
# number of rings (size 3 to 8) (size 9 to 14) (size 15 to 20)
#    0.000    2.000    1.250    3.750    0.000    5.000 
#    0.000    5.625    0.000    0.000    0.000    0.000 
#    0.000    0.000    0.000    0.000    0.000    0.000 
#
# Total GULP energy -356764.264012 kJ/mol
# GULP energy per Si atom -5574.441625 kJ/mol
# Density = 1.944090 g / cm^3
# Si number density = 19.485251 Si / 1000 Ang^3
#
#
#
# Elastic Constant Matrix: (Units=GPa)
#
#
# Indices 1 2 3 4 5 6 
#
# 1 139.8683 27.9041 0.1345 0.0000 0.0000 0.0000
# 2 27.9041 64.9443 21.9441 0.0000 0.0000 0.0000
# 3 0.1345 21.9441 -19.0970 0.0000 0.0000 0.0000
# 4 0.0000 0.0000 0.0000 -23.6513 0.0000 0.0000
# 5 0.0000 0.0000 0.0000 0.0000 8.3399 0.0000
# 6 0.0000 0.0000 0.0000 0.0000 0.0000 22.9578
#
#
#
# Elastic Compliance Matrix: (Units=1/GPa)
#
#
# Indices 1 2 3 4 5 6 
#
# 1 0.007626 -0.002373 -0.002673 0.000000 0.000000 0.000000
# 2 -0.002373 0.011830 0.013577 0.000000 0.000000 0.000000
# 3 -0.002673 0.013577 -0.036782 0.000000 0.000000 0.000000
# 4 0.000000 0.000000 0.000000 -0.042281 0.000000 0.000000
# 5 0.000000 0.000000 0.000000 0.000000 0.119906 0.000000
# 6 0.000000 0.000000 0.000000 0.000000 0.000000 0.043558
#
#
# Mechanical properties :
#
#
# Convention : Reuss Voigt Hill
#
# Bulk Modulus (GPa) = -3766.42426 31.74231 -1867.34097
# Shear Modulus (GPa) = 57.66548 10.57813 34.12181
#
# Velocity S-wave (km/s) = 5.44598 2.33250 4.18923
# Velocity P-wave (km/s) = 43.56160 4.85591 30.61073
#
# Compressibility (1/GPa) = -0.00026550
#
# Stress axis : x y z
#
# Youngs Moduli (GPa) = 131.13710 84.53107 -27.18719
#
# Poissons Ratio (x) = 0.20061 -0.07268
# Poissons Ratio (y) = 0.31121 0.36912
# Poissons Ratio (z) = 0.35056 -1.14767
#
# Static dielectric constant tensor:
#      x y z
#    x 1.738860 0.000000 0.000000 
#    y 0.000000 1.739730 0.000000 
#    z 0.000000 0.000000 1.719990 
# 
# From -- ./inp_files/28999.got.cif
#   From: 2010.05.17/outbox.cif.g08.bks.cpg/sg62_15_cif.got.tgz:28999.got - 2010.06.03 15:25:27.
