data_PCOD9462123
_publ_section_title
;
Structure prediction by ZEFSAII (Michael W. Deem and Ramdas Pophale) SiO2 
 PCOD9462123
Probable space group: P N M A
;
_chemical_formula_sum "Si O2"
_cell_formula_units_Z 64
_cell_length_a 10.186983
_cell_length_b 12.280295
_cell_length_c 27.234170
_cell_angle_alpha 90.000000
_cell_angle_beta 90.000000
_cell_angle_gamma 90.000000
_cell_volume 3406.971692
_symmetry_space_group_name_H-M "P N M A"
_symmetry_group_IT_number 62
_symmetry_cell_setting 'orthorhombic'
loop_
_space_group_symop_operation_xyz
x,y,z
1/2-x,-y,1/2+z
1/2+x,1/2-y,1/2-z
-x,1/2+y,-z
-x,-y,-z
1/2+x,y,1/2-z
1/2-x,1/2+y,1/2+z
x,1/2-y,z
loop_
_atom_site_type_symbol
_atom_site_label
_atom_site_fract_x
_atom_site_fract_y
_atom_site_fract_z
Si Si1 0.503660 0.937070 0.174399
Si Si2 0.523950 0.872620 0.282855
Si Si3 0.319495 0.875527 0.602500
Si Si4 0.637705 0.122320 0.032756
Si Si5 0.913743 0.963785 0.427173
Si Si6 0.712020 0.967251 0.686429
Si Si7 0.107294 0.622470 0.912887
Si Si8 0.246680 0.052427 0.205268
O O1 0.506406 0.866853 0.223848
O O2 0.650703 0.981211 0.169462
O O3 0.453658 0.897137 0.121619
O O4 0.395431 0.028524 0.188415
O O5 0.530922 0.750000 0.302684
O O6 0.398988 0.940858 0.302631
O O7 0.656342 0.942660 0.292522
O O8 0.297712 0.750000 0.586813
O O9 0.208623 0.957945 0.584680
O O10 0.459697 0.920452 0.584423
O O11 0.317608 0.877560 0.662171
O O12 0.622702 0.250000 0.046245
O O13 0.532026 0.046093 0.059450
O O14 0.781466 0.082502 0.049953
O O15 0.616891 0.107287 0.974801
O O16 0.658830 0.895209 0.642299
O O17 0.743098 0.909061 0.738484
O O18 0.093744 0.750000 0.922143
#
# Coordination Sequence:
#
# PCOD9462123 Si02
#       8
#     8   8   8   8   8   8   8   8
#     4   9  19  32  52  79 104 142 178 217 269 315
#     4  10  20  34  53  76 109 148 182 219 266 320
#     4  10  20  36  58  82 107 143 185 223 272 328
#     4  10  21  37  58  84 110 141 181 225 285 335
#     4  10  20  37  59  81 111 144 177 234 277 321
#     4  10  18  34  53  76 113 142 181 217 264 321
#     4  10  20  35  57  80 105 142 181 224 276 328
#     4   9  19  33  52  78 111 143 178 223 265 317
#
# _framework density 18.785011999999998
#
# number of rings (size 3 to 8) (size 9 to 14) (size 15 to 20)
#    0.000    2.250    2.500    0.375    0.000    6.000 
#    0.000    1.875    0.000    0.000    0.000    0.000 
#    0.000    0.000    0.000    0.000    0.000    0.000 
#
# Total GULP energy -356410.375804 kJ/mol
# GULP energy per Si atom -5568.912122 kJ/mol
# Density = 1.874226 g / cm^3
# Si number density = 18.785012 Si / 1000 Ang^3
#
#
#
# Elastic Constant Matrix: (Units=GPa)
#
#
# Indices 1 2 3 4 5 6 
#
# 1 108.1365 8.9192 0.0450 0.0000 0.0000 0.0000
# 2 8.9192 29.3739 -8.7919 0.0000 0.0000 0.0000
# 3 0.0450 -8.7919 53.3091 0.0000 0.0000 0.0000
# 4 0.0000 0.0000 0.0000 10.2770 0.0000 0.0000
# 5 0.0000 0.0000 0.0000 0.0000 33.5351 0.0000
# 6 0.0000 0.0000 0.0000 0.0000 0.0000 11.1236
#
#
#
# Elastic Compliance Matrix: (Units=1/GPa)
#
#
# Indices 1 2 3 4 5 6 
#
# 1 0.009498 -0.003036 -0.000509 0.000000 0.000000 0.000000
# 2 -0.003036 0.036782 0.006069 0.000000 0.000000 0.000000
# 3 -0.000509 0.006069 0.019760 0.000000 0.000000 0.000000
# 4 0.000000 0.000000 0.000000 0.097305 0.000000 0.000000
# 5 0.000000 0.000000 0.000000 0.000000 0.029820 0.000000
# 6 0.000000 0.000000 0.000000 0.000000 0.000000 0.089899
#
#
# Mechanical properties :
#
#
# Convention : Reuss Voigt Hill
#
# Bulk Modulus (GPa) = 14.06714 21.24045 17.65379
# Shear Modulus (GPa) = 16.57210 23.69695 20.13453
#
# Velocity S-wave (km/s) = 2.97340 3.55559 3.27745
# Velocity P-wave (km/s) = 4.39237 5.30923 4.87242
#
# Compressibility (1/GPa) = 0.07108767
#
# Stress axis : x y z
#
# Youngs Moduli (GPa) = 105.28278 27.18700 50.60774
#
# Poissons Ratio (x) = 0.08255 0.02575
# Poissons Ratio (y) = 0.31968 -0.30713
# Poissons Ratio (z) = 0.05357 -0.16499
#
# Static dielectric constant tensor:
#      x y z
#    x 1.667240 0.000000 0.000000 
#    y 0.000000 1.626630 0.000000 
#    z 0.000000 0.000000 1.674940 
# 
# From -- ./inp_files/29011.got.cif
#   From: 2010.05.17/outbox.cif.g08.bks.cpg/sg62_15_cif.got.tgz:29011.got - 2010.06.03 15:25:27.
