data_PCOD9462112
_publ_section_title
;
Structure prediction by ZEFSAII (Michael W. Deem and Ramdas Pophale) SiO2 
 PCOD9462112
Probable space group: P N M A
;
_chemical_formula_sum "Si O2"
_cell_formula_units_Z 64
_cell_length_a 19.204281
_cell_length_b 18.680746
_cell_length_c 9.913160
_cell_angle_alpha 90.000000
_cell_angle_beta 90.000000
_cell_angle_gamma 90.000000
_cell_volume 3556.349079
_symmetry_space_group_name_H-M "P N M A"
_symmetry_group_IT_number 62
_symmetry_cell_setting 'orthorhombic'
loop_
_space_group_symop_operation_xyz
x,y,z
1/2-x,-y,1/2+z
1/2+x,1/2-y,1/2-z
-x,1/2+y,-z
-x,-y,-z
1/2+x,y,1/2-z
1/2-x,1/2+y,1/2+z
x,1/2-y,z
loop_
_atom_site_type_symbol
_atom_site_label
_atom_site_fract_x
_atom_site_fract_y
_atom_site_fract_z
Si Si1 0.013200 0.424111 0.578128
Si Si2 0.558553 0.927612 0.355405
Si Si3 0.952188 0.902253 0.914598
Si Si4 0.670069 0.075173 0.813203
Si Si5 0.316824 0.096994 0.197135
Si Si6 0.801746 0.906979 0.009888
Si Si7 0.203421 0.581366 0.003129
Si Si8 0.032274 0.834384 0.665664
O O1 0.089681 0.418078 0.644345
O O2 0.000000 0.500000 0.500000
O O3 0.957605 0.415313 0.698871
O O4 0.004938 0.363089 0.467629
O O5 0.498809 0.895110 0.451257
O O6 0.633521 0.902410 0.410896
O O7 0.551209 0.013382 0.376785
O O8 0.988952 0.860992 0.794367
O O9 0.873101 0.881145 0.941973
O O10 0.691001 0.108444 0.668820
O O11 0.679905 0.989272 0.805516
O O12 0.725712 0.102086 0.922194
O O13 0.298060 0.113347 0.352784
O O14 0.392392 0.128545 0.169813
O O15 0.262525 0.119286 0.080844
O O16 0.798489 0.994239 0.005781
O O17 0.039645 0.750000 0.666897
#
# Coordination Sequence:
#
# PCOD9462112 Si02
#       8
#     8   8   8   8   8   8   8   8
#     4  12  22  35  62  91 120 158 204 253 305 353
#     4  10  18  33  60  91 117 150 195 253 302 357
#     4  10  18  36  59  87 117 150 199 251 301 347
#     4  10  19  33  55  95 122 147 190 251 307 350
#     4  10  19  36  55  85 122 156 190 240 307 364
#     4   9  19  31  56  88 121 146 187 244 303 358
#     4   9  19  29  54  90 125 145 181 245 306 362
#     4  12  26  41  58  85 123 163 208 252 302 375
#
# _framework density 17.995984
#
# number of rings (size 3 to 8) (size 9 to 14) (size 15 to 20)
#    0.000    1.750    5.000    0.000    3.500    1.000 
#    0.000    1.250    0.000    0.750    0.000    0.000 
#    0.000    0.000    0.000    0.000    0.000    0.000 
#
# Total GULP energy -356876.948945 kJ/mol
# GULP energy per Si atom -5576.202327 kJ/mol
# Density = 1.795502 g / cm^3
# Si number density = 17.995984 Si / 1000 Ang^3
#
#
#
# Elastic Constant Matrix: (Units=GPa)
#
#
# Indices 1 2 3 4 5 6 
#
# 1 103.0549 3.6761 55.8640 0.0000 0.0000 0.0000
# 2 3.6761 12.7864 13.3956 0.0000 0.0000 0.0000
# 3 55.8640 13.3956 142.2596 0.0000 0.0000 0.0000
# 4 0.0000 0.0000 0.0000 6.0629 0.0000 0.0000
# 5 0.0000 0.0000 0.0000 0.0000 37.8853 0.0000
# 6 0.0000 0.0000 0.0000 0.0000 0.0000 0.6554
#
#
#
# Elastic Compliance Matrix: (Units=1/GPa)
#
#
# Indices 1 2 3 4 5 6 
#
# 1 0.012361 0.001699 -0.005014 0.000000 0.000000 0.000000
# 2 0.001699 0.087001 -0.008860 0.000000 0.000000 0.000000
# 3 -0.005014 -0.008860 0.009833 0.000000 0.000000 0.000000
# 4 0.000000 0.000000 0.000000 0.164938 0.000000 0.000000
# 5 0.000000 0.000000 0.000000 0.000000 0.026395 0.000000
# 6 0.000000 0.000000 0.000000 0.000000 0.000000 1.525837
#
#
# Mechanical properties :
#
#
# Convention : Reuss Voigt Hill
#
# Bulk Modulus (GPa) = 11.78608 44.88583 28.33596
# Shear Modulus (GPa) = 2.66099 21.26506 11.96303
#
# Velocity S-wave (km/s) = 1.21732 3.44125 2.58109
# Velocity P-wave (km/s) = 2.92221 6.38638 4.96615
#
# Compressibility (1/GPa) = 0.08484585
#
# Stress axis : x y z
#
# Youngs Moduli (GPa) = 80.89993 11.49410 101.70255
#
# Poissons Ratio (x) = -0.01953 0.50994
# Poissons Ratio (y) = -0.13746 0.90103
# Poissons Ratio (z) = 0.40563 0.10183
#
# Static dielectric constant tensor:
#      x y z
#    x 1.617680 0.000000 0.000000 
#    y 0.000000 1.602910 0.000000 
#    z 0.000000 0.000000 1.635950 
# 
# From -- ./inp_files/8967.got.cif
#   From: 2010.05.17/outbox.cif.g08.bks.cpg/sg62_5_cif.got.tgz:8967.got - 2010.06.03 15:25:27.
