data_PCOD9462229
_publ_section_title
;
Structure prediction by ZEFSAII (Michael W. Deem and Ramdas Pophale) SiO2 
 PCOD9462229
Probable space group: P N M A
;
_chemical_formula_sum "Si O2"
_cell_formula_units_Z 64
_cell_length_a 14.471665
_cell_length_b 23.281886
_cell_length_c 9.515718
_cell_angle_alpha 90.000000
_cell_angle_beta 90.000000
_cell_angle_gamma 90.000000
_cell_volume 3206.108549
_symmetry_space_group_name_H-M "P N M A"
_symmetry_group_IT_number 62
_symmetry_cell_setting 'orthorhombic'
loop_
_space_group_symop_operation_xyz
x,y,z
1/2-x,-y,1/2+z
1/2+x,1/2-y,1/2-z
-x,1/2+y,-z
-x,-y,-z
1/2+x,y,1/2-z
1/2-x,1/2+y,1/2+z
x,1/2-y,z
loop_
_atom_site_type_symbol
_atom_site_label
_atom_site_fract_x
_atom_site_fract_y
_atom_site_fract_z
Si Si1 0.111055 0.368260 0.350073
Si Si2 0.062341 0.879690 0.238543
Si Si3 0.142331 0.389242 0.852330
Si Si4 0.778572 0.681787 0.905129
Si Si5 0.632056 0.498585 0.177196
Si Si6 0.760867 0.384035 0.927669
Si Si7 0.924746 0.318177 0.461831
Si Si8 0.215594 0.010755 0.027847
O O1 0.154639 0.350537 0.202306
O O2 0.090017 0.436765 0.359528
O O3 0.191364 0.353894 0.464446
O O4 0.016846 0.335450 0.380089
O O5 0.145511 0.858606 0.137510
O O6 0.072111 0.849622 0.388447
O O7 0.961462 0.870147 0.176588
O O8 0.072465 0.948754 0.263563
O O9 0.196831 0.399157 0.707038
O O10 0.195412 0.340779 0.940566
O O11 0.147160 0.447074 0.945874
O O12 0.790295 0.750000 0.892241
O O13 0.670813 0.666821 0.883141
O O14 0.702508 0.483888 0.305543
O O15 0.684994 0.523164 0.041038
O O16 0.794413 0.443014 0.001094
O O17 0.922939 0.250000 0.485163
#
# Coordination Sequence:
#
# PCOD9462229 Si02
#       8
#     8   8   8   8   8   8   8   8
#     4  11  23  44  65 101 132 171 216 273 336 389
#     4  11  23  41  64  99 131 173 229 263 320 397
#     4  12  21  41  66  89 133 172 220 266 319 394
#     4  11  25  45  69  94 128 170 216 278 336 386
#     4  10  21  37  63  94 134 172 208 267 328 391
#     4  10  22  40  63  97 130 172 214 266 317 390
#     4  11  24  44  69  94 129 176 224 272 326 392
#     4  10  18  37  60  88 131 168 207 252 322 384
#
# _framework density 19.961894000000001
#
# number of rings (size 3 to 8) (size 9 to 14) (size 15 to 20)
#    0.000    1.250    6.250    0.375    0.000    4.000 
#    6.750    1.250    0.000    0.000    0.000    0.000 
#    0.000    0.000    0.000    0.000    0.000    0.000 
#
# Total GULP energy -357058.368681 kJ/mol
# GULP energy per Si atom -5579.037011 kJ/mol
# Density = 1.991646 g / cm^3
# Si number density = 19.961894 Si / 1000 Ang^3
#
#
#
# Elastic Constant Matrix: (Units=GPa)
#
#
# Indices 1 2 3 4 5 6 
#
# 1 95.9297 18.1406 1.1911 0.0000 0.0000 0.0000
# 2 18.1406 49.8947 8.0709 0.0000 0.0000 0.0000
# 3 1.1911 8.0709 42.1258 0.0000 0.0000 0.0000
# 4 0.0000 0.0000 0.0000 11.9103 0.0000 0.0000
# 5 0.0000 0.0000 0.0000 0.0000 29.4969 0.0000
# 6 0.0000 0.0000 0.0000 0.0000 0.0000 24.8032
#
#
#
# Elastic Compliance Matrix: (Units=1/GPa)
#
#
# Indices 1 2 3 4 5 6 
#
# 1 0.011203 -0.004151 0.000478 0.000000 0.000000 0.000000
# 2 -0.004151 0.022221 -0.004140 0.000000 0.000000 0.000000
# 3 0.000478 -0.004140 0.024518 0.000000 0.000000 0.000000
# 4 0.000000 0.000000 0.000000 0.083961 0.000000 0.000000
# 5 0.000000 0.000000 0.000000 0.000000 0.033902 0.000000
# 6 0.000000 0.000000 0.000000 0.000000 0.000000 0.040317
#
#
# Mechanical properties :
#
#
# Convention : Reuss Voigt Hill
#
# Bulk Modulus (GPa) = 23.63063 26.97282 25.30172
# Shear Modulus (GPa) = 20.33738 23.94526 22.14132
#
# Velocity S-wave (km/s) = 3.19534 3.46721 3.33405
# Velocity P-wave (km/s) = 5.04749 5.43785 5.24630
#
# Compressibility (1/GPa) = 0.04231796
#
# Stress axis : x y z
#
# Youngs Moduli (GPa) = 89.25976 45.00251 40.78627
#
# Poissons Ratio (x) = 0.18679 -0.01951
# Poissons Ratio (y) = 0.37049 0.16885
# Poissons Ratio (z) = -0.04271 0.18631
#
# Static dielectric constant tensor:
#      x y z
#    x 1.704990 0.000000 0.000000 
#    y 0.000000 1.716310 0.000000 
#    z 0.000000 0.000000 1.702100 
# 
# From -- ./inp_files/6935.got.cif
#   From: 2010.05.17/outbox.cif.g08.bks.cpg/sg62_4_cif.got.tgz:6935.got - 2010.06.03 15:25:27.
