data_PCOD9462013
_publ_section_title
;
Structure prediction by ZEFSAII (Michael W. Deem and Ramdas Pophale) SiO2 
 PCOD9462013
Probable space group: P N M A
;
_chemical_formula_sum "Si O2"
_cell_formula_units_Z 56
_cell_length_a 20.054117
_cell_length_b 8.486455
_cell_length_c 16.754580
_cell_angle_alpha 90.000000
_cell_angle_beta 90.000000
_cell_angle_gamma 90.000000
_cell_volume 2851.434518
_symmetry_space_group_name_H-M "P N M A"
_symmetry_group_IT_number 62
_symmetry_cell_setting 'orthorhombic'
loop_
_space_group_symop_operation_xyz
x,y,z
1/2-x,-y,1/2+z
1/2+x,1/2-y,1/2-z
-x,1/2+y,-z
-x,-y,-z
1/2+x,y,1/2-z
1/2-x,1/2+y,1/2+z
x,1/2-y,z
loop_
_atom_site_type_symbol
_atom_site_label
_atom_site_fract_x
_atom_site_fract_y
_atom_site_fract_z
Si Si1 0.892689 0.060914 0.719305
Si Si2 0.031523 0.930274 0.123083
Si Si3 0.385882 0.057336 0.203556
Si Si4 0.991786 0.939564 0.590468
Si Si5 0.170994 0.931788 0.032323
Si Si6 0.733930 0.064423 0.312954
Si Si7 0.602999 0.563197 0.616243
O O1 0.893388 0.250000 0.717387
O O2 0.942288 0.008104 0.791189
O O3 0.819165 0.009793 0.750378
O O4 0.925279 0.997017 0.637695
O O5 0.008233 0.750000 0.132199
O O6 0.096603 0.926597 0.068553
O O7 0.971965 0.031422 0.088380
O O8 0.387421 0.250000 0.202046
O O9 0.443587 0.006263 0.142574
O O10 0.309985 0.006614 0.188475
O O11 0.398210 0.002738 0.293835
O O12 0.990788 0.750000 0.589548
O O13 0.000000 0.000000 0.500000
O O14 0.195776 0.750000 0.030469
O O15 0.210429 0.030872 0.096890
O O16 0.159418 0.998837 0.943794
O O17 0.733788 0.250000 0.296423
O O18 0.614607 0.750000 0.618241
#
# Coordination Sequence:
#
# PCOD9462013 Si02
#       7
#     8   8   8   8   8   8   8
#     4  10  20  37  59  86 117 149 191 241 291 349
#     4   9  17  29  48  78 112 138 171 219 268 326
#     4   9  20  38  59  83 115 150 192 245 295 347
#     4  11  22  40  64  90 119 155 201 252 304 357
#     4   9  19  33  50  77 112 144 181 229 279 337
#     4  10  20  37  59  81 113 155 196 239 293 353
#     4  10  18  32  54  78 107 143 180 223 281 339
#
# _framework density 19.639237000000001
#
# number of rings (size 3 to 8) (size 9 to 14) (size 15 to 20)
#    0.000    2.286    1.429    2.571    0.000    2.857 
#    2.571    4.286    0.000    0.000    0.000    0.000 
#    0.000    0.000    0.000    0.000    0.000    0.000 
#
# Total GULP energy -312026.816566 kJ/mol
# GULP energy per Si atom -5571.907439 kJ/mol
# Density = 1.959454 g / cm^3
# Si number density = 19.639237 Si / 1000 Ang^3
#
#
#
# Elastic Constant Matrix: (Units=GPa)
#
#
# Indices 1 2 3 4 5 6 
#
# 1 93.8963 13.4084 38.1794 0.0000 0.0000 0.0000
# 2 13.4084 23.8217 16.4112 0.0000 0.0000 0.0000
# 3 38.1794 16.4112 117.7316 0.0000 0.0000 0.0000
# 4 0.0000 0.0000 0.0000 22.2454 0.0000 0.0000
# 5 0.0000 0.0000 0.0000 0.0000 9.6980 0.0000
# 6 0.0000 0.0000 0.0000 0.0000 0.0000 8.6613
#
#
#
# Elastic Compliance Matrix: (Units=1/GPa)
#
#
# Indices 1 2 3 4 5 6 
#
# 1 0.012742 -0.004785 -0.003465 0.000000 0.000000 0.000000
# 2 -0.004785 0.048235 -0.005172 0.000000 0.000000 0.000000
# 3 -0.003465 -0.005172 0.010339 0.000000 0.000000 0.000000
# 4 0.000000 0.000000 0.000000 0.044953 0.000000 0.000000
# 5 0.000000 0.000000 0.000000 0.000000 0.103114 0.000000
# 6 0.000000 0.000000 0.000000 0.000000 0.000000 0.115456
#
#
# Mechanical properties :
#
#
# Convention : Reuss Voigt Hill
#
# Bulk Modulus (GPa) = 22.48632 41.27195 31.87914
# Shear Modulus (GPa) = 13.27996 19.28432 16.28214
#
# Velocity S-wave (km/s) = 2.60320 3.13697 2.88247
# Velocity P-wave (km/s) = 4.52880 5.84649 5.22932
#
# Compressibility (1/GPa) = 0.04447147
#
# Stress axis : x y z
#
# Youngs Moduli (GPa) = 78.47851 20.73187 96.72495
#
# Poissons Ratio (x) = 0.09920 0.33517
# Poissons Ratio (y) = 0.37552 0.50026
# Poissons Ratio (z) = 0.27195 0.10723
#
# Static dielectric constant tensor:
#      x y z
#    x 1.705330 0.000000 0.000000 
#    y 0.000000 1.661710 0.000000 
#    z 0.000000 0.000000 1.750400 
# 
# From -- ./inp_files/20400.got.cif
#   From: 2010.05.17/outbox.cif.g08.bks.cpg/sg62_11_cif.got.tgz:20400.got - 2010.06.03 15:25:27.
