data_PCOD9462845
_publ_section_title
;
Structure prediction by ZEFSAII (Michael W. Deem and Ramdas Pophale) SiO2 
 PCOD9462845
Probable space group: P N M A
;
_chemical_formula_sum "Si O2"
_cell_formula_units_Z 48
_cell_length_a 16.914530
_cell_length_b 8.842537
_cell_length_c 18.844609
_cell_angle_alpha 90.000000
_cell_angle_beta 90.000000
_cell_angle_gamma 90.000000
_cell_volume 2818.538369
_symmetry_space_group_name_H-M "P N M A"
_symmetry_group_IT_number 62
_symmetry_cell_setting 'orthorhombic'
loop_
_space_group_symop_operation_xyz
x,y,z
1/2-x,-y,1/2+z
1/2+x,1/2-y,1/2-z
-x,1/2+y,-z
-x,-y,-z
1/2+x,y,1/2-z
1/2-x,1/2+y,1/2+z
x,1/2-y,z
loop_
_atom_site_type_symbol
_atom_site_label
_atom_site_fract_x
_atom_site_fract_y
_atom_site_fract_z
Si Si1 0.579388 0.424092 0.204589
Si Si2 0.990237 0.932210 0.422128
Si Si3 0.165460 0.430897 0.663704
Si Si4 0.914027 0.077375 0.207898
Si Si5 0.011649 0.432714 0.077504
Si Si6 0.842560 0.068070 0.836098
O O1 0.603573 0.250000 0.193550
O O2 0.557308 0.505469 0.131309
O O3 0.497104 0.422062 0.249051
O O4 0.638906 0.511844 0.256186
O O5 0.992820 0.750000 0.423891
O O6 0.905558 0.981022 0.388116
O O7 0.000000 0.000000 0.500000
O O8 0.164569 0.250000 0.662580
O O9 0.144568 0.483517 0.743236
O O10 0.253671 0.479754 0.643751
O O11 0.885765 0.250000 0.202955
O O12 0.939482 0.021927 0.130205
O O13 0.013992 0.250000 0.076687
O O14 0.091872 0.495076 0.112897
O O15 0.000000 0.500000 0.000000
O O16 0.849191 0.250000 0.839044
#
# Coordination Sequence:
#
# PCOD9462845 Si02
#       6
#     8   8   8   8   8   8
#     4   9  17  31  50  73  97 126 164 203 241 291
#     4  10  19  33  52  75 102 135 170 207 250 300
#     4   9  19  33  51  74 100 129 165 206 251 297
#     4   8  16  30  49  71  95 123 160 199 239 288
#     4  10  20  34  52  76 102 133 169 206 249 300
#     4  10  19  33  52  75 101 130 164 207 252 298
#
# _framework density 17.030104999999999
#
# number of rings (size 3 to 8) (size 9 to 14) (size 15 to 20)
#    0.000    2.667    0.000    3.000    0.000    6.667 
#    0.000    1.667    0.000    2.000    0.000    0.000 
#    0.000    0.000    0.000    0.000    0.000    0.000 
#
# Total GULP energy -267429.428259 kJ/mol
# GULP energy per Si atom -5571.446422 kJ/mol
# Density = 1.699134 g / cm^3
# Si number density = 17.030105 Si / 1000 Ang^3
#
#
#
# Elastic Constant Matrix: (Units=GPa)
#
#
# Indices 1 2 3 4 5 6 
#
# 1 80.7164 27.4400 44.5275 0.0000 0.0000 0.0000
# 2 27.4400 53.5569 39.5112 0.0000 0.0000 0.0000
# 3 44.5275 39.5112 148.7694 0.0000 0.0000 0.0000
# 4 0.0000 0.0000 0.0000 33.3805 0.0000 0.0000
# 5 0.0000 0.0000 0.0000 0.0000 15.4778 0.0000
# 6 0.0000 0.0000 0.0000 0.0000 0.0000 19.0002
#
#
#
# Elastic Compliance Matrix: (Units=1/GPa)
#
#
# Indices 1 2 3 4 5 6 
#
# 1 0.016200 -0.005874 -0.003289 0.000000 0.000000 0.000000
# 2 -0.005874 0.025351 -0.004975 0.000000 0.000000 0.000000
# 3 -0.003289 -0.004975 0.009027 0.000000 0.000000 0.000000
# 4 0.000000 0.000000 0.000000 0.029958 0.000000 0.000000
# 5 0.000000 0.000000 0.000000 0.000000 0.064609 0.000000
# 6 0.000000 0.000000 0.000000 0.000000 0.000000 0.052631
#
#
# Mechanical properties :
#
#
# Convention : Reuss Voigt Hill
#
# Bulk Modulus (GPa) = 44.83531 56.22223 50.52877
# Shear Modulus (GPa) = 21.41455 25.00931 23.21193
#
# Velocity S-wave (km/s) = 3.54990 3.83630 3.69588
# Velocity P-wave (km/s) = 6.57166 7.26003 6.92440
#
# Compressibility (1/GPa) = 0.02230385
#
# Stress axis : x y z
#
# Youngs Moduli (GPa) = 61.72767 39.44544 110.77360
#
# Poissons Ratio (x) = 0.23170 0.36431
# Poissons Ratio (y) = 0.36259 0.55109
# Poissons Ratio (z) = 0.20301 0.19624
#
# Static dielectric constant tensor:
#      x y z
#    x 1.586320 0.000000 0.000000 
#    y 0.000000 1.575360 0.000000 
#    z 0.000000 0.000000 1.567700 
# 
# From -- ./inp_files/24203.got.cif
#   From: 2010.05.17/outbox.cif.g08.bks.cpg/sg62_13_cif.got.tgz:24203.got - 2010.06.03 15:25:27.
