data_PCOD9462650
_publ_section_title
;
Structure prediction by ZEFSAII (Michael W. Deem and Ramdas Pophale) SiO2 
 PCOD9462650
Probable space group: P N M A
;
_chemical_formula_sum "Si O2"
_cell_formula_units_Z 56
_cell_length_a 14.993733
_cell_length_b 7.525099
_cell_length_c 22.477440
_cell_angle_alpha 90.000000
_cell_angle_beta 90.000000
_cell_angle_gamma 90.000000
_cell_volume 2536.114388
_symmetry_space_group_name_H-M "P N M A"
_symmetry_group_IT_number 62
_symmetry_cell_setting 'orthorhombic'
loop_
_space_group_symop_operation_xyz
x,y,z
1/2-x,-y,1/2+z
1/2+x,1/2-y,1/2-z
-x,1/2+y,-z
-x,-y,-z
1/2+x,y,1/2-z
1/2-x,1/2+y,1/2+z
x,1/2-y,z
loop_
_atom_site_type_symbol
_atom_site_label
_atom_site_fract_x
_atom_site_fract_y
_atom_site_fract_z
Si Si1 0.682009 0.545956 0.773938
Si Si2 0.015004 0.463081 0.069916
Si Si3 0.341117 0.468282 0.359163
Si Si4 0.378138 0.541756 0.034880
Si Si5 0.479543 0.539737 0.148700
Si Si6 0.790487 0.965975 0.888261
Si Si7 0.846734 0.536509 0.593699
O O1 0.710950 0.750000 0.766232
O O2 0.674742 0.468105 0.708250
O O3 0.582164 0.542171 0.800875
O O4 0.747593 0.471221 0.825277
O O5 0.016956 0.250000 0.075844
O O6 0.110278 0.527192 0.095194
O O7 0.931573 0.528595 0.109052
O O8 0.000000 0.500000 0.000000
O O9 0.344338 0.250000 0.358059
O O10 0.253615 0.523004 0.395360
O O11 0.400437 0.750000 0.030280
O O12 0.440875 0.465077 0.086257
O O13 0.278512 0.524363 0.060753
O O14 0.381947 0.463538 0.969217
O O15 0.462634 0.750000 0.151258
O O16 0.584636 0.509142 0.146138
O O17 0.789277 0.750000 0.887116
O O18 0.844048 0.750000 0.589818
#
# Coordination Sequence:
#
# PCOD9462650 Si02
#       7
#     8   8   8   8   8   8   8
#     4   9  18  35  55  75  99 131 171 215 258 303
#     4  10  20  35  54  79 108 138 173 215 260 310
#     4   9  19  34  54  77 101 131 173 219 256 296
#     4   9  18  32  51  75 104 133 164 203 250 303
#     4  10  20  33  50  75 105 136 166 203 251 305
#     4   9  18  31  51  76 101 131 169 210 255 304
#     4  10  19  32  51  75 100 132 170 207 249 297
#
# _framework density 22.081022000000001
#
# number of rings (size 3 to 8) (size 9 to 14) (size 15 to 20)
#    0.000    2.571    0.000    1.714    0.000    4.000 
#    0.000    6.429    0.000    3.429    0.000    0.000 
#    0.000    0.000    0.000    0.000    0.000    0.000 
#
# Total GULP energy -312582.536694 kJ/mol
# GULP energy per Si atom -5581.831012 kJ/mol
# Density = 2.203076 g / cm^3
# Si number density = 22.081022 Si / 1000 Ang^3
#
#
#
# Elastic Constant Matrix: (Units=GPa)
#
#
# Indices 1 2 3 4 5 6 
#
# 1 103.5129 -3.7798 -1.3776 0.0000 0.0000 0.0000
# 2 -3.7798 59.3012 1.8154 0.0000 0.0000 0.0000
# 3 -1.3776 1.8154 78.5046 0.0000 0.0000 0.0000
# 4 0.0000 0.0000 0.0000 8.3386 0.0000 0.0000
# 5 0.0000 0.0000 0.0000 0.0000 11.7872 0.0000
# 6 0.0000 0.0000 0.0000 0.0000 0.0000 9.0356
#
#
#
# Elastic Compliance Matrix: (Units=1/GPa)
#
#
# Indices 1 2 3 4 5 6 
#
# 1 0.009685 0.000613 0.000156 0.000000 0.000000 0.000000
# 2 0.000613 0.016914 -0.000380 0.000000 0.000000 0.000000
# 3 0.000156 -0.000380 0.012750 0.000000 0.000000 0.000000
# 4 0.000000 0.000000 0.000000 0.119924 0.000000 0.000000
# 5 0.000000 0.000000 0.000000 0.000000 0.084838 0.000000
# 6 0.000000 0.000000 0.000000 0.000000 0.000000 0.110673
#
#
# Mechanical properties :
#
#
# Convention : Reuss Voigt Hill
#
# Bulk Modulus (GPa) = 24.92251 26.07052 25.49652
# Shear Modulus (GPa) = 13.60981 22.14301 17.87641
#
# Velocity S-wave (km/s) = 2.48535 3.17015 2.84840
# Velocity P-wave (km/s) = 4.42123 5.02316 4.73178
#
# Compressibility (1/GPa) = 0.04012437
#
# Stress axis : x y z
#
# Youngs Moduli (GPa) = 103.25166 59.12352 78.43364
#
# Poissons Ratio (x) = -0.03622 -0.01222
# Poissons Ratio (y) = -0.06325 0.02983
# Poissons Ratio (z) = -0.01609 0.02249
#
# Static dielectric constant tensor:
#      x y z
#    x 1.809380 0.000000 0.000000 
#    y 0.000000 1.844670 0.000000 
#    z 0.000000 0.000000 1.807140 
# 
# From -- ./inp_files/27085.got.cif
#   From: 2010.05.17/outbox.cif.g08.bks.cpg/sg62_14_cif.got.tgz:27085.got - 2010.06.03 15:25:27.
