data_PCOD9462069
_publ_section_title
;
Structure prediction by ZEFSAII (Michael W. Deem and Ramdas Pophale) SiO2 
 PCOD9462069
Probable space group: P N M A
;
_chemical_formula_sum "Si O2"
_cell_formula_units_Z 40
_cell_length_a 5.195883
_cell_length_b 19.299024
_cell_length_c 19.400327
_cell_angle_alpha 90.000000
_cell_angle_beta 90.000000
_cell_angle_gamma 90.000000
_cell_volume 1945.376922
_symmetry_space_group_name_H-M "P N M A"
_symmetry_group_IT_number 62
_symmetry_cell_setting 'orthorhombic'
loop_
_space_group_symop_operation_xyz
x,y,z
1/2-x,-y,1/2+z
1/2+x,1/2-y,1/2-z
-x,1/2+y,-z
-x,-y,-z
1/2+x,y,1/2-z
1/2-x,1/2+y,1/2+z
x,1/2-y,z
loop_
_atom_site_type_symbol
_atom_site_label
_atom_site_fract_x
_atom_site_fract_y
_atom_site_fract_z
Si Si1 0.149021 0.997774 0.906945
Si Si2 0.528007 0.750000 0.142335
Si Si3 0.812228 0.104044 0.984968
Si Si4 0.311564 0.977974 0.711049
Si Si5 0.028710 0.750000 0.047248
Si Si6 0.973718 0.900714 0.339832
O O1 0.308250 0.040817 0.850334
O O2 0.292824 0.938469 0.949859
O O3 0.047568 0.056733 0.958251
O O4 0.908771 0.963519 0.866495
O O5 0.242325 0.750000 0.108768
O O6 0.552976 0.676525 0.181612
O O7 0.749777 0.750000 0.083432
O O8 0.916008 0.180936 0.995891
O O9 0.625053 0.106838 0.919154
O O10 0.544393 0.951810 0.758535
O O11 0.250704 0.061621 0.703697
#
# Coordination Sequence:
#
# PCOD9462069 Si02
#       6
#     8   4   8   8   4   8
#     4  10  18  33  54  83 106 139 175 229 262 326
#     4  10  20  32  52  73 104 147 180 204 271 308
#     4   9  19  30  53  84 111 138 172 213 277 326
#     4  11  22  37  54  73 103 138 182 227 268 305
#     4  10  18  34  48  77 114 143 164 210 263 342
#     4  10  19  34  55  74 109 143 181 223 264 326
#
# _framework density 20.561571000000001
#
# number of rings (size 3 to 8) (size 9 to 14) (size 15 to 20)
#    0.000    2.000    4.000    0.600    0.000    0.000 
#    0.000    1.000    0.000    0.000    0.000    1.400 
#    0.000    0.000    0.000    0.000    0.000    0.000 
#
# Total GULP energy -222686.000950 kJ/mol
# GULP energy per Si atom -5567.150024 kJ/mol
# Density = 2.051477 g / cm^3
# Si number density = 20.561571 Si / 1000 Ang^3
#
#
#
# Elastic Constant Matrix: (Units=GPa)
#
#
# Indices 1 2 3 4 5 6 
#
# 1 86.2950 10.2358 12.0591 0.0000 0.0000 0.0000
# 2 10.2358 52.9056 21.0216 0.0000 0.0000 0.0000
# 3 12.0591 21.0216 55.0191 0.0000 0.0000 0.0000
# 4 0.0000 0.0000 0.0000 8.5900 0.0000 0.0000
# 5 0.0000 0.0000 0.0000 0.0000 30.2434 0.0000
# 6 0.0000 0.0000 0.0000 0.0000 0.0000 18.4656
#
#
#
# Elastic Compliance Matrix: (Units=1/GPa)
#
#
# Indices 1 2 3 4 5 6 
#
# 1 0.012056 -0.001512 -0.002065 0.000000 0.000000 0.000000
# 2 -0.001512 0.022474 -0.008256 0.000000 0.000000 0.000000
# 3 -0.002065 -0.008256 0.021782 0.000000 0.000000 0.000000
# 4 0.000000 0.000000 0.000000 0.116414 0.000000 0.000000
# 5 0.000000 0.000000 0.000000 0.000000 0.033065 0.000000
# 6 0.000000 0.000000 0.000000 0.000000 0.000000 0.054155
#
#
# Mechanical properties :
#
#
# Convention : Reuss Voigt Hill
#
# Bulk Modulus (GPa) = 30.62973 31.20585 30.91779
# Shear Modulus (GPa) = 16.97828 21.52002 19.24915
#
# Velocity S-wave (km/s) = 2.87667 3.23865 3.06301
# Velocity P-wave (km/s) = 5.09535 5.40323 5.25154
#
# Compressibility (1/GPa) = 0.03264802
#
# Stress axis : x y z
#
# Youngs Moduli (GPa) = 82.94595 44.49500 45.90874
#
# Poissons Ratio (x) = 0.06728 0.09479
# Poissons Ratio (y) = 0.12542 0.37900
# Poissons Ratio (z) = 0.17126 0.36733
#
# Static dielectric constant tensor:
#      x y z
#    x 1.858760 0.000000 0.000000 
#    y 0.000000 1.752280 0.000000 
#    z 0.000000 0.000000 1.821520 
# 
# From -- ./inp_files/25258.got.cif
#   From: 2010.05.17/outbox.cif.g08.bks.cpg/sg62_13_cif.got.tgz:25258.got - 2010.06.03 15:25:27.
