data_PCOD9462639
_publ_section_title
;
Structure prediction by ZEFSAII (Michael W. Deem and Ramdas Pophale) SiO2 
 PCOD9462639
Probable space group: P N M A
;
_chemical_formula_sum "Si O2"
_cell_formula_units_Z 56
_cell_length_a 25.069672
_cell_length_b 26.848946
_cell_length_c 4.915775
_cell_angle_alpha 90.000000
_cell_angle_beta 90.000000
_cell_angle_gamma 90.000000
_cell_volume 3308.779984
_symmetry_space_group_name_H-M "P N M A"
_symmetry_group_IT_number 62
_symmetry_cell_setting 'orthorhombic'
loop_
_space_group_symop_operation_xyz
x,y,z
1/2-x,-y,1/2+z
1/2+x,1/2-y,1/2-z
-x,1/2+y,-z
-x,-y,-z
1/2+x,y,1/2-z
1/2-x,1/2+y,1/2+z
x,1/2-y,z
loop_
_atom_site_type_symbol
_atom_site_label
_atom_site_fract_x
_atom_site_fract_y
_atom_site_fract_z
Si Si1 0.122036 0.989196 0.102074
Si Si2 0.498847 0.627298 0.644294
Si Si3 0.764548 0.033351 0.083706
Si Si4 0.165172 0.407193 0.355116
Si Si5 0.948620 0.469089 0.397847
Si Si6 0.391498 0.632349 0.389241
Si Si7 0.017956 0.192090 0.676939
O O1 0.174899 0.959735 0.009380
O O2 0.088758 0.963022 0.339814
O O3 0.143453 0.041307 0.223686
O O4 0.084754 0.995976 0.839338
O O5 0.533018 0.582824 0.764910
O O6 0.443191 0.605485 0.525597
O O7 0.518227 0.660643 0.390239
O O8 0.485769 0.665244 0.887569
O O9 0.727280 0.081722 0.095286
O O10 0.736879 0.995321 0.870419
O O11 0.151408 0.365813 0.129434
O O12 0.078282 0.317908 0.788335
O O13 0.134393 0.394513 0.631574
O O14 0.000000 0.500000 0.500000
O O15 0.005659 0.250000 0.667109
#
# Coordination Sequence:
#
# PCOD9462639 Si02
#       7
#     8   8   8   8   8   8   8
#     4  11  23  34  49  68 106 144 188 214 249 279
#     4  10  21  34  50  75 107 137 173 207 257 310
#     4  10  20  34  49  70  95 138 184 220 244 285
#     4  11  19  32  52  72 101 138 176 215 252 304
#     4  12  24  34  49  73 108 148 185 207 254 306
#     4  10  19  32  50  77 103 128 167 209 265 308
#     4  10  20  36  55  73 105 134 166 217 276 315
#
# _framework density 16.924665999999998
#
# number of rings (size 3 to 8) (size 9 to 14) (size 15 to 20)
#    0.857    0.571    1.429    6.857    2.000    0.000 
#    0.000    0.000    0.000    0.000    0.000    0.000 
#    0.000   22.857    0.000    0.000    0.000    0.000 
#
# Total GULP energy -312084.735540 kJ/mol
# GULP energy per Si atom -5572.941706 kJ/mol
# Density = 1.688615 g / cm^3
# Si number density = 16.924666 Si / 1000 Ang^3
#
#
#
# Elastic Constant Matrix: (Units=GPa)
#
#
# Indices 1 2 3 4 5 6 
#
# 1 75.7814 22.8358 28.2871 0.0000 0.0000 0.0000
# 2 22.8358 52.2558 19.2527 0.0000 0.0000 0.0000
# 3 28.2871 19.2527 114.2282 0.0000 0.0000 0.0000
# 4 0.0000 0.0000 0.0000 14.3094 0.0000 0.0000
# 5 0.0000 0.0000 0.0000 0.0000 26.4060 0.0000
# 6 0.0000 0.0000 0.0000 0.0000 0.0000 13.1109
#
#
#
# Elastic Compliance Matrix: (Units=1/GPa)
#
#
# Indices 1 2 3 4 5 6 
#
# 1 0.016099 -0.005935 -0.002986 0.000000 0.000000 0.000000
# 2 -0.005935 0.022592 -0.002338 0.000000 0.000000 0.000000
# 3 -0.002986 -0.002338 0.009888 0.000000 0.000000 0.000000
# 4 0.000000 0.000000 0.000000 0.069884 0.000000 0.000000
# 5 0.000000 0.000000 0.000000 0.000000 0.037870 0.000000
# 6 0.000000 0.000000 0.000000 0.000000 0.000000 0.076272
#
#
# Mechanical properties :
#
#
# Convention : Reuss Voigt Hill
#
# Bulk Modulus (GPa) = 38.37319 42.55742 40.46531
# Shear Modulus (GPa) = 18.95296 22.22456 20.58876
#
# Velocity S-wave (km/s) = 3.35004 3.62767 3.49161
# Velocity P-wave (km/s) = 6.13888 6.53807 6.34162
#
# Compressibility (1/GPa) = 0.02605986
#
# Stress axis : x y z
#
# Youngs Moduli (GPa) = 62.11553 44.26420 101.13256
#
# Poissons Ratio (x) = 0.26271 0.30202
# Poissons Ratio (y) = 0.36866 0.23645
# Poissons Ratio (z) = 0.18550 0.10349
#
# Static dielectric constant tensor:
#      x y z
#    x 1.609640 0.000000 0.000000 
#    y 0.000000 1.574690 0.000000 
#    z 0.000000 0.000000 1.614890 
# 
# From -- ./inp_files/2278.got.cif
#   From: 2010.05.17/outbox.cif.g08.bks.cpg/sg62_2_cif.got.tgz:2278.got - 2010.06.03 15:25:27.
