data_PCOD9462620
_publ_section_title
;
Structure prediction by ZEFSAII (Michael W. Deem and Ramdas Pophale) SiO2 
 PCOD9462620
Probable space group: P N M A
;
_chemical_formula_sum "Si O2"
_cell_formula_units_Z 64
_cell_length_a 8.145419
_cell_length_b 15.395941
_cell_length_c 24.904318
_cell_angle_alpha 90.000000
_cell_angle_beta 90.000000
_cell_angle_gamma 90.000000
_cell_volume 3123.160624
_symmetry_space_group_name_H-M "P N M A"
_symmetry_group_IT_number 62
_symmetry_cell_setting 'orthorhombic'
loop_
_space_group_symop_operation_xyz
x,y,z
1/2-x,-y,1/2+z
1/2+x,1/2-y,1/2-z
-x,1/2+y,-z
-x,-y,-z
1/2+x,y,1/2-z
1/2-x,1/2+y,1/2+z
x,1/2-y,z
loop_
_atom_site_type_symbol
_atom_site_label
_atom_site_fract_x
_atom_site_fract_y
_atom_site_fract_z
Si Si1 0.641950 0.151501 0.833959
Si Si2 0.460996 0.409472 0.030070
Si Si3 0.283922 0.478980 0.584463
Si Si4 0.258517 0.151258 0.394821
Si Si5 0.579926 0.845917 0.497143
Si Si6 0.008322 0.849471 0.226666
Si Si7 0.266918 0.343729 0.937264
Si Si8 0.135443 0.478555 0.855936
O O1 0.629418 0.250000 0.855361
O O2 0.663093 0.080037 0.879443
O O3 0.500310 0.135881 0.790388
O O4 0.810969 0.147710 0.799107
O O5 0.305588 0.433372 0.067541
O O6 0.601898 0.372121 0.067983
O O7 0.500000 0.500000 0.000000
O O8 0.411058 0.349669 0.980292
O O9 0.324535 0.423509 0.531232
O O10 0.455769 0.486580 0.615828
O O11 0.246667 0.250000 0.374610
O O12 0.404578 0.146915 0.439169
O O13 0.289632 0.074728 0.352398
O O14 0.647436 0.750000 0.482478
O O15 0.398557 0.849077 0.473031
O O16 0.947361 0.750000 0.217851
O O17 0.900102 0.921472 0.196508
O O18 0.266291 0.250000 0.909390
O O19 0.250316 0.422015 0.895686
#
# Coordination Sequence:
#
# PCOD9462620 Si02
#       8
#     8   8   8   8   8   8   8   8
#     4   9  18  33  52  79 109 138 169 204 254 313
#     4  12  21  33  46  70 106 140 173 215 261 303
#     4  10  19  32  52  73 102 139 174 209 251 307
#     4  11  22  35  49  71 102 136 174 219 262 303
#     4   9  17  30  49  71  97 134 174 207 243 295
#     4   9  18  33  53  79 111 137 165 207 255 311
#     4  10  19  32  50  72 101 136 173 211 251 300
#     4  10  19  34  54  76  98 135 180 215 253 307
#
# _framework density 20.492059999999999
#
# number of rings (size 3 to 8) (size 9 to 14) (size 15 to 20)
#    0.000    2.000    2.500    1.875    0.000    6.000 
#    0.000    0.625    0.000    0.000    0.000    8.750 
#    0.000    0.000    0.000    0.000    0.000    0.000 
#
# Total GULP energy -357424.049355 kJ/mol
# GULP energy per Si atom -5584.750771 kJ/mol
# Density = 2.044542 g / cm^3
# Si number density = 20.492060 Si / 1000 Ang^3
#
#
#
# Elastic Constant Matrix: (Units=GPa)
#
#
# Indices 1 2 3 4 5 6 
#
# 1 54.0563 18.9934 7.6426 0.0000 0.0000 0.0000
# 2 18.9934 110.5235 19.2709 0.0000 0.0000 0.0000
# 3 7.6426 19.2709 37.0437 0.0000 0.0000 0.0000
# 4 0.0000 0.0000 0.0000 24.9357 0.0000 0.0000
# 5 0.0000 0.0000 0.0000 0.0000 31.7993 0.0000
# 6 0.0000 0.0000 0.0000 0.0000 0.0000 15.3236
#
#
#
# Elastic Compliance Matrix: (Units=1/GPa)
#
#
# Indices 1 2 3 4 5 6 
#
# 1 0.019906 -0.002975 -0.002559 0.000000 0.000000 0.000000
# 2 -0.002975 0.010395 -0.004794 0.000000 0.000000 0.000000
# 3 -0.002559 -0.004794 0.030017 0.000000 0.000000 0.000000
# 4 0.000000 0.000000 0.000000 0.040103 0.000000 0.000000
# 5 0.000000 0.000000 0.000000 0.000000 0.031447 0.000000
# 6 0.000000 0.000000 0.000000 0.000000 0.000000 0.065259
#
#
# Mechanical properties :
#
#
# Convention : Reuss Voigt Hill
#
# Bulk Modulus (GPa) = 25.21290 32.60414 28.90852
# Shear Modulus (GPa) = 21.64462 24.79283 23.21872
#
# Velocity S-wave (km/s) = 3.25352 3.48210 3.36975
# Velocity P-wave (km/s) = 5.14240 5.66673 5.41092
#
# Compressibility (1/GPa) = 0.03966224
#
# Stress axis : x y z
#
# Youngs Moduli (GPa) = 50.23548 96.20096 33.31433
#
# Poissons Ratio (x) = 0.28616 0.08527
# Poissons Ratio (y) = 0.14943 0.15971
# Poissons Ratio (z) = 0.12858 0.46118
#
# Static dielectric constant tensor:
#      x y z
#    x 1.813370 0.000000 0.000000 
#    y 0.000000 1.744240 0.000000 
#    z 0.000000 0.000000 1.707390 
# 
# From -- ./inp_files/29000.got.cif
#   From: 2010.05.17/outbox.cif.g08.bks.cpg/sg62_15_cif.got.tgz:29000.got - 2010.06.03 15:25:27.
