data_PCOD9462771
_publ_section_title
;
Structure prediction by ZEFSAII (Michael W. Deem and Ramdas Pophale) SiO2 
 PCOD9462771
Probable space group: P N M A
;
_chemical_formula_sum "Si O2"
_cell_formula_units_Z 56
_cell_length_a 15.177743
_cell_length_b 7.833840
_cell_length_c 22.084719
_cell_angle_alpha 90.000000
_cell_angle_beta 90.000000
_cell_angle_gamma 90.000000
_cell_volume 2625.873315
_symmetry_space_group_name_H-M "P N M A"
_symmetry_group_IT_number 62
_symmetry_cell_setting 'orthorhombic'
loop_
_space_group_symop_operation_xyz
x,y,z
1/2-x,-y,1/2+z
1/2+x,1/2-y,1/2-z
-x,1/2+y,-z
-x,-y,-z
1/2+x,y,1/2-z
1/2-x,1/2+y,1/2+z
x,1/2-y,z
loop_
_atom_site_type_symbol
_atom_site_label
_atom_site_fract_x
_atom_site_fract_y
_atom_site_fract_z
Si Si1 0.703150 0.453720 0.881572
Si Si2 0.685208 0.553256 0.270013
Si Si3 0.522076 0.447093 0.345978
Si Si4 0.336182 0.550745 0.865434
Si Si5 0.510980 0.953493 0.929404
Si Si6 0.647731 0.959642 0.595838
Si Si7 0.369453 0.457316 0.540717
O O1 0.711044 0.250000 0.876838
O O2 0.742367 0.519750 0.817427
O O3 0.604014 0.492270 0.900663
O O4 0.772617 0.505054 0.933687
O O5 0.706892 0.750000 0.256823
O O6 0.591725 0.544705 0.304809
O O7 0.673122 0.461033 0.206593
O O8 0.520779 0.250000 0.325877
O O9 0.423004 0.514011 0.353735
O O10 0.562169 0.458830 0.413507
O O11 0.336365 0.750000 0.883148
O O12 0.426927 0.477172 0.891783
O O13 0.246069 0.477316 0.892279
O O14 0.510405 0.750000 0.925438
O O15 0.500000 0.000000 0.000000
O O16 0.647035 0.750000 0.597407
O O17 0.620425 0.010485 0.528342
O O18 0.377965 0.250000 0.544555
#
# Coordination Sequence:
#
# PCOD9462771 Si02
#       7
#     8   8   8   8   8   8   8
#     4   9  19  36  58  81 110 147 185 225 274 330
#     4  10  22  40  58  79 108 144 182 225 278 330
#     4  10  19  32  54  83 110 140 177 217 260 315
#     4  10  22  40  58  78 107 144 185 230 275 326
#     4  11  23  38  60  87 115 150 191 235 286 336
#     4   9  18  33  54  78 107 141 175 214 265 317
#     4   9  17  33  55  80 112 146 175 212 264 320
#
# _framework density 21.326239999999999
#
# number of rings (size 3 to 8) (size 9 to 14) (size 15 to 20)
#    0.000    2.286    0.000    3.429    0.000    7.429 
#    0.000    7.143    0.000    0.000    0.000    0.000 
#    0.000    0.000    0.000    0.000    0.000    0.000 
#
# Total GULP energy -312570.356229 kJ/mol
# GULP energy per Si atom -5581.613504 kJ/mol
# Density = 2.127770 g / cm^3
# Si number density = 21.326240 Si / 1000 Ang^3
#
#
#
# Elastic Constant Matrix: (Units=GPa)
#
#
# Indices 1 2 3 4 5 6 
#
# 1 103.3028 -4.1539 -1.5216 0.0000 0.0000 0.0000
# 2 -4.1539 22.1723 -14.5050 0.0000 0.0000 0.0000
# 3 -1.5216 -14.5050 50.0251 0.0000 0.0000 0.0000
# 4 0.0000 0.0000 0.0000 25.2254 0.0000 0.0000
# 5 0.0000 0.0000 0.0000 0.0000 11.8550 0.0000
# 6 0.0000 0.0000 0.0000 0.0000 0.0000 12.3043
#
#
#
# Elastic Compliance Matrix: (Units=1/GPa)
#
#
# Indices 1 2 3 4 5 6 
#
# 1 0.009796 0.002505 0.001024 0.000000 0.000000 0.000000
# 2 0.002505 0.056300 0.016401 0.000000 0.000000 0.000000
# 3 0.001024 0.016401 0.024777 0.000000 0.000000 0.000000
# 4 0.000000 0.000000 0.000000 0.039643 0.000000 0.000000
# 5 0.000000 0.000000 0.000000 0.000000 0.084353 0.000000
# 6 0.000000 0.000000 0.000000 0.000000 0.000000 0.081272
#
#
# Mechanical properties :
#
#
# Convention : Reuss Voigt Hill
#
# Bulk Modulus (GPa) = 7.64915 15.01546 11.33230
# Shear Modulus (GPa) = 16.67461 22.92231 19.79846
#
# Velocity S-wave (km/s) = 2.79925 3.28203 3.05021
# Velocity P-wave (km/s) = 3.74730 4.62801 4.21074
#
# Compressibility (1/GPa) = 0.13073355
#
# Stress axis : x y z
#
# Youngs Moduli (GPa) = 102.08125 17.76203 40.36074
#
# Poissons Ratio (x) = -0.04450 -0.04135
# Poissons Ratio (y) = -0.25576 -0.66194
# Poissons Ratio (z) = -0.10458 -0.29131
#
# Static dielectric constant tensor:
#      x y z
#    x 1.627500 0.000000 0.000000 
#    y 0.000000 1.767520 0.000000 
#    z 0.000000 0.000000 1.723180 
# 
# From -- ./inp_files/27306.got.cif
#   From: 2010.05.17/outbox.cif.g08.bks.cpg/sg62_14_cif.got.tgz:27306.got - 2010.06.03 15:25:27.
