data_PCOD9462003
_publ_section_title
;
Structure prediction by ZEFSAII (Michael W. Deem and Ramdas Pophale) SiO2 
 PCOD9462003
Probable space group: P N M A
;
_chemical_formula_sum "Si O2"
_cell_formula_units_Z 64
_cell_length_a 5.639233
_cell_length_b 17.076452
_cell_length_c 28.261786
_cell_angle_alpha 90.000000
_cell_angle_beta 90.000000
_cell_angle_gamma 90.000000
_cell_volume 2721.556058
_symmetry_space_group_name_H-M "P N M A"
_symmetry_group_IT_number 62
_symmetry_cell_setting 'orthorhombic'
loop_
_space_group_symop_operation_xyz
x,y,z
1/2-x,-y,1/2+z
1/2+x,1/2-y,1/2-z
-x,1/2+y,-z
-x,-y,-z
1/2+x,y,1/2-z
1/2-x,1/2+y,1/2+z
x,1/2-y,z
loop_
_atom_site_type_symbol
_atom_site_label
_atom_site_fract_x
_atom_site_fract_y
_atom_site_fract_z
Si Si1 0.678151 0.844444 0.996261
Si Si2 0.167334 0.436045 0.365583
Si Si3 0.026671 0.336567 0.090926
Si Si4 0.515861 0.864611 0.229368
Si Si5 0.210150 0.836245 0.688136
Si Si6 0.680641 0.655421 0.458164
Si Si7 0.634478 0.082250 0.864080
Si Si8 0.548451 0.486013 0.290279
O O1 0.668996 0.750000 0.002070
O O2 0.418190 0.871743 0.013008
O O3 0.919686 0.871230 0.023671
O O4 0.750792 0.858894 0.941635
O O5 0.324392 0.400637 0.407482
O O6 0.025088 0.511495 0.383193
O O7 0.320804 0.464796 0.321016
O O8 0.012559 0.367757 0.341370
O O9 0.943867 0.250000 0.074914
O O10 0.100097 0.330532 0.145585
O O11 0.265280 0.833799 0.250146
O O12 0.509855 0.862829 0.172560
O O13 0.505507 0.955362 0.247384
O O14 0.175582 0.750000 0.709430
O O15 0.307235 0.906206 0.720851
O O16 0.676203 0.750000 0.459770
O O17 0.731718 0.627171 0.405064
O O18 0.812207 0.037365 0.829209
#
# Coordination Sequence:
#
# PCOD9462003 Si02
#       8
#     8   8   8   8   8   8   8   8
#     4   9  20  37  58  83 114 153 196 236 285 350
#     4  10  18  32  53  83 113 148 194 233 286 341
#     4   9  18  32  54  81 112 153 200 243 282 332
#     4  10  19  34  58  85 105 143 189 231 270 338
#     4   9  18  31  53  82 114 151 194 244 287 329
#     4  10  22  39  60  85 115 151 191 240 295 349
#     4  10  21  35  59  83 112 147 195 237 288 353
#     4   9  19  34  54  82 112 147 191 234 283 345
#
# _framework density 23.515957
#
# number of rings (size 3 to 8) (size 9 to 14) (size 15 to 20)
#    0.000    2.500    1.250    0.375    3.500    0.500 
#    0.000    1.250    0.000   10.500    0.000    0.000 
#    0.000    0.000    0.000    0.000    0.000    0.000 
#
# Total GULP energy -357188.924383 kJ/mol
# GULP energy per Si atom -5581.076943 kJ/mol
# Density = 2.346243 g / cm^3
# Si number density = 23.515957 Si / 1000 Ang^3
#
#
#
# Elastic Constant Matrix: (Units=GPa)
#
#
# Indices 1 2 3 4 5 6 
#
# 1 106.5659 18.4697 14.7693 0.0000 0.0000 0.0000
# 2 18.4697 68.2562 17.8886 0.0000 0.0000 0.0000
# 3 14.7693 17.8886 66.8658 0.0000 0.0000 0.0000
# 4 0.0000 0.0000 0.0000 24.1043 0.0000 0.0000
# 5 0.0000 0.0000 0.0000 0.0000 25.0558 0.0000
# 6 0.0000 0.0000 0.0000 0.0000 0.0000 -156.6320
#
#
#
# Elastic Compliance Matrix: (Units=1/GPa)
#
#
# Indices 1 2 3 4 5 6 
#
# 1 0.010002 -0.002288 -0.001597 0.000000 0.000000 0.000000
# 2 -0.002288 0.016279 -0.003850 0.000000 0.000000 0.000000
# 3 -0.001597 -0.003850 0.016338 0.000000 0.000000 0.000000
# 4 0.000000 0.000000 0.000000 0.041486 0.000000 0.000000
# 5 0.000000 0.000000 0.000000 0.000000 0.039911 0.000000
# 6 0.000000 0.000000 0.000000 0.000000 0.000000 -0.006384
#
#
# Mechanical properties :
#
#
# Convention : Reuss Voigt Hill
#
# Bulk Modulus (GPa) = 36.83358 38.21589 37.52473
# Shear Modulus (GPa) = 35.17404 -8.79035 13.19185
#
# Velocity S-wave (km/s) = 3.87169 -1.93550 2.37106
# Velocity P-wave (km/s) = 5.97360 3.36028 4.84641
#
# Compressibility (1/GPa) = 0.02714914
#
# Stress axis : x y z
#
# Youngs Moduli (GPa) = 99.98262 61.43000 61.20695
#
# Poissons Ratio (x) = 0.14054 0.09775
# Poissons Ratio (y) = 0.22874 0.23563
# Poissons Ratio (z) = 0.15968 0.23649
#
# Static dielectric constant tensor:
#      x y z
#    x 2.014630 0.000000 0.000000 
#    y 0.000000 1.918680 0.000000 
#    z 0.000000 0.000000 1.882130 
# 
# From -- ./inp_files/31715.got.cif
#   From: 2010.05.17/outbox.cif.g08.bks.cpg/sg62_16_cif.got.tgz:31715.got - 2010.06.03 15:25:27.
