data_PCOD9462049
_publ_section_title
;
Structure prediction by ZEFSAII (Michael W. Deem and Ramdas Pophale) SiO2 
 PCOD9462049
Probable space group: P N M A
;
_chemical_formula_sum "Si O2"
_cell_formula_units_Z 48
_cell_length_a 20.082256
_cell_length_b 14.127271
_cell_length_c 8.120803
_cell_angle_alpha 90.000000
_cell_angle_beta 90.000000
_cell_angle_gamma 90.000000
_cell_volume 2303.932496
_symmetry_space_group_name_H-M "P N M A"
_symmetry_group_IT_number 62
_symmetry_cell_setting 'orthorhombic'
loop_
_space_group_symop_operation_xyz
x,y,z
1/2-x,-y,1/2+z
1/2+x,1/2-y,1/2-z
-x,1/2+y,-z
-x,-y,-z
1/2+x,y,1/2-z
1/2-x,1/2+y,1/2+z
x,1/2-y,z
loop_
_atom_site_type_symbol
_atom_site_label
_atom_site_fract_x
_atom_site_fract_y
_atom_site_fract_z
Si Si1 0.992291 0.359726 0.902509
Si Si2 0.856322 0.855941 0.743969
Si Si3 0.102931 0.007962 0.737275
Si Si4 0.786592 0.642745 0.412535
Si Si5 0.647240 0.551929 0.421367
Si Si6 0.495044 0.357193 0.196926
O O1 0.997167 0.250000 0.856863
O O2 0.920921 0.402947 0.853820
O O3 0.050414 0.421046 0.823014
O O4 0.996936 0.366119 0.102257
O O5 0.859938 0.750000 0.819885
O O6 0.798619 0.856563 0.608908
O O7 0.927591 0.869541 0.650973
O O8 0.847397 0.943010 0.865572
O O9 0.159651 0.068652 0.652677
O O10 0.057279 0.934532 0.635188
O O11 0.138419 0.948407 0.881969
O O12 0.798850 0.750000 0.353083
O O13 0.712537 0.608920 0.371447
O O14 0.475021 0.250000 0.155422
#
# Coordination Sequence:
#
# PCOD9462049 Si02
#       6
#     8   8   8   8   8   8
#     4  10  18  32  59  87 110 140 192 242 274 315
#     4  10  20  37  58  82 112 148 183 226 285 337
#     4  11  20  36  60  86 108 145 192 233 277 323
#     4  11  25  38  53  81 121 154 177 223 290 342
#     4  11  20  39  58  83 108 150 193 231 269 328
#     4   9  17  33  58  85 109 139 186 238 276 322
#
# _framework density 20.833943000000001
#
# number of rings (size 3 to 8) (size 9 to 14) (size 15 to 20)
#    0.000    1.667    3.333    3.000    0.000    2.000 
#    0.000    0.833    0.000    1.000    0.000    0.000 
#    0.000    0.000    0.000    0.000    0.000    0.000 
#
# Total GULP energy -268102.164311 kJ/mol
# GULP energy per Si atom -5585.461756 kJ/mol
# Density = 2.078652 g / cm^3
# Si number density = 20.833943 Si / 1000 Ang^3
#
#
#
# Elastic Constant Matrix: (Units=GPa)
#
#
# Indices 1 2 3 4 5 6 
#
# 1 104.9430 22.7234 5.7831 0.0000 0.0000 0.0000
# 2 22.7234 83.8854 -5.0526 0.0000 0.0000 0.0000
# 3 5.7831 -5.0526 3.2925 0.0000 0.0000 0.0000
# 4 0.0000 0.0000 0.0000 22.1785 0.0000 0.0000
# 5 0.0000 0.0000 0.0000 0.0000 21.7802 0.0000
# 6 0.0000 0.0000 0.0000 0.0000 0.0000 34.5670
#
#
#
# Elastic Compliance Matrix: (Units=1/GPa)
#
#
# Indices 1 2 3 4 5 6 
#
# 1 0.012244 -0.005082 -0.029305 0.000000 0.000000 0.000000
# 2 -0.005082 0.015244 0.032320 0.000000 0.000000 0.000000
# 3 -0.029305 0.032320 0.404788 0.000000 0.000000 0.000000
# 4 0.000000 0.000000 0.000000 0.045089 0.000000 0.000000
# 5 0.000000 0.000000 0.000000 0.000000 0.045913 0.000000
# 6 0.000000 0.000000 0.000000 0.000000 0.000000 0.028929
#
#
# Mechanical properties :
#
#
# Convention : Reuss Voigt Hill
#
# Bulk Modulus (GPa) = 2.33567 26.55874 14.44720
# Shear Modulus (GPa) = 7.15250 26.94960 17.05105
#
# Velocity S-wave (km/s) = 1.85487 3.60049 2.86392
# Velocity P-wave (km/s) = 2.38975 5.48272 4.22913
#
# Compressibility (1/GPa) = 0.42814270
#
# Stress axis : x y z
#
# Youngs Moduli (GPa) = 81.67074 65.59803 2.47043
#
# Poissons Ratio (x) = 0.33336 0.07240
# Poissons Ratio (y) = 0.41504 -0.07984
# Poissons Ratio (z) = 2.39335 -2.12011
#
# Static dielectric constant tensor:
#      x y z
#    x 1.735360 0.000000 0.000000 
#    y 0.000000 1.756930 0.000000 
#    z 0.000000 0.000000 1.773480 
# 
# From -- ./inp_files/7627.got.cif
#   From: 2010.05.17/outbox.cif.g08.bks.cpg/sg62_4_cif.got.tgz:7627.got - 2010.06.03 15:25:27.
