data_PCOD9462734
_publ_section_title
;
Structure prediction by ZEFSAII (Michael W. Deem and Ramdas Pophale) SiO2 
 PCOD9462734
Probable space group: P N M A
;
_chemical_formula_sum "Si O2"
_cell_formula_units_Z 48
_cell_length_a 6.976592
_cell_length_b 8.253443
_cell_length_c 33.787261
_cell_angle_alpha 90.000000
_cell_angle_beta 90.000000
_cell_angle_gamma 90.000000
_cell_volume 1945.501046
_symmetry_space_group_name_H-M "P N M A"
_symmetry_group_IT_number 62
_symmetry_cell_setting 'orthorhombic'
loop_
_space_group_symop_operation_xyz
x,y,z
1/2-x,-y,1/2+z
1/2+x,1/2-y,1/2-z
-x,1/2+y,-z
-x,-y,-z
1/2+x,y,1/2-z
1/2-x,1/2+y,1/2+z
x,1/2-y,z
loop_
_atom_site_type_symbol
_atom_site_label
_atom_site_fract_x
_atom_site_fract_y
_atom_site_fract_z
Si Si1 0.217739 0.444276 0.509331
Si Si2 0.719163 0.925530 0.820889
Si Si3 0.131255 0.437897 0.594972
Si Si4 0.180355 0.434345 0.927554
Si Si5 0.851128 0.074616 0.153083
Si Si6 0.225704 0.750000 0.217959
Si Si7 0.785682 0.750000 0.191387
O O1 0.773071 0.750000 0.492976
O O2 0.247404 0.488674 0.555416
O O3 0.338744 0.517852 0.473283
O O4 0.000000 0.500000 0.500000
O O5 0.652463 0.750000 0.805946
O O6 0.950885 0.919385 0.822970
O O7 0.658301 0.955870 0.866263
O O8 0.672004 0.084499 0.795595
O O9 0.178929 0.250000 0.604768
O O10 0.909041 0.440810 0.581833
O O11 0.115382 0.250000 0.921943
O O12 0.097944 0.545081 0.892885
O O13 0.755132 0.250000 0.157197
O O14 0.740551 0.914751 0.167778
O O15 0.203163 0.750000 0.264835
O O16 0.017016 0.750000 0.197289
#
# Coordination Sequence:
#
# PCOD9462734 Si02
#       7
#     8   8   8   8   8   4   4
#     4   9  17  29  46  73 109 146 183 231 279 319
#     4  10  21  37  59  82 109 148 183 219 276 331
#     4   9  18  32  52  78 110 145 186 231 273 323
#     4  10  19  32  53  80 109 146 188 230 278 324
#     4  10  21  38  58  82 111 145 184 222 271 333
#     4  10  22  40  60  82 116 140 180 228 274 330
#     4  10  22  40  60  84 110 148 174 226 280 328
#
# _framework density 24.672305999999999
#
# number of rings (size 3 to 8) (size 9 to 14) (size 15 to 20)
#    0.000    2.333    1.667    2.000    0.000    6.000 
#    0.000    0.833    0.000    0.000    0.000    0.000 
#    0.000    0.000    0.000    0.000    0.000    0.000 
#
# Total GULP energy -268513.631597 kJ/mol
# GULP energy per Si atom -5594.033992 kJ/mol
# Density = 2.461615 g / cm^3
# Si number density = 24.672306 Si / 1000 Ang^3
#
#
#
# Elastic Constant Matrix: (Units=GPa)
#
#
# Indices 1 2 3 4 5 6 
#
# 1 66.3410 12.8659 3.6882 0.0000 0.0000 0.0000
# 2 12.8659 204.1035 81.1752 0.0000 0.0000 0.0000
# 3 3.6882 81.1752 125.5792 0.0000 0.0000 0.0000
# 4 0.0000 0.0000 0.0000 26.9815 0.0000 0.0000
# 5 0.0000 0.0000 0.0000 0.0000 29.6990 0.0000
# 6 0.0000 0.0000 0.0000 0.0000 0.0000 5.8148
#
#
#
# Elastic Compliance Matrix: (Units=1/GPa)
#
#
# Indices 1 2 3 4 5 6 
#
# 1 0.015265 -0.001055 0.000234 0.000000 0.000000 0.000000
# 2 -0.001055 0.006668 -0.004279 0.000000 0.000000 0.000000
# 3 0.000234 -0.004279 0.010722 0.000000 0.000000 0.000000
# 4 0.000000 0.000000 0.000000 0.037062 0.000000 0.000000
# 5 0.000000 0.000000 0.000000 0.000000 0.033671 0.000000
# 6 0.000000 0.000000 0.000000 0.000000 0.000000 0.171976
#
#
# Mechanical properties :
#
#
# Convention : Reuss Voigt Hill
#
# Bulk Modulus (GPa) = 44.53506 65.72026 55.12766
# Shear Modulus (GPa) = 17.06187 32.38533 24.72360
#
# Velocity S-wave (km/s) = 2.63257 3.62694 3.16900
# Velocity P-wave (km/s) = 5.22784 6.65091 5.98185
#
# Compressibility (1/GPa) = 0.02245422
#
# Stress axis : x y z
#
# Youngs Moduli (GPa) = 65.50811 149.97252 93.26336
#
# Poissons Ratio (x) = 0.15826 -0.02180
# Poissons Ratio (y) = 0.06913 0.39909
# Poissons Ratio (z) = -0.01531 0.64176
#
# Static dielectric constant tensor:
#      x y z
#    x 1.962660 0.000000 0.000000 
#    y 0.000000 1.925260 0.000000 
#    z 0.000000 0.000000 1.884030 
# 
# From -- ./inp_files/32070.got.cif
#   From: 2010.05.17/outbox.cif.g08.bks.cpg/sg62_17_cif.got.tgz:32070.got - 2010.06.03 15:25:27.
