data_PCOD9462710
_publ_section_title
;
Structure prediction by ZEFSAII (Michael W. Deem and Ramdas Pophale) SiO2 
 PCOD9462710
Probable space group: P N M A
;
_chemical_formula_sum "Si O2"
_cell_formula_units_Z 64
_cell_length_a 10.393951
_cell_length_b 10.933072
_cell_length_c 28.660149
_cell_angle_alpha 90.000000
_cell_angle_beta 90.000000
_cell_angle_gamma 90.000000
_cell_volume 3256.876700
_symmetry_space_group_name_H-M "P N M A"
_symmetry_group_IT_number 62
_symmetry_cell_setting 'orthorhombic'
loop_
_space_group_symop_operation_xyz
x,y,z
1/2-x,-y,1/2+z
1/2+x,1/2-y,1/2-z
-x,1/2+y,-z
-x,-y,-z
1/2+x,y,1/2-z
1/2-x,1/2+y,1/2+z
x,1/2-y,z
loop_
_atom_site_type_symbol
_atom_site_label
_atom_site_fract_x
_atom_site_fract_y
_atom_site_fract_z
Si Si1 0.694946 0.387273 0.362721
Si Si2 0.581629 0.386318 0.767551
Si Si3 0.341766 0.537922 0.739903
Si Si4 0.591050 0.109169 0.978418
Si Si5 0.448142 0.547074 0.126478
Si Si6 0.679680 0.389297 0.156932
Si Si7 0.927911 0.392469 0.113615
Si Si8 0.612059 0.605609 0.506628
O O1 0.715711 0.250000 0.380280
O O2 0.661833 0.386940 0.307688
O O3 0.822904 0.461758 0.370953
O O4 0.569672 0.448302 0.385928
O O5 0.603728 0.250000 0.750922
O O6 0.461550 0.446298 0.741423
O O7 0.708331 0.465284 0.759766
O O8 0.553309 0.384881 0.823454
O O9 0.352461 0.609624 0.788389
O O10 0.569604 0.250000 0.996757
O O11 0.745020 0.081376 0.985338
O O12 0.560801 0.112559 0.923026
O O13 0.500000 0.000000 0.000000
O O14 0.576280 0.466294 0.129015
O O15 0.679069 0.250000 0.140035
O O16 0.822151 0.442244 0.148840
O O17 0.950668 0.250000 0.126856
O O18 0.869973 0.395568 0.062415
O O19 0.500000 0.500000 0.500000
O O20 0.575646 0.750000 0.494524
#
# Coordination Sequence:
#
# PCOD9462710 Si02
#       8
#     8   8   8   8   8   8   8   8
#     4  10  19  32  52  80 112 141 176 222 272 333
#     4  10  20  35  52  71 101 139 183 228 273 327
#     4  10  20  32  51  77 103 139 180 222 272 325
#     4  11  24  41  62  88 119 153 196 247 298 355
#     4  10  21  35  54  79 107 144 185 227 280 337
#     4  10  19  33  53  78 111 144 178 223 274 333
#     4   9  18  32  51  74 103 139 173 213 269 329
#     4  10  21  38  60  85 113 147 188 236 289 347
#
# _framework density 19.650728000000001
#
# number of rings (size 3 to 8) (size 9 to 14) (size 15 to 20)
#    0.000    2.000    0.000    3.750    0.000    2.500 
#    0.000    3.750    0.000    5.250    0.000    0.000 
#    0.000    0.000    0.000    0.000    0.000    0.000 
#
# Total GULP energy -356491.708011 kJ/mol
# GULP energy per Si atom -5570.182938 kJ/mol
# Density = 1.960600 g / cm^3
# Si number density = 19.650728 Si / 1000 Ang^3
#
#
#
# Elastic Constant Matrix: (Units=GPa)
#
#
# Indices 1 2 3 4 5 6 
#
# 1 117.7443 59.5153 -5.8052 0.0000 0.0000 0.0000
# 2 59.5153 104.5386 3.0617 0.0000 0.0000 0.0000
# 3 -5.8052 3.0617 54.8151 0.0000 0.0000 0.0000
# 4 0.0000 0.0000 0.0000 11.8462 0.0000 0.0000
# 5 0.0000 0.0000 0.0000 0.0000 31.6897 0.0000
# 6 0.0000 0.0000 0.0000 0.0000 0.0000 25.3847
#
#
#
# Elastic Compliance Matrix: (Units=1/GPa)
#
#
# Indices 1 2 3 4 5 6 
#
# 1 0.012074 -0.006923 0.001665 0.000000 0.000000 0.000000
# 2 -0.006923 0.013551 -0.001490 0.000000 0.000000 0.000000
# 3 0.001665 -0.001490 0.018503 0.000000 0.000000 0.000000
# 4 0.000000 0.000000 0.000000 0.084415 0.000000 0.000000
# 5 0.000000 0.000000 0.000000 0.000000 0.031556 0.000000
# 6 0.000000 0.000000 0.000000 0.000000 0.000000 0.039394
#
#
# Mechanical properties :
#
#
# Convention : Reuss Voigt Hill
#
# Bulk Modulus (GPa) = 32.64470 43.40464 38.02467
# Shear Modulus (GPa) = 22.40154 28.47253 25.43704
#
# Velocity S-wave (km/s) = 3.38003 3.81061 3.60176
# Velocity P-wave (km/s) = 5.64636 6.44182 6.05716
#
# Compressibility (1/GPa) = 0.03063284
#
# Stress axis : x y z
#
# Youngs Moduli (GPa) = 82.82020 73.79651 54.04602
#
# Poissons Ratio (x) = 0.51088 -0.09001
# Poissons Ratio (y) = 0.57335 0.08053
# Poissons Ratio (z) = -0.13793 0.10996
#
# Static dielectric constant tensor:
#      x y z
#    x 1.698620 0.000000 0.000000 
#    y 0.000000 1.705090 0.000000 
#    z 0.000000 0.000000 1.704800 
# 
# From -- ./inp_files/32258.got.cif
#   From: 2010.05.17/outbox.cif.g08.bks.cpg/sg62_17_cif.got.tgz:32258.got - 2010.06.03 15:25:27.
