data_PCOD9462068
_publ_section_title
;
Structure prediction by ZEFSAII (Michael W. Deem and Ramdas Pophale) SiO2 
 PCOD9462068
Probable space group: P N M A
;
_chemical_formula_sum "Si O2"
_cell_formula_units_Z 56
_cell_length_a 10.934387
_cell_length_b 23.385931
_cell_length_c 9.769307
_cell_angle_alpha 90.000000
_cell_angle_beta 90.000000
_cell_angle_gamma 90.000000
_cell_volume 2498.117503
_symmetry_space_group_name_H-M "P N M A"
_symmetry_group_IT_number 62
_symmetry_cell_setting 'orthorhombic'
loop_
_space_group_symop_operation_xyz
x,y,z
1/2-x,-y,1/2+z
1/2+x,1/2-y,1/2-z
-x,1/2+y,-z
-x,-y,-z
1/2+x,y,1/2-z
1/2-x,1/2+y,1/2+z
x,1/2-y,z
loop_
_atom_site_type_symbol
_atom_site_label
_atom_site_fract_x
_atom_site_fract_y
_atom_site_fract_z
Si Si1 0.551063 0.443861 0.331679
Si Si2 0.367070 0.542884 0.956208
Si Si3 0.350329 0.370736 0.431213
Si Si4 0.842577 0.250000 0.095670
Si Si5 0.542605 0.062933 0.739657
Si Si6 0.193001 0.913796 0.358792
Si Si7 0.758384 0.135234 0.374886
Si Si8 0.377243 0.750000 0.686974
O O1 0.549722 0.432069 0.167434
O O2 0.477451 0.402665 0.430821
O O3 0.492773 0.505954 0.343503
O O4 0.689754 0.426684 0.363988
O O5 0.254320 0.585841 0.973147
O O6 0.321342 0.481284 0.900821
O O7 0.429745 0.542105 0.103530
O O8 0.346146 0.307953 0.491293
O O9 0.329217 0.359376 0.267214
O O10 0.710743 0.250000 0.176414
O O11 0.973175 0.250000 0.183540
O O12 0.414992 0.096764 0.749948
O O13 0.667213 0.091749 0.690131
O O14 0.169209 0.872064 0.485810
O O15 0.668715 0.190295 0.380654
#
# Coordination Sequence:
#
# PCOD9462068 Si02
#       8
#     8   8   8   4   8   8   8   4
#     4  10  18  33  54  82 117 156 187 233 291 354
#     4  10  21  34  56  80 121 159 192 237 292 355
#     4  10  18  34  55  85 120 150 194 237 295 348
#     4  10  20  34  56  91 119 152 192 243 302 355
#     4  11  23  38  55  85 120 155 198 238 288 352
#     4  11  23  38  58  82 117 156 200 238 291 354
#     4  10  21  34  59  83 116 156 193 239 296 352
#     4  10  20  38  58  87 123 152 194 247 300 357
#
# _framework density 22.416881
#
# number of rings (size 3 to 8) (size 9 to 14) (size 15 to 20)
#    0.000    1.714    2.857    3.429    4.000    1.714 
#    0.000    0.000    0.000    1.714    0.000    0.000 
#    0.000    0.000    0.000    0.000    0.000    0.000 
#
# Total GULP energy -312247.236779 kJ/mol
# GULP energy per Si atom -5575.843514 kJ/mol
# Density = 2.236586 g / cm^3
# Si number density = 22.416881 Si / 1000 Ang^3
#
#
#
# Elastic Constant Matrix: (Units=GPa)
#
#
# Indices 1 2 3 4 5 6 
#
# 1 92.0560 17.0715 9.7311 0.0000 0.0000 0.0000
# 2 17.0715 58.8315 5.6059 0.0000 0.0000 0.0000
# 3 9.7311 5.6059 58.5556 0.0000 0.0000 0.0000
# 4 0.0000 0.0000 0.0000 16.4180 0.0000 0.0000
# 5 0.0000 0.0000 0.0000 0.0000 30.4937 0.0000
# 6 0.0000 0.0000 0.0000 0.0000 0.0000 29.4211
#
#
#
# Elastic Compliance Matrix: (Units=1/GPa)
#
#
# Indices 1 2 3 4 5 6 
#
# 1 0.011632 -0.003220 -0.001625 0.000000 0.000000 0.000000
# 2 -0.003220 0.018046 -0.001192 0.000000 0.000000 0.000000
# 3 -0.001625 -0.001192 0.017462 0.000000 0.000000 0.000000
# 4 0.000000 0.000000 0.000000 0.060909 0.000000 0.000000
# 5 0.000000 0.000000 0.000000 0.000000 0.032794 0.000000
# 6 0.000000 0.000000 0.000000 0.000000 0.000000 0.033989
#
#
# Mechanical properties :
#
#
# Convention : Reuss Voigt Hill
#
# Bulk Modulus (GPa) = 28.51900 30.47336 29.49618
# Shear Modulus (GPa) = 25.17689 27.06886 26.12287
#
# Velocity S-wave (km/s) = 3.35494 3.47871 3.41738
# Velocity P-wave (km/s) = 5.26851 5.45515 5.36264
#
# Compressibility (1/GPa) = 0.03506434
#
# Stress axis : x y z
#
# Youngs Moduli (GPa) = 85.97019 55.41441 57.26738
#
# Poissons Ratio (x) = 0.17846 0.09304
# Poissons Ratio (y) = 0.27687 0.06829
# Poissons Ratio (z) = 0.13968 0.06608
#
# Static dielectric constant tensor:
#      x y z
#    x 1.916690 0.000000 0.000000 
#    y 0.000000 1.868450 0.000000 
#    z 0.000000 0.000000 1.928920 
# 
# From -- ./inp_files/12583.got.cif
#   From: 2010.05.17/outbox.cif.g08.bks.cpg/sg62_7_cif.got.tgz:12583.got - 2010.06.03 15:25:27.
