data_PCOD9462319
_publ_section_title
;
Structure prediction by ZEFSAII (Michael W. Deem and Ramdas Pophale) SiO2 
 PCOD9462319
Probable space group: P N M A
;
_chemical_formula_sum "Si O2"
_cell_formula_units_Z 56
_cell_length_a 9.384021
_cell_length_b 15.488065
_cell_length_c 23.346848
_cell_angle_alpha 90.000000
_cell_angle_beta 90.000000
_cell_angle_gamma 90.000000
_cell_volume 3393.238528
_symmetry_space_group_name_H-M "P N M A"
_symmetry_group_IT_number 62
_symmetry_cell_setting 'orthorhombic'
loop_
_space_group_symop_operation_xyz
x,y,z
1/2-x,-y,1/2+z
1/2+x,1/2-y,1/2-z
-x,1/2+y,-z
-x,-y,-z
1/2+x,y,1/2-z
1/2-x,1/2+y,1/2+z
x,1/2-y,z
loop_
_atom_site_type_symbol
_atom_site_label
_atom_site_fract_x
_atom_site_fract_y
_atom_site_fract_z
Si Si1 0.291364 0.928147 0.001615
Si Si2 0.473719 0.350314 0.186171
Si Si3 0.189569 0.851229 0.803236
Si Si4 0.133674 0.341277 0.043676
Si Si5 0.569874 0.974869 0.598258
Si Si6 0.458506 0.153588 0.572844
Si Si7 0.570080 0.591312 0.938004
O O1 0.192622 0.870806 0.043025
O O2 0.375120 0.999142 0.038829
O O3 0.183332 0.970046 0.954575
O O4 0.417461 0.884015 0.964981
O O5 0.445610 0.250000 0.170565
O O6 0.640248 0.357995 0.200611
O O7 0.381466 0.369985 0.242034
O O8 0.440371 0.406032 0.130348
O O9 0.156608 0.750000 0.817942
O O10 0.134263 0.919673 0.849819
O O11 0.088521 0.250000 0.070826
O O12 0.302432 0.347102 0.042750
O O13 0.067843 0.421634 0.077006
O O14 0.066930 0.343169 0.980816
O O15 0.517385 0.072550 0.609281
O O16 0.453139 0.250000 0.598558
#
# Coordination Sequence:
#
# PCOD9462319 Si02
#       7
#     8   8   8   8   8   8   8
#     4  10  20  33  53  77 111 145 181 222 268 327
#     4  10  22  36  51  79 112 145 183 215 260 330
#     4  10  22  37  54  77 110 147 182 220 263 318
#     4  10  19  29  49  76 104 141 177 208 261 323
#     4  11  18  37  52  74 107 146 182 224 266 322
#     4  10  20  34  51  75 105 141 181 220 266 320
#     4  11  19  33  52  78 112 146 180 222 266 318
#
# _framework density 16.503409000000001
#
# number of rings (size 3 to 8) (size 9 to 14) (size 15 to 20)
#    0.000    1.714    4.286    1.714    2.000    1.714 
#    0.000    0.000    0.000    0.000    0.000    4.000 
#    0.000    0.000    0.000    0.000    0.000    0.000 
#
# Total GULP energy -312038.735902 kJ/mol
# GULP energy per Si atom -5572.120284 kJ/mol
# Density = 1.646585 g / cm^3
# Si number density = 16.503409 Si / 1000 Ang^3
#
#
#
# Elastic Constant Matrix: (Units=GPa)
#
#
# Indices 1 2 3 4 5 6 
#
# 1 92.6210 30.3143 27.5932 0.0000 0.0000 0.0000
# 2 30.3143 100.0099 39.8679 0.0000 0.0000 0.0000
# 3 27.5932 39.8679 74.5035 0.0000 0.0000 0.0000
# 4 0.0000 0.0000 0.0000 18.6452 0.0000 0.0000
# 5 0.0000 0.0000 0.0000 0.0000 23.5859 0.0000
# 6 0.0000 0.0000 0.0000 0.0000 0.0000 15.5556
#
#
#
# Elastic Compliance Matrix: (Units=1/GPa)
#
#
# Indices 1 2 3 4 5 6 
#
# 1 0.012606 -0.002491 -0.003336 0.000000 0.000000 0.000000
# 2 -0.002491 0.013203 -0.006142 0.000000 0.000000 0.000000
# 3 -0.003336 -0.006142 0.017944 0.000000 0.000000 0.000000
# 4 0.000000 0.000000 0.000000 0.053633 0.000000 0.000000
# 5 0.000000 0.000000 0.000000 0.000000 0.042398 0.000000
# 6 0.000000 0.000000 0.000000 0.000000 0.000000 0.064286
#
#
# Mechanical properties :
#
#
# Convention : Reuss Voigt Hill
#
# Bulk Modulus (GPa) = 50.46784 51.40945 50.93864
# Shear Modulus (GPa) = 21.31169 22.84794 22.07981
#
# Velocity S-wave (km/s) = 3.59744 3.72484 3.66169
# Velocity P-wave (km/s) = 6.92113 7.05108 6.98640
#
# Compressibility (1/GPa) = 0.01981460
#
# Stress axis : x y z
#
# Youngs Moduli (GPa) = 79.32869 75.74202 55.72777
#
# Poissons Ratio (x) = 0.18869 0.18588
# Poissons Ratio (y) = 0.19763 0.34230
# Poissons Ratio (z) = 0.26461 0.46523
#
# Static dielectric constant tensor:
#      x y z
#    x 1.572350 0.000000 0.000000 
#    y 0.000000 1.601610 0.000000 
#    z 0.000000 0.000000 1.534000 
# 
# From -- ./inp_files/26029.got.cif
#   From: 2010.05.17/outbox.cif.g08.bks.cpg/sg62_14_cif.got.tgz:26029.got - 2010.06.03 15:25:27.
