data_PCOD9462018
_publ_section_title
;
Structure prediction by ZEFSAII (Michael W. Deem and Ramdas Pophale) SiO2 
 PCOD9462018
Probable space group: P N M A
;
_chemical_formula_sum "Si O2"
_cell_formula_units_Z 64
_cell_length_a 20.123316
_cell_length_b 7.473635
_cell_length_c 21.085597
_cell_angle_alpha 90.000000
_cell_angle_beta 90.000000
_cell_angle_gamma 90.000000
_cell_volume 3171.153997
_symmetry_space_group_name_H-M "P N M A"
_symmetry_group_IT_number 62
_symmetry_cell_setting 'orthorhombic'
loop_
_space_group_symop_operation_xyz
x,y,z
1/2-x,-y,1/2+z
1/2+x,1/2-y,1/2-z
-x,1/2+y,-z
-x,-y,-z
1/2+x,y,1/2-z
1/2-x,1/2+y,1/2+z
x,1/2-y,z
loop_
_atom_site_type_symbol
_atom_site_label
_atom_site_fract_x
_atom_site_fract_y
_atom_site_fract_z
Si Si1 0.076273 0.466048 0.739219
Si Si2 0.444698 0.046173 0.595575
Si Si3 0.069346 0.459020 0.241493
Si Si4 0.700642 0.970901 0.429164
Si Si5 0.733298 0.957551 0.563772
Si Si6 0.588513 0.032600 0.613921
Si Si7 0.789497 0.539069 0.312808
Si Si8 0.202028 0.466533 0.309014
O O1 0.078024 0.250000 0.739165
O O2 0.089292 0.522748 0.812113
O O3 0.135801 0.532693 0.694857
O O4 0.001362 0.521435 0.724256
O O5 0.447298 0.250000 0.572409
O O6 0.376008 0.965714 0.570634
O O7 0.518259 0.968398 0.584693
O O8 0.436153 0.048718 0.672433
O O9 0.081129 0.250000 0.228276
O O10 0.130482 0.527132 0.283279
O O11 0.697683 0.750000 0.428109
O O12 0.737485 0.030801 0.492896
O O13 0.740497 0.031806 0.366996
O O14 0.752766 0.750000 0.559337
O O15 0.774535 0.035488 0.622533
O O16 0.655423 0.967400 0.581765
O O17 0.588311 0.250000 0.612177
O O18 0.795521 0.750000 0.326073
O O19 0.754878 0.517424 0.244729
O O20 0.201058 0.250000 0.312138
#
# Coordination Sequence:
#
# PCOD9462018 Si02
#       8
#     8   8   8   8   8   8   8   8
#     4   9  18  31  49  74  98 122 159 205 246 283
#     4   9  17  31  49  68  95 128 164 203 235 274
#     4  10  19  30  47  72  99 128 160 195 244 293
#     4   9  18  32  51  72  94 128 168 201 239 285
#     4  10  20  33  48  69  99 132 163 196 239 293
#     4   9  17  29  45  69  98 127 160 197 237 280
#     4  10  18  32  55  75  93 124 166 206 243 282
#     4  10  20  32  48  73 102 129 160 199 243 291
#
# _framework density 20.181926000000001
#
# number of rings (size 3 to 8) (size 9 to 14) (size 15 to 20)
#    0.000    2.500    2.500    1.125    0.000    3.500 
#    0.000    1.250    0.000    0.750    0.000    0.000 
#    0.000    0.000    0.000    0.000    0.000    0.125 
#
# Total GULP energy -357114.205757 kJ/mol
# GULP energy per Si atom -5579.909465 kJ/mol
# Density = 2.013599 g / cm^3
# Si number density = 20.181926 Si / 1000 Ang^3
#
#
#
# Elastic Constant Matrix: (Units=GPa)
#
#
# Indices 1 2 3 4 5 6 
#
# 1 72.1034 -10.1800 -8.3692 0.0000 0.0000 0.0000
# 2 -10.1800 55.4040 -3.4866 0.0000 0.0000 0.0000
# 3 -8.3692 -3.4866 26.2058 0.0000 0.0000 0.0000
# 4 0.0000 0.0000 0.0000 3.5171 0.0000 0.0000
# 5 0.0000 0.0000 0.0000 0.0000 19.1852 0.0000
# 6 0.0000 0.0000 0.0000 0.0000 0.0000 0.2510
#
#
#
# Elastic Compliance Matrix: (Units=1/GPa)
#
#
# Indices 1 2 3 4 5 6 
#
# 1 0.014901 0.003063 0.005166 0.000000 0.000000 0.000000
# 2 0.003063 0.018831 0.003484 0.000000 0.000000 0.000000
# 3 0.005166 0.003484 0.040273 0.000000 0.000000 0.000000
# 4 0.000000 0.000000 0.000000 0.284326 0.000000 0.000000
# 5 0.000000 0.000000 0.000000 0.000000 0.052124 0.000000
# 6 0.000000 0.000000 0.000000 0.000000 0.000000 3.983705
#
#
# Mechanical properties :
#
#
# Convention : Reuss Voigt Hill
#
# Bulk Modulus (GPa) = 10.26360 12.18240 11.22300
# Shear Modulus (GPa) = 1.13554 16.30725 8.72139
#
# Velocity S-wave (km/s) = 0.75091 2.84564 2.08105
# Velocity P-wave (km/s) = 2.41835 4.10442 3.36858
#
# Compressibility (1/GPa) = 0.09743170
#
# Stress axis : x y z
#
# Youngs Moduli (GPa) = 67.10908 53.10313 24.83054
#
# Poissons Ratio (x) = -0.16266 -0.12828
# Poissons Ratio (y) = -0.20556 -0.08650
# Poissons Ratio (z) = -0.34671 -0.18499
#
# Static dielectric constant tensor:
#      x y z
#    x 1.729120 0.000000 0.000000 
#    y 0.000000 1.747970 0.000000 
#    z 0.000000 0.000000 1.711250 
# 
# From -- ./inp_files/27961.got.cif
#   From: 2010.05.17/outbox.cif.g08.bks.cpg/sg62_14_cif.got.tgz:27961.got - 2010.06.03 15:25:27.
