data_PCOD9462952
_publ_section_title
;
Structure prediction by ZEFSAII (Michael W. Deem and Ramdas Pophale) SiO2 
 PCOD9462952
Probable space group: P N M A
;
_chemical_formula_sum "Si O2"
_cell_formula_units_Z 48
_cell_length_a 9.660964
_cell_length_b 8.622986
_cell_length_c 31.603532
_cell_angle_alpha 90.000000
_cell_angle_beta 90.000000
_cell_angle_gamma 90.000000
_cell_volume 2632.775129
_symmetry_space_group_name_H-M "P N M A"
_symmetry_group_IT_number 62
_symmetry_cell_setting 'orthorhombic'
loop_
_space_group_symop_operation_xyz
x,y,z
1/2-x,-y,1/2+z
1/2+x,1/2-y,1/2-z
-x,1/2+y,-z
-x,-y,-z
1/2+x,y,1/2-z
1/2-x,1/2+y,1/2+z
x,1/2-y,z
loop_
_atom_site_type_symbol
_atom_site_label
_atom_site_fract_x
_atom_site_fract_y
_atom_site_fract_z
Si Si1 0.408439 0.564252 0.132690
Si Si2 0.904133 0.564546 0.963253
Si Si3 0.401211 0.562498 0.632513
Si Si4 0.091387 0.939117 0.789614
Si Si5 0.410763 0.937683 0.791360
Si Si6 0.403150 0.564396 0.036514
O O1 0.407726 0.750000 0.135518
O O2 0.252357 0.503289 0.140640
O O3 0.514197 0.495642 0.166473
O O4 0.446523 0.519650 0.084373
O O5 0.904169 0.750000 0.964987
O O6 0.945025 0.518137 0.915211
O O7 0.750024 0.501655 0.969630
O O8 0.000000 0.500000 0.000000
O O9 0.391222 0.750000 0.634137
O O10 0.510331 0.512347 0.668021
O O11 0.093149 0.750000 0.789387
O O12 0.251094 0.990048 0.788151
O O13 0.002306 0.988398 0.748908
O O14 0.410291 0.750000 0.791586
O O15 0.399758 0.750000 0.034522
O O16 0.500000 0.500000 0.000000
#
# Coordination Sequence:
#
# PCOD9462952 Si02
#       6
#     8   8   8   8   8   8
#     4  10  21  36  53  77 108 139 172 214 265 317
#     4  10  20  34  54  80 111 146 181 220 267 319
#     4   9  18  35  57  79 104 138 179 218 259 311
#     4   9  18  33  55  81 104 132 177 223 259 302
#     4  10  19  33  55  79 104 137 175 217 261 308
#     4  10  21  37  56  78 106 140 179 224 272 323
#
# _framework density 18.231711000000001
#
# number of rings (size 3 to 8) (size 9 to 14) (size 15 to 20)
#    0.000    2.333    0.000    2.500    0.000    6.667 
#    0.000    5.833    0.000    0.000    0.000    0.000 
#    0.000    0.000    0.000    0.000    0.000    0.000 
#
# Total GULP energy -267894.551145 kJ/mol
# GULP energy per Si atom -5581.136482 kJ/mol
# Density = 1.819022 g / cm^3
# Si number density = 18.231711 Si / 1000 Ang^3
#
#
#
# Elastic Constant Matrix: (Units=GPa)
#
#
# Indices 1 2 3 4 5 6 
#
# 1 155.9342 33.0595 142.2474 0.0000 0.0000 0.0000
# 2 33.0595 23.4779 41.1794 0.0000 0.0000 0.0000
# 3 142.2474 41.1794 196.2191 0.0000 0.0000 0.0000
# 4 0.0000 0.0000 0.0000 28.0393 0.0000 0.0000
# 5 0.0000 0.0000 0.0000 0.0000 42.5575 0.0000
# 6 0.0000 0.0000 0.0000 0.0000 0.0000 23.2987
#
#
#
# Elastic Compliance Matrix: (Units=1/GPa)
#
#
# Indices 1 2 3 4 5 6 
#
# 1 0.019187 -0.004147 -0.013039 0.000000 0.000000 0.000000
# 2 -0.004147 0.068301 -0.011327 0.000000 0.000000 0.000000
# 3 -0.013039 -0.011327 0.016926 0.000000 0.000000 0.000000
# 4 0.000000 0.000000 0.000000 0.035664 0.000000 0.000000
# 5 0.000000 0.000000 0.000000 0.000000 0.023498 0.000000
# 6 0.000000 0.000000 0.000000 0.000000 0.000000 0.042921
#
#
# Mechanical properties :
#
#
# Convention : Reuss Voigt Hill
#
# Bulk Modulus (GPa) = 21.10301 89.84487 55.47394
# Shear Modulus (GPa) = 17.90069 29.38874 23.64472
#
# Velocity S-wave (km/s) = 3.13684 4.01927 3.60516
# Velocity P-wave (km/s) = 4.97189 8.42175 6.91540
#
# Compressibility (1/GPa) = 0.04738661
#
# Stress axis : x y z
#
# Youngs Moduli (GPa) = 52.11989 14.64105 59.08102
#
# Poissons Ratio (x) = 0.06072 0.77034
# Poissons Ratio (y) = 0.21616 0.66924
# Poissons Ratio (z) = 0.67958 0.16585
#
# Static dielectric constant tensor:
#      x y z
#    x 1.584670 0.000000 0.000000 
#    y 0.000000 1.615520 0.000000 
#    z 0.000000 0.000000 1.629920 
# 
# From -- ./inp_files/31912.got.cif
#   From: 2010.05.17/outbox.cif.g08.bks.cpg/sg62_16_cif.got.tgz:31912.got - 2010.06.03 15:25:27.
