data_PCOD9462337
_publ_section_title
;
Structure prediction by ZEFSAII (Michael W. Deem and Ramdas Pophale) SiO2 
 PCOD9462337
Probable space group: P N M A
;
_chemical_formula_sum "Si O2"
_cell_formula_units_Z 56
_cell_length_a 21.338074
_cell_length_b 9.010246
_cell_length_c 18.518689
_cell_angle_alpha 90.000000
_cell_angle_beta 90.000000
_cell_angle_gamma 90.000000
_cell_volume 3560.427146
_symmetry_space_group_name_H-M "P N M A"
_symmetry_group_IT_number 62
_symmetry_cell_setting 'orthorhombic'
loop_
_space_group_symop_operation_xyz
x,y,z
1/2-x,-y,1/2+z
1/2+x,1/2-y,1/2-z
-x,1/2+y,-z
-x,-y,-z
1/2+x,y,1/2-z
1/2-x,1/2+y,1/2+z
x,1/2-y,z
loop_
_atom_site_type_symbol
_atom_site_label
_atom_site_fract_x
_atom_site_fract_y
_atom_site_fract_z
Si Si1 0.248264 0.427062 0.082153
Si Si2 0.872995 0.071939 0.845852
Si Si3 0.815110 0.921109 0.289005
Si Si4 0.994662 0.927447 0.078639
Si Si5 0.253744 0.575069 0.927684
Si Si6 0.683738 0.920074 0.200450
Si Si7 0.123094 0.573529 0.842626
O O1 0.248827 0.250000 0.085832
O O2 0.180974 0.488508 0.109651
O O3 0.299525 0.495191 0.136951
O O4 0.258758 0.484612 0.001370
O O5 0.860632 0.250000 0.850914
O O6 0.866151 0.032215 0.761148
O O7 0.941001 0.042640 0.878246
O O8 0.832982 0.750000 0.301168
O O9 0.749064 0.920583 0.245318
O O10 0.862597 0.004070 0.235715
O O11 0.987491 0.750000 0.072163
O O12 0.935734 0.996178 0.120127
O O13 0.000000 0.000000 0.000000
O O14 0.259416 0.750000 0.941910
O O15 0.304226 0.521752 0.868465
O O16 0.185227 0.548818 0.891778
O O17 0.671435 0.750000 0.178156
O O18 0.113882 0.750000 0.837359
#
# Coordination Sequence:
#
# PCOD9462337 Si02
#       7
#     8   8   8   8   8   8   8
#     4  11  20  29  46  71  96 122 154 192 234 278
#     4   9  19  34  48  64  92 127 160 194 232 276
#     4   9  17  31  49  67  91 122 154 190 234 281
#     4  11  22  34  48  68  95 129 165 198 233 273
#     4  10  19  30  45  67  95 123 151 188 234 279
#     4   8  15  29  47  65  86 115 151 190 231 274
#     4  10  20  33  48  68  95 126 161 198 233 275
#
# _framework density 15.72845
#
# number of rings (size 3 to 8) (size 9 to 14) (size 15 to 20)
#    0.000    2.286    0.000    4.714    0.000    9.714 
#    0.000    0.000    0.000    0.000    0.000    1.000 
#    0.000    0.000    0.000    0.000    0.000    0.000 
#
# Total GULP energy -312344.922591 kJ/mol
# GULP energy per Si atom -5577.587903 kJ/mol
# Density = 1.569265 g / cm^3
# Si number density = 15.728450 Si / 1000 Ang^3
#
#
#
# Elastic Constant Matrix: (Units=GPa)
#
#
# Indices 1 2 3 4 5 6 
#
# 1 76.3399 53.4675 62.7875 0.0000 0.0000 0.0000
# 2 53.4675 102.7173 84.8877 0.0000 0.0000 0.0000
# 3 62.7875 84.8877 130.3892 0.0000 0.0000 0.0000
# 4 0.0000 0.0000 0.0000 31.4478 0.0000 0.0000
# 5 0.0000 0.0000 0.0000 0.0000 24.2893 0.0000
# 6 0.0000 0.0000 0.0000 0.0000 0.0000 19.8958
#
#
#
# Elastic Compliance Matrix: (Units=1/GPa)
#
#
# Indices 1 2 3 4 5 6 
#
# 1 0.023384 -0.006205 -0.007221 0.000000 0.000000 0.000000
# 2 -0.006205 0.022720 -0.011804 0.000000 0.000000 0.000000
# 3 -0.007221 -0.011804 0.018831 0.000000 0.000000 0.000000
# 4 0.000000 0.000000 0.000000 0.031799 0.000000 0.000000
# 5 0.000000 0.000000 0.000000 0.000000 0.041170 0.000000
# 6 0.000000 0.000000 0.000000 0.000000 0.000000 0.050262
#
#
# Mechanical properties :
#
#
# Convention : Reuss Voigt Hill
#
# Bulk Modulus (GPa) = 69.07679 79.08131 74.07905
# Shear Modulus (GPa) = 20.53811 22.34681 21.44246
#
# Velocity S-wave (km/s) = 3.61750 3.77343 3.69628
# Velocity P-wave (km/s) = 7.83978 8.32906 8.08812
#
# Compressibility (1/GPa) = 0.01447664
#
# Stress axis : x y z
#
# Youngs Moduli (GPa) = 42.76447 44.01412 53.10360
#
# Poissons Ratio (x) = 0.27309 0.38346
# Poissons Ratio (y) = 0.26533 0.62682
# Poissons Ratio (z) = 0.30880 0.51953
#
# Static dielectric constant tensor:
#      x y z
#    x 1.505790 0.000000 0.000000 
#    y 0.000000 1.525130 0.000000 
#    z 0.000000 0.000000 1.522420 
# 
# From -- ./inp_files/20351.got.cif
#   From: 2010.05.17/outbox.cif.g08.bks.cpg/sg62_11_cif.got.tgz:20351.got - 2010.06.03 15:25:27.
