data_PCOD9462191
_publ_section_title
;
Structure prediction by ZEFSAII (Michael W. Deem and Ramdas Pophale) SiO2 
 PCOD9462191
Probable space group: P N M A
;
_chemical_formula_sum "Si O2"
_cell_formula_units_Z 60
_cell_length_a 16.058396
_cell_length_b 19.415253
_cell_length_c 8.832370
_cell_angle_alpha 90.000000
_cell_angle_beta 90.000000
_cell_angle_gamma 90.000000
_cell_volume 2753.737074
_symmetry_space_group_name_H-M "P N M A"
_symmetry_group_IT_number 62
_symmetry_cell_setting 'orthorhombic'
loop_
_space_group_symop_operation_xyz
x,y,z
1/2-x,-y,1/2+z
1/2+x,1/2-y,1/2-z
-x,1/2+y,-z
-x,-y,-z
1/2+x,y,1/2-z
1/2-x,1/2+y,1/2+z
x,1/2-y,z
loop_
_atom_site_type_symbol
_atom_site_label
_atom_site_fract_x
_atom_site_fract_y
_atom_site_fract_z
Si Si1 0.174271 0.670487 0.071926
Si Si2 0.803728 0.572136 0.546831
Si Si3 0.203042 0.045745 0.112559
Si Si4 0.417251 0.631715 0.441619
Si Si5 0.447496 0.750000 0.188280
Si Si6 0.437812 0.060387 0.714550
Si Si7 0.492643 0.612434 0.994655
Si Si8 0.545549 0.671208 0.696884
O O1 0.181084 0.750000 0.112029
O O2 0.123311 0.663169 0.915189
O O3 0.261655 0.634358 0.046392
O O4 0.117096 0.629504 0.188624
O O5 0.770606 0.503159 0.466025
O O6 0.772904 0.572444 0.721189
O O7 0.901244 0.584307 0.542473
O O8 0.171350 0.103309 0.995610
O O9 0.120989 0.999110 0.150975
O O10 0.419041 0.689838 0.313682
O O11 0.476365 0.570664 0.376487
O O12 0.465195 0.658782 0.590660
O O13 0.478961 0.687441 0.073181
O O14 0.461790 0.062008 0.888824
O O15 0.542547 0.621711 0.839298
O O16 0.544748 0.750000 0.748515
#
# Coordination Sequence:
#
# PCOD9462191 Si02
#       8
#     8   8   8   8   4   8   8   8
#     4   9  21  41  64  86 125 168 204 247 331 388
#     4  11  26  42  61  92 129 174 208 265 312 384
#     4  11  24  44  60  88 131 174 216 252 320 379
#     4  10  19  39  63  91 119 162 207 256 314 383
#     4  10  22  34  64  96 124 154 196 272 318 364
#     4   9  22  38  65  92 120 164 212 260 309 381
#     4  11  22  38  64 100 126 153 214 271 313 356
#     4  10  18  35  62  92 120 154 203 261 310 372
#
# _framework density 21.788571999999998
#
# number of rings (size 3 to 8) (size 9 to 14) (size 15 to 20)
#    0.000    1.867    2.667    0.400   10.267    1.600 
#    1.200    0.000    0.000    0.000    0.000    0.000 
#    0.000    0.000    0.000    0.000    0.000    0.000 
#
# Total GULP energy -334351.228129 kJ/mol
# GULP energy per Si atom -5572.520469 kJ/mol
# Density = 2.173898 g / cm^3
# Si number density = 21.788572 Si / 1000 Ang^3
#
#
#
# Elastic Constant Matrix: (Units=GPa)
#
#
# Indices 1 2 3 4 5 6 
#
# 1 18.8912 14.0523 -5.8374 0.0000 0.0000 0.0000
# 2 14.0523 61.0672 -2.2537 0.0000 0.0000 0.0000
# 3 -5.8374 -2.2537 43.2310 0.0000 0.0000 0.0000
# 4 0.0000 0.0000 0.0000 42.0727 0.0000 0.0000
# 5 0.0000 0.0000 0.0000 0.0000 20.3159 0.0000
# 6 0.0000 0.0000 0.0000 0.0000 0.0000 4.4822
#
#
#
# Elastic Compliance Matrix: (Units=1/GPa)
#
#
# Indices 1 2 3 4 5 6 
#
# 1 0.066658 -0.015036 0.008217 0.000000 0.000000 0.000000
# 2 -0.015036 0.019798 -0.000998 0.000000 0.000000 0.000000
# 3 0.008217 -0.000998 0.024189 0.000000 0.000000 0.000000
# 4 0.000000 0.000000 0.000000 0.023768 0.000000 0.000000
# 5 0.000000 0.000000 0.000000 0.000000 0.049223 0.000000
# 6 0.000000 0.000000 0.000000 0.000000 0.000000 0.223104
#
#
# Mechanical properties :
#
#
# Convention : Reuss Voigt Hill
#
# Bulk Modulus (GPa) = 10.52500 15.01243 12.76872
# Shear Modulus (GPa) = 11.01214 21.18938 16.10076
#
# Velocity S-wave (km/s) = 2.25057 3.12188 2.72132
# Velocity P-wave (km/s) = 3.40506 4.46092 3.96826
#
# Compressibility (1/GPa) = 0.09501186
#
# Stress axis : x y z
#
# Youngs Moduli (GPa) = 15.00193 50.50904 41.34106
#
# Poissons Ratio (x) = 0.75943 -0.33969
# Poissons Ratio (y) = 0.22556 0.04126
# Poissons Ratio (z) = -0.12327 0.05041
#
# Static dielectric constant tensor:
#      x y z
#    x 1.814030 0.000000 0.000000 
#    y 0.000000 1.796590 0.000000 
#    z 0.000000 0.000000 1.806220 
# 
# From -- ./inp_files/7960.got.cif
#   From: 2010.05.17/outbox.cif.g08.bks.cpg/sg62_4_cif.got.tgz:7960.got - 2010.06.03 15:25:27.
