data_PCOD9462735
_publ_section_title
;
Structure prediction by ZEFSAII (Michael W. Deem and Ramdas Pophale) SiO2 
 PCOD9462735
Probable space group: P N M A
;
_chemical_formula_sum "Si O2"
_cell_formula_units_Z 56
_cell_length_a 21.713285
_cell_length_b 15.657948
_cell_length_c 8.477322
_cell_angle_alpha 90.000000
_cell_angle_beta 90.000000
_cell_angle_gamma 90.000000
_cell_volume 2882.166452
_symmetry_space_group_name_H-M "P N M A"
_symmetry_group_IT_number 62
_symmetry_cell_setting 'orthorhombic'
loop_
_space_group_symop_operation_xyz
x,y,z
1/2-x,-y,1/2+z
1/2+x,1/2-y,1/2-z
-x,1/2+y,-z
-x,-y,-z
1/2+x,y,1/2-z
1/2-x,1/2+y,1/2+z
x,1/2-y,z
loop_
_atom_site_type_symbol
_atom_site_label
_atom_site_fract_x
_atom_site_fract_y
_atom_site_fract_z
Si Si1 0.072495 0.498386 0.957697
Si Si2 0.795376 0.851627 0.535728
Si Si3 0.107412 0.026262 0.594906
Si Si4 0.125153 0.346064 0.155375
Si Si5 0.346274 0.346204 0.451389
Si Si6 0.526469 0.158017 0.078443
Si Si7 0.120041 0.657620 0.585039
O O1 0.084202 0.492465 0.770523
O O2 0.104435 0.586299 0.012973
O O3 0.110676 0.419816 0.032172
O O4 0.000000 0.500000 0.000000
O O5 0.802751 0.750000 0.510160
O O6 0.836826 0.907015 0.418919
O O7 0.822563 0.866866 0.713076
O O8 0.723865 0.872603 0.517431
O O9 0.051887 0.075609 0.509675
O O10 0.130727 0.937164 0.516751
O O11 0.137354 0.250000 0.092731
O O12 0.062135 0.341905 0.256830
O O13 0.357068 0.250000 0.510621
O O14 0.352279 0.342649 0.260826
O O15 0.543046 0.250000 0.000103
O O16 0.453969 0.157721 0.098706
O O17 0.137982 0.750000 0.510940
#
# Coordination Sequence:
#
# PCOD9462735 Si02
#       7
#     8   8   8   8   8   8   8
#     4  11  23  34  51  83 115 147 182 216 271 332
#     4   9  19  37  60  81  99 134 186 230 275 326
#     4  10  19  32  53  80 111 142 176 226 270 315
#     4   9  18  33  54  77 104 137 176 224 266 313
#     4   9  19  37  57  76 105 142 181 226 274 326
#     4   9  17  32  54  79 106 140 181 219 263 317
#     4   9  17  29  49  76 102 134 175 215 261 317
#
# _framework density 19.429829000000002
#
# number of rings (size 3 to 8) (size 9 to 14) (size 15 to 20)
#    0.000    2.571    0.000    3.429    0.000    6.286 
#    0.000    0.000    0.000    5.143    0.000    4.000 
#    0.000    0.000    0.000    0.000    0.000    0.000 
#
# Total GULP energy -311804.474763 kJ/mol
# GULP energy per Si atom -5567.937049 kJ/mol
# Density = 1.938561 g / cm^3
# Si number density = 19.429829 Si / 1000 Ang^3
#
#
#
# Elastic Constant Matrix: (Units=GPa)
#
#
# Indices 1 2 3 4 5 6 
#
# 1 104.6644 34.8717 1.1436 0.0000 0.0000 0.0000
# 2 34.8717 121.9442 26.5006 0.0000 0.0000 0.0000
# 3 1.1436 26.5006 18.4203 0.0000 0.0000 0.0000
# 4 0.0000 0.0000 0.0000 29.3058 0.0000 0.0000
# 5 0.0000 0.0000 0.0000 0.0000 0.1269 0.0000
# 6 0.0000 0.0000 0.0000 0.0000 0.0000 32.3206
#
#
#
# Elastic Compliance Matrix: (Units=1/GPa)
#
#
# Indices 1 2 3 4 5 6 
#
# 1 0.010938 -0.004336 0.005559 0.000000 0.000000 0.000000
# 2 -0.004336 0.013649 -0.019368 0.000000 0.000000 0.000000
# 3 0.005559 -0.019368 0.081806 0.000000 0.000000 0.000000
# 4 0.000000 0.000000 0.000000 0.034123 0.000000 0.000000
# 5 0.000000 0.000000 0.000000 0.000000 7.878289 0.000000
# 6 0.000000 0.000000 0.000000 0.000000 0.000000 0.030940
#
#
# Mechanical properties :
#
#
# Convention : Reuss Voigt Hill
#
# Bulk Modulus (GPa) = 14.26438 41.11783 27.69111
# Shear Modulus (GPa) = 0.61657 24.51821 12.56739
#
# Velocity S-wave (km/s) = 0.56393 3.55616 2.54600
# Velocity P-wave (km/s) = 2.78953 6.17007 4.78807
#
# Compressibility (1/GPa) = 0.07010468
#
# Stress axis : x y z
#
# Youngs Moduli (GPa) = 91.42211 73.26367 12.22400
#
# Poissons Ratio (x) = 0.31767 -0.06795
# Poissons Ratio (y) = 0.39641 0.23675
# Poissons Ratio (z) = -0.50822 1.41894
#
# Static dielectric constant tensor:
#      x y z
#    x 1.683440 0.000000 0.000000 
#    y 0.000000 1.780890 0.000000 
#    z 0.000000 0.000000 1.677690 
# 
# From -- ./inp_files/8747.got.cif
#   From: 2010.05.17/outbox.cif.g08.bks.cpg/sg62_5_cif.got.tgz:8747.got - 2010.06.03 15:25:27.
