data_PCOD9462570
_publ_section_title
;
Structure prediction by ZEFSAII (Michael W. Deem and Ramdas Pophale) SiO2 
 PCOD9462570
Probable space group: P N M A
;
_chemical_formula_sum "Si O2"
_cell_formula_units_Z 64
_cell_length_a 25.298071
_cell_length_b 7.663347
_cell_length_c 15.471980
_cell_angle_alpha 90.000000
_cell_angle_beta 90.000000
_cell_angle_gamma 90.000000
_cell_volume 2999.520217
_symmetry_space_group_name_H-M "P N M A"
_symmetry_group_IT_number 62
_symmetry_cell_setting 'orthorhombic'
loop_
_space_group_symop_operation_xyz
x,y,z
1/2-x,-y,1/2+z
1/2+x,1/2-y,1/2-z
-x,1/2+y,-z
-x,-y,-z
1/2+x,y,1/2-z
1/2-x,1/2+y,1/2+z
x,1/2-y,z
loop_
_atom_site_type_symbol
_atom_site_label
_atom_site_fract_x
_atom_site_fract_y
_atom_site_fract_z
Si Si1 0.856052 0.049134 0.297033
Si Si2 0.840842 0.461588 0.482501
Si Si3 0.431121 0.951218 0.354736
Si Si4 0.367516 0.463305 0.825729
Si Si5 0.547260 0.536317 0.309293
Si Si6 0.882511 0.450206 0.967225
Si Si7 0.725936 0.956267 0.535603
Si Si8 0.246443 0.949480 0.271824
O O1 0.872758 0.250000 0.293534
O O2 0.866642 0.977935 0.393078
O O3 0.887004 0.958579 0.219567
O O4 0.793080 0.040819 0.280210
O O5 0.841497 0.250000 0.481315
O O6 0.865009 0.519126 0.574231
O O7 0.780045 0.520336 0.484518
O O8 0.438658 0.750000 0.380906
O O9 0.486725 0.019753 0.318241
O O10 0.411794 0.046353 0.440754
O O11 0.365190 0.250000 0.825792
O O12 0.419458 0.518158 0.774438
O O13 0.313436 0.520602 0.777049
O O14 0.546172 0.750000 0.308093
O O15 0.580425 0.475516 0.392836
O O16 0.872846 0.250000 0.940226
O O17 0.824753 0.527754 0.985108
O O18 0.717227 0.750000 0.553346
O O19 0.734637 0.045545 0.628122
O O20 0.243910 0.750000 0.240984
#
# Coordination Sequence:
#
# PCOD9462570 Si02
#       8
#     8   8   8   8   8   8   8   8
#     4  11  22  36  54  78 112 148 184 229 281 330
#     4   9  20  36  55  79 110 148 184 225 277 333
#     4  11  22  36  56  80 108 144 190 236 272 325
#     4   8  16  34  57  79 106 138 178 226 274 325
#     4   9  19  35  56  81 107 142 188 231 275 330
#     4  10  20  34  54  80 113 148 179 219 276 335
#     4  10  19  31  52  81 115 147 175 216 271 330
#     4  10  19  32  55  81 108 143 183 223 272 331
#
# _framework density 21.336746000000002
#
# number of rings (size 3 to 8) (size 9 to 14) (size 15 to 20)
#    0.000    2.250    1.250    2.625    1.750    1.500 
#    0.000    1.250    0.000    8.250    0.000    0.000 
#    0.000    0.000    0.000    0.000    0.000    0.000 
#
# Total GULP energy -357310.786184 kJ/mol
# GULP energy per Si atom -5582.981034 kJ/mol
# Density = 2.128818 g / cm^3
# Si number density = 21.336746 Si / 1000 Ang^3
#
#
#
# Elastic Constant Matrix: (Units=GPa)
#
#
# Indices 1 2 3 4 5 6 
#
# 1 16.2796 -7.2933 5.5802 0.0000 0.0000 0.0000
# 2 -7.2933 42.7187 -8.6818 0.0000 0.0000 0.0000
# 3 5.5802 -8.6818 75.1373 0.0000 0.0000 0.0000
# 4 0.0000 0.0000 0.0000 2.7197 0.0000 0.0000
# 5 0.0000 0.0000 0.0000 0.0000 7.4977 0.0000
# 6 0.0000 0.0000 0.0000 0.0000 0.0000 8.5747
#
#
#
# Elastic Compliance Matrix: (Units=1/GPa)
#
#
# Indices 1 2 3 4 5 6 
#
# 1 0.067542 0.010765 -0.003772 0.000000 0.000000 0.000000
# 2 0.010765 0.025688 0.002169 0.000000 0.000000 0.000000
# 3 -0.003772 0.002169 0.013840 0.000000 0.000000 0.000000
# 4 0.000000 0.000000 0.000000 0.367685 0.000000 0.000000
# 5 0.000000 0.000000 0.000000 0.000000 0.133374 0.000000
# 6 0.000000 0.000000 0.000000 0.000000 0.000000 0.116622
#
#
# Mechanical properties :
#
#
# Convention : Reuss Voigt Hill
#
# Bulk Modulus (GPa) = 7.97501 12.59399 10.28450
# Shear Modulus (GPa) = 6.68248 13.39380 10.03814
#
# Velocity S-wave (km/s) = 1.77164 2.50818 2.17137
# Velocity P-wave (km/s) = 2.81616 3.78196 3.33422
#
# Compressibility (1/GPa) = 0.12539163
#
# Stress axis : x y z
#
# Youngs Moduli (GPa) = 14.80553 38.92937 72.25591
#
# Poissons Ratio (x) = -0.41907 0.27258
# Poissons Ratio (y) = -0.15938 -0.15669
# Poissons Ratio (z) = 0.05585 -0.08442
#
# Static dielectric constant tensor:
#      x y z
#    x 1.762810 0.000000 0.000000 
#    y 0.000000 1.755940 0.000000 
#    z 0.000000 0.000000 1.763950 
# 
# From -- ./inp_files/20770.got.cif
#   From: 2010.05.17/outbox.cif.g08.bks.cpg/sg62_11_cif.got.tgz:20770.got - 2010.06.03 15:25:27.
