data_PCOD9462793
_publ_section_title
;
Structure prediction by ZEFSAII (Michael W. Deem and Ramdas Pophale) SiO2 
 PCOD9462793
Probable space group: P N M A
;
_chemical_formula_sum "Si O2"
_cell_formula_units_Z 64
_cell_length_a 19.997975
_cell_length_b 7.811839
_cell_length_c 16.537648
_cell_angle_alpha 90.000000
_cell_angle_beta 90.000000
_cell_angle_gamma 90.000000
_cell_volume 2583.527264
_symmetry_space_group_name_H-M "P N M A"
_symmetry_group_IT_number 62
_symmetry_cell_setting 'orthorhombic'
loop_
_space_group_symop_operation_xyz
x,y,z
1/2-x,-y,1/2+z
1/2+x,1/2-y,1/2-z
-x,1/2+y,-z
-x,-y,-z
1/2+x,y,1/2-z
1/2-x,1/2+y,1/2+z
x,1/2-y,z
loop_
_atom_site_type_symbol
_atom_site_label
_atom_site_fract_x
_atom_site_fract_y
_atom_site_fract_z
Si Si1 0.867916 0.449864 0.483334
Si Si2 0.397083 0.957379 0.274537
Si Si3 0.015348 0.953132 0.619295
Si Si4 0.370165 0.048643 0.628291
Si Si5 0.278532 0.542067 0.167095
Si Si6 0.266189 0.553744 0.884741
Si Si7 0.376556 0.552704 0.446526
Si Si8 0.612487 0.453924 0.202951
O O1 0.872519 0.250000 0.506332
O O2 0.939217 0.523713 0.453447
O O3 0.824819 0.462261 0.401665
O O4 0.824051 0.552693 0.546684
O O5 0.401908 0.750000 0.275115
O O6 0.320058 0.999199 0.248837
O O7 0.410528 0.021811 0.365369
O O8 0.444183 0.022367 0.203423
O O9 0.010149 0.750000 0.605695
O O10 0.942233 0.024299 0.640171
O O11 0.368048 0.250000 0.639595
O O12 0.295449 0.978200 0.645439
O O13 0.389533 0.018630 0.535566
O O14 0.411085 0.981526 0.705101
O O15 0.278915 0.750000 0.159795
O O16 0.246546 0.750000 0.868671
O O17 0.202456 0.461551 0.923816
O O18 0.312613 0.474609 0.813228
O O19 0.395519 0.750000 0.451100
O O20 0.617678 0.250000 0.191792
#
# Coordination Sequence:
#
# PCOD9462793 Si02
#       8
#     8   8   8   8   8   8   8   8
#     4  10  19  32  55  84 113 148 187 230 279 333
#     4   9  19  35  57  83 109 143 184 231 283 334
#     4   9  20  39  59  81 111 150 196 238 278 332
#     4  11  22  36  57  84 114 147 187 233 286 343
#     4   9  17  32  53  78 111 143 176 224 281 337
#     4  11  22  36  56  85 119 152 187 230 283 339
#     4  11  22  37  58  86 118 148 183 231 287 342
#     4  10  23  41  58  79 113 154 193 236 284 333
#
# _framework density 24.772333
#
# number of rings (size 3 to 8) (size 9 to 14) (size 15 to 20)
#    0.000    2.000    1.250    2.250    0.000    5.000 
#    0.000    3.125    0.000    0.000    0.000    0.000 
#    0.000    0.000    0.000    0.000    0.000    0.000 
#
# Total GULP energy -357436.137882 kJ/mol
# GULP energy per Si atom -5584.939654 kJ/mol
# Density = 2.471595 g / cm^3
# Si number density = 24.772333 Si / 1000 Ang^3
#
#
#
# Elastic Constant Matrix: (Units=GPa)
#
#
# Indices 1 2 3 4 5 6 
#
# 1 25.5543 -10.0969 -27.7985 0.0000 0.0000 0.0000
# 2 -10.0969 64.3689 9.8078 0.0000 0.0000 0.0000
# 3 -27.7985 9.8078 109.0519 0.0000 0.0000 0.0000
# 4 0.0000 0.0000 0.0000 34.9145 0.0000 0.0000
# 5 0.0000 0.0000 0.0000 0.0000 31.4908 0.0000
# 6 0.0000 0.0000 0.0000 0.0000 0.0000 12.2580
#
#
#
# Elastic Compliance Matrix: (Units=1/GPa)
#
#
# Indices 1 2 3 4 5 6 
#
# 1 0.056950 0.006815 0.013904 0.000000 0.000000 0.000000
# 2 0.006815 0.016567 0.000247 0.000000 0.000000 0.000000
# 3 0.013904 0.000247 0.012692 0.000000 0.000000 0.000000
# 4 0.000000 0.000000 0.000000 0.028641 0.000000 0.000000
# 5 0.000000 0.000000 0.000000 0.000000 0.031755 0.000000
# 6 0.000000 0.000000 0.000000 0.000000 0.000000 0.081579
#
#
# Mechanical properties :
#
#
# Convention : Reuss Voigt Hill
#
# Bulk Modulus (GPa) = 7.80387 15.86665 11.83526
# Shear Modulus (GPa) = 21.83725 30.87019 26.35372
#
# Velocity S-wave (km/s) = 2.97226 3.53392 3.26519
# Velocity P-wave (km/s) = 3.86473 4.80316 4.35927
#
# Compressibility (1/GPa) = 0.12814151
#
# Stress axis : x y z
#
# Youngs Moduli (GPa) = 17.55916 60.36188 78.78918
#
# Poissons Ratio (x) = -0.41134 -1.09551
# Poissons Ratio (y) = -0.11966 -0.01947
# Poissons Ratio (z) = -0.24415 -0.01492
#
# Static dielectric constant tensor:
#      x y z
#    x 2.026100 0.000000 0.000000 
#    y 0.000000 1.878760 0.000000 
#    z 0.000000 0.000000 2.067940 
# 
# From -- ./inp_files/24705.got.cif
#   From: 2010.05.17/outbox.cif.g08.bks.cpg/sg62_13_cif.got.tgz:24705.got - 2010.06.03 15:25:27.
