data_PCOD9462928
_publ_section_title
;
Structure prediction by ZEFSAII (Michael W. Deem and Ramdas Pophale) SiO2 
 PCOD9462928
Probable space group: P N M A
;
_chemical_formula_sum "Si O2"
_cell_formula_units_Z 56
_cell_length_a 17.638066
_cell_length_b 8.819196
_cell_length_c 20.817492
_cell_angle_alpha 90.000000
_cell_angle_beta 90.000000
_cell_angle_gamma 90.000000
_cell_volume 3238.235014
_symmetry_space_group_name_H-M "P N M A"
_symmetry_group_IT_number 62
_symmetry_cell_setting 'orthorhombic'
loop_
_space_group_symop_operation_xyz
x,y,z
1/2-x,-y,1/2+z
1/2+x,1/2-y,1/2-z
-x,1/2+y,-z
-x,-y,-z
1/2+x,y,1/2-z
1/2-x,1/2+y,1/2+z
x,1/2-y,z
loop_
_atom_site_type_symbol
_atom_site_label
_atom_site_fract_x
_atom_site_fract_y
_atom_site_fract_z
Si Si1 0.707157 0.932933 0.627919
Si Si2 0.079142 0.931768 0.523880
Si Si3 0.364775 0.067389 0.890412
Si Si4 0.528636 0.077968 0.400675
Si Si5 0.618868 0.923557 0.505784
Si Si6 0.567370 0.069797 0.706032
Si Si7 0.475103 0.067187 0.157386
O O1 0.705582 0.750000 0.630034
O O2 0.681944 0.980587 0.555499
O O3 0.790101 0.997488 0.641157
O O4 0.643107 0.997411 0.675251
O O5 0.074356 0.750000 0.522442
O O6 0.136265 0.974621 0.466849
O O7 0.082442 0.974681 0.598755
O O8 0.000000 0.000000 0.500000
O O9 0.365690 0.250000 0.884414
O O10 0.442230 0.999344 0.861260
O O11 0.540550 0.250000 0.378759
O O12 0.456970 0.078567 0.449750
O O13 0.598617 0.018404 0.442842
O O14 0.501623 0.975687 0.341670
O O15 0.635233 0.750000 0.487619
O O16 0.574660 0.250000 0.708468
O O17 0.551672 0.001247 0.775715
O O18 0.479805 0.250000 0.161235
#
# Coordination Sequence:
#
# PCOD9462928 Si02
#       7
#     8   8   8   8   8   8   8
#     4  10  20  34  52  76 105 140 177 216 264 319
#     4   8  16  30  51  77 102 128 162 206 252 301
#     4  10  19  33  54  81 108 134 170 217 266 314
#     4   9  16  27  45  69  96 127 166 208 251 303
#     4   8  15  27  44  67  95 126 165 209 252 295
#     4  11  21  33  51  76 105 140 180 222 263 312
#     4  10  19  34  55  78 105 139 177 216 260 315
#
# _framework density 17.293371
#
# number of rings (size 3 to 8) (size 9 to 14) (size 15 to 20)
#    0.000    2.571    0.000    3.857    0.000    5.143 
#    0.000    0.000    3.143    0.000    0.000    0.000 
#    0.000    0.000    0.000    0.000    0.000    0.000 
#
# Total GULP energy -311861.801597 kJ/mol
# GULP energy per Si atom -5568.960743 kJ/mol
# Density = 1.725401 g / cm^3
# Si number density = 17.293371 Si / 1000 Ang^3
#
#
#
# Elastic Constant Matrix: (Units=GPa)
#
#
# Indices 1 2 3 4 5 6 
#
# 1 69.5518 30.7185 43.1339 0.0000 0.0000 0.0000
# 2 30.7185 78.1532 49.3497 0.0000 0.0000 0.0000
# 3 43.1339 49.3497 121.7838 0.0000 0.0000 0.0000
# 4 0.0000 0.0000 0.0000 27.2740 0.0000 0.0000
# 5 0.0000 0.0000 0.0000 0.0000 17.1272 0.0000
# 6 0.0000 0.0000 0.0000 0.0000 0.0000 19.2508
#
#
#
# Elastic Compliance Matrix: (Units=1/GPa)
#
#
# Indices 1 2 3 4 5 6 
#
# 1 0.019508 -0.004441 -0.005110 0.000000 0.000000 0.000000
# 2 -0.004441 0.018206 -0.005805 0.000000 0.000000 0.000000
# 3 -0.005110 -0.005805 0.012373 0.000000 0.000000 0.000000
# 4 0.000000 0.000000 0.000000 0.036665 0.000000 0.000000
# 5 0.000000 0.000000 0.000000 0.000000 0.058387 0.000000
# 6 0.000000 0.000000 0.000000 0.000000 0.000000 0.051946
#
#
# Mechanical properties :
#
#
# Convention : Reuss Voigt Hill
#
# Bulk Modulus (GPa) = 51.60887 57.32143 54.46515
# Shear Modulus (GPa) = 21.34420 22.48285 21.91352
#
# Velocity S-wave (km/s) = 3.51699 3.60958 3.56359
# Velocity P-wave (km/s) = 6.81177 7.11270 6.96386
#
# Compressibility (1/GPa) = 0.01937651
#
# Stress axis : x y z
#
# Youngs Moduli (GPa) = 51.26031 54.92591 80.81938
#
# Poissons Ratio (x) = 0.24394 0.41297
# Poissons Ratio (y) = 0.22766 0.46913
# Poissons Ratio (z) = 0.26193 0.31882
#
# Static dielectric constant tensor:
#      x y z
#    x 1.588730 0.000000 0.000000 
#    y 0.000000 1.585200 0.000000 
#    z 0.000000 0.000000 1.605070 
# 
# From -- ./inp_files/27566.got.cif
#   From: 2010.05.17/outbox.cif.g08.bks.cpg/sg62_14_cif.got.tgz:27566.got - 2010.06.03 15:25:27.
