data_PCOD9462228
_publ_section_title
;
Structure prediction by ZEFSAII (Michael W. Deem and Ramdas Pophale) SiO2 
 PCOD9462228
Probable space group: P N M A
;
_chemical_formula_sum "Si O2"
_cell_formula_units_Z 56
_cell_length_a 14.185883
_cell_length_b 13.511887
_cell_length_c 11.529140
_cell_angle_alpha 90.000000
_cell_angle_beta 90.000000
_cell_angle_gamma 90.000000
_cell_volume 2209.883051
_symmetry_space_group_name_H-M "P N M A"
_symmetry_group_IT_number 62
_symmetry_cell_setting 'orthorhombic'
loop_
_space_group_symop_operation_xyz
x,y,z
1/2-x,-y,1/2+z
1/2+x,1/2-y,1/2-z
-x,1/2+y,-z
-x,-y,-z
1/2+x,y,1/2-z
1/2-x,1/2+y,1/2+z
x,1/2-y,z
loop_
_atom_site_type_symbol
_atom_site_label
_atom_site_fract_x
_atom_site_fract_y
_atom_site_fract_z
Si Si1 0.766236 0.424688 0.682373
Si Si2 0.455626 0.930269 0.285576
Si Si3 0.721231 0.360426 0.088673
Si Si4 0.234197 0.138811 0.064384
Si Si5 0.925190 0.354213 0.301098
Si Si6 0.469132 0.889752 0.030643
Si Si7 0.867134 0.071325 0.916728
O O1 0.654102 0.410322 0.695856
O O2 0.793264 0.540654 0.663871
O O3 0.787220 0.372933 0.559970
O O4 0.817177 0.391326 0.798505
O O5 0.488349 0.876116 0.166713
O O6 0.523404 0.910938 0.393275
O O7 0.461912 0.048125 0.260726
O O8 0.711332 0.250000 0.139066
O O9 0.641574 0.371405 0.989200
O O10 0.821585 0.375318 0.026696
O O11 0.193689 0.250000 0.071196
O O12 0.316785 0.129851 0.160113
O O13 0.164623 0.044592 0.071869
O O14 0.934174 0.250000 0.236573
O O15 0.980094 0.341992 0.421801
O O16 0.500000 0.000000 0.000000
#
# Coordination Sequence:
#
# PCOD9462228 Si02
#       7
#     8   8   8   8   8   8   8
#     4  11  21  41  62  88 120 165 209 255 310 371
#     4  11  21  36  63  86 115 166 206 245 308 374
#     4  11  24  40  61  91 129 166 206 259 313 369
#     4  10  22  39  60  88 125 162 201 257 313 367
#     4  10  19  35  59  90 118 147 202 266 312 356
#     4  10  18  37  60  88 117 152 203 262 312 355
#     4  11  22  41  62  87 125 162 206 254 313 369
#
# _framework density 25.340706999999998
#
# number of rings (size 3 to 8) (size 9 to 14) (size 15 to 20)
#    0.000    1.429    2.857    5.571    0.000    4.571 
#    0.000    3.571    0.000    0.000    0.000    0.000 
#    0.000    0.000    0.000    0.000    0.000    0.000 
#
# Total GULP energy -313129.691971 kJ/mol
# GULP energy per Si atom -5591.601642 kJ/mol
# Density = 2.528303 g / cm^3
# Si number density = 25.340707 Si / 1000 Ang^3
#
#
#
# Elastic Constant Matrix: (Units=GPa)
#
#
# Indices 1 2 3 4 5 6 
#
# 1 76.4288 3.9840 -11.4383 0.0000 0.0000 0.0000
# 2 3.9840 82.6349 -11.8589 0.0000 0.0000 0.0000
# 3 -11.4383 -11.8589 51.4787 0.0000 0.0000 0.0000
# 4 0.0000 0.0000 0.0000 4.8923 0.0000 0.0000
# 5 0.0000 0.0000 0.0000 0.0000 52.1651 0.0000
# 6 0.0000 0.0000 0.0000 0.0000 0.0000 87.3910
#
#
#
# Elastic Compliance Matrix: (Units=1/GPa)
#
#
# Indices 1 2 3 4 5 6 
#
# 1 0.013538 -0.000229 0.002956 0.000000 0.000000 0.000000
# 2 -0.000229 0.012519 0.002833 0.000000 0.000000 0.000000
# 3 0.002956 0.002833 0.020735 0.000000 0.000000 0.000000
# 4 0.000000 0.000000 0.000000 0.204402 0.000000 0.000000
# 5 0.000000 0.000000 0.000000 0.000000 0.019170 0.000000
# 6 0.000000 0.000000 0.000000 0.000000 0.000000 0.011443
#
#
# Mechanical properties :
#
#
# Convention : Reuss Voigt Hill
#
# Bulk Modulus (GPa) = 17.26744 19.10175 18.18460
# Shear Modulus (GPa) = 17.24194 44.21340 30.72767
#
# Velocity S-wave (km/s) = 2.61129 4.18156 3.48599
# Velocity P-wave (km/s) = 3.99007 5.55592 4.83678
#
# Compressibility (1/GPa) = 0.05791245
#
# Stress axis : x y z
#
# Youngs Moduli (GPa) = 73.86450 79.87834 48.22792
#
# Poissons Ratio (x) = 0.01826 -0.14254
# Poissons Ratio (y) = 0.01688 -0.13664
# Poissons Ratio (z) = -0.21831 -0.22631
#
# Static dielectric constant tensor:
#      x y z
#    x 2.039540 0.000000 0.000000 
#    y 0.000000 2.211080 0.000000 
#    z 0.000000 0.000000 2.026610 
# 
# From -- ./inp_files/13377.got.cif
#   From: 2010.05.17/outbox.cif.g08.bks.cpg/sg62_7_cif.got.tgz:13377.got - 2010.06.03 15:25:27.
