data_PCOD9462218
_publ_section_title
;
Structure prediction by ZEFSAII (Michael W. Deem and Ramdas Pophale) SiO2 
 PCOD9462218
Probable space group: P N M A
;
_chemical_formula_sum "Si O2"
_cell_formula_units_Z 56
_cell_length_a 14.840261
_cell_length_b 7.391639
_cell_length_c 21.674171
_cell_angle_alpha 90.000000
_cell_angle_beta 90.000000
_cell_angle_gamma 90.000000
_cell_volume 2377.523305
_symmetry_space_group_name_H-M "P N M A"
_symmetry_group_IT_number 62
_symmetry_cell_setting 'orthorhombic'
loop_
_space_group_symop_operation_xyz
x,y,z
1/2-x,-y,1/2+z
1/2+x,1/2-y,1/2-z
-x,1/2+y,-z
-x,-y,-z
1/2+x,y,1/2-z
1/2-x,1/2+y,1/2+z
x,1/2-y,z
loop_
_atom_site_type_symbol
_atom_site_label
_atom_site_fract_x
_atom_site_fract_y
_atom_site_fract_z
Si Si1 0.094287 0.534251 0.532808
Si Si2 0.213773 0.028083 0.007977
Si Si3 0.876866 0.953874 0.870554
Si Si4 0.110003 0.028997 0.268593
Si Si5 0.427560 0.541980 0.407185
Si Si6 0.808218 0.031366 0.210509
Si Si7 0.078758 0.529159 0.672625
O O1 0.103500 0.750000 0.537027
O O2 0.183448 0.470742 0.496779
O O3 0.000000 0.500000 0.500000
O O4 0.093929 0.465963 0.603110
O O5 0.209684 0.250000 0.006433
O O6 0.139972 0.966764 0.958730
O O7 0.185917 0.967085 0.076535
O O8 0.841723 0.750000 0.860392
O O9 0.886318 0.034173 0.802555
O O10 0.976936 0.947650 0.898998
O O11 0.106281 0.250000 0.267756
O O12 0.204808 0.975521 0.298672
O O13 0.019243 0.970777 0.302413
O O14 0.448468 0.750000 0.422503
O O15 0.373963 0.534836 0.342847
O O16 0.811274 0.250000 0.208700
O O17 0.846299 0.975139 0.277316
O O18 0.079048 0.750000 0.671839
#
# Coordination Sequence:
#
# PCOD9462218 Si02
#       7
#     8   8   8   8   8   8   8
#     4  10  21  38  58  81 111 146 184 225 272 324
#     4   9  20  36  55  78 109 149 184 219 270 330
#     4  10  18  36  61  83 106 140 185 229 275 323
#     4   9  17  29  54  86 105 125 172 231 273 310
#     4  11  22  35  51  79 116 147 179 221 272 330
#     4  10  19  34  57  81 106 139 182 227 273 319
#     4   9  17  32  54  82 107 131 174 230 268 306
#
# _framework density 23.553923000000001
#
# number of rings (size 3 to 8) (size 9 to 14) (size 15 to 20)
#    0.000    2.286    1.429    1.714    2.000    3.429 
#    0.000    3.571    0.000    0.000    0.000    0.000 
#    0.000    0.000    0.000    0.000    0.000    0.000 
#
# Total GULP energy -313082.978363 kJ/mol
# GULP energy per Si atom -5590.767471 kJ/mol
# Density = 2.350031 g / cm^3
# Si number density = 23.553923 Si / 1000 Ang^3
#
#
#
# Elastic Constant Matrix: (Units=GPa)
#
#
# Indices 1 2 3 4 5 6 
#
# 1 115.2360 -6.8281 -3.9628 0.0000 0.0000 0.0000
# 2 -6.8281 80.5098 -7.7053 0.0000 0.0000 0.0000
# 3 -3.9628 -7.7053 56.8554 0.0000 0.0000 0.0000
# 4 0.0000 0.0000 0.0000 -4.3158 0.0000 0.0000
# 5 0.0000 0.0000 0.0000 0.0000 27.4455 0.0000
# 6 0.0000 0.0000 0.0000 0.0000 0.0000 7.0819
#
#
#
# Elastic Compliance Matrix: (Units=1/GPa)
#
#
# Indices 1 2 3 4 5 6 
#
# 1 0.008751 0.000811 0.000720 0.000000 0.000000 0.000000
# 2 0.000811 0.012659 0.001772 0.000000 0.000000 0.000000
# 3 0.000720 0.001772 0.017879 0.000000 0.000000 0.000000
# 4 0.000000 0.000000 0.000000 -0.231709 0.000000 0.000000
# 5 0.000000 0.000000 0.000000 0.000000 0.036436 0.000000
# 6 0.000000 0.000000 0.000000 0.000000 0.000000 0.141206
#
#
# Mechanical properties :
#
#
# Convention : Reuss Voigt Hill
#
# Bulk Modulus (GPa) = 21.78898 23.95656 22.87277
# Shear Modulus (GPa) = -821.44559 24.11547 -398.66506
#
# Velocity S-wave (km/s) = -18.69514 3.20322 -13.02397
# Velocity P-wave (km/s) = 21.37148 4.88609 14.71167
#
# Compressibility (1/GPa) = 0.04589476
#
# Stress axis : x y z
#
# Youngs Moduli (GPa) = 114.27722 78.99366 55.93212
#
# Poissons Ratio (x) = -0.06407 -0.04026
# Poissons Ratio (y) = -0.09268 -0.09912
# Poissons Ratio (z) = -0.08226 -0.13999
#
# Static dielectric constant tensor:
#      x y z
#    x 1.857670 0.000000 0.000000 
#    y 0.000000 1.619910 0.000000 
#    z 0.000000 0.000000 1.850430 
# 
# From -- ./inp_files/27087.got.cif
#   From: 2010.05.17/outbox.cif.g08.bks.cpg/sg62_14_cif.got.tgz:27087.got - 2010.06.03 15:25:27.
