data_PCOD9462938
_publ_section_title
;
Structure prediction by ZEFSAII (Michael W. Deem and Ramdas Pophale) SiO2 
 PCOD9462938
Probable space group: P N M A
;
_chemical_formula_sum "Si O2"
_cell_formula_units_Z 64
_cell_length_a 15.893868
_cell_length_b 7.964176
_cell_length_c 24.262193
_cell_angle_alpha 90.000000
_cell_angle_beta 90.000000
_cell_angle_gamma 90.000000
_cell_volume 3071.146289
_symmetry_space_group_name_H-M "P N M A"
_symmetry_group_IT_number 62
_symmetry_cell_setting 'orthorhombic'
loop_
_space_group_symop_operation_xyz
x,y,z
1/2-x,-y,1/2+z
1/2+x,1/2-y,1/2-z
-x,1/2+y,-z
-x,-y,-z
1/2+x,y,1/2-z
1/2-x,1/2+y,1/2+z
x,1/2-y,z
loop_
_atom_site_type_symbol
_atom_site_label
_atom_site_fract_x
_atom_site_fract_y
_atom_site_fract_z
Si Si1 0.423626 0.445234 0.114064
Si Si2 0.846137 0.945070 0.494665
Si Si3 0.097233 0.544290 0.875759
Si Si4 0.412506 0.950703 0.611374
Si Si5 0.746629 0.955979 0.825989
Si Si6 0.392299 0.057833 0.885723
Si Si7 0.750576 0.952674 0.699432
Si Si8 0.345367 0.047132 0.497366
O O1 0.434578 0.250000 0.128182
O O2 0.404920 0.461714 0.048853
O O3 0.340119 0.509356 0.145057
O O4 0.510020 0.535637 0.128701
O O5 0.847074 0.750000 0.478437
O O6 0.750259 0.010123 0.491076
O O7 0.873889 0.958106 0.557993
O O8 0.097276 0.750000 0.875279
O O9 0.166487 0.488364 0.831932
O O10 0.125898 0.491878 0.936948
O O11 0.001833 0.486670 0.866213
O O12 0.412291 0.750000 0.618677
O O13 0.328821 0.016493 0.641094
O O14 0.404311 0.987100 0.546566
O O15 0.746614 0.750000 0.827778
O O16 0.752296 0.009224 0.762543
O O17 0.374378 0.250000 0.899152
O O18 0.330943 0.003216 0.836721
O O19 0.748451 0.750000 0.700148
O O20 0.344403 0.250000 0.497125
#
# Coordination Sequence:
#
# PCOD9462938 Si02
#       8
#     8   8   8   8   8   8   8   8
#     4  11  22  39  61  90 122 155 194 242 295 354
#     4  11  21  37  61  87 117 156 195 241 295 354
#     4   9  18  33  56  82 112 147 186 231 284 340
#     4  10  19  34  56  86 116 145 185 238 287 341
#     4   9  20  36  60  89 114 148 196 241 287 338
#     4  12  25  40  59  88 119 155 197 244 297 352
#     4  10  20  40  62  83 114 154 197 243 289 344
#     4  10  19  33  54  83 113 151 188 224 287 350
#
# _framework density 20.839124999999999
#
# number of rings (size 3 to 8) (size 9 to 14) (size 15 to 20)
#    0.000    1.750    2.500    2.625    0.000    1.500 
#    0.000    6.250    0.000    0.000    0.000    0.000 
#    0.000    0.000    0.000    0.000    0.000    0.000 
#
# Total GULP energy -357671.425380 kJ/mol
# GULP energy per Si atom -5588.616022 kJ/mol
# Density = 2.079169 g / cm^3
# Si number density = 20.839125 Si / 1000 Ang^3
#
#
#
# Elastic Constant Matrix: (Units=GPa)
#
#
# Indices 1 2 3 4 5 6 
#
# 1 113.3546 -1.1344 38.7985 0.0000 0.0000 0.0000
# 2 -1.1344 21.8726 -5.6755 0.0000 0.0000 0.0000
# 3 38.7985 -5.6755 110.4408 0.0000 0.0000 0.0000
# 4 0.0000 0.0000 0.0000 19.6189 0.0000 0.0000
# 5 0.0000 0.0000 0.0000 0.0000 5.7764 0.0000
# 6 0.0000 0.0000 0.0000 0.0000 0.0000 11.4483
#
#
#
# Elastic Compliance Matrix: (Units=1/GPa)
#
#
# Indices 1 2 3 4 5 6 
#
# 1 0.010031 -0.000399 -0.003545 0.000000 0.000000 0.000000
# 2 -0.000399 0.046353 0.002522 0.000000 0.000000 0.000000
# 3 -0.003545 0.002522 0.010429 0.000000 0.000000 0.000000
# 4 0.000000 0.000000 0.000000 0.050971 0.000000 0.000000
# 5 0.000000 0.000000 0.000000 0.000000 0.173119 0.000000
# 6 0.000000 0.000000 0.000000 0.000000 0.000000 0.087349
#
#
# Mechanical properties :
#
#
# Convention : Reuss Voigt Hill
#
# Bulk Modulus (GPa) = 15.63223 34.40500 25.01862
# Shear Modulus (GPa) = 12.42485 21.61401 17.01943
#
# Velocity S-wave (km/s) = 2.44442 3.22403 2.86091
# Velocity P-wave (km/s) = 3.93505 5.51405 4.79006
#
# Compressibility (1/GPa) = 0.06397042
#
# Stress axis : x y z
#
# Youngs Moduli (GPa) = 99.69021 21.57357 95.88226
#
# Poissons Ratio (x) = 0.00862 0.33986
# Poissons Ratio (y) = 0.03982 -0.24185
# Poissons Ratio (z) = 0.35335 -0.05442
#
# Static dielectric constant tensor:
#      x y z
#    x 1.748180 0.000000 0.000000 
#    y 0.000000 1.736880 0.000000 
#    z 0.000000 0.000000 1.708440 
# 
# From -- ./inp_files/29722.got.cif
#   From: 2010.05.17/outbox.cif.g08.bks.cpg/sg62_15_cif.got.tgz:29722.got - 2010.06.03 15:25:27.
