data_PCOD9462518
_publ_section_title
;
Structure prediction by ZEFSAII (Michael W. Deem and Ramdas Pophale) SiO2 
 PCOD9462518
Probable space group: P N M A
;
_chemical_formula_sum "Si O2"
_cell_formula_units_Z 48
_cell_length_a 19.242318
_cell_length_b 13.776719
_cell_length_c 9.611883
_cell_angle_alpha 90.000000
_cell_angle_beta 90.000000
_cell_angle_gamma 90.000000
_cell_volume 2548.071813
_symmetry_space_group_name_H-M "P N M A"
_symmetry_group_IT_number 62
_symmetry_cell_setting 'orthorhombic'
loop_
_space_group_symop_operation_xyz
x,y,z
1/2-x,-y,1/2+z
1/2+x,1/2-y,1/2-z
-x,1/2+y,-z
-x,-y,-z
1/2+x,y,1/2-z
1/2-x,1/2+y,1/2+z
x,1/2-y,z
loop_
_atom_site_type_symbol
_atom_site_label
_atom_site_fract_x
_atom_site_fract_y
_atom_site_fract_z
Si Si1 0.614734 0.036130 0.935916
Si Si2 0.013703 0.364403 0.776100
Si Si3 0.377406 0.865176 0.501294
Si Si4 0.229974 0.462794 0.796062
Si Si5 0.871834 0.362519 0.642193
Si Si6 0.670031 0.362106 0.193170
O O1 0.622876 0.111602 0.061746
O O2 0.611145 0.931999 0.011260
O O3 0.552573 0.067615 0.835431
O O4 0.684233 0.041339 0.842603
O O5 0.028242 0.250000 0.743608
O O6 0.048909 0.383018 0.925684
O O7 0.931906 0.377865 0.756860
O O8 0.361576 0.750000 0.481165
O O9 0.320240 0.928084 0.419924
O O10 0.371085 0.884587 0.664369
O O11 0.297238 0.393719 0.798872
O O12 0.262732 0.569116 0.813955
O O13 0.871501 0.250000 0.601962
O O14 0.689284 0.250000 0.193696
#
# Coordination Sequence:
#
# PCOD9462518 Si02
#       6
#     8   8   8   8   8   8
#     4  10  20  34  53  79 106 134 170 216 263 306
#     4   9  18  34  56  79 104 137 174 210 253 309
#     4   9  18  34  54  74 102 140 173 202 250 318
#     4  10  20  33  50  74 103 135 172 210 253 304
#     4  10  20  34  55  81 106 135 174 216 256 304
#     4  10  19  31  50  75 101 131 171 216 259 303
#
# _framework density 18.837774
#
# number of rings (size 3 to 8) (size 9 to 14) (size 15 to 20)
#    0.000    2.333    0.000    3.500    0.000    4.000 
#    0.000    3.333    0.000    6.000    0.000   14.000 
#    0.000    0.000    0.000    0.000    0.000    0.000 
#
# Total GULP energy -267793.639431 kJ/mol
# GULP energy per Si atom -5579.034155 kJ/mol
# Density = 1.879490 g / cm^3
# Si number density = 18.837774 Si / 1000 Ang^3
#
#
#
# Elastic Constant Matrix: (Units=GPa)
#
#
# Indices 1 2 3 4 5 6 
#
# 1 44.3756 -4.0861 -14.9149 0.0000 0.0000 0.0000
# 2 -4.0861 59.3211 4.6677 0.0000 0.0000 0.0000
# 3 -14.9149 4.6677 52.1887 0.0000 0.0000 0.0000
# 4 0.0000 0.0000 0.0000 20.3746 0.0000 0.0000
# 5 0.0000 0.0000 0.0000 0.0000 10.1031 0.0000
# 6 0.0000 0.0000 0.0000 0.0000 0.0000 17.1453
#
#
#
# Elastic Compliance Matrix: (Units=1/GPa)
#
#
# Indices 1 2 3 4 5 6 
#
# 1 0.025010 0.001169 0.007043 0.000000 0.000000 0.000000
# 2 0.001169 0.017031 -0.001189 0.000000 0.000000 0.000000
# 3 0.007043 -0.001189 0.021280 0.000000 0.000000 0.000000
# 4 0.000000 0.000000 0.000000 0.049081 0.000000 0.000000
# 5 0.000000 0.000000 0.000000 0.000000 0.098980 0.000000
# 6 0.000000 0.000000 0.000000 0.000000 0.000000 0.058325
#
#
# Mechanical properties :
#
#
# Convention : Reuss Voigt Hill
#
# Bulk Modulus (GPa) = 12.92560 14.13542 13.53051
# Shear Modulus (GPa) = 17.76505 20.87250 19.31878
#
# Velocity S-wave (km/s) = 3.07425 3.33229 3.20587
# Velocity P-wave (km/s) = 4.41336 4.72500 4.57184
#
# Compressibility (1/GPa) = 0.07736586
#
# Stress axis : x y z
#
# Youngs Moduli (GPa) = 39.98452 58.71476 46.99160
#
# Poissons Ratio (x) = -0.06861 -0.33096
# Poissons Ratio (y) = -0.04672 0.05589
# Poissons Ratio (z) = -0.28161 0.06983
#
# Static dielectric constant tensor:
#      x y z
#    x 1.655920 0.000000 0.000000 
#    y 0.000000 1.661910 0.000000 
#    z 0.000000 0.000000 1.644750 
# 
# From -- ./inp_files/8578.got.cif
#   From: 2010.05.17/outbox.cif.g08.bks.cpg/sg62_5_cif.got.tgz:8578.got - 2010.06.03 15:25:27.
