data_PCOD9462932
_publ_section_title
;
Structure prediction by ZEFSAII (Michael W. Deem and Ramdas Pophale) SiO2 
 PCOD9462932
Probable space group: P N M A
;
_chemical_formula_sum "Si O2"
_cell_formula_units_Z 64
_cell_length_a 24.714868
_cell_length_b 7.546690
_cell_length_c 15.757482
_cell_angle_alpha 90.000000
_cell_angle_beta 90.000000
_cell_angle_gamma 90.000000
_cell_volume 2939.013802
_symmetry_space_group_name_H-M "P N M A"
_symmetry_group_IT_number 62
_symmetry_cell_setting 'orthorhombic'
loop_
_space_group_symop_operation_xyz
x,y,z
1/2-x,-y,1/2+z
1/2+x,1/2-y,1/2-z
-x,1/2+y,-z
-x,-y,-z
1/2+x,y,1/2-z
1/2-x,1/2+y,1/2+z
x,1/2-y,z
loop_
_atom_site_type_symbol
_atom_site_label
_atom_site_fract_x
_atom_site_fract_y
_atom_site_fract_z
Si Si1 0.608843 0.955238 0.353632
Si Si2 0.375194 0.535188 0.345207
Si Si3 0.994176 0.461159 0.600011
Si Si4 0.493365 0.961857 0.400650
Si Si5 0.888500 0.533766 0.342519
Si Si6 0.376273 0.546095 0.833873
Si Si7 0.192614 0.958173 0.009425
Si Si8 0.814834 0.532153 0.500288
O O1 0.602164 0.750000 0.379590
O O2 0.548106 0.032186 0.357284
O O3 0.650548 0.034836 0.421584
O O4 0.629537 0.960279 0.257906
O O5 0.374714 0.750000 0.347683
O O6 0.435526 0.470662 0.369459
O O7 0.365065 0.479748 0.248413
O O8 0.333558 0.474529 0.416603
O O9 0.990600 0.250000 0.611956
O O10 0.938676 0.537344 0.636181
O O11 0.000000 0.500000 0.500000
O O12 0.049221 0.523316 0.645318
O O13 0.490801 0.750000 0.386121
O O14 0.500000 0.000000 0.500000
O O15 0.889442 0.750000 0.343859
O O16 0.852665 0.476592 0.422168
O O17 0.360908 0.750000 0.822275
O O18 0.340591 0.472060 0.910828
O O19 0.198346 0.750000 0.029869
O O20 0.253398 0.029576 0.010854
O O21 0.815873 0.750000 0.501684
#
# Coordination Sequence:
#
# PCOD9462932 Si02
#       8
#     8   8   8   8   8   8   8   8
#     4  10  21  37  57  84 113 145 187 234 283 333
#     4  10  20  34  57  84 110 142 182 227 278 330
#     4  11  20  35  60  87 117 149 186 230 280 339
#     4  10  19  33  54  82 113 144 179 224 281 338
#     4   9  18  35  58  81 110 147 182 221 273 335
#     4  11  22  37  58  85 115 151 189 229 285 343
#     4  10  21  38  59  79 108 148 190 235 279 330
#     4   9  19  37  58  80 108 148 191 228 279 337
#
# _framework density 21.776012999999999
#
# number of rings (size 3 to 8) (size 9 to 14) (size 15 to 20)
#    0.000    2.000    2.500    1.500    0.000    4.000 
#    0.000    5.000    0.000    0.000    0.000    0.000 
#    0.000    0.000    0.000    0.000    0.000    0.000 
#
# Total GULP energy -357582.368113 kJ/mol
# GULP energy per Si atom -5587.224502 kJ/mol
# Density = 2.172645 g / cm^3
# Si number density = 21.776013 Si / 1000 Ang^3
#
#
#
# Elastic Constant Matrix: (Units=GPa)
#
#
# Indices 1 2 3 4 5 6 
#
# 1 107.5497 -1.6889 15.2312 0.0000 0.0000 0.0000
# 2 -1.6889 49.4432 -19.9572 0.0000 0.0000 0.0000
# 3 15.2312 -19.9572 88.4331 0.0000 0.0000 0.0000
# 4 0.0000 0.0000 0.0000 926.3061 0.0000 0.0000
# 5 0.0000 0.0000 0.0000 0.0000 4.4470 0.0000
# 6 0.0000 0.0000 0.0000 0.0000 0.0000 9.8988
#
#
#
# Elastic Compliance Matrix: (Units=1/GPa)
#
#
# Indices 1 2 3 4 5 6 
#
# 1 0.009537 -0.000371 -0.001726 0.000000 0.000000 0.000000
# 2 -0.000371 0.022267 0.005089 0.000000 0.000000 0.000000
# 3 -0.001726 0.005089 0.012754 0.000000 0.000000 0.000000
# 4 0.000000 0.000000 0.000000 0.001080 0.000000 0.000000
# 5 0.000000 0.000000 0.000000 0.000000 0.224873 0.000000
# 6 0.000000 0.000000 0.000000 0.000000 0.000000 0.101022
#
#
# Mechanical properties :
#
#
# Convention : Reuss Voigt Hill
#
# Bulk Modulus (GPa) = 19.78618 25.84402 22.81510
# Shear Modulus (GPa) = 13.07548 204.91977 108.99762
#
# Velocity S-wave (km/s) = 2.45307 9.71122 7.08256
# Velocity P-wave (km/s) = 4.13876 11.73190 8.79679
#
# Compressibility (1/GPa) = 0.05054033
#
# Stress axis : x y z
#
# Youngs Moduli (GPa) = 104.85837 44.91025 78.40825
#
# Poissons Ratio (x) = 0.01666 0.13535
# Poissons Ratio (y) = 0.03891 -0.39901
# Poissons Ratio (z) = 0.18101 -0.22855
#
# Static dielectric constant tensor:
#      x y z
#    x 1.777670 0.000000 0.000000 
#    y 0.000000 1.838210 0.000000 
#    z 0.000000 0.000000 1.748530 
# 
# From -- ./inp_files/24703.got.cif
#   From: 2010.05.17/outbox.cif.g08.bks.cpg/sg62_13_cif.got.tgz:24703.got - 2010.06.03 15:25:27.
