data_PCOD9462351
_publ_section_title
;
Structure prediction by ZEFSAII (Michael W. Deem and Ramdas Pophale) SiO2 
 PCOD9462351
Probable space group: P N M A
;
_chemical_formula_sum "Si O2"
_cell_formula_units_Z 40
_cell_length_a 11.048122
_cell_length_b 8.419614
_cell_length_c 16.614703
_cell_angle_alpha 90.000000
_cell_angle_beta 90.000000
_cell_angle_gamma 90.000000
_cell_volume 1545.515003
_symmetry_space_group_name_H-M "P N M A"
_symmetry_group_IT_number 62
_symmetry_cell_setting 'orthorhombic'
loop_
_space_group_symop_operation_xyz
x,y,z
1/2-x,-y,1/2+z
1/2+x,1/2-y,1/2-z
-x,1/2+y,-z
-x,-y,-z
1/2+x,y,1/2-z
1/2-x,1/2+y,1/2+z
x,1/2-y,z
loop_
_atom_site_type_symbol
_atom_site_label
_atom_site_fract_x
_atom_site_fract_y
_atom_site_fract_z
Si Si1 0.485869 0.558764 0.870345
Si Si2 0.653756 0.750000 0.690360
Si Si3 0.417309 0.078201 0.694026
Si Si4 0.330022 0.923381 0.395117
Si Si5 0.805450 0.939427 0.478462
Si Si6 0.854286 0.750000 0.824101
O O1 0.486343 0.750000 0.860606
O O2 0.451760 0.474856 0.785748
O O3 0.393703 0.525039 0.943714
O O4 0.613158 0.495552 0.904081
O O5 0.700423 0.589902 0.648139
O O6 0.506285 0.750000 0.690371
O O7 0.732165 0.750000 0.770004
O O8 0.355358 0.250000 0.696984
O O9 0.535349 0.094346 0.639044
O O10 0.346858 0.934532 0.653434
O O11 0.271507 0.750000 0.378436
O O12 0.310542 0.963402 0.488738
O O13 0.782462 0.750000 0.473706
#
# Coordination Sequence:
#
# PCOD9462351 Si02
#       6
#     8   4   8   8   8   4
#     4  10  19  30  46  71 104 142 180 222 279 344
#     4  10  20  34  52  76 108 144 183 228 278 332
#     4  10  20  33  50  73 105 148 187 229 274 334
#     4  10  20  33  50  73 105 148 187 229 274 334
#     4  10  19  30  46  71 104 142 180 222 279 344
#     4  10  20  34  52  76 108 144 183 228 278 332
#
# _framework density 25.881340000000002
#
# number of rings (size 3 to 8) (size 9 to 14) (size 15 to 20)
#    0.000    2.000    2.000    2.400    0.000    4.800 
#    0.000    0.000    0.000    0.000    0.000    0.000 
#    0.000   40.000    4.800    0.000    0.000    0.000 
#
# Total GULP energy -222768.131873 kJ/mol
# GULP energy per Si atom -5569.203297 kJ/mol
# Density = 2.582243 g / cm^3
# Si number density = 25.881340 Si / 1000 Ang^3
#
#
#
# Elastic Constant Matrix: (Units=GPa)
#
#
# Indices 1 2 3 4 5 6 
#
# 1 89.6401 4.0565 45.7059 0.0000 0.0000 0.0000
# 2 4.0565 235.6708 26.8769 0.0000 0.0000 0.0000
# 3 45.7059 26.8769 142.5983 0.0000 0.0000 0.0000
# 4 0.0000 0.0000 0.0000 -27.7840 0.0000 0.0000
# 5 0.0000 0.0000 0.0000 0.0000 50.2261 0.0000
# 6 0.0000 0.0000 0.0000 0.0000 0.0000 -107.3545
#
#
#
# Elastic Compliance Matrix: (Units=1/GPa)
#
#
# Indices 1 2 3 4 5 6 
#
# 1 0.013351 0.000264 -0.004329 0.000000 0.000000 0.000000
# 2 0.000264 0.004342 -0.000903 0.000000 0.000000 0.000000
# 3 -0.004329 -0.000903 0.008570 0.000000 0.000000 0.000000
# 4 0.000000 0.000000 0.000000 -0.035992 0.000000 0.000000
# 5 0.000000 0.000000 0.000000 0.000000 0.019910 0.000000
# 6 0.000000 0.000000 0.000000 0.000000 0.000000 -0.009315
#
#
# Mechanical properties :
#
#
# Convention : Reuss Voigt Hill
#
# Bulk Modulus (GPa) = 61.24804 69.02088 65.13446
# Shear Modulus (GPa) = 307.79163 9.10219 158.44691
#
# Velocity S-wave (km/s) = 10.91707 1.87737 7.83284
# Velocity P-wave (km/s) = 13.51392 5.60584 10.34533
#
# Compressibility (1/GPa) = 0.01632705
#
# Stress axis : x y z
#
# Youngs Moduli (GPa) = 74.90021 230.32804 116.68006
#
# Poissons Ratio (x) = -0.06078 0.50512
# Poissons Ratio (y) = -0.01977 0.10535
# Poissons Ratio (z) = 0.32425 0.20796
#
# Static dielectric constant tensor:
#      x y z
#    x 2.167540 0.000000 0.000000 
#    y 0.000000 2.185920 0.000000 
#    z 0.000000 0.000000 2.092070 
# 
# From -- ./inp_files/26483.got.cif
#   From: 2010.05.17/outbox.cif.g08.bks.cpg/sg62_14_cif.got.tgz:26483.got - 2010.06.03 15:25:27.
