data_PCOD9462462
_publ_section_title
;
Structure prediction by ZEFSAII (Michael W. Deem and Ramdas Pophale) SiO2 
 PCOD9462462
Probable space group: P N M A
;
_chemical_formula_sum "Si O2"
_cell_formula_units_Z 64
_cell_length_a 31.047126
_cell_length_b 8.820146
_cell_length_c 14.696851
_cell_angle_alpha 90.000000
_cell_angle_beta 90.000000
_cell_angle_gamma 90.000000
_cell_volume 4024.588385
_symmetry_space_group_name_H-M "P N M A"
_symmetry_group_IT_number 62
_symmetry_cell_setting 'orthorhombic'
loop_
_space_group_symop_operation_xyz
x,y,z
1/2-x,-y,1/2+z
1/2+x,1/2-y,1/2-z
-x,1/2+y,-z
-x,-y,-z
1/2+x,y,1/2-z
1/2-x,1/2+y,1/2+z
x,1/2-y,z
loop_
_atom_site_type_symbol
_atom_site_label
_atom_site_fract_x
_atom_site_fract_y
_atom_site_fract_z
Si Si1 0.676124 0.927655 0.008110
Si Si2 0.633659 0.071210 0.835101
Si Si3 0.450139 0.430692 0.104292
Si Si4 0.713074 0.568520 0.728189
Si Si5 0.047754 0.431100 0.403945
Si Si6 0.136187 0.069342 0.315762
Si Si7 0.700458 0.068090 0.341852
Si Si8 0.768531 0.430414 0.017839
O O1 0.669906 0.750000 0.990720
O O2 0.660974 0.974682 0.107870
O O3 0.725495 0.974871 0.998434
O O4 0.649817 0.024459 0.935396
O O5 0.631804 0.250000 0.825448
O O6 0.585839 0.002305 0.830910
O O7 0.670208 0.004825 0.769130
O O8 0.445603 0.250000 0.106085
O O9 0.499575 0.471824 0.127599
O O10 0.443794 0.486953 0.000096
O O11 0.709701 0.750000 0.738255
O O12 0.756560 0.523712 0.783497
O O13 0.717578 0.534890 0.621058
O O14 0.048046 0.250000 0.421948
O O15 0.085772 0.462384 0.332383
O O16 0.143125 0.250000 0.333221
O O17 0.158575 0.037124 0.219818
O O18 0.702937 0.250000 0.356864
O O19 0.699958 0.980806 0.437143
O O20 0.759788 0.250000 0.012915
#
# Coordination Sequence:
#
# PCOD9462462 Si02
#       8
#     8   8   8   8   8   8   8   8
#     4  12  22  31  48  73 102 135 171 210 248 290
#     4  12  23  34  50  72  99 137 175 208 252 301
#     4  10  19  31  48  74 103 132 167 208 251 298
#     4  10  21  36  52  73 100 133 169 209 250 294
#     4   9  18  31  50  73 101 136 169 202 248 303
#     4  10  19  34  52  73 102 137 171 205 245 296
#     4  10  20  34  52  74 102 133 169 206 246 291
#     4  11  22  37  53  71 100 135 171 210 253 294
#
# _framework density 15.902246999999999
#
# number of rings (size 3 to 8) (size 9 to 14) (size 15 to 20)
#    0.000    1.500    3.750    3.000    0.000    2.000 
#    0.000    0.000    0.000    0.000    0.000    0.875 
#    0.000    0.000    0.000    0.000    0.000    0.000 
#
# Total GULP energy -357147.489016 kJ/mol
# GULP energy per Si atom -5580.429516 kJ/mol
# Density = 1.586605 g / cm^3
# Si number density = 15.902247 Si / 1000 Ang^3
#
#
#
# Elastic Constant Matrix: (Units=GPa)
#
#
# Indices 1 2 3 4 5 6 
#
# 1 91.7138 26.9709 14.3151 0.0000 0.0000 0.0000
# 2 26.9709 27.2929 18.4796 0.0000 0.0000 0.0000
# 3 14.3151 18.4796 52.6240 0.0000 0.0000 0.0000
# 4 0.0000 0.0000 0.0000 23.0577 0.0000 0.0000
# 5 0.0000 0.0000 0.0000 0.0000 20.7701 0.0000
# 6 0.0000 0.0000 0.0000 0.0000 0.0000 15.3060
#
#
#
# Elastic Compliance Matrix: (Units=1/GPa)
#
#
# Indices 1 2 3 4 5 6 
#
# 1 0.015462 -0.016310 0.001521 0.000000 0.000000 0.000000
# 2 -0.016310 0.065273 -0.018485 0.000000 0.000000 0.000000
# 3 0.001521 -0.018485 0.025080 0.000000 0.000000 0.000000
# 4 0.000000 0.000000 0.000000 0.043369 0.000000 0.000000
# 5 0.000000 0.000000 0.000000 0.000000 0.048146 0.000000
# 6 0.000000 0.000000 0.000000 0.000000 0.000000 0.065334
#
#
# Mechanical properties :
#
#
# Convention : Reuss Voigt Hill
#
# Bulk Modulus (GPa) = 25.46568 32.35131 28.90849
# Shear Modulus (GPa) = 14.60704 19.28445 16.94574
#
# Velocity S-wave (km/s) = 3.03405 3.48614 3.26792
# Velocity P-wave (km/s) = 5.32190 6.04916 5.69714
#
# Compressibility (1/GPa) = 0.03926853
#
# Stress axis : x y z
#
# Youngs Moduli (GPa) = 64.67284 15.32031 39.87241
#
# Poissons Ratio (x) = 0.24988 -0.06066
# Poissons Ratio (y) = 1.05482 0.73703
# Poissons Ratio (z) = -0.09839 0.28319
#
# Static dielectric constant tensor:
#      x y z
#    x 1.565000 0.000000 0.000000 
#    y 0.000000 1.532460 0.000000 
#    z 0.000000 0.000000 1.519320 
# 
# From -- ./inp_files/21271.got.cif
#   From: 2010.05.17/outbox.cif.g08.bks.cpg/sg62_11_cif.got.tgz:21271.got - 2010.06.03 15:25:27.
