data_PCOD9462200
_publ_section_title
;
Structure prediction by ZEFSAII (Michael W. Deem and Ramdas Pophale) SiO2 
 PCOD9462200
Probable space group: P N M A
;
_chemical_formula_sum "Si O2"
_cell_formula_units_Z 52
_cell_length_a 7.661924
_cell_length_b 13.737613
_cell_length_c 21.066502
_cell_angle_alpha 90.000000
_cell_angle_beta 90.000000
_cell_angle_gamma 90.000000
_cell_volume 2217.387253
_symmetry_space_group_name_H-M "P N M A"
_symmetry_group_IT_number 62
_symmetry_cell_setting 'orthorhombic'
loop_
_space_group_symop_operation_xyz
x,y,z
1/2-x,-y,1/2+z
1/2+x,1/2-y,1/2-z
-x,1/2+y,-z
-x,-y,-z
1/2+x,y,1/2-z
1/2-x,1/2+y,1/2+z
x,1/2-y,z
loop_
_atom_site_type_symbol
_atom_site_label
_atom_site_fract_x
_atom_site_fract_y
_atom_site_fract_z
Si Si1 0.332785 0.538446 0.962348
Si Si2 0.528136 0.357719 0.729879
Si Si3 0.820697 0.858126 0.355076
Si Si4 0.689788 0.250000 0.069312
Si Si5 0.849177 0.454749 0.162571
Si Si6 0.046169 0.750000 0.821478
Si Si7 0.188618 0.044686 0.072927
Si Si8 0.681556 0.750000 0.880212
O O1 0.319131 0.653713 0.971987
O O2 0.312615 0.534534 0.885954
O O3 0.500000 0.500000 0.000000
O O4 0.183747 0.476840 0.998138
O O5 0.605339 0.250000 0.716233
O O6 0.346785 0.359426 0.692187
O O7 0.519419 0.365312 0.805905
O O8 0.631414 0.451739 0.705845
O O9 0.825440 0.750000 0.385013
O O10 0.793145 0.952102 0.398059
O O11 0.872320 0.250000 0.106967
O O12 0.530743 0.250000 0.121626
O O13 0.874615 0.353459 0.201788
O O14 0.012527 0.452136 0.113666
O O15 0.834582 0.750000 0.825653
O O16 0.278269 0.149040 0.083816
#
# Coordination Sequence:
#
# PCOD9462200 Si02
#       8
#     8   8   8   4   8   4   8   4
#     4  11  21  34  52  78 110 143 181 226 278 319
#     4   9  18  36  56  81 109 140 178 227 276 323
#     4   9  19  35  57  79 108 142 181 227 273 328
#     4  10  20  36  50  76 112 141 183 230 265 330
#     4   9  19  36  55  77 106 142 186 223 270 334
#     4   8  18  34  57  75 100 152 175 219 280 318
#     4  10  20  35  55  78 105 147 184 223 274 332
#     4  10  18  36  55  73 112 143 178 225 275 320
#
# _framework density 23.451021999999998
#
# number of rings (size 3 to 8) (size 9 to 14) (size 15 to 20)
#    0.000    2.462    1.538    0.462    1.077    1.231 
#    2.769    0.769    0.000    0.000    0.000    0.000 
#    0.000    0.000    0.000    0.000    0.000    0.000 
#
# Total GULP energy -289691.970456 kJ/mol
# GULP energy per Si atom -5570.999432 kJ/mol
# Density = 2.339765 g / cm^3
# Si number density = 23.451022 Si / 1000 Ang^3
#
#
#
# Elastic Constant Matrix: (Units=GPa)
#
#
# Indices 1 2 3 4 5 6 
#
# 1 67.3527 14.2074 5.6821 0.0000 0.0000 0.0000
# 2 14.2074 208.1981 43.3829 0.0000 0.0000 0.0000
# 3 5.6821 43.3829 35.0366 0.0000 0.0000 0.0000
# 4 0.0000 0.0000 0.0000 31.8566 0.0000 0.0000
# 5 0.0000 0.0000 0.0000 0.0000 26.9584 0.0000
# 6 0.0000 0.0000 0.0000 0.0000 0.0000 29.7039
#
#
#
# Elastic Compliance Matrix: (Units=1/GPa)
#
#
# Indices 1 2 3 4 5 6 
#
# 1 0.015129 -0.000702 -0.001584 0.000000 0.000000 0.000000
# 2 -0.000702 0.006506 -0.007942 0.000000 0.000000 0.000000
# 3 -0.001584 -0.007942 0.038632 0.000000 0.000000 0.000000
# 4 0.000000 0.000000 0.000000 0.031391 0.000000 0.000000
# 5 0.000000 0.000000 0.000000 0.000000 0.037094 0.000000
# 6 0.000000 0.000000 0.000000 0.000000 0.000000 0.033666
#
#
# Mechanical properties :
#
#
# Convention : Reuss Voigt Hill
#
# Bulk Modulus (GPa) = 25.11871 48.57024 36.84448
# Shear Modulus (GPa) = 25.49149 34.19146 29.84147
#
# Velocity S-wave (km/s) = 3.30056 3.82251 3.57108
# Velocity P-wave (km/s) = 5.02586 6.34338 5.72266
#
# Compressibility (1/GPa) = 0.03981096
#
# Stress axis : x y z
#
# Youngs Moduli (GPa) = 66.09826 153.70631 25.88515
#
# Poissons Ratio (x) = 0.10796 0.04100
# Poissons Ratio (y) = 0.04643 0.20558
# Poissons Ratio (z) = 0.10469 1.22071
#
# Static dielectric constant tensor:
#      x y z
#    x 2.039660 0.000000 0.000000 
#    y 0.000000 1.888640 0.000000 
#    z 0.000000 0.000000 1.867210 
# 
# From -- ./inp_files/30837.got.cif
#   From: 2010.05.17/outbox.cif.g08.bks.cpg/sg62_16_cif.got.tgz:30837.got - 2010.06.03 15:25:27.
