data_PCOD9462746
_publ_section_title
;
Structure prediction by ZEFSAII (Michael W. Deem and Ramdas Pophale) SiO2 
 PCOD9462746
Probable space group: P N M A
;
_chemical_formula_sum "Si O2"
_cell_formula_units_Z 40
_cell_length_a 5.075157
_cell_length_b 11.420175
_cell_length_c 31.110900
_cell_angle_alpha 90.000000
_cell_angle_beta 90.000000
_cell_angle_gamma 90.000000
_cell_volume 1803.162287
_symmetry_space_group_name_H-M "P N M A"
_symmetry_group_IT_number 62
_symmetry_cell_setting 'orthorhombic'
loop_
_space_group_symop_operation_xyz
x,y,z
1/2-x,-y,1/2+z
1/2+x,1/2-y,1/2-z
-x,1/2+y,-z
-x,-y,-z
1/2+x,y,1/2-z
1/2-x,1/2+y,1/2+z
x,1/2-y,z
loop_
_atom_site_type_symbol
_atom_site_label
_atom_site_fract_x
_atom_site_fract_y
_atom_site_fract_z
Si Si1 0.703322 0.878571 0.553920
Si Si2 0.187824 0.377723 0.981680
Si Si3 0.918377 0.386021 0.721139
Si Si4 0.325726 0.123056 0.596926
Si Si5 0.676738 0.992805 0.133077
O O1 0.817589 0.750000 0.544429
O O2 0.417469 0.877597 0.530392
O O3 0.816984 0.000637 0.534078
O O4 0.711879 0.898532 0.605095
O O5 0.311526 0.250000 0.971897
O O6 0.919440 0.378143 0.952502
O O7 0.708618 0.399760 0.759431
O O8 0.893488 0.250000 0.705694
O O9 0.860089 0.479046 0.683715
O O10 0.217289 0.250000 0.607744
O O11 0.601597 0.102831 0.621040
O O12 0.108539 0.033427 0.612748
#
# Coordination Sequence:
#
# PCOD9462746 Si02
#       5
#     8   8   8   8   8
#     4   9  18  34  55  82 118 156 195 236 279 331
#     4   8  16  32  55  84 117 156 198 238 278 323
#     4  10  20  34  54  80 109 139 176 229 289 343
#     4  10  19  32  53  82 115 149 186 227 272 327
#     4  11  21  34  55  81 112 148 186 228 283 343
#
# _framework density 22.183250000000001
#
# number of rings (size 3 to 8) (size 9 to 14) (size 15 to 20)
#    0.000    2.400    0.000    3.000    0.000    4.000 
#    0.000    4.000    0.000   10.800    0.000    0.000 
#    0.000    0.000    0.000    0.000    0.000    0.000 
#
# Total GULP energy -222718.983490 kJ/mol
# GULP energy per Si atom -5567.974587 kJ/mol
# Density = 2.213276 g / cm^3
# Si number density = 22.183250 Si / 1000 Ang^3
#
#
#
# Elastic Constant Matrix: (Units=GPa)
#
#
# Indices 1 2 3 4 5 6 
#
# 1 62.8553 -1.5262 10.0326 0.0000 0.0000 0.0000
# 2 -1.5262 148.5099 28.0275 0.0000 0.0000 0.0000
# 3 10.0326 28.0275 85.6551 0.0000 0.0000 0.0000
# 4 0.0000 0.0000 0.0000 14.6482 0.0000 0.0000
# 5 0.0000 0.0000 0.0000 0.0000 29.3159 0.0000
# 6 0.0000 0.0000 0.0000 0.0000 0.0000 -9.4049
#
#
#
# Elastic Compliance Matrix: (Units=1/GPa)
#
#
# Indices 1 2 3 4 5 6 
#
# 1 0.016256 0.000561 -0.002088 0.000000 0.000000 0.000000
# 2 0.000561 0.007196 -0.002420 0.000000 0.000000 0.000000
# 3 -0.002088 -0.002420 0.012711 0.000000 0.000000 0.000000
# 4 0.000000 0.000000 0.000000 0.068268 0.000000 0.000000
# 5 0.000000 0.000000 0.000000 0.000000 0.034111 0.000000
# 6 0.000000 0.000000 0.000000 0.000000 0.000000 -0.106327
#
#
# Mechanical properties :
#
#
# Convention : Reuss Voigt Hill
#
# Bulk Modulus (GPa) = 35.37348 41.12091 38.24719
# Shear Modulus (GPa) = 100.94345 24.27760 62.61052
#
# Velocity S-wave (km/s) = 6.75301 3.31178 5.31841
# Velocity P-wave (km/s) = 8.76270 5.76203 7.41572
#
# Compressibility (1/GPa) = 0.02826977
#
# Stress axis : x y z
#
# Youngs Moduli (GPa) = 61.51428 138.96395 78.67057
#
# Poissons Ratio (x) = -0.07797 0.16424
# Poissons Ratio (y) = -0.03451 0.19041
# Poissons Ratio (z) = 0.12842 0.33635
#
# Static dielectric constant tensor:
#      x y z
#    x 1.802240 0.000000 0.000000 
#    y 0.000000 1.904750 0.000000 
#    z 0.000000 0.000000 1.880410 
# 
# From -- ./inp_files/31513.got.cif
#   From: 2010.05.17/outbox.cif.g08.bks.cpg/sg62_16_cif.got.tgz:31513.got - 2010.06.03 15:25:27.
