data_PCOD9462441
_publ_section_title
;
Structure prediction by ZEFSAII (Michael W. Deem and Ramdas Pophale) SiO2 
 PCOD9462441
Probable space group: P N M A
;
_chemical_formula_sum "Si O2"
_cell_formula_units_Z 64
_cell_length_a 14.820506
_cell_length_b 8.742007
_cell_length_c 28.991814
_cell_angle_alpha 90.000000
_cell_angle_beta 90.000000
_cell_angle_gamma 90.000000
_cell_volume 3756.207463
_symmetry_space_group_name_H-M "P N M A"
_symmetry_group_IT_number 62
_symmetry_cell_setting 'orthorhombic'
loop_
_space_group_symop_operation_xyz
x,y,z
1/2-x,-y,1/2+z
1/2+x,1/2-y,1/2-z
-x,1/2+y,-z
-x,-y,-z
1/2+x,y,1/2-z
1/2-x,1/2+y,1/2+z
x,1/2-y,z
loop_
_atom_site_type_symbol
_atom_site_label
_atom_site_fract_x
_atom_site_fract_y
_atom_site_fract_z
Si Si1 0.779781 0.933498 0.634631
Si Si2 0.279459 0.934991 0.136334
Si Si3 0.597633 0.933795 0.321987
Si Si4 0.104938 0.567203 0.448119
Si Si5 0.602022 0.067650 0.222408
Si Si6 0.396148 0.565456 0.048970
Si Si7 0.608259 0.433632 0.677611
Si Si8 0.389758 0.432046 0.221832
O O1 0.777505 0.750000 0.634134
O O2 0.838064 0.983825 0.679435
O O3 0.829706 0.993298 0.589332
O O4 0.680031 0.998897 0.642115
O O5 0.283712 0.750000 0.137875
O O6 0.175125 0.982047 0.142421
O O7 0.328606 0.983767 0.089401
O O8 0.332907 0.999468 0.180195
O O9 0.595640 0.750000 0.321219
O O10 0.495133 0.985383 0.331383
O O11 0.624488 0.990118 0.270970
O O12 0.112484 0.750000 0.446202
O O13 0.124490 0.508796 0.499700
O O14 0.999880 0.525773 0.438389
O O15 0.613764 0.250000 0.227768
O O16 0.496146 0.038573 0.213097
O O17 0.391884 0.750000 0.044363
O O18 0.611535 0.250000 0.677047
O O19 0.632445 0.493100 0.728888
O O20 0.375675 0.250000 0.225049
#
# Coordination Sequence:
#
# PCOD9462441 Si02
#       8
#     8   8   8   8   8   8   8   8
#     4  11  21  33  51  74  99 130 167 205 246 291
#     4  10  19  32  51  74  98 128 165 201 242 291
#     4   9  19  33  49  69  96 130 165 202 241 282
#     4  10  20  34  53  77 103 130 159 195 243 297
#     4   9  19  32  46  68 100 133 163 197 238 286
#     4   9  19  35  54  76 103 131 159 196 243 295
#     4  10  20  34  49  68  97 132 168 205 243 283
#     4  10  19  31  47  71 102 133 164 199 240 286
#
# _framework density 17.038461999999999
#
# number of rings (size 3 to 8) (size 9 to 14) (size 15 to 20)
#    0.000    2.250    0.000    3.000    0.000    5.500 
#    0.000    0.000    0.000    0.750    0.000    0.000 
#    0.000    0.000    0.000    0.000    0.000    0.000 
#
# Total GULP energy -357238.549363 kJ/mol
# GULP energy per Si atom -5581.852334 kJ/mol
# Density = 1.699968 g / cm^3
# Si number density = 17.038462 Si / 1000 Ang^3
#
#
#
# Elastic Constant Matrix: (Units=GPa)
#
#
# Indices 1 2 3 4 5 6 
#
# 1 117.4419 38.5144 99.3128 0.0000 0.0000 0.0000
# 2 38.5144 26.4244 34.5032 0.0000 0.0000 0.0000
# 3 99.3128 34.5032 116.1409 0.0000 0.0000 0.0000
# 4 0.0000 0.0000 0.0000 26.8806 0.0000 0.0000
# 5 0.0000 0.0000 0.0000 0.0000 33.7772 0.0000
# 6 0.0000 0.0000 0.0000 0.0000 0.0000 19.6129
#
#
#
# Elastic Compliance Matrix: (Units=1/GPa)
#
#
# Indices 1 2 3 4 5 6 
#
# 1 0.036365 -0.020258 -0.025077 0.000000 0.000000 0.000000
# 2 -0.020258 0.073113 -0.004397 0.000000 0.000000 0.000000
# 3 -0.025077 -0.004397 0.031360 0.000000 0.000000 0.000000
# 4 0.000000 0.000000 0.000000 0.037202 0.000000 0.000000
# 5 0.000000 0.000000 0.000000 0.000000 0.029606 0.000000
# 6 0.000000 0.000000 0.000000 0.000000 0.000000 0.050987
#
#
# Mechanical properties :
#
#
# Convention : Reuss Voigt Hill
#
# Bulk Modulus (GPa) = 24.17107 67.18532 45.67820
# Shear Modulus (GPa) = 13.44489 21.89926 17.67207
#
# Velocity S-wave (km/s) = 2.81212 3.58897 3.22403
# Velocity P-wave (km/s) = 4.97605 7.52938 6.38171
#
# Compressibility (1/GPa) = 0.04137177
#
# Stress axis : x y z
#
# Youngs Moduli (GPa) = 27.49916 13.67752 31.88741
#
# Poissons Ratio (x) = 0.27709 0.79965
# Poissons Ratio (y) = 0.55709 0.14021
# Poissons Ratio (z) = 0.68961 0.06014
#
# Static dielectric constant tensor:
#      x y z
#    x 1.602010 0.000000 0.000000 
#    y 0.000000 1.569900 0.000000 
#    z 0.000000 0.000000 1.538140 
# 
# From -- ./inp_files/29784.got.cif
#   From: 2010.05.17/outbox.cif.g08.bks.cpg/sg62_15_cif.got.tgz:29784.got - 2010.06.03 15:25:27.
