data_PCOD9462390
_publ_section_title
;
Structure prediction by ZEFSAII (Michael W. Deem and Ramdas Pophale) SiO2 
 PCOD9462390
Probable space group: P N M A
;
_chemical_formula_sum "Si O2"
_cell_formula_units_Z 60
_cell_length_a 27.806547
_cell_length_b 7.362129
_cell_length_c 14.671658
_cell_angle_alpha 90.000000
_cell_angle_beta 90.000000
_cell_angle_gamma 90.000000
_cell_volume 3003.514132
_symmetry_space_group_name_H-M "P N M A"
_symmetry_group_IT_number 62
_symmetry_cell_setting 'orthorhombic'
loop_
_space_group_symop_operation_xyz
x,y,z
1/2-x,-y,1/2+z
1/2+x,1/2-y,1/2-z
-x,1/2+y,-z
-x,-y,-z
1/2+x,y,1/2-z
1/2-x,1/2+y,1/2+z
x,1/2-y,z
loop_
_atom_site_type_symbol
_atom_site_label
_atom_site_fract_x
_atom_site_fract_y
_atom_site_fract_z
Si Si1 0.120135 0.531871 0.569675
Si Si2 0.987110 0.465646 0.394549
Si Si3 0.193142 0.460971 0.079268
Si Si4 0.344625 0.961082 0.871550
Si Si5 0.287602 0.027830 0.183042
Si Si6 0.035014 0.750000 0.255526
Si Si7 0.898190 0.530164 0.812251
Si Si8 0.735440 0.969107 0.615043
O O1 0.121528 0.750000 0.568690
O O2 0.069274 0.481748 0.612606
O O3 0.125721 0.475874 0.464512
O O4 0.166094 0.466302 0.626544
O O5 0.993203 0.250000 0.375733
O O6 0.000000 0.500000 0.500000
O O7 0.017695 0.591068 0.328615
O O8 0.192467 0.250000 0.105409
O O9 0.238578 0.537559 0.135071
O O10 0.141149 0.524541 0.111684
O O11 0.205846 0.474812 0.973417
O O12 0.337406 0.750000 0.849685
O O13 0.373106 0.031902 0.784149
O O14 0.290927 0.035800 0.888178
O O15 0.287923 0.250000 0.180322
O O16 0.286807 0.974556 0.288563
O O17 0.054438 0.589051 0.185594
O O18 0.905690 0.750000 0.812333
O O19 0.736571 0.750000 0.612970
#
# Coordination Sequence:
#
# PCOD9462390 Si02
#       8
#     8   8   8   8   8   4   8   8
#     4  10  21  34  54  78 110 155 194 229 284 353
#     4  11  23  39  56  85 120 153 196 250 300 357
#     4  10  19  35  54  78 117 154 187 238 288 338
#     4  10  19  30  48  77 114 155 189 224 275 329
#     4   9  17  34  53  77 114 157 191 225 283 348
#     4  12  24  38  60  80 108 154 200 246 302 340
#     4  10  22  38  56  81 117 155 197 243 288 349
#     4  10  19  32  52  79 113 153 191 233 276 333
#
# _framework density 19.976599
#
# number of rings (size 3 to 8) (size 9 to 14) (size 15 to 20)
#    0.000    1.867    3.333    1.200    4.667    1.067 
#    0.000    1.333    0.000    0.000    0.000    0.933 
#    0.000    0.000    0.000    0.000    0.000    0.000 
#
# Total GULP energy -334004.230391 kJ/mol
# GULP energy per Si atom -5566.737173 kJ/mol
# Density = 1.993113 g / cm^3
# Si number density = 19.976599 Si / 1000 Ang^3
#
#
#
# Elastic Constant Matrix: (Units=GPa)
#
#
# Indices 1 2 3 4 5 6 
#
# 1 17.3902 8.7379 -10.8980 0.0000 0.0000 0.0000
# 2 8.7379 100.2755 -9.0379 0.0000 0.0000 0.0000
# 3 -10.8980 -9.0379 60.2959 0.0000 0.0000 0.0000
# 4 0.0000 0.0000 0.0000 7.6359 0.0000 0.0000
# 5 0.0000 0.0000 0.0000 0.0000 32.6607 0.0000
# 6 0.0000 0.0000 0.0000 0.0000 0.0000 0.5775
#
#
#
# Elastic Compliance Matrix: (Units=1/GPa)
#
#
# Indices 1 2 3 4 5 6 
#
# 1 0.067068 -0.004817 0.011400 0.000000 0.000000 0.000000
# 2 -0.004817 0.010455 0.000697 0.000000 0.000000 0.000000
# 3 0.011400 0.000697 0.018750 0.000000 0.000000 0.000000
# 4 0.000000 0.000000 0.000000 0.130961 0.000000 0.000000
# 5 0.000000 0.000000 0.000000 0.000000 0.030618 0.000000
# 6 0.000000 0.000000 0.000000 0.000000 0.000000 1.731558
#
#
# Mechanical properties :
#
#
# Convention : Reuss Voigt Hill
#
# Bulk Modulus (GPa) = 9.02264 17.28505 13.15384
# Shear Modulus (GPa) = 2.48534 20.78548 11.63541
#
# Velocity S-wave (km/s) = 1.11661 3.22916 2.41602
# Velocity P-wave (km/s) = 2.48774 4.75129 3.79234
#
# Compressibility (1/GPa) = 0.11083235
#
# Stress axis : x y z
#
# Youngs Moduli (GPa) = 14.91028 95.64778 53.33405
#
# Poissons Ratio (x) = 0.46071 -0.60801
# Poissons Ratio (y) = 0.07182 -0.03715
# Poissons Ratio (z) = -0.16998 -0.06662
#
# Static dielectric constant tensor:
#      x y z
#    x 1.753860 0.000000 0.000000 
#    y 0.000000 1.797330 0.000000 
#    z 0.000000 0.000000 1.666480 
# 
# From -- ./inp_files/21115.got.cif
#   From: 2010.05.17/outbox.cif.g08.bks.cpg/sg62_11_cif.got.tgz:21115.got - 2010.06.03 15:25:27.
