data_PCOD9462551
_publ_section_title
;
Structure prediction by ZEFSAII (Michael W. Deem and Ramdas Pophale) SiO2 
 PCOD9462551
Probable space group: P N M A
;
_chemical_formula_sum "Si O2"
_cell_formula_units_Z 56
_cell_length_a 21.630945
_cell_length_b 7.903427
_cell_length_c 15.219194
_cell_angle_alpha 90.000000
_cell_angle_beta 90.000000
_cell_angle_gamma 90.000000
_cell_volume 2601.852019
_symmetry_space_group_name_H-M "P N M A"
_symmetry_group_IT_number 62
_symmetry_cell_setting 'orthorhombic'
loop_
_space_group_symop_operation_xyz
x,y,z
1/2-x,-y,1/2+z
1/2+x,1/2-y,1/2-z
-x,1/2+y,-z
-x,-y,-z
1/2+x,y,1/2-z
1/2-x,1/2+y,1/2+z
x,1/2-y,z
loop_
_atom_site_type_symbol
_atom_site_label
_atom_site_fract_x
_atom_site_fract_y
_atom_site_fract_z
Si Si1 0.249730 0.053083 0.192116
Si Si2 0.229027 0.456055 0.994699
Si Si3 0.884771 0.450805 0.744649
Si Si4 0.453392 0.046477 0.077655
Si Si5 0.351880 0.548688 0.338799
Si Si6 0.515961 0.950574 0.730780
Si Si7 0.138804 0.954678 0.443912
O O1 0.266051 0.250000 0.182191
O O2 0.179352 0.034051 0.226392
O O3 0.301871 0.986894 0.260289
O O4 0.242680 0.979948 0.092980
O O5 0.223829 0.250000 0.001381
O O6 0.173511 0.516824 0.932968
O O7 0.289885 0.496528 0.938523
O O8 0.873414 0.250000 0.743431
O O9 0.895201 0.513089 0.644006
O O10 0.948308 0.482678 0.796775
O O11 0.451582 0.250000 0.086681
O O12 0.469596 0.974889 0.172072
O O13 0.389076 0.985617 0.035863
O O14 0.500000 0.000000 0.000000
O O15 0.355405 0.750000 0.344631
O O16 0.420951 0.484203 0.321071
O O17 0.508050 0.750000 0.736111
O O18 0.133663 0.750000 0.445665
#
# Coordination Sequence:
#
# PCOD9462551 Si02
#       7
#     8   8   8   8   8   8   8
#     4  11  22  39  64  92 122 156 198 250 304 351
#     4   9  19  37  61  86 115 154 198 245 298 355
#     4  11  21  37  61  86 118 158 200 241 291 358
#     4  10  19  31  51  79 113 151 189 231 289 356
#     4  11  22  40  64  90 120 160 204 245 297 362
#     4  11  23  38  57  86 123 158 197 250 306 354
#     4   9  16  31  55  80 110 149 188 231 286 348
#
# _framework density 21.523130999999999
#
# number of rings (size 3 to 8) (size 9 to 14) (size 15 to 20)
#    0.000    1.714    2.857    2.571    0.000    2.857 
#    0.000    3.571    0.000    0.000    0.000    0.000 
#    0.000    0.000    0.000    0.000    0.000    0.000 
#
# Total GULP energy -312175.171932 kJ/mol
# GULP energy per Si atom -5574.556642 kJ/mol
# Density = 2.147414 g / cm^3
# Si number density = 21.523131 Si / 1000 Ang^3
#
#
#
# Elastic Constant Matrix: (Units=GPa)
#
#
# Indices 1 2 3 4 5 6 
#
# 1 75.0686 -17.5298 2.3230 0.0000 0.0000 0.0000
# 2 -17.5298 24.5285 -2.5226 0.0000 0.0000 0.0000
# 3 2.3230 -2.5226 49.0400 0.0000 0.0000 0.0000
# 4 0.0000 0.0000 0.0000 12.5538 0.0000 0.0000
# 5 0.0000 0.0000 0.0000 0.0000 30.2568 0.0000
# 6 0.0000 0.0000 0.0000 0.0000 0.0000 23.3689
#
#
#
# Elastic Compliance Matrix: (Units=1/GPa)
#
#
# Indices 1 2 3 4 5 6 
#
# 1 0.015991 0.011411 -0.000171 0.000000 0.000000 0.000000
# 2 0.011411 0.049128 0.001987 0.000000 0.000000 0.000000
# 3 -0.000171 0.001987 0.020502 0.000000 0.000000 0.000000
# 4 0.000000 0.000000 0.000000 0.079657 0.000000 0.000000
# 5 0.000000 0.000000 0.000000 0.000000 0.033050 0.000000
# 6 0.000000 0.000000 0.000000 0.000000 0.000000 0.042792
#
#
# Mechanical properties :
#
#
# Convention : Reuss Voigt Hill
#
# Bulk Modulus (GPa) = 8.92260 12.57536 10.74898
# Shear Modulus (GPa) = 19.83930 24.32700 22.08315
#
# Velocity S-wave (km/s) = 3.03935 3.36560 3.20663
# Velocity P-wave (km/s) = 4.05851 4.57804 4.32608
#
# Compressibility (1/GPa) = 0.11207500
#
# Stress axis : x y z
#
# Youngs Moduli (GPa) = 62.53494 20.35485 48.77620
#
# Poissons Ratio (x) = -0.23227 0.00832
# Poissons Ratio (y) = -0.71358 -0.09690
# Poissons Ratio (z) = 0.01066 -0.04044
#
# Static dielectric constant tensor:
#      x y z
#    x 1.840780 0.000000 0.000000 
#    y 0.000000 1.784020 0.000000 
#    z 0.000000 0.000000 1.812300 
# 
# From -- ./inp_files/20402.got.cif
#   From: 2010.05.17/outbox.cif.g08.bks.cpg/sg62_11_cif.got.tgz:20402.got - 2010.06.03 15:25:27.
