data_PCOD9462329
_publ_section_title
;
Structure prediction by ZEFSAII (Michael W. Deem and Ramdas Pophale) SiO2 
 PCOD9462329
Probable space group: P N M A
;
_chemical_formula_sum "Si O2"
_cell_formula_units_Z 48
_cell_length_a 24.614822
_cell_length_b 7.924710
_cell_length_c 14.260512
_cell_angle_alpha 90.000000
_cell_angle_beta 90.000000
_cell_angle_gamma 90.000000
_cell_volume 2781.731423
_symmetry_space_group_name_H-M "P N M A"
_symmetry_group_IT_number 62
_symmetry_cell_setting 'orthorhombic'
loop_
_space_group_symop_operation_xyz
x,y,z
1/2-x,-y,1/2+z
1/2+x,1/2-y,1/2-z
-x,1/2+y,-z
-x,-y,-z
1/2+x,y,1/2-z
1/2-x,1/2+y,1/2+z
x,1/2-y,z
loop_
_atom_site_type_symbol
_atom_site_label
_atom_site_fract_x
_atom_site_fract_y
_atom_site_fract_z
Si Si1 0.334621 0.954177 0.717985
Si Si2 0.440203 0.551063 0.616120
Si Si3 0.273959 0.953546 0.111590
Si Si4 0.226287 0.453794 0.401225
Si Si5 0.165131 0.451685 0.794661
Si Si6 0.439013 0.050098 0.406164
O O1 0.336908 0.750000 0.720702
O O2 0.392253 0.020129 0.680694
O O3 0.315199 0.013987 0.820602
O O4 0.286377 0.001270 0.646674
O O5 0.443204 0.750000 0.637176
O O6 0.501648 0.483091 0.624918
O O7 0.424848 0.529520 0.506829
O O8 0.277563 0.750000 0.110024
O O9 0.315116 0.014648 0.192508
O O10 0.283921 0.016436 0.006404
O O11 0.223483 0.250000 0.402938
O O12 0.286407 0.501162 0.365929
O O13 0.161403 0.250000 0.791206
O O14 0.108324 0.519691 0.832107
O O15 0.444277 0.250000 0.422702
#
# Coordination Sequence:
#
# PCOD9462329 Si02
#       6
#     8   8   8   8   8   8
#     4   9  17  29  46  66  87 112 142 177 216 257
#     4   9  18  31  46  66  90 115 144 179 219 259
#     4   9  18  30  44  64  89 115 142 174 213 257
#     4   9  17  30  47  66  87 113 145 178 215 259
#     4  10  19  30  44  64  90 117 144 176 215 256
#     4  10  19  30  45  65  89 117 147 178 214 258
#
# _framework density 17.255438999999999
#
# number of rings (size 3 to 8) (size 9 to 14) (size 15 to 20)
#    0.000    2.667    0.000    2.000    0.000    5.333 
#    0.000    0.000    0.000    1.000    0.000    0.000 
#    0.000    0.000    0.000    0.000    0.000    1.000 
#
# Total GULP energy -267565.020703 kJ/mol
# GULP energy per Si atom -5574.271265 kJ/mol
# Density = 1.721616 g / cm^3
# Si number density = 17.255439 Si / 1000 Ang^3
#
#
#
# Elastic Constant Matrix: (Units=GPa)
#
#
# Indices 1 2 3 4 5 6 
#
# 1 117.8646 -2.4465 73.8589 0.0000 0.0000 0.0000
# 2 -2.4465 11.6418 -4.5338 0.0000 0.0000 0.0000
# 3 73.8589 -4.5338 124.4872 0.0000 0.0000 0.0000
# 4 0.0000 0.0000 0.0000 15.8027 0.0000 0.0000
# 5 0.0000 0.0000 0.0000 0.0000 23.1504 0.0000
# 6 0.0000 0.0000 0.0000 0.0000 0.0000 12.2868
#
#
#
# Elastic Compliance Matrix: (Units=1/GPa)
#
#
# Indices 1 2 3 4 5 6 
#
# 1 0.013506 -0.000287 -0.008024 0.000000 0.000000 0.000000
# 2 -0.000287 0.087139 0.003344 0.000000 0.000000 0.000000
# 3 -0.008024 0.003344 0.012915 0.000000 0.000000 0.000000
# 4 0.000000 0.000000 0.000000 0.063280 0.000000 0.000000
# 5 0.000000 0.000000 0.000000 0.000000 0.043196 0.000000
# 6 0.000000 0.000000 0.000000 0.000000 0.000000 0.081388
#
#
# Mechanical properties :
#
#
# Convention : Reuss Voigt Hill
#
# Bulk Modulus (GPa) = 9.64994 43.08342 26.36668
# Shear Modulus (GPa) = 14.45498 22.72231 18.58865
#
# Velocity S-wave (km/s) = 2.89746 3.63274 3.28573
# Velocity P-wave (km/s) = 4.09856 6.52824 5.45051
#
# Compressibility (1/GPa) = 0.10362754
#
# Stress axis : x y z
#
# Youngs Moduli (GPa) = 74.03852 11.47587 77.42720
#
# Poissons Ratio (x) = 0.00329 0.62127
# Poissons Ratio (y) = 0.02121 -0.25889
# Poissons Ratio (z) = 0.59408 -0.03837
#
# Static dielectric constant tensor:
#      x y z
#    x 1.584330 0.000000 0.000000 
#    y 0.000000 1.620530 0.000000 
#    z 0.000000 0.000000 1.593490 
# 
# From -- ./inp_files/14723.got.cif
#   From: 2010.05.17/outbox.cif.g08.bks.cpg/sg62_8_cif.got.tgz:14723.got - 2010.06.03 15:25:27.
