data_PCOD9462313
_publ_section_title
;
Structure prediction by ZEFSAII (Michael W. Deem and Ramdas Pophale) SiO2 
 PCOD9462313
Probable space group: P N M A
;
_chemical_formula_sum "Si O2"
_cell_formula_units_Z 36
_cell_length_a 6.826324
_cell_length_b 7.145058
_cell_length_c 25.882414
_cell_angle_alpha 90.000000
_cell_angle_beta 90.000000
_cell_angle_gamma 90.000000
_cell_volume 1262.401307
_symmetry_space_group_name_H-M "P N M A"
_symmetry_group_IT_number 62
_symmetry_cell_setting 'orthorhombic'
loop_
_space_group_symop_operation_xyz
x,y,z
1/2-x,-y,1/2+z
1/2+x,1/2-y,1/2-z
-x,1/2+y,-z
-x,-y,-z
1/2+x,y,1/2-z
1/2-x,1/2+y,1/2+z
x,1/2-y,z
loop_
_atom_site_type_symbol
_atom_site_label
_atom_site_fract_x
_atom_site_fract_y
_atom_site_fract_z
Si Si1 0.268636 0.528696 0.295392
Si Si2 0.682408 0.028214 0.821442
Si Si3 0.810400 0.525252 0.433007
Si Si4 0.534119 0.750000 0.626185
Si Si5 0.233614 0.037109 0.950685
O O1 0.317723 0.750000 0.294863
O O2 0.257189 0.466819 0.235656
O O3 0.420664 0.412017 0.328022
O O4 0.053958 0.506691 0.320200
O O5 0.724768 0.250000 0.823840
O O6 0.746111 0.939048 0.876710
O O7 0.792138 0.750000 0.430128
O O8 0.717567 0.469345 0.487335
O O9 0.041113 0.480443 0.439464
O O10 0.591683 0.590703 0.581248
O O11 0.208111 0.250000 0.933278
#
# Coordination Sequence:
#
# PCOD9462313 Si02
#       5
#     8   8   8   4   8
#     4  10  21  36  53  77 111 145 175 220 263 318
#     4   9  18  34  55  77 111 143 178 215 267 318
#     4   9  16  29  48  74 108 136 172 219 275 318
#     4  12  20  32  50  76 110 138 184 212 274 320
#     4  10  19  29  47  76 108 138 171 224 279 311
#
# _framework density 28.51708
#
# number of rings (size 3 to 8) (size 9 to 14) (size 15 to 20)
#    0.000    2.222    3.333    0.667    1.556    0.889 
#    2.000    0.000    0.000    0.000    0.000    1.556 
#    0.000    0.000    0.000    0.000    0.000    0.000 
#
# Total GULP energy -201058.529265 kJ/mol
# GULP energy per Si atom -5584.959146 kJ/mol
# Density = 2.845217 g / cm^3
# Si number density = 28.517080 Si / 1000 Ang^3
#
#
#
# Elastic Constant Matrix: (Units=GPa)
#
#
# Indices 1 2 3 4 5 6 
#
# 1 91.8135 -47.3317 57.0061 0.0000 0.0000 0.0000
# 2 -47.3317 134.0681 11.7225 0.0000 0.0000 0.0000
# 3 57.0061 11.7225 291.7484 0.0000 0.0000 0.0000
# 4 0.0000 0.0000 0.0000 107.3369 0.0000 0.0000
# 5 0.0000 0.0000 0.0000 0.0000 78.4771 0.0000
# 6 0.0000 0.0000 0.0000 0.0000 0.0000 153.3185
#
#
#
# Elastic Compliance Matrix: (Units=1/GPa)
#
#
# Indices 1 2 3 4 5 6 
#
# 1 0.016066 0.005967 -0.003379 0.000000 0.000000 0.000000
# 2 0.005967 0.009702 -0.001556 0.000000 0.000000 0.000000
# 3 -0.003379 -0.001556 0.004150 0.000000 0.000000 0.000000
# 4 0.000000 0.000000 0.000000 0.009316 0.000000 0.000000
# 5 0.000000 0.000000 0.000000 0.000000 0.012743 0.000000
# 6 0.000000 0.000000 0.000000 0.000000 0.000000 0.006522
#
#
# Mechanical properties :
#
#
# Convention : Reuss Voigt Hill
#
# Bulk Modulus (GPa) = 31.26641 62.26928 46.76785
# Shear Modulus (GPa) = 74.52099 100.90870 87.71484
#
# Velocity S-wave (km/s) = 5.11750 5.95501 5.55207
# Velocity P-wave (km/s) = 6.77542 8.31662 7.58526
#
# Compressibility (1/GPa) = 0.03198320
#
# Stress axis : x y z
#
# Youngs Moduli (GPa) = 62.24351 103.07496 240.94317
#
# Poissons Ratio (x) = -0.61509 0.81414
# Poissons Ratio (y) = -0.37143 0.37486
# Poissons Ratio (z) = 0.21032 0.16037
#
# Static dielectric constant tensor:
#      x y z
#    x 2.426000 0.000000 0.000000 
#    y 0.000000 1.724190 0.000000 
#    z 0.000000 0.000000 2.125560 
# 
# From -- ./inp_files/26405.got.cif
#   From: 2010.05.17/outbox.cif.g08.bks.cpg/sg62_14_cif.got.tgz:26405.got - 2010.06.03 15:25:27.
