data_PCOD9462854
_publ_section_title
;
Structure prediction by ZEFSAII (Michael W. Deem and Ramdas Pophale) SiO2 
 PCOD9462854
Probable space group: P N M A
;
_chemical_formula_sum "Si O2"
_cell_formula_units_Z 48
_cell_length_a 16.482567
_cell_length_b 17.901671
_cell_length_c 9.737191
_cell_angle_alpha 90.000000
_cell_angle_beta 90.000000
_cell_angle_gamma 90.000000
_cell_volume 2873.109050
_symmetry_space_group_name_H-M "P N M A"
_symmetry_group_IT_number 62
_symmetry_cell_setting 'orthorhombic'
loop_
_space_group_symop_operation_xyz
x,y,z
1/2-x,-y,1/2+z
1/2+x,1/2-y,1/2-z
-x,1/2+y,-z
-x,-y,-z
1/2+x,y,1/2-z
1/2-x,1/2+y,1/2+z
x,1/2-y,z
loop_
_atom_site_type_symbol
_atom_site_label
_atom_site_fract_x
_atom_site_fract_y
_atom_site_fract_z
Si Si1 0.242524 0.955575 0.834597
Si Si2 0.697641 0.922063 0.972249
Si Si3 0.626227 0.163730 0.188862
Si Si4 0.929034 0.987426 0.109244
Si Si5 0.643626 0.164703 0.514444
Si Si6 0.977976 0.436805 0.392500
O O1 0.228137 0.961639 0.670124
O O2 0.290904 0.878614 0.851588
O O3 0.155401 0.966209 0.908342
O O4 0.297831 0.019465 0.902712
O O5 0.761145 0.857178 0.008265
O O6 0.606323 0.898800 0.938825
O O7 0.629261 0.250000 0.150882
O O8 0.616844 0.158635 0.354734
O O9 0.550284 0.121266 0.124543
O O10 0.962506 0.018189 0.252026
O O11 0.901047 0.900681 0.099582
O O12 0.000000 0.000000 0.000000
O O13 0.630929 0.250000 0.560461
O O14 0.000000 0.500000 0.500000
#
# Coordination Sequence:
#
# PCOD9462854 Si02
#       6
#     8   8   8   8   8   8
#     4   9  18  32  51  76 100 136 175 216 259 318
#     4   9  18  31  53  75 102 133 177 214 263 321
#     4  10  19  33  52  79 111 141 174 223 275 316
#     4  10  19  34  55  81 102 140 186 222 260 317
#     4   9  18  34  55  77 104 138 179 227 270 312
#     4  11  20  32  53  82 109 142 178 219 265 327
#
# _framework density 16.70664
#
# number of rings (size 3 to 8) (size 9 to 14) (size 15 to 20)
#    0.000    2.333    3.333    0.000    0.000    0.667 
#    0.000    4.167    0.000    0.000    0.000    0.000 
#    0.000    0.000    0.000    0.000    0.000    0.000 
#
# Total GULP energy -267244.144769 kJ/mol
# GULP energy per Si atom -5567.586349 kJ/mol
# Density = 1.666861 g / cm^3
# Si number density = 16.706640 Si / 1000 Ang^3
#
#
#
# Elastic Constant Matrix: (Units=GPa)
#
#
# Indices 1 2 3 4 5 6 
#
# 1 82.6560 49.0684 25.6764 0.0000 0.0000 0.0000
# 2 49.0684 119.5171 17.5472 0.0000 0.0000 0.0000
# 3 25.6764 17.5472 19.5137 0.0000 0.0000 0.0000
# 4 0.0000 0.0000 0.0000 19.5309 0.0000 0.0000
# 5 0.0000 0.0000 0.0000 0.0000 22.0291 0.0000
# 6 0.0000 0.0000 0.0000 0.0000 0.0000 20.7827
#
#
#
# Elastic Compliance Matrix: (Units=1/GPa)
#
#
# Indices 1 2 3 4 5 6 
#
# 1 0.023605 -0.005911 -0.025744 0.000000 0.000000 0.000000
# 2 -0.005911 0.011120 -0.002221 0.000000 0.000000 0.000000
# 3 -0.025744 -0.002221 0.087118 0.000000 0.000000 0.000000
# 4 0.000000 0.000000 0.000000 0.051201 0.000000 0.000000
# 5 0.000000 0.000000 0.000000 0.000000 0.045394 0.000000
# 6 0.000000 0.000000 0.000000 0.000000 0.000000 0.048117
#
#
# Mechanical properties :
#
#
# Convention : Reuss Voigt Hill
#
# Bulk Modulus (GPa) = 18.48781 45.14119 31.81450
# Shear Modulus (GPa) = 14.19095 21.09486 17.64291
#
# Velocity S-wave (km/s) = 2.91764 3.55725 3.25321
# Velocity P-wave (km/s) = 4.73713 6.62953 5.76155
#
# Compressibility (1/GPa) = 0.05408969
#
# Stress axis : x y z
#
# Youngs Moduli (GPa) = 42.36444 89.92757 11.47875
#
# Poissons Ratio (x) = 0.53160 0.29551
# Poissons Ratio (y) = 0.25043 0.02550
# Poissons Ratio (z) = 1.09062 0.19974
#
# Static dielectric constant tensor:
#      x y z
#    x 1.943900 0.000000 0.000000 
#    y 0.000000 1.537620 0.000000 
#    z 0.000000 0.000000 1.526250 
# 
# From -- ./inp_files/6461.got.cif
#   From: 2010.05.17/outbox.cif.g08.bks.cpg/sg62_4_cif.got.tgz:6461.got - 2010.06.03 15:25:27.
