data_PCOD9462401
_publ_section_title
;
Structure prediction by ZEFSAII (Michael W. Deem and Ramdas Pophale) SiO2 
 PCOD9462401
Probable space group: P N M A
;
_chemical_formula_sum "Si O2"
_cell_formula_units_Z 64
_cell_length_a 34.689198
_cell_length_b 8.696505
_cell_length_c 12.235120
_cell_angle_alpha 90.000000
_cell_angle_beta 90.000000
_cell_angle_gamma 90.000000
_cell_volume 3691.027181
_symmetry_space_group_name_H-M "P N M A"
_symmetry_group_IT_number 62
_symmetry_cell_setting 'orthorhombic'
loop_
_space_group_symop_operation_xyz
x,y,z
1/2-x,-y,1/2+z
1/2+x,1/2-y,1/2-z
-x,1/2+y,-z
-x,-y,-z
1/2+x,y,1/2-z
1/2-x,1/2+y,1/2+z
x,1/2-y,z
loop_
_atom_site_type_symbol
_atom_site_label
_atom_site_fract_x
_atom_site_fract_y
_atom_site_fract_z
Si Si1 0.820420 0.565508 0.115652
Si Si2 0.629745 0.564470 0.183029
Si Si3 0.467723 0.564883 0.143346
Si Si4 0.333365 0.064965 0.041176
Si Si5 0.548749 0.433273 0.109164
Si Si6 0.815082 0.065584 0.873307
Si Si7 0.234553 0.934733 0.698292
Si Si8 0.388081 0.564963 0.227384
O O1 0.816446 0.750000 0.119143
O O2 0.788240 0.492197 0.194835
O O3 0.861872 0.522680 0.168959
O O4 0.817019 0.506893 0.993031
O O5 0.628436 0.750000 0.181402
O O6 0.587099 0.502892 0.161023
O O7 0.649355 0.516691 0.296236
O O8 0.656884 0.514321 0.081306
O O9 0.471768 0.750000 0.146731
O O10 0.509162 0.490882 0.163571
O O11 0.432639 0.516882 0.221982
O O12 0.454849 0.522371 0.019378
O O13 0.334921 0.250000 0.043911
O O14 0.292502 0.020583 0.094383
O O15 0.365898 0.000892 0.122286
O O16 0.550877 0.250000 0.113909
O O17 0.815153 0.250000 0.881863
O O18 0.775822 0.011434 0.815514
O O19 0.237960 0.750000 0.700572
O O20 0.387604 0.750000 0.218614
#
# Coordination Sequence:
#
# PCOD9462401 Si02
#       8
#     8   8   8   8   8   8   8   8
#     4  10  21  38  58  79 108 142 182 229 272 319
#     4  10  21  36  53  75 108 147 178 218 272 323
#     4   9  17  30  49  77 111 142 171 211 267 324
#     4   9  18  32  52  77 105 136 172 215 266 321
#     4  10  19  30  49  78 111 142 177 217 261 323
#     4  11  24  39  56  79 108 146 187 226 274 327
#     4  10  21  37  58  83 108 138 178 226 276 326
#     4   9  17  32  54  79 105 138 175 216 265 317
#
# _framework density 17.339347
#
# number of rings (size 3 to 8) (size 9 to 14) (size 15 to 20)
#    0.000    2.250    1.250    1.500    1.750    3.000 
#    0.000    0.000    0.000    0.750    0.000    0.000 
#    0.000    0.000    0.000    0.000    0.000    0.000 
#
# Total GULP energy -357054.496709 kJ/mol
# GULP energy per Si atom -5578.976511 kJ/mol
# Density = 1.729988 g / cm^3
# Si number density = 17.339347 Si / 1000 Ang^3
#
#
#
# Elastic Constant Matrix: (Units=GPa)
#
#
# Indices 1 2 3 4 5 6 
#
# 1 111.6167 17.7443 44.7422 0.0000 0.0000 0.0000
# 2 17.7443 15.8036 18.0293 0.0000 0.0000 0.0000
# 3 44.7422 18.0293 90.1292 0.0000 0.0000 0.0000
# 4 0.0000 0.0000 0.0000 18.0376 0.0000 0.0000
# 5 0.0000 0.0000 0.0000 0.0000 20.3876 0.0000
# 6 0.0000 0.0000 0.0000 0.0000 0.0000 27.6201
#
#
#
# Elastic Compliance Matrix: (Units=1/GPa)
#
#
# Indices 1 2 3 4 5 6 
#
# 1 0.012039 -0.008680 -0.004240 0.000000 0.000000 0.000000
# 2 -0.008680 0.088245 -0.013343 0.000000 0.000000 0.000000
# 3 -0.004240 -0.013343 0.015869 0.000000 0.000000 0.000000
# 4 0.000000 0.000000 0.000000 0.055440 0.000000 0.000000
# 5 0.000000 0.000000 0.000000 0.000000 0.049050 0.000000
# 6 0.000000 0.000000 0.000000 0.000000 0.000000 0.036206
#
#
# Mechanical properties :
#
#
# Convention : Reuss Voigt Hill
#
# Bulk Modulus (GPa) = 15.71675 42.06455 28.89065
# Shear Modulus (GPa) = 15.12476 22.34463 18.73470
#
# Velocity S-wave (km/s) = 2.95664 3.59369 3.29062
# Velocity P-wave (km/s) = 4.55407 6.44452 5.57993
#
# Compressibility (1/GPa) = 0.06362638
#
# Stress axis : x y z
#
# Youngs Moduli (GPa) = 83.06502 11.33205 63.01509
#
# Poissons Ratio (x) = 0.09836 0.26718
# Poissons Ratio (y) = 0.72100 0.84084
# Poissons Ratio (z) = 0.35220 0.15121
#
# Static dielectric constant tensor:
#      x y z
#    x 1.589770 0.000000 0.000000 
#    y 0.000000 1.580740 0.000000 
#    z 0.000000 0.000000 1.575380 
# 
# From -- ./inp_files/15874.got.cif
#   From: 2010.05.17/outbox.cif.g08.bks.cpg/sg62_8_cif.got.tgz:15874.got - 2010.06.03 15:25:27.
