data_PCOD9462424
_publ_section_title
;
Structure prediction by ZEFSAII (Michael W. Deem and Ramdas Pophale) SiO2 
 PCOD9462424
Probable space group: P N M A
;
_chemical_formula_sum "Si O2"
_cell_formula_units_Z 64
_cell_length_a 26.845094
_cell_length_b 9.003438
_cell_length_c 18.902240
_cell_angle_alpha 90.000000
_cell_angle_beta 90.000000
_cell_angle_gamma 90.000000
_cell_volume 4568.636239
_symmetry_space_group_name_H-M "P N M A"
_symmetry_group_IT_number 62
_symmetry_cell_setting 'orthorhombic'
loop_
_space_group_symop_operation_xyz
x,y,z
1/2-x,-y,1/2+z
1/2+x,1/2-y,1/2-z
-x,1/2+y,-z
-x,-y,-z
1/2+x,y,1/2-z
1/2-x,1/2+y,1/2+z
x,1/2-y,z
loop_
_atom_site_type_symbol
_atom_site_label
_atom_site_fract_x
_atom_site_fract_y
_atom_site_fract_z
Si Si1 0.651203 0.572573 0.153307
Si Si2 0.198916 0.421351 0.216700
Si Si3 0.056552 0.426425 0.418383
Si Si4 0.353304 0.928188 0.169854
Si Si5 0.549464 0.427895 0.914811
Si Si6 0.694248 0.920503 0.702457
Si Si7 0.251169 0.928524 0.091323
Si Si8 0.744665 0.429911 0.073155
O O1 0.652675 0.750000 0.152074
O O2 0.662549 0.512233 0.232133
O O3 0.599329 0.510572 0.124091
O O4 0.695210 0.506523 0.103766
O O5 0.183458 0.250000 0.210864
O O6 0.252387 0.424025 0.257131
O O7 0.210509 0.494080 0.141161
O O8 0.059885 0.250000 0.406253
O O9 0.063187 0.452734 0.502750
O O10 0.001836 0.487629 0.400027
O O11 0.353821 0.750000 0.171448
O O12 0.404809 0.977206 0.134359
O O13 0.305947 0.971810 0.121025
O O14 0.342770 0.987931 0.248313
O O15 0.542050 0.250000 0.906442
O O16 0.677497 0.750000 0.699215
O O17 0.709094 0.972678 0.623918
O O18 0.246904 0.750000 0.098796
O O19 0.247443 0.965767 0.008781
O O20 0.738494 0.250000 0.079741
#
# Coordination Sequence:
#
# PCOD9462424 Si02
#       8
#     8   8   8   8   8   8   8   8
#     4  11  20  29  43  61  82 111 146 177 207 248
#     4   9  17  29  42  58  82 109 138 173 210 245
#     4  10  19  31  45  60  81 108 138 175 215 249
#     4   9  16  26  41  58  79 108 138 169 203 241
#     4   9  18  31  44  60  82 108 139 173 209 247
#     4   8  15  26  39  56  79 107 137 168 201 239
#     4   9  16  27  43  62  84 111 141 170 206 249
#     4   9  17  29  43  60  85 114 141 173 211 247
#
# _framework density 14.008557
#
# number of rings (size 3 to 8) (size 9 to 14) (size 15 to 20)
#    0.000    2.750    0.000    3.375    0.000    6.500 
#    0.000    2.500    0.000    0.000    0.000    0.000 
#    0.000    1.000    0.000    3.000    0.000    4.625 
#
# Total GULP energy -356535.026292 kJ/mol
# GULP energy per Si atom -5570.859786 kJ/mol
# Density = 1.397667 g / cm^3
# Si number density = 14.008557 Si / 1000 Ang^3
#
#
#
# Elastic Constant Matrix: (Units=GPa)
#
#
# Indices 1 2 3 4 5 6 
#
# 1 82.2368 44.7691 59.6302 0.0000 0.0000 0.0000
# 2 44.7691 54.7992 49.2944 0.0000 0.0000 0.0000
# 3 59.6302 49.2944 119.3921 0.0000 0.0000 0.0000
# 4 0.0000 0.0000 0.0000 22.3551 0.0000 0.0000
# 5 0.0000 0.0000 0.0000 0.0000 25.9038 0.0000
# 6 0.0000 0.0000 0.0000 0.0000 0.0000 21.0742
#
#
#
# Elastic Compliance Matrix: (Units=1/GPa)
#
#
# Indices 1 2 3 4 5 6 
#
# 1 0.024589 -0.014383 -0.006343 0.000000 0.000000 0.000000
# 2 -0.014383 0.037444 -0.008276 0.000000 0.000000 0.000000
# 3 -0.006343 -0.008276 0.014961 0.000000 0.000000 0.000000
# 4 0.000000 0.000000 0.000000 0.044733 0.000000 0.000000
# 5 0.000000 0.000000 0.000000 0.000000 0.038604 0.000000
# 6 0.000000 0.000000 0.000000 0.000000 0.000000 0.047451
#
#
# Mechanical properties :
#
#
# Convention : Reuss Voigt Hill
#
# Bulk Modulus (GPa) = 52.65943 62.64617 57.65280
# Shear Modulus (GPa) = 18.37462 20.71558 19.54510
#
# Velocity S-wave (km/s) = 3.62563 3.84966 3.73932
# Velocity P-wave (km/s) = 7.42963 8.03597 7.73874
#
# Compressibility (1/GPa) = 0.01898995
#
# Stress axis : x y z
#
# Youngs Moduli (GPa) = 40.66865 26.70685 66.84256
#
# Poissons Ratio (x) = 0.38412 0.42395
# Poissons Ratio (y) = 0.58494 0.55319
# Poissons Ratio (z) = 0.25794 0.22103
#
# Static dielectric constant tensor:
#      x y z
#    x 1.437820 0.000000 0.000000 
#    y 0.000000 1.471050 0.000000 
#    z 0.000000 0.000000 1.464270 
# 
# From -- ./inp_files/24904.got.cif
#   From: 2010.05.17/outbox.cif.g08.bks.cpg/sg62_13_cif.got.tgz:24904.got - 2010.06.03 15:25:27.
