data_PCOD9462103
_publ_section_title
;
Structure prediction by ZEFSAII (Michael W. Deem and Ramdas Pophale) SiO2 
 PCOD9462103
Probable space group: P N M A
;
_chemical_formula_sum "Si O2"
_cell_formula_units_Z 32
_cell_length_a 14.483837
_cell_length_b 8.444967
_cell_length_c 12.296887
_cell_angle_alpha 90.000000
_cell_angle_beta 90.000000
_cell_angle_gamma 90.000000
_cell_volume 1504.100195
_symmetry_space_group_name_H-M "P N M A"
_symmetry_group_IT_number 62
_symmetry_cell_setting 'orthorhombic'
loop_
_space_group_symop_operation_xyz
x,y,z
1/2-x,-y,1/2+z
1/2+x,1/2-y,1/2-z
-x,1/2+y,-z
-x,-y,-z
1/2+x,y,1/2-z
1/2-x,1/2+y,1/2+z
x,1/2-y,z
loop_
_atom_site_type_symbol
_atom_site_label
_atom_site_fract_x
_atom_site_fract_y
_atom_site_fract_z
Si Si1 0.288898 0.563676 0.453296
Si Si2 0.601628 0.065160 0.977464
Si Si3 0.063538 0.939716 0.100254
Si Si4 0.590463 0.563595 0.744132
O O1 0.306558 0.750000 0.442869
O O2 0.181165 0.526091 0.457630
O O3 0.336367 0.502251 0.565235
O O4 0.339782 0.475421 0.354320
O O5 0.607005 0.250000 0.002994
O O6 0.617753 0.033914 0.849857
O O7 0.500000 0.000000 0.000000
O O8 0.062870 0.750000 0.105302
O O9 0.011921 0.011798 0.204150
O O10 0.000000 0.000000 0.000000
O O11 0.591593 0.750000 0.767607
#
# Coordination Sequence:
#
# PCOD9462103 Si02
#       4
#     8   8   8   8
#     4  11  22  40  64  93 124 162 207 255 304 363
#     4  12  26  45  64  90 124 162 204 253 307 367
#     4  10  18  33  58  90 122 157 199 250 300 354
#     4  11  22  40  64  93 125 163 204 252 307 364
#
# _framework density 21.275179000000001
#
# number of rings (size 3 to 8) (size 9 to 14) (size 15 to 20)
#    0.000    1.000    0.000   12.000    0.000    2.000 
#    0.000   10.000    0.000    0.000    0.000    0.000 
#    0.000    0.000    0.000    0.000    0.000    0.000 
#
# Total GULP energy -179012.337827 kJ/mol
# GULP energy per Si atom -5594.135557 kJ/mol
# Density = 2.122676 g / cm^3
# Si number density = 21.275179 Si / 1000 Ang^3
#
#
#
# Elastic Constant Matrix: (Units=GPa)
#
#
# Indices 1 2 3 4 5 6 
#
# 1 114.9971 -8.0271 3.5340 0.0000 0.0000 0.0000
# 2 -8.0271 101.1070 -30.8572 0.0000 0.0000 0.0000
# 3 3.5340 -30.8572 35.7464 0.0000 0.0000 0.0000
# 4 0.0000 0.0000 0.0000 30.6229 0.0000 0.0000
# 5 0.0000 0.0000 0.0000 0.0000 21.9101 0.0000
# 6 0.0000 0.0000 0.0000 0.0000 0.0000 34.7051
#
#
#
# Elastic Compliance Matrix: (Units=1/GPa)
#
#
# Indices 1 2 3 4 5 6 
#
# 1 0.008748 0.000585 -0.000360 0.000000 0.000000 0.000000
# 2 0.000585 0.013467 0.011567 0.000000 0.000000 0.000000
# 3 -0.000360 0.011567 0.037996 0.000000 0.000000 0.000000
# 4 0.000000 0.000000 0.000000 0.032655 0.000000 0.000000
# 5 0.000000 0.000000 0.000000 0.000000 0.045641 0.000000
# 6 0.000000 0.000000 0.000000 0.000000 0.000000 0.028814
#
#
# Mechanical properties :
#
#
# Convention : Reuss Voigt Hill
#
# Bulk Modulus (GPa) = 11.93399 20.12777 16.03088
# Shear Modulus (GPa) = 29.12582 36.59435 32.86008
#
# Velocity S-wave (km/s) = 3.70402 4.15185 3.93431
# Velocity P-wave (km/s) = 4.89025 5.69781 5.30940
#
# Compressibility (1/GPa) = 0.08379425
#
# Stress axis : x y z
#
# Youngs Moduli (GPa) = 114.31513 74.25438 26.31876
#
# Poissons Ratio (x) = -0.04341 0.00948
# Poissons Ratio (y) = -0.06683 -0.30444
# Poissons Ratio (z) = 0.04118 -0.85893
#
# Static dielectric constant tensor:
#      x y z
#    x 1.872140 0.000000 0.000000 
#    y 0.000000 1.682820 0.000000 
#    z 0.000000 0.000000 1.843820 
# 
# From -- ./inp_files/12767.got.cif
#   From: 2010.05.17/outbox.cif.g08.bks.cpg/sg62_7_cif.got.tgz:12767.got - 2010.06.03 15:25:27.
