data_PCOD9462418
_publ_section_title
;
Structure prediction by ZEFSAII (Michael W. Deem and Ramdas Pophale) SiO2 
 PCOD9462418
Probable space group: P N M A
;
_chemical_formula_sum "Si O2"
_cell_formula_units_Z 48
_cell_length_a 14.598315
_cell_length_b 13.335566
_cell_length_c 14.091012
_cell_angle_alpha 90.000000
_cell_angle_beta 90.000000
_cell_angle_gamma 90.000000
_cell_volume 2743.193029
_symmetry_space_group_name_H-M "P N M A"
_symmetry_group_IT_number 62
_symmetry_cell_setting 'orthorhombic'
loop_
_space_group_symop_operation_xyz
x,y,z
1/2-x,-y,1/2+z
1/2+x,1/2-y,1/2-z
-x,1/2+y,-z
-x,-y,-z
1/2+x,y,1/2-z
1/2-x,1/2+y,1/2+z
x,1/2-y,z
loop_
_atom_site_type_symbol
_atom_site_label
_atom_site_fract_x
_atom_site_fract_y
_atom_site_fract_z
Si Si1 0.934589 0.067666 0.400085
Si Si2 0.734756 0.555095 0.619687
Si Si3 0.050214 0.868340 0.810481
Si Si4 0.838443 0.628812 0.807855
Si Si5 0.236648 0.864522 0.494370
Si Si6 0.390067 0.632909 0.009336
O O1 0.917307 0.109835 0.296605
O O2 0.869047 0.120796 0.476318
O O3 0.037177 0.097457 0.429142
O O4 0.911879 0.949224 0.409193
O O5 0.628479 0.584385 0.624610
O O6 0.742092 0.439598 0.590124
O O7 0.791037 0.613753 0.537584
O O8 0.049653 0.750000 0.827612
O O9 0.944798 0.903307 0.815494
O O10 0.835788 0.750000 0.792664
O O11 0.790345 0.607831 0.908605
O O12 0.785132 0.580163 0.719207
O O13 0.256861 0.750000 0.471554
O O14 0.402060 0.750000 0.032409
#
# Coordination Sequence:
#
# PCOD9462418 Si02
#       6
#     8   8   8   8   8   8
#     4  10  19  30  52  80 104 139 174 218 271 322
#     4  11  21  33  57  81 106 138 184 223 267 319
#     4  11  20  33  55  80 106 136 179 226 266 313
#     4  10  20  35  57  82 108 139 177 224 269 315
#     4  10  21  37  55  77 111 147 179 217 269 325
#     4  10  19  32  49  78 110 133 171 225 273 317
#
# _framework density 17.497857
#
# number of rings (size 3 to 8) (size 9 to 14) (size 15 to 20)
#    0.000    1.667    3.333    3.000    0.000    0.667 
#    0.000    0.833    0.000    1.000    0.000    0.000 
#    0.000    0.000    0.000    0.000    0.000    0.000 
#
# Total GULP energy -267676.740026 kJ/mol
# GULP energy per Si atom -5576.598751 kJ/mol
# Density = 1.745803 g / cm^3
# Si number density = 17.497857 Si / 1000 Ang^3
#
#
#
# Elastic Constant Matrix: (Units=GPa)
#
#
# Indices 1 2 3 4 5 6 
#
# 1 84.1593 26.9564 23.1028 0.0000 0.0000 0.0000
# 2 26.9564 88.0366 21.7236 0.0000 0.0000 0.0000
# 3 23.1028 21.7236 32.5143 0.0000 0.0000 0.0000
# 4 0.0000 0.0000 0.0000 26.0175 0.0000 0.0000
# 5 0.0000 0.0000 0.0000 0.0000 21.5636 0.0000
# 6 0.0000 0.0000 0.0000 0.0000 0.0000 17.4809
#
#
#
# Elastic Compliance Matrix: (Units=1/GPa)
#
#
# Indices 1 2 3 4 5 6 
#
# 1 0.015166 -0.002376 -0.009188 0.000000 0.000000 0.000000
# 2 -0.002376 0.013974 -0.007648 0.000000 0.000000 0.000000
# 3 -0.009188 -0.007648 0.042394 0.000000 0.000000 0.000000
# 4 0.000000 0.000000 0.000000 0.038436 0.000000 0.000000
# 5 0.000000 0.000000 0.000000 0.000000 0.046375 0.000000
# 6 0.000000 0.000000 0.000000 0.000000 0.000000 0.057205
#
#
# Mechanical properties :
#
#
# Convention : Reuss Voigt Hill
#
# Bulk Modulus (GPa) = 30.20341 38.69731 34.45036
# Shear Modulus (GPa) = 19.01075 21.87423 20.44249
#
# Velocity S-wave (km/s) = 3.29973 3.53952 3.42173
# Velocity P-wave (km/s) = 5.64059 6.23440 5.94492
#
# Compressibility (1/GPa) = 0.03310885
#
# Stress axis : x y z
#
# Youngs Moduli (GPa) = 65.93846 71.56327 23.58838
#
# Poissons Ratio (x) = 0.17006 0.21673
# Poissons Ratio (y) = 0.15670 0.18039
# Poissons Ratio (z) = 0.60585 0.54729
#
# Static dielectric constant tensor:
#      x y z
#    x 1.645440 0.000000 0.000000 
#    y 0.000000 1.601720 0.000000 
#    z 0.000000 0.000000 1.584200 
# 
# From -- ./inp_files/19054.got.cif
#   From: 2010.05.17/outbox.cif.g08.bks.cpg/sg62_10_cif.got.tgz:19054.got - 2010.06.03 15:25:27.
