data_PCOD9462550
_publ_section_title
;
Structure prediction by ZEFSAII (Michael W. Deem and Ramdas Pophale) SiO2 
 PCOD9462550
Probable space group: P N M A
;
_chemical_formula_sum "Si O2"
_cell_formula_units_Z 64
_cell_length_a 22.188924
_cell_length_b 8.057355
_cell_length_c 15.831172
_cell_angle_alpha 90.000000
_cell_angle_beta 90.000000
_cell_angle_gamma 90.000000
_cell_volume 2830.360852
_symmetry_space_group_name_H-M "P N M A"
_symmetry_group_IT_number 62
_symmetry_cell_setting 'orthorhombic'
loop_
_space_group_symop_operation_xyz
x,y,z
1/2-x,-y,1/2+z
1/2+x,1/2-y,1/2-z
-x,1/2+y,-z
-x,-y,-z
1/2+x,y,1/2-z
1/2-x,1/2+y,1/2+z
x,1/2-y,z
loop_
_atom_site_type_symbol
_atom_site_label
_atom_site_fract_x
_atom_site_fract_y
_atom_site_fract_z
Si Si1 0.572808 0.949613 0.650962
Si Si2 0.052024 0.553789 0.209975
Si Si3 0.078032 0.449212 0.573717
Si Si4 0.941264 0.048999 0.607168
Si Si5 0.211838 0.943162 0.826546
Si Si6 0.194157 0.440438 0.656048
Si Si7 0.261355 0.938658 0.500246
Si Si8 0.602101 0.548015 0.467889
O O1 0.568764 0.750000 0.659090
O O2 0.641445 0.999751 0.671987
O O3 0.564387 0.996017 0.551924
O O4 0.520086 0.029203 0.705604
O O5 0.064420 0.750000 0.209120
O O6 0.076836 0.489131 0.299467
O O7 0.077625 0.485774 0.121878
O O8 0.078273 0.250000 0.581693
O O9 0.093024 0.491600 0.476466
O O10 0.128302 0.516251 0.637294
O O11 0.010637 0.508654 0.593154
O O12 0.940740 0.250000 0.607106
O O13 0.211880 0.750000 0.848716
O O14 0.230604 0.970157 0.730144
O O15 0.248062 0.032387 0.900580
O O16 0.188739 0.250000 0.683003
O O17 0.225881 0.448348 0.565574
O O18 0.246689 0.750000 0.521719
O O19 0.331537 0.977497 0.516186
O O20 0.605405 0.750000 0.466727
#
# Coordination Sequence:
#
# PCOD9462550 Si02
#       8
#     8   8   8   8   8   8   8   8
#     4   9  18  31  51  79 111 145 182 229 281 337
#     4  10  19  31  51  79 110 147 186 228 279 339
#     4   9  19  35  55  79 109 145 182 225 277 328
#     4   9  18  33  52  78 111 144 181 225 274 329
#     4  10  21  39  61  87 116 147 188 239 290 342
#     4  11  22  39  63  88 114 149 192 239 289 343
#     4  11  23  40  60  84 113 151 194 239 292 344
#     4   9  19  36  53  74 110 149 185 233 290 336
#
# _framework density 22.611958000000001
#
# number of rings (size 3 to 8) (size 9 to 14) (size 15 to 20)
#    0.000    2.250    0.000    3.750    0.000    5.500 
#    2.250    2.500    0.000    0.000    0.000    0.000 
#    0.000    0.000    0.000    0.000    0.000    0.000 
#
# Total GULP energy -357370.086442 kJ/mol
# GULP energy per Si atom -5583.907601 kJ/mol
# Density = 2.256049 g / cm^3
# Si number density = 22.611958 Si / 1000 Ang^3
#
#
#
# Elastic Constant Matrix: (Units=GPa)
#
#
# Indices 1 2 3 4 5 6 
#
# 1 6.6987 -6.6811 -0.8717 0.0000 0.0000 0.0000
# 2 -6.6811 23.3605 8.1990 0.0000 0.0000 0.0000
# 3 -0.8717 8.1990 142.2914 0.0000 0.0000 0.0000
# 4 0.0000 0.0000 0.0000 26.1921 0.0000 0.0000
# 5 0.0000 0.0000 0.0000 0.0000 25.1307 0.0000
# 6 0.0000 0.0000 0.0000 0.0000 0.0000 17.4790
#
#
#
# Elastic Compliance Matrix: (Units=1/GPa)
#
#
# Indices 1 2 3 4 5 6 
#
# 1 0.209542 0.060706 -0.002214 0.000000 0.000000 0.000000
# 2 0.060706 0.061278 -0.003159 0.000000 0.000000 0.000000
# 3 -0.002214 -0.003159 0.007196 0.000000 0.000000 0.000000
# 4 0.000000 0.000000 0.000000 0.038180 0.000000 0.000000
# 5 0.000000 0.000000 0.000000 0.000000 0.039792 0.000000
# 6 0.000000 0.000000 0.000000 0.000000 0.000000 0.057212
#
#
# Mechanical properties :
#
#
# Convention : Reuss Voigt Hill
#
# Bulk Modulus (GPa) = 2.57279 19.29365 10.93322
# Shear Modulus (GPa) = 11.57155 25.20731 18.38943
#
# Velocity S-wave (km/s) = 2.26463 3.34245 2.85487
# Velocity P-wave (km/s) = 2.82460 4.84221 3.96392
#
# Compressibility (1/GPa) = 0.38868266
#
# Stress axis : x y z
#
# Youngs Moduli (GPa) = 4.77231 16.31907 138.96051
#
# Poissons Ratio (x) = -0.99067 0.30769
# Poissons Ratio (y) = -0.28971 0.43897
# Poissons Ratio (z) = 0.01057 0.05155
#
# Static dielectric constant tensor:
#      x y z
#    x 1.848710 0.000000 0.000000 
#    y 0.000000 1.777960 0.000000 
#    z 0.000000 0.000000 1.904180 
# 
# From -- ./inp_files/20885.got.cif
#   From: 2010.05.17/outbox.cif.g08.bks.cpg/sg62_11_cif.got.tgz:20885.got - 2010.06.03 15:25:27.
