data_PCOD9462478
_publ_section_title
;
Structure prediction by ZEFSAII (Michael W. Deem and Ramdas Pophale) SiO2 
 PCOD9462478
Probable space group: P N M A
;
_chemical_formula_sum "Si O2"
_cell_formula_units_Z 48
_cell_length_a 14.136513
_cell_length_b 8.736850
_cell_length_c 24.171603
_cell_angle_alpha 90.000000
_cell_angle_beta 90.000000
_cell_angle_gamma 90.000000
_cell_volume 2985.400692
_symmetry_space_group_name_H-M "P N M A"
_symmetry_group_IT_number 62
_symmetry_cell_setting 'orthorhombic'
loop_
_space_group_symop_operation_xyz
x,y,z
1/2-x,-y,1/2+z
1/2+x,1/2-y,1/2-z
-x,1/2+y,-z
-x,-y,-z
1/2+x,y,1/2-z
1/2-x,1/2+y,1/2+z
x,1/2-y,z
loop_
_atom_site_type_symbol
_atom_site_label
_atom_site_fract_x
_atom_site_fract_y
_atom_site_fract_z
Si Si1 0.400794 0.433831 0.062829
Si Si2 0.607696 0.566639 0.270520
Si Si3 0.282782 0.932288 0.834154
Si Si4 0.278440 0.433520 0.167270
Si Si5 0.107408 0.932466 0.435216
Si Si6 0.888348 0.566389 0.228403
O O1 0.416004 0.250000 0.065334
O O2 0.321622 0.473791 0.107748
O O3 0.499900 0.514757 0.076519
O O4 0.374440 0.472048 0.999602
O O5 0.616326 0.750000 0.266581
O O6 0.646763 0.494514 0.213608
O O7 0.677170 0.505346 0.318146
O O8 0.498171 0.527406 0.279387
O O9 0.278888 0.750000 0.830896
O O10 0.322661 0.986486 0.892753
O O11 0.180851 0.002202 0.818798
O O12 0.272501 0.250000 0.171794
O O13 0.349297 0.495440 0.214511
O O14 0.114615 0.750000 0.428601
O O15 0.879060 0.750000 0.231054
#
# Coordination Sequence:
#
# PCOD9462478 Si02
#       6
#     8   8   8   8   8   8
#     4   9  19  33  49  72  99 128 161 195 236 283
#     4  10  20  33  50  72  97 126 159 195 237 284
#     4  11  21  32  49  72  98 127 159 196 237 283
#     4  10  19  31  49  72  98 126 156 193 235 281
#     4  10  19  32  50  71  98 129 160 197 237 280
#     4  10  20  33  49  70  96 126 159 194 234 280
#
# _framework density 16.078244000000002
#
# number of rings (size 3 to 8) (size 9 to 14) (size 15 to 20)
#    0.000    2.000    0.000    6.500    0.000    7.333 
#    0.000    0.000    0.000    1.000    0.000    0.000 
#    0.000    0.000    0.000    0.000    0.000    0.000 
#
# Total GULP energy -267932.662704 kJ/mol
# GULP energy per Si atom -5581.930473 kJ/mol
# Density = 1.604165 g / cm^3
# Si number density = 16.078244 Si / 1000 Ang^3
#
#
#
# Elastic Constant Matrix: (Units=GPa)
#
#
# Indices 1 2 3 4 5 6 
#
# 1 150.0998 56.8495 68.7204 0.0000 0.0000 0.0000
# 2 56.8495 67.1348 34.6049 0.0000 0.0000 0.0000
# 3 68.7204 34.6049 78.7976 0.0000 0.0000 0.0000
# 4 0.0000 0.0000 0.0000 25.4623 0.0000 0.0000
# 5 0.0000 0.0000 0.0000 0.0000 23.2108 0.0000
# 6 0.0000 0.0000 0.0000 0.0000 0.0000 3.8245
#
#
#
# Elastic Compliance Matrix: (Units=1/GPa)
#
#
# Indices 1 2 3 4 5 6 
#
# 1 0.013077 -0.006715 -0.008455 0.000000 0.000000 0.000000
# 2 -0.006715 0.022702 -0.004114 0.000000 0.000000 0.000000
# 3 -0.008455 -0.004114 0.021871 0.000000 0.000000 0.000000
# 4 0.000000 0.000000 0.000000 0.039274 0.000000 0.000000
# 5 0.000000 0.000000 0.000000 0.000000 0.043083 0.000000
# 6 0.000000 0.000000 0.000000 0.000000 0.000000 0.261472
#
#
# Mechanical properties :
#
#
# Convention : Reuss Voigt Hill
#
# Bulk Modulus (GPa) = 52.40532 68.48688 60.44610
# Shear Modulus (GPa) = 11.20051 19.55667 15.37859
#
# Velocity S-wave (km/s) = 2.64223 3.49140 3.09606
# Velocity P-wave (km/s) = 6.47867 7.67734 7.10334
#
# Compressibility (1/GPa) = 0.01908203
#
# Stress axis : x y z
#
# Youngs Moduli (GPa) = 76.47271 44.04904 45.72196
#
# Poissons Ratio (x) = 0.29578 0.38659
# Poissons Ratio (y) = 0.51350 0.18809
# Poissons Ratio (z) = 0.64660 0.18121
#
# Static dielectric constant tensor:
#      x y z
#    x 1.522480 0.000000 0.000000 
#    y 0.000000 1.536470 0.000000 
#    z 0.000000 0.000000 1.530560 
# 
# From -- ./inp_files/29533.got.cif
#   From: 2010.05.17/outbox.cif.g08.bks.cpg/sg62_15_cif.got.tgz:29533.got - 2010.06.03 15:25:27.
