data_PCOD9462127
_publ_section_title
;
Structure prediction by ZEFSAII (Michael W. Deem and Ramdas Pophale) SiO2 
 PCOD9462127
Probable space group: P N M A
;
_chemical_formula_sum "Si O2"
_cell_formula_units_Z 56
_cell_length_a 23.587431
_cell_length_b 15.277363
_cell_length_c 8.669200
_cell_angle_alpha 90.000000
_cell_angle_beta 90.000000
_cell_angle_gamma 90.000000
_cell_volume 3123.978692
_symmetry_space_group_name_H-M "P N M A"
_symmetry_group_IT_number 62
_symmetry_cell_setting 'orthorhombic'
loop_
_space_group_symop_operation_xyz
x,y,z
1/2-x,-y,1/2+z
1/2+x,1/2-y,1/2-z
-x,1/2+y,-z
-x,-y,-z
1/2+x,y,1/2-z
1/2-x,1/2+y,1/2+z
x,1/2-y,z
loop_
_atom_site_type_symbol
_atom_site_label
_atom_site_fract_x
_atom_site_fract_y
_atom_site_fract_z
Si Si1 0.559455 0.012320 0.583923
Si Si2 0.211638 0.849535 0.012938
Si Si3 0.661015 0.153569 0.091947
Si Si4 0.070890 0.907983 0.456443
Si Si5 0.445842 0.898469 0.099202
Si Si6 0.359580 0.488595 0.690359
Si Si7 0.117983 0.848652 0.762781
O O1 0.606097 0.027641 0.453565
O O2 0.576848 0.920509 0.663124
O O3 0.500000 0.000000 0.500000
O O4 0.557932 0.084854 0.717801
O O5 0.197297 0.750000 0.065396
O O6 0.188940 0.925378 0.124157
O O7 0.278820 0.854284 0.993265
O O8 0.178549 0.860773 0.848243
O O9 0.660154 0.250000 0.168505
O O10 0.657919 0.070480 0.204860
O O11 0.607596 0.149758 0.975499
O O12 0.099419 0.925990 0.291946
O O13 0.112847 0.862809 0.579090
O O14 0.008801 0.864511 0.442218
O O15 0.059589 0.004782 0.524542
O O16 0.099456 0.750000 0.797482
#
# Coordination Sequence:
#
# PCOD9462127 Si02
#       7
#     8   8   8   8   8   8   8
#     4  10  18  34  55  76 111 145 178 228 284 334
#     4   9  20  39  57  78 111 147 191 241 283 329
#     4  10  22  39  57  81 118 156 189 231 285 347
#     4   9  17  31  52  80 107 137 182 228 272 336
#     4   9  18  33  52  75 110 148 177 216 282 339
#     4  10  20  34  60  85 109 148 192 235 288 335
#     4   9  19  33  52  77 104 140 185 231 280 328
#
# _framework density 17.925858000000002
#
# number of rings (size 3 to 8) (size 9 to 14) (size 15 to 20)
#    0.000    2.571    1.429    0.000    2.000    5.714 
#    0.000    1.429    0.000    4.286    0.000    0.000 
#    0.000    0.000    0.000    0.000    0.000    0.000 
#
# Total GULP energy -311770.946203 kJ/mol
# GULP energy per Si atom -5567.338325 kJ/mol
# Density = 1.788506 g / cm^3
# Si number density = 17.925858 Si / 1000 Ang^3
#
#
#
# Elastic Constant Matrix: (Units=GPa)
#
#
# Indices 1 2 3 4 5 6 
#
# 1 98.2010 45.4158 35.2005 0.0000 0.0000 0.0000
# 2 45.4158 77.1046 28.8153 0.0000 0.0000 0.0000
# 3 35.2005 28.8153 87.2118 0.0000 0.0000 0.0000
# 4 0.0000 0.0000 0.0000 21.0349 0.0000 0.0000
# 5 0.0000 0.0000 0.0000 0.0000 11.7841 0.0000
# 6 0.0000 0.0000 0.0000 0.0000 0.0000 10.7103
#
#
#
# Elastic Compliance Matrix: (Units=1/GPa)
#
#
# Indices 1 2 3 4 5 6 
#
# 1 0.014902 -0.007450 -0.003553 0.000000 0.000000 0.000000
# 2 -0.007450 0.018521 -0.003112 0.000000 0.000000 0.000000
# 3 -0.003553 -0.003112 0.013929 0.000000 0.000000 0.000000
# 4 0.000000 0.000000 0.000000 0.047540 0.000000 0.000000
# 5 0.000000 0.000000 0.000000 0.000000 0.084860 0.000000
# 6 0.000000 0.000000 0.000000 0.000000 0.000000 0.093368
#
#
# Mechanical properties :
#
#
# Convention : Reuss Voigt Hill
#
# Bulk Modulus (GPa) = 52.29960 53.48674 52.89317
# Shear Modulus (GPa) = 16.24829 18.91158 17.57994
#
# Velocity S-wave (km/s) = 3.01394 3.25158 3.13501
# Velocity P-wave (km/s) = 6.43045 6.63322 6.53262
#
# Compressibility (1/GPa) = 0.01912060
#
# Stress axis : x y z
#
# Youngs Moduli (GPa) = 67.10395 53.99411 71.79291
#
# Poissons Ratio (x) = 0.40224 0.25511
# Poissons Ratio (y) = 0.49990 0.22345
# Poissons Ratio (z) = 0.23845 0.16805
#
# Static dielectric constant tensor:
#      x y z
#    x 1.613240 0.000000 0.000000 
#    y 0.000000 1.617580 0.000000 
#    z 0.000000 0.000000 1.637310 
# 
# From -- ./inp_files/9529.got.cif
#   From: 2010.05.17/outbox.cif.g08.bks.cpg/sg62_5_cif.got.tgz:9529.got - 2010.06.03 15:25:27.
