data_PCOD9462250
_publ_section_title
;
Structure prediction by ZEFSAII (Michael W. Deem and Ramdas Pophale) SiO2 
 PCOD9462250
Probable space group: P N M A
;
_chemical_formula_sum "Si O2"
_cell_formula_units_Z 40
_cell_length_a 9.026343
_cell_length_b 13.863062
_cell_length_c 16.130940
_cell_angle_alpha 90.000000
_cell_angle_beta 90.000000
_cell_angle_gamma 90.000000
_cell_volume 2018.508925
_symmetry_space_group_name_H-M "P N M A"
_symmetry_group_IT_number 62
_symmetry_cell_setting 'orthorhombic'
loop_
_space_group_symop_operation_xyz
x,y,z
1/2-x,-y,1/2+z
1/2+x,1/2-y,1/2-z
-x,1/2+y,-z
-x,-y,-z
1/2+x,y,1/2-z
1/2-x,1/2+y,1/2+z
x,1/2-y,z
loop_
_atom_site_type_symbol
_atom_site_label
_atom_site_fract_x
_atom_site_fract_y
_atom_site_fract_z
Si Si1 0.109250 0.585895 0.470916
Si Si2 0.516091 0.362933 0.282509
Si Si3 0.684706 0.568299 0.850179
Si Si4 0.809189 0.644700 0.411840
Si Si5 0.632837 0.545293 0.555743
O O1 0.174105 0.618309 0.559548
O O2 0.248026 0.539142 0.423990
O O3 0.000000 0.500000 0.500000
O O4 0.987740 0.648620 0.424698
O O5 0.484741 0.250000 0.274761
O O6 0.688059 0.381119 0.298312
O O7 0.465432 0.416879 0.199671
O O8 0.432739 0.407132 0.362349
O O9 0.719214 0.454292 0.861216
O O10 0.760550 0.750000 0.380414
O O11 0.722973 0.621388 0.498189
O O12 0.500000 0.500000 0.500000
#
# Coordination Sequence:
#
# PCOD9462250 Si02
#       5
#     8   8   8   8   8
#     4   8  18  37  61  82 115 158 193 243 296 339
#     4  12  24  37  60  89 121 159 195 239 305 366
#     4  10  23  40  56  87 127 154 191 253 299 348
#     4  10  21  40  65  86 115 163 208 242 297 361
#     4  10  18  39  62  85 118 157 194 253 297 339
#
# _framework density 19.816607999999999
#
# number of rings (size 3 to 8) (size 9 to 14) (size 15 to 20)
#    0.000    2.400    4.000    1.200    8.400    1.600 
#    0.000    1.000    0.000    0.000    0.000    0.000 
#    0.000    0.000    0.000    0.000    0.000    0.000 
#
# Total GULP energy -222777.817152 kJ/mol
# GULP energy per Si atom -5569.445429 kJ/mol
# Density = 1.977150 g / cm^3
# Si number density = 19.816608 Si / 1000 Ang^3
#
#
#
# Elastic Constant Matrix: (Units=GPa)
#
#
# Indices 1 2 3 4 5 6 
#
# 1 68.9924 -6.1529 -16.9372 0.0000 0.0000 0.0000
# 2 -6.1529 90.4803 11.7195 0.0000 0.0000 0.0000
# 3 -16.9372 11.7195 21.4423 0.0000 0.0000 0.0000
# 4 0.0000 0.0000 0.0000 10.4317 0.0000 0.0000
# 5 0.0000 0.0000 0.0000 0.0000 40.2884 0.0000
# 6 0.0000 0.0000 0.0000 0.0000 0.0000 19.9581
#
#
#
# Elastic Compliance Matrix: (Units=1/GPa)
#
#
# Indices 1 2 3 4 5 6 
#
# 1 0.018018 -0.000665 0.014596 0.000000 0.000000 0.000000
# 2 -0.000665 0.011919 -0.007040 0.000000 0.000000 0.000000
# 3 0.014596 -0.007040 0.062014 0.000000 0.000000 0.000000
# 4 0.000000 0.000000 0.000000 0.095862 0.000000 0.000000
# 5 0.000000 0.000000 0.000000 0.000000 0.024821 0.000000
# 6 0.000000 0.000000 0.000000 0.000000 0.000000 0.050105
#
#
# Mechanical properties :
#
#
# Convention : Reuss Voigt Hill
#
# Bulk Modulus (GPa) = 9.45777 17.57486 13.51632
# Shear Modulus (GPa) = 17.59321 26.95470 22.27396
#
# Velocity S-wave (km/s) = 2.98283 3.69210 3.35625
# Velocity P-wave (km/s) = 4.07996 5.20226 4.67491
#
# Compressibility (1/GPa) = 0.10573311
#
# Stress axis : x y z
#
# Youngs Moduli (GPa) = 55.49920 83.90161 16.12542
#
# Poissons Ratio (x) = 0.05582 -0.23537
# Poissons Ratio (y) = 0.03692 0.11352
# Poissons Ratio (z) = -0.81008 0.59065
#
# Static dielectric constant tensor:
#      x y z
#    x 1.745530 0.000000 0.000000 
#    y 0.000000 0.768940 0.000000 
#    z 0.000000 0.000000 1.739790 
# 
# From -- ./inp_files/16674.got.cif
#   From: 2010.05.17/outbox.cif.g08.bks.cpg/sg62_9_cif.got.tgz:16674.got - 2010.06.03 15:25:27.
