data_PCOD9462475
_publ_section_title
;
Structure prediction by ZEFSAII (Michael W. Deem and Ramdas Pophale) SiO2 
 PCOD9462475
Probable space group: P N M A
;
_chemical_formula_sum "Si O2"
_cell_formula_units_Z 56
_cell_length_a 13.211181
_cell_length_b 7.311737
_cell_length_c 25.484955
_cell_angle_alpha 90.000000
_cell_angle_beta 90.000000
_cell_angle_gamma 90.000000
_cell_volume 2461.762067
_symmetry_space_group_name_H-M "P N M A"
_symmetry_group_IT_number 62
_symmetry_cell_setting 'orthorhombic'
loop_
_space_group_symop_operation_xyz
x,y,z
1/2-x,-y,1/2+z
1/2+x,1/2-y,1/2-z
-x,1/2+y,-z
-x,-y,-z
1/2+x,y,1/2-z
1/2-x,1/2+y,1/2+z
x,1/2-y,z
loop_
_atom_site_type_symbol
_atom_site_label
_atom_site_fract_x
_atom_site_fract_y
_atom_site_fract_z
Si Si1 0.252290 0.472381 0.201912
Si Si2 0.094131 0.026397 0.112806
Si Si3 0.682163 0.026484 0.183008
Si Si4 0.596747 0.532684 0.964035
Si Si5 0.683422 0.471266 0.498171
Si Si6 0.371511 0.460250 0.383668
Si Si7 0.457595 0.026647 0.152425
O O1 0.251445 0.250000 0.201511
O O2 0.179971 0.529945 0.154018
O O3 0.209926 0.529124 0.258039
O O4 0.367813 0.528554 0.191510
O O5 0.093608 0.250000 0.112668
O O6 0.982220 0.961840 0.128349
O O7 0.121725 0.971453 0.053484
O O8 0.679566 0.250000 0.181414
O O9 0.771469 0.963384 0.144083
O O10 0.570215 0.965819 0.166645
O O11 0.610659 0.750000 0.958770
O O12 0.574666 0.464706 0.905622
O O13 0.500000 0.500000 0.000000
O O14 0.700908 0.465544 0.989356
O O15 0.681335 0.250000 0.500204
O O16 0.642076 0.536259 0.553681
O O17 0.376140 0.250000 0.365713
O O18 0.459461 0.250000 0.152134
#
# Coordination Sequence:
#
# PCOD9462475 Si02
#       7
#     8   8   8   8   8   8   8
#     4   9  16  27  44  66  94 128 160 195 241 293
#     4   9  17  30  47  68  97 130 165 201 240 290
#     4   9  18  27  42  69  99 127 156 196 249 292
#     4  10  19  31  49  71  99 132 164 199 241 290
#     4  10  19  33  50  71  97 133 172 198 237 299
#     4  10  20  32  48  75 105 127 157 207 251 283
#     4   9  16  28  43  63  94 127 158 194 238 289
#
# _framework density 22.747934000000001
#
# number of rings (size 3 to 8) (size 9 to 14) (size 15 to 20)
#    0.000    2.571    1.429    1.286    2.000    1.714 
#    0.000    0.000    0.000    0.000    0.000    3.000 
#    0.000    0.000    0.000    0.000    0.000    0.000 
#
# Total GULP energy -313007.068926 kJ/mol
# GULP energy per Si atom -5589.411945 kJ/mol
# Density = 2.269616 g / cm^3
# Si number density = 22.747934 Si / 1000 Ang^3
#
#
#
# Elastic Constant Matrix: (Units=GPa)
#
#
# Indices 1 2 3 4 5 6 
#
# 1 190.6813 0.5106 37.5518 0.0000 0.0000 0.0000
# 2 0.5106 88.8396 -6.4337 0.0000 0.0000 0.0000
# 3 37.5518 -6.4337 72.3358 0.0000 0.0000 0.0000
# 4 0.0000 0.0000 0.0000 1.7497 0.0000 0.0000
# 5 0.0000 0.0000 0.0000 0.0000 27.4720 0.0000
# 6 0.0000 0.0000 0.0000 0.0000 0.0000 -41.9682
#
#
#
# Elastic Compliance Matrix: (Units=1/GPa)
#
#
# Indices 1 2 3 4 5 6 
#
# 1 0.005847 -0.000255 -0.003058 0.000000 0.000000 0.000000
# 2 -0.000255 0.011340 0.001141 0.000000 0.000000 0.000000
# 3 -0.003058 0.001141 0.015514 0.000000 0.000000 0.000000
# 4 0.000000 0.000000 0.000000 0.571523 0.000000 0.000000
# 5 0.000000 0.000000 0.000000 0.000000 0.036401 0.000000
# 6 0.000000 0.000000 0.000000 0.000000 0.000000 -0.023828
#
#
# Mechanical properties :
#
#
# Convention : Reuss Voigt Hill
#
# Bulk Modulus (GPa) = 35.26503 46.12379 40.69441
# Shear Modulus (GPa) = 7.92903 18.79924 13.36414
#
# Velocity S-wave (km/s) = 1.86900 2.87786 2.42644
# Velocity P-wave (km/s) = 4.49374 5.60025 5.07723
#
# Compressibility (1/GPa) = 0.02835670
#
# Stress axis : x y z
#
# Youngs Moduli (GPa) = 171.01897 88.18080 64.45988
#
# Poissons Ratio (x) = 0.02249 0.19713
# Poissons Ratio (y) = 0.04362 -0.07355
# Poissons Ratio (z) = 0.52301 -0.10062
#
# Static dielectric constant tensor:
#      x y z
#    x 1.777150 0.000000 0.000000 
#    y 0.000000 2.011870 0.000000 
#    z 0.000000 0.000000 1.768900 
# 
# From -- ./inp_files/26624.got.cif
#   From: 2010.05.17/outbox.cif.g08.bks.cpg/sg62_14_cif.got.tgz:26624.got - 2010.06.03 15:25:27.
