data_PCOD9462612
_publ_section_title
;
Structure prediction by ZEFSAII (Michael W. Deem and Ramdas Pophale) SiO2 
 PCOD9462612
Probable space group: P N M A
;
_chemical_formula_sum "Si O2"
_cell_formula_units_Z 64
_cell_length_a 24.083445
_cell_length_b 8.253337
_cell_length_c 19.875937
_cell_angle_alpha 90.000000
_cell_angle_beta 90.000000
_cell_angle_gamma 90.000000
_cell_volume 3950.715902
_symmetry_space_group_name_H-M "P N M A"
_symmetry_group_IT_number 62
_symmetry_cell_setting 'orthorhombic'
loop_
_space_group_symop_operation_xyz
x,y,z
1/2-x,-y,1/2+z
1/2+x,1/2-y,1/2-z
-x,1/2+y,-z
-x,-y,-z
1/2+x,y,1/2-z
1/2-x,1/2+y,1/2+z
x,1/2-y,z
loop_
_atom_site_type_symbol
_atom_site_label
_atom_site_fract_x
_atom_site_fract_y
_atom_site_fract_z
Si Si1 0.775292 0.054777 0.138699
Si Si2 0.118279 0.054251 0.504095
Si Si3 0.254224 0.056579 0.004050
Si Si4 0.437010 0.945536 0.864997
Si Si5 0.340840 0.054634 0.233669
Si Si6 0.937676 0.942988 0.357457
Si Si7 0.334314 0.947621 0.778735
Si Si8 0.730998 0.052505 0.348493
O O1 0.775452 0.250000 0.137792
O O2 0.822399 0.001409 0.191640
O O3 0.716074 0.005086 0.171393
O O4 0.777974 0.994969 0.062846
O O5 0.116718 0.250000 0.504371
O O6 0.084688 0.998140 0.438234
O O7 0.090350 0.994013 0.573130
O O8 0.182381 0.004318 0.499717
O O9 0.255883 0.250000 0.006571
O O10 0.228589 0.996623 0.074695
O O11 0.435128 0.750000 0.865600
O O12 0.392532 0.002749 0.809317
O O13 0.499626 0.997005 0.851846
O O14 0.342060 0.250000 0.233500
O O15 0.290339 0.005040 0.183937
O O16 0.398177 0.992780 0.203934
O O17 0.938538 0.750000 0.361654
O O18 0.334912 0.750000 0.778233
O O19 0.316247 0.000935 0.704100
O O20 0.730000 0.250000 0.348534
#
# Coordination Sequence:
#
# PCOD9462612 Si02
#       8
#     8   8   8   8   8   8   8   8
#     4   9  17  31  50  68  92 123 157 193 230 278
#     4  10  20  33  45  63  94 131 165 192 223 269
#     4  11  19  27  46  73  99 124 150 191 235 279
#     4  10  19  32  50  65  86 126 169 197 221 271
#     4   9  17  32  51  67  88 124 163 194 225 276
#     4  11  22  32  45  67  98 127 155 200 241 272
#     4   8  14  28  48  66  86 118 157 194 226 266
#     4   8  15  27  45  69  92 116 151 191 232 273
#
# _framework density 16.199596
#
# number of rings (size 3 to 8) (size 9 to 14) (size 15 to 20)
#    0.000    2.500    2.500    2.625    0.000    1.500 
#    0.000    0.000    0.000    1.500    0.000    0.875 
#    0.000    0.000    0.000    0.000    0.000    0.000 
#
# Total GULP energy -356783.562481 kJ/mol
# GULP energy per Si atom -5574.743164 kJ/mol
# Density = 1.616273 g / cm^3
# Si number density = 16.199596 Si / 1000 Ang^3
#
#
#
# Elastic Constant Matrix: (Units=GPa)
#
#
# Indices 1 2 3 4 5 6 
#
# 1 91.1746 11.5394 66.9646 0.0000 0.0000 0.0000
# 2 11.5394 6.7105 12.9799 0.0000 0.0000 0.0000
# 3 66.9646 12.9799 145.0564 0.0000 0.0000 0.0000
# 4 0.0000 0.0000 0.0000 17.4484 0.0000 0.0000
# 5 0.0000 0.0000 0.0000 0.0000 20.4609 0.0000
# 6 0.0000 0.0000 0.0000 0.0000 0.0000 16.8528
#
#
#
# Elastic Compliance Matrix: (Units=1/GPa)
#
#
# Indices 1 2 3 4 5 6 
#
# 1 0.018276 -0.018270 -0.006802 0.000000 0.000000 0.000000
# 2 -0.018270 0.198474 -0.009325 0.000000 0.000000 0.000000
# 3 -0.006802 -0.009325 0.010869 0.000000 0.000000 0.000000
# 4 0.000000 0.000000 0.000000 0.057312 0.000000 0.000000
# 5 0.000000 0.000000 0.000000 0.000000 0.048874 0.000000
# 6 0.000000 0.000000 0.000000 0.000000 0.000000 0.059337
#
#
# Mechanical properties :
#
#
# Convention : Reuss Voigt Hill
#
# Bulk Modulus (GPa) = 6.29632 47.32324 26.80978
# Shear Modulus (GPa) = 9.71102 21.04962 15.38032
#
# Velocity S-wave (km/s) = 2.45104 3.60862 3.08462
# Velocity P-wave (km/s) = 3.45041 6.82926 5.41037
#
# Compressibility (1/GPa) = 0.15882299
#
# Stress axis : x y z
#
# Youngs Moduli (GPa) = 54.71533 5.03844 92.00829
#
# Poissons Ratio (x) = 0.09205 0.62587
# Poissons Ratio (y) = 0.99967 0.85801
# Poissons Ratio (z) = 0.37219 0.04699
#
# Static dielectric constant tensor:
#      x y z
#    x 1.513920 0.000000 0.000000 
#    y 0.000000 1.567030 0.000000 
#    z 0.000000 0.000000 1.570340 
# 
# From -- ./inp_files/24969.got.cif
#   From: 2010.05.17/outbox.cif.g08.bks.cpg/sg62_13_cif.got.tgz:24969.got - 2010.06.03 15:25:27.
