data_PCOD9462000
_publ_section_title
;
Structure prediction by ZEFSAII (Michael W. Deem and Ramdas Pophale) SiO2 
 PCOD9462000
Probable space group: P N M A
;
_chemical_formula_sum "Si O2"
_cell_formula_units_Z 52
_cell_length_a 12.467825
_cell_length_b 23.322835
_cell_length_c 7.139422
_cell_angle_alpha 90.000000
_cell_angle_beta 90.000000
_cell_angle_gamma 90.000000
_cell_volume 2076.037007
_symmetry_space_group_name_H-M "P N M A"
_symmetry_group_IT_number 62
_symmetry_cell_setting 'orthorhombic'
loop_
_space_group_symop_operation_xyz
x,y,z
1/2-x,-y,1/2+z
1/2+x,1/2-y,1/2-z
-x,1/2+y,-z
-x,-y,-z
1/2+x,y,1/2-z
1/2-x,1/2+y,1/2+z
x,1/2-y,z
loop_
_atom_site_type_symbol
_atom_site_label
_atom_site_fract_x
_atom_site_fract_y
_atom_site_fract_z
Si Si1 0.094829 0.486882 0.857480
Si Si2 0.855930 0.750000 0.038511
Si Si3 0.385954 0.250000 0.862059
Si Si4 0.100370 0.250000 0.393159
Si Si5 0.415854 0.875011 0.866576
Si Si6 0.837743 0.003169 0.547916
Si Si7 0.125264 0.875101 0.385281
Si Si8 0.128021 0.131902 0.943634
O O1 0.107270 0.515143 0.654276
O O2 0.208917 0.495459 0.960376
O O3 0.091722 0.418987 0.814379
O O4 0.000000 0.500000 0.000000
O O5 0.727386 0.750000 0.025661
O O6 0.905876 0.750000 0.833150
O O7 0.891135 0.693501 0.143127
O O8 0.486534 0.250000 0.001910
O O9 0.381625 0.185468 0.768771
O O10 0.146484 0.184671 0.424445
O O11 0.365702 0.937972 0.898523
O O12 0.529640 0.871236 0.967715
O O13 0.428570 0.872842 0.642285
O O14 0.872540 0.057457 0.677988
O O15 0.244353 0.872297 0.475922
#
# Coordination Sequence:
#
# PCOD9462000 Si02
#       8
#     8   4   4   4   8   8   8   8
#     4  11  24  40  57  82 116 148 185 235 284 337
#     4   8  14  28  49  71 101 136 183 235 272 320
#     4   8  14  26  44  70  98 128 174 229 272 318
#     4   8  16  28  47  75 107 144 183 226 278 328
#     4  10  18  32  53  79 111 147 188 232 278 335
#     4  11  22  36  56  82 110 147 186 230 284 338
#     4   9  17  29  49  74 101 136 181 227 275 325
#     4   9  18  32  51  77 105 143 188 232 280 330
#
# _framework density 25.047723999999999
#
# number of rings (size 3 to 8) (size 9 to 14) (size 15 to 20)
#    0.000    2.462    0.000    3.231    0.000    2.462 
#    0.000    0.769    0.000    0.000    0.000    0.000 
#    0.000    1.231    0.000    0.000    0.000    0.000 
#
# Total GULP energy -289732.668038 kJ/mol
# GULP energy per Si atom -5571.782078 kJ/mol
# Density = 2.499071 g / cm^3
# Si number density = 25.047724 Si / 1000 Ang^3
#
#
#
# Elastic Constant Matrix: (Units=GPa)
#
#
# Indices 1 2 3 4 5 6 
#
# 1 115.9203 32.2897 17.2686 0.0000 0.0000 0.0000
# 2 32.2897 290.1411 21.3613 0.0000 0.0000 0.0000
# 3 17.2686 21.3613 70.3680 0.0000 0.0000 0.0000
# 4 0.0000 0.0000 0.0000 13.1997 0.0000 0.0000
# 5 0.0000 0.0000 0.0000 0.0000 27.2168 0.0000
# 6 0.0000 0.0000 0.0000 0.0000 0.0000 18.5547
#
#
#
# Elastic Compliance Matrix: (Units=1/GPa)
#
#
# Indices 1 2 3 4 5 6 
#
# 1 0.009166 -0.000874 -0.001984 0.000000 0.000000 0.000000
# 2 -0.000874 0.003609 -0.000881 0.000000 0.000000 0.000000
# 3 -0.001984 -0.000881 0.014965 0.000000 0.000000 0.000000
# 4 0.000000 0.000000 0.000000 0.075759 0.000000 0.000000
# 5 0.000000 0.000000 0.000000 0.000000 0.036742 0.000000
# 6 0.000000 0.000000 0.000000 0.000000 0.000000 0.053895
#
#
# Mechanical properties :
#
#
# Convention : Reuss Voigt Hill
#
# Bulk Modulus (GPa) = 49.35405 68.69652 59.02528
# Shear Modulus (GPa) = 23.99607 38.82822 31.41215
#
# Velocity S-wave (km/s) = 3.09854 3.94149 3.54516
# Velocity P-wave (km/s) = 5.70509 6.94259 6.35404
#
# Compressibility (1/GPa) = 0.02026176
#
# Stress axis : x y z
#
# Youngs Moduli (GPa) = 109.10348 277.10602 66.82116
#
# Poissons Ratio (x) = 0.24218 0.13257
# Poissons Ratio (y) = 0.09535 0.05887
# Poissons Ratio (z) = 0.21646 0.24413
#
# Static dielectric constant tensor:
#      x y z
#    x 1.967330 0.000000 0.000000 
#    y 0.000000 2.143680 0.000000 
#    z 0.000000 0.000000 1.918880 
# 
# From -- ./inp_files/6724.got.cif
#   From: 2010.05.17/outbox.cif.g08.bks.cpg/sg62_4_cif.got.tgz:6724.got - 2010.06.03 15:25:27.
