data_PCOD9462712
_publ_section_title
;
Structure prediction by ZEFSAII (Michael W. Deem and Ramdas Pophale) SiO2 
 PCOD9462712
Probable space group: P N M A
;
_chemical_formula_sum "Si O2"
_cell_formula_units_Z 64
_cell_length_a 21.114755
_cell_length_b 8.649957
_cell_length_c 19.941666
_cell_angle_alpha 90.000000
_cell_angle_beta 90.000000
_cell_angle_gamma 90.000000
_cell_volume 3642.180234
_symmetry_space_group_name_H-M "P N M A"
_symmetry_group_IT_number 62
_symmetry_cell_setting 'orthorhombic'
loop_
_space_group_symop_operation_xyz
x,y,z
1/2-x,-y,1/2+z
1/2+x,1/2-y,1/2-z
-x,1/2+y,-z
-x,-y,-z
1/2+x,y,1/2-z
1/2-x,1/2+y,1/2+z
x,1/2-y,z
loop_
_atom_site_type_symbol
_atom_site_label
_atom_site_fract_x
_atom_site_fract_y
_atom_site_fract_z
Si Si1 0.862321 0.064275 0.178147
Si Si2 0.686529 0.438633 0.964190
Si Si3 0.184150 0.562592 0.965275
Si Si4 0.362718 0.563820 0.177842
Si Si5 0.010484 0.064200 0.181601
Si Si6 0.939110 0.935633 0.960986
Si Si7 0.510761 0.565776 0.175086
Si Si8 0.440390 0.565145 0.959208
O O1 0.859306 0.250000 0.181551
O O2 0.824097 0.013067 0.112349
O O3 0.936635 0.021852 0.168552
O O4 0.841721 0.998508 0.249939
O O5 0.686977 0.250000 0.963856
O O6 0.751001 0.489538 0.999722
O O7 0.624835 0.487117 0.006311
O O8 0.676911 0.487947 0.886968
O O9 0.182799 0.750000 0.965685
O O10 0.124002 0.502694 0.006430
O O11 0.361535 0.750000 0.180225
O O12 0.436594 0.517833 0.167410
O O13 0.012557 0.250000 0.189723
O O14 0.051516 0.021419 0.117013
O O15 0.030392 0.985217 0.250640
O O16 0.939114 0.750000 0.965561
O O17 0.000000 0.000000 0.000000
O O18 0.513359 0.750000 0.168109
O O19 0.551608 0.488971 0.116961
O O20 0.442281 0.750000 0.962705
O O21 0.500000 0.500000 0.000000
#
# Coordination Sequence:
#
# PCOD9462712 Si02
#       8
#     8   8   8   8   8   8   8   8
#     4   9  17  31  51  77 103 134 176 219 265 317
#     4   9  19  36  56  77 107 145 183 218 269 329
#     4  10  20  37  57  78 108 146 183 221 267 326
#     4   9  17  32  52  76 103 136 179 221 264 322
#     4   9  18  33  51  77 108 139 176 220 267 320
#     4  11  21  35  56  82 111 140 178 224 269 319
#     4  10  19  32  52  81 109 137 178 227 274 323
#     4  11  20  34  55  80 108 143 181 224 272 323
#
# _framework density 17.571891999999998
#
# number of rings (size 3 to 8) (size 9 to 14) (size 15 to 20)
#    0.000    2.250    2.500    1.125    0.000    2.000 
#    0.000    3.125    0.000    4.500    0.000    0.000 
#    0.000    0.000    0.000    0.000    0.000    0.000 
#
# Total GULP energy -357039.384477 kJ/mol
# GULP energy per Si atom -5578.740382 kJ/mol
# Density = 1.753190 g / cm^3
# Si number density = 17.571892 Si / 1000 Ang^3
#
#
#
# Elastic Constant Matrix: (Units=GPa)
#
#
# Indices 1 2 3 4 5 6 
#
# 1 117.4401 22.7743 89.4536 0.0000 0.0000 0.0000
# 2 22.7743 16.7914 33.3236 0.0000 0.0000 0.0000
# 3 89.4536 33.3236 189.1394 0.0000 0.0000 0.0000
# 4 0.0000 0.0000 0.0000 32.1555 0.0000 0.0000
# 5 0.0000 0.0000 0.0000 0.0000 27.6184 0.0000
# 6 0.0000 0.0000 0.0000 0.0000 0.0000 16.8525
#
#
#
# Elastic Compliance Matrix: (Units=1/GPa)
#
#
# Indices 1 2 3 4 5 6 
#
# 1 0.014159 -0.009094 -0.005094 0.000000 0.000000 0.000000
# 2 -0.009094 0.097413 -0.012862 0.000000 0.000000 0.000000
# 3 -0.005094 -0.012862 0.009962 0.000000 0.000000 0.000000
# 4 0.000000 0.000000 0.000000 0.031099 0.000000 0.000000
# 5 0.000000 0.000000 0.000000 0.000000 0.036208 0.000000
# 6 0.000000 0.000000 0.000000 0.000000 0.000000 0.059338
#
#
# Mechanical properties :
#
#
# Convention : Reuss Voigt Hill
#
# Bulk Modulus (GPa) = 14.82914 68.27490 41.55202
# Shear Modulus (GPa) = 15.39610 27.17992 21.28801
#
# Velocity S-wave (km/s) = 2.96324 3.93718 3.48441
# Velocity P-wave (km/s) = 4.49057 7.72059 6.31556
#
# Compressibility (1/GPa) = 0.06743481
#
# Stress axis : x y z
#
# Youngs Moduli (GPa) = 70.62805 10.26552 100.37677
#
# Poissons Ratio (x) = 0.09335 0.51133
# Poissons Ratio (y) = 0.64228 1.29103
# Poissons Ratio (z) = 0.35979 0.13203
#
# Static dielectric constant tensor:
#      x y z
#    x 1.575390 0.000000 0.000000 
#    y 0.000000 1.601500 0.000000 
#    z 0.000000 0.000000 1.607210 
# 
# From -- ./inp_files/24821.got.cif
#   From: 2010.05.17/outbox.cif.g08.bks.cpg/sg62_13_cif.got.tgz:24821.got - 2010.06.03 15:25:27.
