data_PCOD9462815
_publ_section_title
;
Structure prediction by ZEFSAII (Michael W. Deem and Ramdas Pophale) SiO2 
 PCOD9462815
Probable space group: P N M A
;
_chemical_formula_sum "Si O2"
_cell_formula_units_Z 40
_cell_length_a 18.457650
_cell_length_b 7.550471
_cell_length_c 11.487107
_cell_angle_alpha 90.000000
_cell_angle_beta 90.000000
_cell_angle_gamma 90.000000
_cell_volume 1600.888618
_symmetry_space_group_name_H-M "P N M A"
_symmetry_group_IT_number 62
_symmetry_cell_setting 'orthorhombic'
loop_
_space_group_symop_operation_xyz
x,y,z
1/2-x,-y,1/2+z
1/2+x,1/2-y,1/2-z
-x,1/2+y,-z
-x,-y,-z
1/2+x,y,1/2-z
1/2-x,1/2+y,1/2+z
x,1/2-y,z
loop_
_atom_site_type_symbol
_atom_site_label
_atom_site_fract_x
_atom_site_fract_y
_atom_site_fract_z
Si Si1 0.037851 0.035783 0.844543
Si Si2 0.194777 0.962624 0.395863
Si Si3 0.239973 0.443797 0.661786
Si Si4 0.968370 0.039061 0.623714
Si Si5 0.618584 0.454969 0.447390
O O1 0.038537 0.250000 0.854877
O O2 0.030215 0.976898 0.713121
O O3 0.961354 0.968418 0.894433
O O4 0.104497 0.976180 0.922431
O O5 0.196015 0.750000 0.382558
O O6 0.249981 0.027344 0.292447
O O7 0.113577 0.031839 0.367348
O O8 0.208868 0.992442 0.535051
O O9 0.206065 0.250000 0.679662
O O10 0.324477 0.437147 0.625165
O O11 0.962023 0.250000 0.641590
O O12 0.000000 0.000000 0.500000
O O13 0.642822 0.250000 0.448238
#
# Coordination Sequence:
#
# PCOD9462815 Si02
#       5
#     8   8   8   8   8
#     4   9  18  35  56  82 117 153 189 236 292 347
#     4  10  23  43  63  87 122 162 205 253 304 360
#     4  11  23  41  64  88 124 164 203 254 308 362
#     4  10  21  39  60  83 119 156 193 243 299 359
#     4  10  19  32  58  89 115 147 194 243 290 353
#
# _framework density 24.986124
#
# number of rings (size 3 to 8) (size 9 to 14) (size 15 to 20)
#    0.000    2.000    2.000    1.200    0.000    5.600 
#    0.000    6.000    0.000    0.000    0.000    0.000 
#    0.000    0.000    0.000    0.000    0.000    0.000 
#
# Total GULP energy -222881.054570 kJ/mol
# GULP energy per Si atom -5572.026364 kJ/mol
# Density = 2.492925 g / cm^3
# Si number density = 24.986124 Si / 1000 Ang^3
#
#
#
# Elastic Constant Matrix: (Units=GPa)
#
#
# Indices 1 2 3 4 5 6 
#
# 1 33.0097 -7.1088 27.9375 0.0000 0.0000 0.0000
# 2 -7.1088 62.1858 -4.7065 0.0000 0.0000 0.0000
# 3 27.9375 -4.7065 173.4084 0.0000 0.0000 0.0000
# 4 0.0000 0.0000 0.0000 16.0316 0.0000 0.0000
# 5 0.0000 0.0000 0.0000 0.0000 51.6045 0.0000
# 6 0.0000 0.0000 0.0000 0.0000 0.0000 15.1468
#
#
#
# Elastic Compliance Matrix: (Units=1/GPa)
#
#
# Indices 1 2 3 4 5 6 
#
# 1 0.035895 0.003673 -0.005683 0.000000 0.000000 0.000000
# 2 0.003673 0.016490 -0.000144 0.000000 0.000000 0.000000
# 3 -0.005683 -0.000144 0.006678 0.000000 0.000000 0.000000
# 4 0.000000 0.000000 0.000000 0.062377 0.000000 0.000000
# 5 0.000000 0.000000 0.000000 0.000000 0.019378 0.000000
# 6 0.000000 0.000000 0.000000 0.000000 0.000000 0.066021
#
#
# Mechanical properties :
#
#
# Convention : Reuss Voigt Hill
#
# Bulk Modulus (GPa) = 18.26321 33.42759 25.84540
# Shear Modulus (GPa) = 21.79607 33.38870 27.59238
#
# Velocity S-wave (km/s) = 2.95672 3.65950 3.32672
# Velocity P-wave (km/s) = 4.35677 5.59137 5.01223
#
# Compressibility (1/GPa) = 0.05475489
#
# Stress axis : x y z
#
# Youngs Moduli (GPa) = 27.85885 60.64345 149.73541
#
# Poissons Ratio (x) = -0.22276 0.85099
# Poissons Ratio (y) = -0.10233 0.02160
# Poissons Ratio (z) = 0.15833 0.00875
#
# Static dielectric constant tensor:
#      x y z
#    x 1.967610 0.000000 0.000000 
#    y 0.000000 1.945760 0.000000 
#    z 0.000000 0.000000 2.174880 
# 
# From -- ./inp_files/13850.got.cif
#   From: 2010.05.17/outbox.cif.g08.bks.cpg/sg62_7_cif.got.tgz:13850.got - 2010.06.03 15:25:27.
