data_PCOD9462405
_publ_section_title
;
Structure prediction by ZEFSAII (Michael W. Deem and Ramdas Pophale) SiO2 
 PCOD9462405
Probable space group: P N M A
;
_chemical_formula_sum "Si O2"
_cell_formula_units_Z 64
_cell_length_a 9.991483
_cell_length_b 11.458516
_cell_length_c 30.940711
_cell_angle_alpha 90.000000
_cell_angle_beta 90.000000
_cell_angle_gamma 90.000000
_cell_volume 3542.326749
_symmetry_space_group_name_H-M "P N M A"
_symmetry_group_IT_number 62
_symmetry_cell_setting 'orthorhombic'
loop_
_space_group_symop_operation_xyz
x,y,z
1/2-x,-y,1/2+z
1/2+x,1/2-y,1/2-z
-x,1/2+y,-z
-x,-y,-z
1/2+x,y,1/2-z
1/2-x,1/2+y,1/2+z
x,1/2-y,z
loop_
_atom_site_type_symbol
_atom_site_label
_atom_site_fract_x
_atom_site_fract_y
_atom_site_fract_z
Si Si1 0.012175 0.121677 0.545773
Si Si2 0.729437 0.007170 0.009373
Si Si3 0.401941 0.386806 0.770575
Si Si4 0.858354 0.387978 0.094446
Si Si5 0.853360 0.881516 0.932065
Si Si6 0.343353 0.884203 0.828676
Si Si7 0.601261 0.548934 0.878985
Si Si8 0.805435 0.617610 0.303146
O O1 0.012465 0.250000 0.564411
O O2 0.875451 0.095461 0.520596
O O3 0.133605 0.104277 0.512171
O O4 0.032421 0.029559 0.583951
O O5 0.796807 0.047132 0.053318
O O6 0.831273 0.965481 0.972735
O O7 0.369945 0.250000 0.784961
O O8 0.355412 0.500723 0.798213
O O9 0.563461 0.392778 0.772131
O O10 0.327740 0.400441 0.724850
O O11 0.842770 0.250000 0.086624
O O12 0.777022 0.410450 0.138100
O O13 0.016093 0.414782 0.095459
O O14 0.873965 0.750000 0.948237
O O15 0.719839 0.884835 0.903288
O O16 0.325175 0.750000 0.810839
O O17 0.482018 0.882591 0.855785
O O18 0.670109 0.469326 0.842416
O O19 0.804294 0.750000 0.319961
#
# Coordination Sequence:
#
# PCOD9462405 Si02
#       8
#     8   8   8   8   8   8   8   8
#     4  10  19  30  50  78 104 133 181 230 269 311
#     4  10  19  33  49  73 101 141 179 222 271 317
#     4   9  19  36  57  82 108 138 174 213 266 325
#     4  10  20  35  52  72 103 141 179 220 274 324
#     4  10  21  34  50  73 105 142 178 223 270 320
#     4  10  20  36  56  78 107 141 179 221 268 322
#     4  10  19  34  54  79 105 136 178 220 265 318
#     4   9  18  34  57  80 106 137 170 214 265 319
#
# _framework density 18.067219999999999
#
# number of rings (size 3 to 8) (size 9 to 14) (size 15 to 20)
#    0.000    2.250    1.250    1.875    0.000    1.500 
#    0.000    3.125    0.000    6.000    0.000    0.000 
#    0.000    0.000    0.000    0.000    0.000    0.000 
#
# Total GULP energy -356419.753761 kJ/mol
# GULP energy per Si atom -5569.058653 kJ/mol
# Density = 1.802610 g / cm^3
# Si number density = 18.067220 Si / 1000 Ang^3
#
#
#
# Elastic Constant Matrix: (Units=GPa)
#
#
# Indices 1 2 3 4 5 6 
#
# 1 29.4020 -1.2722 -6.0959 0.0000 0.0000 0.0000
# 2 -1.2722 59.9275 7.7778 0.0000 0.0000 0.0000
# 3 -6.0959 7.7778 25.0118 0.0000 0.0000 0.0000
# 4 0.0000 0.0000 0.0000 6.5141 0.0000 0.0000
# 5 0.0000 0.0000 0.0000 0.0000 28.9046 0.0000
# 6 0.0000 0.0000 0.0000 0.0000 0.0000 4.6867
#
#
#
# Elastic Compliance Matrix: (Units=1/GPa)
#
#
# Indices 1 2 3 4 5 6 
#
# 1 0.035830 -0.000388 0.008853 0.000000 0.000000 0.000000
# 2 -0.000388 0.017393 -0.005503 0.000000 0.000000 0.000000
# 3 0.008853 -0.005503 0.043850 0.000000 0.000000 0.000000
# 4 0.000000 0.000000 0.000000 0.153513 0.000000 0.000000
# 5 0.000000 0.000000 0.000000 0.000000 0.034597 0.000000
# 6 0.000000 0.000000 0.000000 0.000000 0.000000 0.213370
#
#
# Mechanical properties :
#
#
# Convention : Reuss Voigt Hill
#
# Bulk Modulus (GPa) = 9.70906 12.79562 11.25234
# Shear Modulus (GPa) = 9.48836 15.61652 12.55244
#
# Velocity S-wave (km/s) = 2.29414 2.94318 2.63870
# Velocity P-wave (km/s) = 3.52179 4.31826 3.94020
#
# Compressibility (1/GPa) = 0.10299654
#
# Stress axis : x y z
#
# Youngs Moduli (GPa) = 27.90951 57.49489 22.80491
#
# Poissons Ratio (x) = 0.02233 -0.20190
# Poissons Ratio (y) = 0.01084 0.12550
# Poissons Ratio (z) = -0.24709 0.31641
#
# Static dielectric constant tensor:
#      x y z
#    x 1.622220 0.000000 0.000000 
#    y 0.000000 1.625580 0.000000 
#    z 0.000000 0.000000 1.591900 
# 
# From -- ./inp_files/32271.got.cif
#   From: 2010.05.17/outbox.cif.g08.bks.cpg/sg62_17_cif.got.tgz:32271.got - 2010.06.03 15:25:27.
