data_PCOD9462022
_publ_section_title
;
Structure prediction by ZEFSAII (Michael W. Deem and Ramdas Pophale) SiO2 
 PCOD9462022
Probable space group: P N M A
;
_chemical_formula_sum "Si O2"
_cell_formula_units_Z 64
_cell_length_a 34.919957
_cell_length_b 8.595215
_cell_length_c 12.285692
_cell_angle_alpha 90.000000
_cell_angle_beta 90.000000
_cell_angle_gamma 90.000000
_cell_volume 3687.483352
_symmetry_space_group_name_H-M "P N M A"
_symmetry_group_IT_number 62
_symmetry_cell_setting 'orthorhombic'
loop_
_space_group_symop_operation_xyz
x,y,z
1/2-x,-y,1/2+z
1/2+x,1/2-y,1/2-z
-x,1/2+y,-z
-x,-y,-z
1/2+x,y,1/2-z
1/2-x,1/2+y,1/2+z
x,1/2-y,z
loop_
_atom_site_type_symbol
_atom_site_label
_atom_site_fract_x
_atom_site_fract_y
_atom_site_fract_z
Si Si1 0.662474 0.063395 0.548783
Si Si2 0.130449 0.563765 0.173683
Si Si3 0.314565 0.061866 0.864891
Si Si4 0.175076 0.436115 0.606500
Si Si5 0.269229 0.561470 0.299009
Si Si6 0.888924 0.435784 0.243318
Si Si7 0.464478 0.062251 0.364462
Si Si8 0.549898 0.064086 0.394140
O O1 0.658207 0.250000 0.553902
O O2 0.704148 0.021970 0.597243
O O3 0.653685 0.004899 0.428680
O O4 0.632504 0.987225 0.632558
O O5 0.131881 0.750000 0.166468
O O6 0.151144 0.514060 0.284822
O O7 0.086750 0.509604 0.162013
O O8 0.313797 0.250000 0.867679
O O9 0.273949 0.006806 0.815250
O O10 0.319342 0.002104 0.986826
O O11 0.176663 0.250000 0.603562
O O12 0.208101 0.492094 0.691192
O O13 0.134819 0.486926 0.659725
O O14 0.268236 0.750000 0.293133
O O15 0.886578 0.250000 0.254583
O O16 0.933208 0.481252 0.225967
O O17 0.463020 0.250000 0.376976
O O18 0.508626 0.019121 0.343823
O O19 0.452352 0.989375 0.480017
O O20 0.553614 0.250000 0.391072
#
# Coordination Sequence:
#
# PCOD9462022 Si02
#       8
#     8   8   8   8   8   8   8   8
#     4  10  19  32  52  78 108 137 174 219 266 316
#     4  11  22  34  51  76 109 146 181 218 265 322
#     4  10  22  39  56  74 103 144 183 219 266 318
#     4  10  21  37  56  79 107 136 177 224 266 313
#     4   8  18  36  55  76 104 134 169 221 269 315
#     4  10  18  32  55  79 107 139 174 212 262 320
#     4   9  18  31  50  79 109 140 175 214 262 320
#     4  10  19  31  50  76 111 144 174 217 266 315
#
# _framework density 17.356010999999999
#
# number of rings (size 3 to 8) (size 9 to 14) (size 15 to 20)
#    0.000    2.250    1.250    2.625    1.750    2.000 
#    0.000    3.125    0.000    0.750    0.000    0.000 
#    0.000    0.000    0.000    0.000    0.000    0.000 
#
# Total GULP energy -357010.148874 kJ/mol
# GULP energy per Si atom -5578.283576 kJ/mol
# Density = 1.731651 g / cm^3
# Si number density = 17.356011 Si / 1000 Ang^3
#
#
#
# Elastic Constant Matrix: (Units=GPa)
#
#
# Indices 1 2 3 4 5 6 
#
# 1 148.8968 28.1461 76.9706 0.0000 0.0000 0.0000
# 2 28.1461 24.0613 22.7529 0.0000 0.0000 0.0000
# 3 76.9706 22.7529 115.5434 0.0000 0.0000 0.0000
# 4 0.0000 0.0000 0.0000 26.0370 0.0000 0.0000
# 5 0.0000 0.0000 0.0000 0.0000 20.1799 0.0000
# 6 0.0000 0.0000 0.0000 0.0000 0.0000 18.1499
#
#
#
# Elastic Compliance Matrix: (Units=1/GPa)
#
#
# Indices 1 2 3 4 5 6 
#
# 1 0.011235 -0.007453 -0.006017 0.000000 0.000000 0.000000
# 2 -0.007453 0.056014 -0.006066 0.000000 0.000000 0.000000
# 3 -0.006017 -0.006066 0.013857 0.000000 0.000000 0.000000
# 4 0.000000 0.000000 0.000000 0.038407 0.000000 0.000000
# 5 0.000000 0.000000 0.000000 0.000000 0.049554 0.000000
# 6 0.000000 0.000000 0.000000 0.000000 0.000000 0.055097
#
#
# Mechanical properties :
#
#
# Convention : Reuss Voigt Hill
#
# Bulk Modulus (GPa) = 23.78894 60.47121 42.13008
# Shear Modulus (GPa) = 18.03443 23.58217 20.80830
#
# Velocity S-wave (km/s) = 3.22699 3.69010 3.46628
# Velocity P-wave (km/s) = 5.25555 7.28513 6.35192
#
# Compressibility (1/GPa) = 0.04203635
#
# Stress axis : x y z
#
# Youngs Moduli (GPa) = 89.00563 17.85255 72.16374
#
# Poissons Ratio (x) = 0.13305 0.43420
# Poissons Ratio (y) = 0.66336 0.43771
# Poissons Ratio (z) = 0.53553 0.10829
#
# Static dielectric constant tensor:
#      x y z
#    x 1.616780 0.000000 0.000000 
#    y 0.000000 1.588080 0.000000 
#    z 0.000000 0.000000 1.552070 
# 
# From -- ./inp_files/15841.got.cif
#   From: 2010.05.17/outbox.cif.g08.bks.cpg/sg62_8_cif.got.tgz:15841.got - 2010.06.03 15:25:27.
