data_PCOD9462752
_publ_section_title
;
Structure prediction by ZEFSAII (Michael W. Deem and Ramdas Pophale) SiO2 
 PCOD9462752
Probable space group: P N M A
;
_chemical_formula_sum "Si O2"
_cell_formula_units_Z 56
_cell_length_a 21.368621
_cell_length_b 8.299919
_cell_length_c 15.846992
_cell_angle_alpha 90.000000
_cell_angle_beta 90.000000
_cell_angle_gamma 90.000000
_cell_volume 2810.588009
_symmetry_space_group_name_H-M "P N M A"
_symmetry_group_IT_number 62
_symmetry_cell_setting 'orthorhombic'
loop_
_space_group_symop_operation_xyz
x,y,z
1/2-x,-y,1/2+z
1/2+x,1/2-y,1/2-z
-x,1/2+y,-z
-x,-y,-z
1/2+x,y,1/2-z
1/2-x,1/2+y,1/2+z
x,1/2-y,z
loop_
_atom_site_type_symbol
_atom_site_label
_atom_site_fract_x
_atom_site_fract_y
_atom_site_fract_z
Si Si1 0.340828 0.943119 0.687705
Si Si2 0.811673 0.939233 0.000133
Si Si3 0.414027 0.059204 0.968238
Si Si4 0.972327 0.067130 0.368709
Si Si5 0.015950 0.567328 0.201460
Si Si6 0.212324 0.942273 0.363727
Si Si7 0.942729 0.435161 0.054394
O O1 0.347138 0.750000 0.682932
O O2 0.312365 0.000615 0.597280
O O3 0.411436 0.012940 0.698508
O O4 0.300193 0.986044 0.770665
O O5 0.795384 0.750000 0.993960
O O6 0.766903 0.006872 0.074219
O O7 0.881925 0.962093 0.033353
O O8 0.430497 0.250000 0.958396
O O9 0.414903 0.029900 0.068742
O O10 0.350357 0.033787 0.918665
O O11 0.466480 0.946791 0.927749
O O12 0.966555 0.250000 0.336939
O O13 0.988378 0.945977 0.294819
O O14 0.012683 0.750000 0.169773
O O15 0.970123 0.456492 0.147269
O O16 0.221482 0.750000 0.351433
O O17 0.928569 0.250000 0.035506
O O18 0.000000 0.500000 0.000000
#
# Coordination Sequence:
#
# PCOD9462752 Si02
#       7
#     8   8   8   8   8   8   8
#     4  11  22  38  63  92 120 158 208 256 305 366
#     4  10  23  43  64  88 125 164 204 255 311 369
#     4   9  18  33  55  83 118 158 198 245 304 361
#     4  10  19  32  53  85 121 156 200 249 298 357
#     4  12  23  37  60  88 121 158 199 249 307 369
#     4  10  21  40  64  88 122 167 208 252 307 370
#     4  12  24  40  64  92 121 154 197 254 314 372
#
# _framework density 19.924655000000001
#
# number of rings (size 3 to 8) (size 9 to 14) (size 15 to 20)
#    0.000    1.429    2.857    3.429    0.000    1.714 
#    2.571    0.000    0.000    0.000    0.000    0.000 
#    0.000    0.000    0.000    0.000    0.000    0.000 
#
# Total GULP energy -312296.396127 kJ/mol
# GULP energy per Si atom -5576.721359 kJ/mol
# Density = 1.987931 g / cm^3
# Si number density = 19.924655 Si / 1000 Ang^3
#
#
#
# Elastic Constant Matrix: (Units=GPa)
#
#
# Indices 1 2 3 4 5 6 
#
# 1 57.7584 -6.4781 48.1645 0.0000 0.0000 0.0000
# 2 -6.4781 30.7068 8.0895 0.0000 0.0000 0.0000
# 3 48.1645 8.0895 138.3825 0.0000 0.0000 0.0000
# 4 0.0000 0.0000 0.0000 26.7056 0.0000 0.0000
# 5 0.0000 0.0000 0.0000 0.0000 29.8705 0.0000
# 6 0.0000 0.0000 0.0000 0.0000 0.0000 12.8848
#
#
#
# Elastic Compliance Matrix: (Units=1/GPa)
#
#
# Indices 1 2 3 4 5 6 
#
# 1 0.026221 0.008060 -0.009597 0.000000 0.000000 0.000000
# 2 0.008060 0.035553 -0.004884 0.000000 0.000000 0.000000
# 3 -0.009597 -0.004884 0.010852 0.000000 0.000000 0.000000
# 4 0.000000 0.000000 0.000000 0.037445 0.000000 0.000000
# 5 0.000000 0.000000 0.000000 0.000000 0.033478 0.000000
# 6 0.000000 0.000000 0.000000 0.000000 0.000000 0.077611
#
#
# Mechanical properties :
#
#
# Convention : Reuss Voigt Hill
#
# Bulk Modulus (GPa) = 16.72686 36.26658 26.49672
# Shear Modulus (GPa) = 19.69049 25.69699 22.69374
#
# Velocity S-wave (km/s) = 3.14705 3.59515 3.37854
# Velocity P-wave (km/s) = 4.64957 5.95607 5.34291
#
# Compressibility (1/GPa) = 0.05978409
#
# Stress axis : x y z
#
# Youngs Moduli (GPa) = 38.13775 28.12698 92.14693
#
# Poissons Ratio (x) = -0.22671 0.88437
# Poissons Ratio (y) = -0.30739 0.45002
# Poissons Ratio (z) = 0.36602 0.13736
#
# Static dielectric constant tensor:
#      x y z
#    x 1.673070 0.000000 0.000000 
#    y 0.000000 1.707660 0.000000 
#    z 0.000000 0.000000 1.899470 
# 
# From -- ./inp_files/20282.got.cif
#   From: 2010.05.17/outbox.cif.g08.bks.cpg/sg62_11_cif.got.tgz:20282.got - 2010.06.03 15:25:27.
