data_PCOD9462406
_publ_section_title
;
Structure prediction by ZEFSAII (Michael W. Deem and Ramdas Pophale) SiO2 
 PCOD9462406
Probable space group: P N M A
;
_chemical_formula_sum "Si O2"
_cell_formula_units_Z 56
_cell_length_a 16.382842
_cell_length_b 7.413478
_cell_length_c 20.791270
_cell_angle_alpha 90.000000
_cell_angle_beta 90.000000
_cell_angle_gamma 90.000000
_cell_volume 2525.179554
_symmetry_space_group_name_H-M "P N M A"
_symmetry_group_IT_number 62
_symmetry_cell_setting 'orthorhombic'
loop_
_space_group_symop_operation_xyz
x,y,z
1/2-x,-y,1/2+z
1/2+x,1/2-y,1/2-z
-x,1/2+y,-z
-x,-y,-z
1/2+x,y,1/2-z
1/2-x,1/2+y,1/2+z
x,1/2-y,z
loop_
_atom_site_type_symbol
_atom_site_label
_atom_site_fract_x
_atom_site_fract_y
_atom_site_fract_z
Si Si1 0.944311 0.036406 0.061011
Si Si2 0.988014 0.045546 0.803237
Si Si3 0.863696 0.952903 0.279455
Si Si4 0.808041 0.471276 0.834959
Si Si5 0.973631 0.045686 0.393145
Si Si6 0.789836 0.030438 0.985072
Si Si7 0.611450 0.469512 0.026062
O O1 0.940089 0.250000 0.074127
O O2 0.983809 0.948981 0.123050
O O3 0.857623 0.970180 0.035601
O O4 0.000000 0.000000 0.000000
O O5 0.980478 0.250000 0.777071
O O6 0.066350 0.962204 0.766340
O O7 0.895361 0.970252 0.804955
O O8 0.848570 0.750000 0.254361
O O9 0.773939 0.029604 0.296522
O O10 0.912308 0.944818 0.346799
O O11 0.807829 0.250000 0.835249
O O12 0.801799 0.527479 0.910525
O O13 0.979884 0.250000 0.368704
O O14 0.063973 0.973595 0.409282
O O15 0.933290 0.044616 0.463303
O O16 0.793542 0.250000 0.982524
O O17 0.703902 0.978018 0.015179
O O18 0.606181 0.250000 0.024220
#
# Coordination Sequence:
#
# PCOD9462406 Si02
#       7
#     8   8   8   8   8   8   8
#     4  11  21  35  57  82 108 138 173 223 278 322
#     4  10  21  38  57  79 106 140 183 227 269 318
#     4  10  20  36  58  76 103 148 186 215 261 327
#     4   9  16  32  57  78  99 138 183 214 254 321
#     4  10  19  30  50  79 109 134 171 227 269 303
#     4   9  16  30  55  77 100 138 178 209 255 327
#     4   9  17  32  52  74 103 143 181 211 257 320
#
# _framework density 22.176639999999999
#
# number of rings (size 3 to 8) (size 9 to 14) (size 15 to 20)
#    0.000    2.286    2.857    0.857    0.000    1.143 
#    2.571    3.571    0.000    0.000    0.000    0.000 
#    0.000    0.000    0.000    0.000    0.000    0.000 
#
# Total GULP energy -312120.124433 kJ/mol
# GULP energy per Si atom -5573.573651 kJ/mol
# Density = 2.212616 g / cm^3
# Si number density = 22.176640 Si / 1000 Ang^3
#
#
#
# Elastic Constant Matrix: (Units=GPa)
#
#
# Indices 1 2 3 4 5 6 
#
# 1 214.8923 5.3612 61.7242 0.0000 0.0000 0.0000
# 2 5.3612 74.0571 -1.3364 0.0000 0.0000 0.0000
# 3 61.7242 -1.3364 64.4262 0.0000 0.0000 0.0000
# 4 0.0000 0.0000 0.0000 9.1563 0.0000 0.0000
# 5 0.0000 0.0000 0.0000 0.0000 40.2883 0.0000
# 6 0.0000 0.0000 0.0000 0.0000 0.0000 -4.4509
#
#
#
# Elastic Compliance Matrix: (Units=1/GPa)
#
#
# Indices 1 2 3 4 5 6 
#
# 1 0.006445 -0.000578 -0.006187 0.000000 0.000000 0.000000
# 2 -0.000578 0.013560 0.000835 0.000000 0.000000 0.000000
# 3 -0.006187 0.000835 0.021466 0.000000 0.000000 0.000000
# 4 0.000000 0.000000 0.000000 0.109215 0.000000 0.000000
# 5 0.000000 0.000000 0.000000 0.000000 0.024821 0.000000
# 6 0.000000 0.000000 0.000000 0.000000 0.000000 -0.224674
#
#
# Mechanical properties :
#
#
# Convention : Reuss Voigt Hill
#
# Bulk Modulus (GPa) = 33.77021 53.87483 43.82252
# Shear Modulus (GPa) = -182.23755 28.17384 -77.03186
#
# Velocity S-wave (km/s) = -9.07490 3.56817 -5.90008
# Velocity P-wave (km/s) = 9.72339 6.42822 5.15859
#
# Compressibility (1/GPa) = 0.02961190
#
# Stress axis : x y z
#
# Youngs Moduli (GPa) = 155.16084 73.74619 46.58502
#
# Poissons Ratio (x) = 0.04264 0.28820
# Poissons Ratio (y) = 0.08972 -0.03891
# Poissons Ratio (z) = 0.95992 -0.06160
#
# Static dielectric constant tensor:
#      x y z
#    x 1.793790 0.000000 0.000000 
#    y 0.000000 1.900410 0.000000 
#    z 0.000000 0.000000 1.765300 
# 
# From -- ./inp_files/27198.got.cif
#   From: 2010.05.17/outbox.cif.g08.bks.cpg/sg62_14_cif.got.tgz:27198.got - 2010.06.03 15:25:27.
