data_PCOD9462701
_publ_section_title
;
Structure prediction by ZEFSAII (Michael W. Deem and Ramdas Pophale) SiO2 
 PCOD9462701
Probable space group: P N M A
;
_chemical_formula_sum "Si O2"
_cell_formula_units_Z 56
_cell_length_a 24.035474
_cell_length_b 9.011707
_cell_length_c 13.855545
_cell_angle_alpha 90.000000
_cell_angle_beta 90.000000
_cell_angle_gamma 90.000000
_cell_volume 3001.120043
_symmetry_space_group_name_H-M "P N M A"
_symmetry_group_IT_number 62
_symmetry_cell_setting 'orthorhombic'
loop_
_space_group_symop_operation_xyz
x,y,z
1/2-x,-y,1/2+z
1/2+x,1/2-y,1/2-z
-x,1/2+y,-z
-x,-y,-z
1/2+x,y,1/2-z
1/2-x,1/2+y,1/2+z
x,1/2-y,z
loop_
_atom_site_type_symbol
_atom_site_label
_atom_site_fract_x
_atom_site_fract_y
_atom_site_fract_z
Si Si1 0.626987 0.421011 0.304363
Si Si2 0.224824 0.928568 0.304864
Si Si3 0.334685 0.929832 0.204284
Si Si4 0.970759 0.426422 0.908377
Si Si5 0.555282 0.080802 0.104726
Si Si6 0.833561 0.929278 0.513402
Si Si7 0.539514 0.073844 0.788828
O O1 0.638696 0.250000 0.329254
O O2 0.682391 0.509263 0.275989
O O3 0.588589 0.499653 0.383744
O O4 0.590217 0.419974 0.205648
O O5 0.221806 0.750000 0.306386
O O6 0.287250 0.977728 0.278342
O O7 0.203787 0.994011 0.405989
O O8 0.337093 0.750000 0.211064
O O9 0.397620 0.985057 0.217231
O O10 0.316581 0.964901 0.095113
O O11 0.964805 0.250000 0.921632
O O12 0.009071 0.451082 0.813576
O O13 0.000000 0.500000 0.000000
O O14 0.541097 0.250000 0.080414
O O15 0.601799 0.025124 0.029988
O O16 0.499573 0.992456 0.127737
O O17 0.832053 0.750000 0.527183
O O18 0.542162 0.250000 0.805182
#
# Coordination Sequence:
#
# PCOD9462701 Si02
#       7
#     8   8   8   8   8   8   8
#     4   9  17  32  53  74 100 136 176 217 264 315
#     4  10  19  34  55  77 104 137 178 226 264 311
#     4   9  19  36  55  75 107 143 175 216 270 320
#     4  10  19  32  52  78 109 141 181 225 271 325
#     4   8  15  28  49  75 101 128 161 205 254 307
#     4   9  18  35  56  75 101 139 176 211 264 326
#     4   9  18  33  52  74 103 140 174 212 264 319
#
# _framework density 18.659700000000001
#
# number of rings (size 3 to 8) (size 9 to 14) (size 15 to 20)
#    0.000    2.857    0.000    2.143    0.000    4.571 
#    2.571    3.571    0.000    0.000    0.000    0.000 
#    0.000    0.000    0.000    0.000    0.000    0.000 
#
# Total GULP energy -312243.770993 kJ/mol
# GULP energy per Si atom -5575.781625 kJ/mol
# Density = 1.861723 g / cm^3
# Si number density = 18.659700 Si / 1000 Ang^3
#
#
#
# Elastic Constant Matrix: (Units=GPa)
#
#
# Indices 1 2 3 4 5 6 
#
# 1 119.2369 33.0217 21.7388 0.0000 0.0000 0.0000
# 2 33.0217 47.4201 27.3540 0.0000 0.0000 0.0000
# 3 21.7388 27.3540 32.5060 0.0000 0.0000 0.0000
# 4 0.0000 0.0000 0.0000 17.7057 0.0000 0.0000
# 5 0.0000 0.0000 0.0000 0.0000 27.6724 0.0000
# 6 0.0000 0.0000 0.0000 0.0000 0.0000 22.8814
#
#
#
# Elastic Compliance Matrix: (Units=1/GPa)
#
#
# Indices 1 2 3 4 5 6 
#
# 1 0.010437 -0.006300 -0.001679 0.000000 0.000000 0.000000
# 2 -0.006300 0.044783 -0.033472 0.000000 0.000000 0.000000
# 3 -0.001679 -0.033472 0.060054 0.000000 0.000000 0.000000
# 4 0.000000 0.000000 0.000000 0.056479 0.000000 0.000000
# 5 0.000000 0.000000 0.000000 0.000000 0.036137 0.000000
# 6 0.000000 0.000000 0.000000 0.000000 0.000000 0.043704
#
#
# Mechanical properties :
#
#
# Convention : Reuss Voigt Hill
#
# Bulk Modulus (GPa) = 30.89071 40.37690 35.63381
# Shear Modulus (GPa) = 14.48071 21.45514 17.96792
#
# Velocity S-wave (km/s) = 2.78877 3.39457 3.10647
# Velocity P-wave (km/s) = 5.19234 6.08684 5.65730
#
# Compressibility (1/GPa) = 0.03237219
#
# Stress axis : x y z
#
# Youngs Moduli (GPa) = 95.80905 22.32968 16.65182
#
# Poissons Ratio (x) = 0.14067 0.02796
# Poissons Ratio (y) = 0.60358 0.55738
# Poissons Ratio (z) = 0.16085 0.74743
#
# Static dielectric constant tensor:
#      x y z
#    x 1.661310 0.000000 0.000000 
#    y 0.000000 1.632300 0.000000 
#    z 0.000000 0.000000 1.648870 
# 
# From -- ./inp_files/20376.got.cif
#   From: 2010.05.17/outbox.cif.g08.bks.cpg/sg62_11_cif.got.tgz:20376.got - 2010.06.03 15:25:27.
