data_PCOD9462114
_publ_section_title
;
Structure prediction by ZEFSAII (Michael W. Deem and Ramdas Pophale) SiO2 
 PCOD9462114
Probable space group: P N M A
;
_chemical_formula_sum "Si O2"
_cell_formula_units_Z 40
_cell_length_a 14.376537
_cell_length_b 12.293276
_cell_length_c 9.834573
_cell_angle_alpha 90.000000
_cell_angle_beta 90.000000
_cell_angle_gamma 90.000000
_cell_volume 1738.110675
_symmetry_space_group_name_H-M "P N M A"
_symmetry_group_IT_number 62
_symmetry_cell_setting 'orthorhombic'
loop_
_space_group_symop_operation_xyz
x,y,z
1/2-x,-y,1/2+z
1/2+x,1/2-y,1/2-z
-x,1/2+y,-z
-x,-y,-z
1/2+x,y,1/2-z
1/2-x,1/2+y,1/2+z
x,1/2-y,z
loop_
_atom_site_type_symbol
_atom_site_label
_atom_site_fract_x
_atom_site_fract_y
_atom_site_fract_z
Si Si1 0.030309 0.906537 0.175125
Si Si2 0.771600 0.440683 0.525413
Si Si3 0.918027 0.867833 0.901341
Si Si4 0.520675 0.870310 0.027288
Si Si5 0.248883 0.625808 0.172224
O O1 0.992323 0.863144 0.314675
O O2 0.136766 0.871148 0.152158
O O3 0.969979 0.876126 0.045928
O O4 0.038297 0.037042 0.187156
O O5 0.689490 0.390392 0.434339
O O6 0.866544 0.373991 0.519733
O O7 0.738399 0.436517 0.683113
O O8 0.787335 0.558921 0.456750
O O9 0.930941 0.750000 0.841985
O O10 0.492051 0.750000 0.967489
O O11 0.500000 0.000000 0.000000
O O12 0.281275 0.750000 0.183218
#
# Coordination Sequence:
#
# PCOD9462114 Si02
#       5
#     8   8   8   8   8
#     4   9  20  36  58  87 119 157 198 246 302 358
#     4  10  22  38  62  92 122 163 207 254 309 367
#     4  10  18  33  61  88 116 155 202 248 300 358
#     4  11  24  42  61  86 123 163 203 250 306 365
#     4  10  20  39  61  87 126 163 204 255 307 364
#
# _framework density 23.013493
#
# number of rings (size 3 to 8) (size 9 to 14) (size 15 to 20)
#    0.000    2.000    0.000    4.800    2.800    1.600 
#    0.000   10.000    0.000    0.000    0.000    0.000 
#    0.000    0.000    0.000    0.000    0.000    0.000 
#
# Total GULP energy -223076.149142 kJ/mol
# GULP energy per Si atom -5576.903729 kJ/mol
# Density = 2.296111 g / cm^3
# Si number density = 23.013493 Si / 1000 Ang^3
#
#
#
# Elastic Constant Matrix: (Units=GPa)
#
#
# Indices 1 2 3 4 5 6 
#
# 1 48.4545 16.6557 8.3024 0.0000 0.0000 0.0000
# 2 16.6557 233.1193 68.0284 0.0000 0.0000 0.0000
# 3 8.3024 68.0284 95.2298 0.0000 0.0000 0.0000
# 4 0.0000 0.0000 0.0000 8.5854 0.0000 0.0000
# 5 0.0000 0.0000 0.0000 0.0000 21.6704 0.0000
# 6 0.0000 0.0000 0.0000 0.0000 0.0000 7.8879
#
#
#
# Elastic Compliance Matrix: (Units=1/GPa)
#
#
# Indices 1 2 3 4 5 6 
#
# 1 0.021228 -0.001234 -0.000969 0.000000 0.000000 0.000000
# 2 -0.001234 0.005491 -0.003815 0.000000 0.000000 0.000000
# 3 -0.000969 -0.003815 0.013311 0.000000 0.000000 0.000000
# 4 0.000000 0.000000 0.000000 0.116477 0.000000 0.000000
# 5 0.000000 0.000000 0.000000 0.000000 0.046146 0.000000
# 6 0.000000 0.000000 0.000000 0.000000 0.000000 0.126777
#
#
# Mechanical properties :
#
#
# Convention : Reuss Voigt Hill
#
# Bulk Modulus (GPa) = 35.72250 62.53072 49.12661
# Shear Modulus (GPa) = 14.25326 26.54987 20.40156
#
# Velocity S-wave (km/s) = 2.49136 3.40025 2.98065
# Velocity P-wave (km/s) = 4.88180 6.53038 5.76532
#
# Compressibility (1/GPa) = 0.02799356
#
# Stress axis : x y z
#
# Youngs Moduli (GPa) = 47.10728 182.11268 75.12718
#
# Poissons Ratio (x) = 0.22469 0.07282
# Poissons Ratio (y) = 0.05812 0.28661
# Poissons Ratio (z) = 0.04566 0.69477
#
# Static dielectric constant tensor:
#      x y z
#    x 1.877270 0.000000 0.000000 
#    y 0.000000 1.962910 0.000000 
#    z 0.000000 0.000000 1.822440 
# 
# From -- ./inp_files/13011.got.cif
#   From: 2010.05.17/outbox.cif.g08.bks.cpg/sg62_7_cif.got.tgz:13011.got - 2010.06.03 15:25:27.
