data_PCOD9462840
_publ_section_title
;
Structure prediction by ZEFSAII (Michael W. Deem and Ramdas Pophale) SiO2 
 PCOD9462840
Probable space group: P N M A
;
_chemical_formula_sum "Si O2"
_cell_formula_units_Z 64
_cell_length_a 19.588499
_cell_length_b 8.668769
_cell_length_c 23.816899
_cell_angle_alpha 90.000000
_cell_angle_beta 90.000000
_cell_angle_gamma 90.000000
_cell_volume 4044.304103
_symmetry_space_group_name_H-M "P N M A"
_symmetry_group_IT_number 62
_symmetry_cell_setting 'orthorhombic'
loop_
_space_group_symop_operation_xyz
x,y,z
1/2-x,-y,1/2+z
1/2+x,1/2-y,1/2-z
-x,1/2+y,-z
-x,-y,-z
1/2+x,y,1/2-z
1/2-x,1/2+y,1/2+z
x,1/2-y,z
loop_
_atom_site_type_symbol
_atom_site_label
_atom_site_fract_x
_atom_site_fract_y
_atom_site_fract_z
Si Si1 0.999275 0.564656 0.875877
Si Si2 0.144213 0.434258 0.065232
Si Si3 0.774428 0.436912 0.163538
Si Si4 0.772080 0.433584 0.835613
Si Si5 0.644493 0.935122 0.775838
Si Si6 0.855594 0.935485 0.730322
Si Si7 0.498852 0.933181 0.250210
Si Si8 0.361447 0.063534 0.440768
O O1 0.000510 0.750000 0.866417
O O2 0.929752 0.525012 0.908299
O O3 0.001824 0.485101 0.815456
O O4 0.065197 0.525303 0.913197
O O5 0.151396 0.250000 0.068488
O O6 0.200978 0.512973 0.104142
O O7 0.146838 0.489397 0.001351
O O8 0.774980 0.250000 0.162420
O O9 0.824954 0.481186 0.214564
O O10 0.698627 0.483811 0.182382
O O11 0.804420 0.488579 0.104282
O O12 0.775231 0.250000 0.830365
O O13 0.696604 0.493475 0.820617
O O14 0.822009 0.509060 0.788881
O O15 0.646898 0.750000 0.779273
O O16 0.567597 0.993928 0.778717
O O17 0.859643 0.750000 0.731605
O O18 0.930303 0.005426 0.724906
O O19 0.495935 0.750000 0.246802
O O20 0.358394 0.250000 0.446037
#
# Coordination Sequence:
#
# PCOD9462840 Si02
#       8
#     8   8   8   8   8   8   8   8
#     4  10  20  34  50  67 100 143 180 211 249 302
#     4  11  22  34  49  72 101 142 181 210 252 306
#     4   8  16  31  52  73  94 128 170 208 252 301
#     4  11  21  34  51  76 102 130 170 218 258 298
#     4  10  19  35  55  73 100 136 168 207 258 314
#     4  10  19  33  52  73 100 136 172 208 256 314
#     4  12  22  31  49  78 106 135 171 213 257 302
#     4  10  19  34  52  72  98 135 177 219 256 293
#
# _framework density 15.824726
#
# number of rings (size 3 to 8) (size 9 to 14) (size 15 to 20)
#    0.000    1.750    2.500    4.500    0.000    1.000 
#    0.000    1.250    0.000    0.000    0.000    0.875 
#    0.000    0.000    0.000    0.000    0.000    0.000 
#
# Total GULP energy -357312.457489 kJ/mol
# GULP energy per Si atom -5583.007148 kJ/mol
# Density = 1.578871 g / cm^3
# Si number density = 15.824726 Si / 1000 Ang^3
#
#
#
# Elastic Constant Matrix: (Units=GPa)
#
#
# Indices 1 2 3 4 5 6 
#
# 1 131.1285 35.4103 56.2076 0.0000 0.0000 0.0000
# 2 35.4103 54.6215 31.6833 0.0000 0.0000 0.0000
# 3 56.2076 31.6833 78.6891 0.0000 0.0000 0.0000
# 4 0.0000 0.0000 0.0000 23.2614 0.0000 0.0000
# 5 0.0000 0.0000 0.0000 0.0000 20.3121 0.0000
# 6 0.0000 0.0000 0.0000 0.0000 0.0000 17.4685
#
#
#
# Elastic Compliance Matrix: (Units=1/GPa)
#
#
# Indices 1 2 3 4 5 6 
#
# 1 0.011484 -0.003505 -0.006792 0.000000 0.000000 0.000000
# 2 -0.003505 0.024957 -0.007545 0.000000 0.000000 0.000000
# 3 -0.006792 -0.007545 0.020597 0.000000 0.000000 0.000000
# 4 0.000000 0.000000 0.000000 0.042990 0.000000 0.000000
# 5 0.000000 0.000000 0.000000 0.000000 0.049232 0.000000
# 6 0.000000 0.000000 0.000000 0.000000 0.000000 0.057246
#
#
# Mechanical properties :
#
#
# Convention : Reuss Voigt Hill
#
# Bulk Modulus (GPa) = 46.82830 56.78239 51.80535
# Shear Modulus (GPa) = 20.05567 21.61760 20.83664
#
# Velocity S-wave (km/s) = 3.56387 3.70004 3.63259
# Velocity P-wave (km/s) = 6.82576 7.36300 7.09946
#
# Compressibility (1/GPa) = 0.02135461
#
# Stress axis : x y z
#
# Youngs Moduli (GPa) = 87.07876 40.06968 48.55041
#
# Poissons Ratio (x) = 0.14046 0.32973
# Poissons Ratio (y) = 0.30524 0.36629
# Poissons Ratio (z) = 0.59140 0.30231
#
# Static dielectric constant tensor:
#      x y z
#    x 1.534230 0.000000 0.000000 
#    y 0.000000 1.529620 0.000000 
#    z 0.000000 0.000000 1.503490 
# 
# From -- ./inp_files/30032.got.cif
#   From: 2010.05.17/outbox.cif.g08.bks.cpg/sg62_16_cif.got.tgz:30032.got - 2010.06.03 15:25:27.
