data_PCOD9462563
_publ_section_title
;
Structure prediction by ZEFSAII (Michael W. Deem and Ramdas Pophale) SiO2 
 PCOD9462563
Probable space group: P N M A
;
_chemical_formula_sum "Si O2"
_cell_formula_units_Z 56
_cell_length_a 19.987767
_cell_length_b 7.457015
_cell_length_c 14.320632
_cell_angle_alpha 90.000000
_cell_angle_beta 90.000000
_cell_angle_gamma 90.000000
_cell_volume 2134.477001
_symmetry_space_group_name_H-M "P N M A"
_symmetry_group_IT_number 62
_symmetry_cell_setting 'orthorhombic'
loop_
_space_group_symop_operation_xyz
x,y,z
1/2-x,-y,1/2+z
1/2+x,1/2-y,1/2-z
-x,1/2+y,-z
-x,-y,-z
1/2+x,y,1/2-z
1/2-x,1/2+y,1/2+z
x,1/2-y,z
loop_
_atom_site_type_symbol
_atom_site_label
_atom_site_fract_x
_atom_site_fract_y
_atom_site_fract_z
Si Si1 0.710890 0.453816 0.460037
Si Si2 0.075968 0.534327 0.379929
Si Si3 0.008321 0.538704 0.786089
Si Si4 0.150814 0.533768 0.773001
Si Si5 0.798118 0.460051 0.743569
Si Si6 0.644089 0.969607 0.942569
Si Si7 0.929590 0.535520 0.951351
O O1 0.713701 0.250000 0.495285
O O2 0.705988 0.450343 0.345900
O O3 0.783388 0.532666 0.480306
O O4 0.640348 0.539714 0.489450
O O5 0.076626 0.750000 0.380762
O O6 0.141427 0.473459 0.320852
O O7 0.087064 0.471819 0.485731
O O8 0.011075 0.478979 0.321868
O O9 0.011025 0.750000 0.805863
O O10 0.080790 0.465249 0.815115
O O11 0.947154 0.465764 0.847373
O O12 0.150231 0.750000 0.776010
O O13 0.224669 0.478387 0.803538
O O14 0.142381 0.475481 0.664666
O O15 0.808394 0.250000 0.760504
O O16 0.644748 0.750000 0.941522
O O17 0.919237 0.750000 0.949401
O O18 0.000000 0.500000 0.000000
#
# Coordination Sequence:
#
# PCOD9462563 Si02
#       7
#     8   8   8   8   8   8   8
#     4   9  17  34  56  73  99 141 178 215 267 323
#     4  10  20  33  52  79 108 139 177 221 267 319
#     4  10  21  37  55  79 108 142 184 222 265 323
#     4   9  19  36  56  75 105 145 179 218 266 319
#     4  10  19  31  52  79 104 134 176 226 268 313
#     4   8  16  32  53  76 101 136 180 216 259 317
#     4  10  21  35  54  79 107 141 179 220 268 323
#
# _framework density 26.235935999999999
#
# number of rings (size 3 to 8) (size 9 to 14) (size 15 to 20)
#    0.000    2.571    1.429    1.286    0.000    4.000 
#    0.000    4.286    0.000    0.000    0.000    0.000 
#    0.000    0.000    0.000    0.000    0.000    0.000 
#
# Total GULP energy -312919.641605 kJ/mol
# GULP energy per Si atom -5587.850743 kJ/mol
# Density = 2.617622 g / cm^3
# Si number density = 26.235936 Si / 1000 Ang^3
#
#
#
# Elastic Constant Matrix: (Units=GPa)
#
#
# Indices 1 2 3 4 5 6 
#
# 1 125.9517 0.3306 -6.7138 0.0000 0.0000 0.0000
# 2 0.3306 89.0435 -3.5475 0.0000 0.0000 0.0000
# 3 -6.7138 -3.5475 48.2449 0.0000 0.0000 0.0000
# 4 0.0000 0.0000 0.0000 7.2422 0.0000 0.0000
# 5 0.0000 0.0000 0.0000 0.0000 42.6369 0.0000
# 6 0.0000 0.0000 0.0000 0.0000 0.0000 19.2458
#
#
#
# Elastic Compliance Matrix: (Units=1/GPa)
#
#
# Indices 1 2 3 4 5 6 
#
# 1 0.007999 0.000015 0.001114 0.000000 0.000000 0.000000
# 2 0.000015 0.011263 0.000830 0.000000 0.000000 0.000000
# 3 0.001114 0.000830 0.020944 0.000000 0.000000 0.000000
# 4 0.000000 0.000000 0.000000 0.138079 0.000000 0.000000
# 5 0.000000 0.000000 0.000000 0.000000 0.023454 0.000000
# 6 0.000000 0.000000 0.000000 0.000000 0.000000 0.051959
#
#
# Mechanical properties :
#
#
# Convention : Reuss Voigt Hill
#
# Bulk Modulus (GPa) = 22.66318 27.04206 24.85262
# Shear Modulus (GPa) = 18.90444 32.03638 25.47041
#
# Velocity S-wave (km/s) = 2.68723 3.49820 3.11918
# Velocity P-wave (km/s) = 4.27612 5.16199 4.73980
#
# Compressibility (1/GPa) = 0.04412443
#
# Stress axis : x y z
#
# Youngs Moduli (GPa) = 125.01714 88.78239 47.74710
#
# Poissons Ratio (x) = -0.00130 -0.05320
# Poissons Ratio (y) = -0.00184 -0.03964
# Poissons Ratio (z) = -0.13930 -0.07371
#
# Static dielectric constant tensor:
#      x y z
#    x 2.087540 0.000000 0.000000 
#    y 0.000000 1.982230 0.000000 
#    z 0.000000 0.000000 2.143090 
# 
# From -- ./inp_files/20214.got.cif
#   From: 2010.05.17/outbox.cif.g08.bks.cpg/sg62_11_cif.got.tgz:20214.got - 2010.06.03 15:25:27.
