data_PCOD9462681
_publ_section_title
;
Structure prediction by ZEFSAII (Michael W. Deem and Ramdas Pophale) SiO2 
 PCOD9462681
Probable space group: P N M A
;
_chemical_formula_sum "Si O2"
_cell_formula_units_Z 56
_cell_length_a 18.436208
_cell_length_b 8.098265
_cell_length_c 19.683331
_cell_angle_alpha 90.000000
_cell_angle_beta 90.000000
_cell_angle_gamma 90.000000
_cell_volume 2938.746867
_symmetry_space_group_name_H-M "P N M A"
_symmetry_group_IT_number 62
_symmetry_cell_setting 'orthorhombic'
loop_
_space_group_symop_operation_xyz
x,y,z
1/2-x,-y,1/2+z
1/2+x,1/2-y,1/2-z
-x,1/2+y,-z
-x,-y,-z
1/2+x,y,1/2-z
1/2-x,1/2+y,1/2+z
x,1/2-y,z
loop_
_atom_site_type_symbol
_atom_site_label
_atom_site_fract_x
_atom_site_fract_y
_atom_site_fract_z
Si Si1 0.501061 0.549644 0.716831
Si Si2 0.160075 0.942969 0.255129
Si Si3 0.444873 0.056509 0.142616
Si Si4 0.605553 0.945446 0.108055
Si Si5 0.166980 0.057498 0.533423
Si Si6 0.532731 0.053393 0.428670
Si Si7 0.806084 0.449150 0.888790
O O1 0.491838 0.750000 0.721133
O O2 0.424584 0.465158 0.735100
O O3 0.555128 0.504753 0.777908
O O4 0.514401 0.505216 0.638303
O O5 0.179645 0.750000 0.258511
O O6 0.159787 0.008309 0.332188
O O7 0.200324 0.014801 0.189000
O O8 0.426794 0.250000 0.138121
O O9 0.527580 0.031488 0.116966
O O10 0.391067 0.960010 0.093913
O O11 0.593693 0.750000 0.119423
O O12 0.637497 0.971306 0.033827
O O13 0.176039 0.250000 0.516447
O O14 0.242699 0.989309 0.562357
O O15 0.536949 0.250000 0.428235
O O16 0.500000 0.000000 0.500000
O O17 0.614035 0.987837 0.416635
O O18 0.799347 0.250000 0.885365
#
# Coordination Sequence:
#
# PCOD9462681 Si02
#       7
#     8   8   8   8   8   8   8
#     4   8  16  30  49  73  98 124 157 200 245 292
#     4   8  15  30  52  72  90 119 160 204 246 291
#     4  10  19  33  52  73 100 133 171 211 251 298
#     4  10  19  32  52  76 101 130 169 212 251 297
#     4  11  22  34  49  72 105 139 168 204 253 304
#     4  10  19  33  55  80 104 131 167 210 255 301
#     4   9  19  36  54  72  98 132 169 209 255 303
#
# _framework density 19.055741999999999
#
# number of rings (size 3 to 8) (size 9 to 14) (size 15 to 20)
#    0.000    2.571    0.000    2.143    0.000    2.857 
#    0.000    1.429    0.000    3.429    0.000    0.000 
#    0.000    0.000    0.000    0.000    0.000    0.000 
#
# Total GULP energy -311935.374309 kJ/mol
# GULP energy per Si atom -5570.274541 kJ/mol
# Density = 1.901237 g / cm^3
# Si number density = 19.055742 Si / 1000 Ang^3
#
#
#
# Elastic Constant Matrix: (Units=GPa)
#
#
# Indices 1 2 3 4 5 6 
#
# 1 43.8245 -7.4713 43.9859 0.0000 0.0000 0.0000
# 2 -7.4713 16.2162 -0.7038 0.0000 0.0000 0.0000
# 3 43.9859 -0.7038 159.1602 0.0000 0.0000 0.0000
# 4 0.0000 0.0000 0.0000 6.9296 0.0000 0.0000
# 5 0.0000 0.0000 0.0000 0.0000 6.8839 0.0000
# 6 0.0000 0.0000 0.0000 0.0000 0.0000 15.1403
#
#
#
# Elastic Compliance Matrix: (Units=1/GPa)
#
#
# Indices 1 2 3 4 5 6 
#
# 1 0.035208 0.015802 -0.009660 0.000000 0.000000 0.000000
# 2 0.015802 0.068771 -0.004063 0.000000 0.000000 0.000000
# 3 -0.009660 -0.004063 0.008935 0.000000 0.000000 0.000000
# 4 0.000000 0.000000 0.000000 0.144308 0.000000 0.000000
# 5 0.000000 0.000000 0.000000 0.000000 0.145265 0.000000
# 6 0.000000 0.000000 0.000000 0.000000 0.000000 0.066049
#
#
# Mechanical properties :
#
#
# Convention : Reuss Voigt Hill
#
# Bulk Modulus (GPa) = 8.54176 32.31360 20.42768
# Shear Modulus (GPa) = 9.93241 18.01678 13.97460
#
# Velocity S-wave (km/s) = 2.28552 3.07820 2.71099
# Velocity P-wave (km/s) = 3.38483 5.44316 4.53238
#
# Compressibility (1/GPa) = 0.11707187
#
# Stress axis : x y z
#
# Youngs Moduli (GPa) = 28.40248 14.54100 111.92243
#
# Poissons Ratio (x) = -0.22978 1.08121
# Poissons Ratio (y) = -0.44882 0.45475
# Poissons Ratio (z) = 0.27438 0.05908
#
# Static dielectric constant tensor:
#      x y z
#    x 1.602120 0.000000 0.000000 
#    y 0.000000 1.674960 0.000000 
#    z 0.000000 0.000000 1.694340 
# 
# From -- ./inp_files/24648.got.cif
#   From: 2010.05.17/outbox.cif.g08.bks.cpg/sg62_13_cif.got.tgz:24648.got - 2010.06.03 15:25:27.
