data_PCOD9462468
_publ_section_title
;
Structure prediction by ZEFSAII (Michael W. Deem and Ramdas Pophale) SiO2 
 PCOD9462468
Probable space group: P N M A
;
_chemical_formula_sum "Si O2"
_cell_formula_units_Z 64
_cell_length_a 19.847966
_cell_length_b 7.956611
_cell_length_c 24.140298
_cell_angle_alpha 90.000000
_cell_angle_beta 90.000000
_cell_angle_gamma 90.000000
_cell_volume 3812.297288
_symmetry_space_group_name_H-M "P N M A"
_symmetry_group_IT_number 62
_symmetry_cell_setting 'orthorhombic'
loop_
_space_group_symop_operation_xyz
x,y,z
1/2-x,-y,1/2+z
1/2+x,1/2-y,1/2-z
-x,1/2+y,-z
-x,-y,-z
1/2+x,y,1/2-z
1/2-x,1/2+y,1/2+z
x,1/2-y,z
loop_
_atom_site_type_symbol
_atom_site_label
_atom_site_fract_x
_atom_site_fract_y
_atom_site_fract_z
Si Si1 0.773581 0.955549 0.664058
Si Si2 0.647535 0.048348 0.273848
Si Si3 0.001154 0.953787 0.377678
Si Si4 0.501589 0.550900 0.249047
Si Si5 0.639988 0.047682 0.063008
Si Si6 0.354615 0.048338 0.270982
Si Si7 0.723965 0.953091 0.838390
Si Si8 0.634630 0.451251 0.938083
O O1 0.773920 0.750000 0.663343
O O2 0.823637 0.008406 0.713968
O O3 0.803083 0.014872 0.605781
O O4 0.698995 0.009771 0.682844
O O5 0.650825 0.250000 0.273350
O O6 0.701440 0.990423 0.319770
O O7 0.570233 0.999432 0.279291
O O8 0.999542 0.750000 0.376409
O O9 0.934035 0.014614 0.409118
O O10 0.002606 0.017485 0.314254
O O11 0.067796 0.007306 0.410170
O O12 0.501271 0.750000 0.244622
O O13 0.431931 0.499119 0.277395
O O14 0.646359 0.250000 0.060831
O O15 0.643748 0.982382 0.000294
O O16 0.350622 0.250000 0.270003
O O17 0.326297 0.989168 0.211100
O O18 0.723258 0.750000 0.838479
O O19 0.695882 0.012001 0.896788
O O20 0.627584 0.250000 0.942080
#
# Coordination Sequence:
#
# PCOD9462468 Si02
#       8
#     8   8   8   8   8   8   8   8
#     4   8  15  29  47  67  87 111 153 198 225 260
#     4   9  17  31  49  67  89 118 155 193 227 269
#     4  10  20  31  40  61  98 129 155 187 218 261
#     4  11  20  29  44  69  97 124 150 182 229 278
#     4  10  19  31  49  67  87 124 164 193 224 263
#     4   9  17  30  48  66  87 117 152 190 229 268
#     4   9  18  31  48  68  88 118 158 194 228 267
#     4  10  20  32  45  65  95 127 157 190 228 268
#
# _framework density 16.787777999999999
#
# number of rings (size 3 to 8) (size 9 to 14) (size 15 to 20)
#    0.000    2.500    2.500    2.250    0.000    2.000 
#    0.000    2.500    0.000    0.000    0.000    0.875 
#    0.000    0.000    0.000    0.000    0.000    0.000 
#
# Total GULP energy -356835.320402 kJ/mol
# GULP energy per Si atom -5575.551881 kJ/mol
# Density = 1.674957 g / cm^3
# Si number density = 16.787778 Si / 1000 Ang^3
#
#
#
# Elastic Constant Matrix: (Units=GPa)
#
#
# Indices 1 2 3 4 5 6 
#
# 1 155.8305 1.2823 70.3989 0.0000 0.0000 0.0000
# 2 1.2823 7.2593 2.8112 0.0000 0.0000 0.0000
# 3 70.3989 2.8112 95.3763 0.0000 0.0000 0.0000
# 4 0.0000 0.0000 0.0000 11.6088 0.0000 0.0000
# 5 0.0000 0.0000 0.0000 0.0000 19.4282 0.0000
# 6 0.0000 0.0000 0.0000 0.0000 0.0000 2.6778
#
#
#
# Elastic Compliance Matrix: (Units=1/GPa)
#
#
# Indices 1 2 3 4 5 6 
#
# 1 0.009636 0.001064 -0.007144 0.000000 0.000000 0.000000
# 2 0.001064 0.139462 -0.004896 0.000000 0.000000 0.000000
# 3 -0.007144 -0.004896 0.015902 0.000000 0.000000 0.000000
# 4 0.000000 0.000000 0.000000 0.086141 0.000000 0.000000
# 5 0.000000 0.000000 0.000000 0.000000 0.051471 0.000000
# 6 0.000000 0.000000 0.000000 0.000000 0.000000 0.373441
#
#
# Mechanical properties :
#
#
# Convention : Reuss Voigt Hill
#
# Bulk Modulus (GPa) = 6.99062 45.27234 26.13148
# Shear Modulus (GPa) = 6.70522 19.00788 12.85655
#
# Velocity S-wave (km/s) = 2.00069 3.36854 2.77036
# Velocity P-wave (km/s) = 3.08386 6.49272 5.08260
#
# Compressibility (1/GPa) = 0.14304890
#
# Stress axis : x y z
#
# Youngs Moduli (GPa) = 103.78031 7.17039 62.88525
#
# Poissons Ratio (x) = -0.00763 0.44923
# Poissons Ratio (y) = -0.11045 0.30790
# Poissons Ratio (z) = 0.74137 0.03511
#
# Static dielectric constant tensor:
#      x y z
#    x 1.580520 0.000000 0.000000 
#    y 0.000000 1.565710 0.000000 
#    z 0.000000 0.000000 1.566130 
# 
# From -- ./inp_files/27876.got.cif
#   From: 2010.05.17/outbox.cif.g08.bks.cpg/sg62_14_cif.got.tgz:27876.got - 2010.06.03 15:25:27.
