data_PCOD9462788
_publ_section_title
;
Structure prediction by ZEFSAII (Michael W. Deem and Ramdas Pophale) SiO2 
 PCOD9462788
Probable space group: P N M A
;
_chemical_formula_sum "Si O2"
_cell_formula_units_Z 64
_cell_length_a 33.831853
_cell_length_b 7.755577
_cell_length_c 11.830348
_cell_angle_alpha 90.000000
_cell_angle_beta 90.000000
_cell_angle_gamma 90.000000
_cell_volume 3104.112260
_symmetry_space_group_name_H-M "P N M A"
_symmetry_group_IT_number 62
_symmetry_cell_setting 'orthorhombic'
loop_
_space_group_symop_operation_xyz
x,y,z
1/2-x,-y,1/2+z
1/2+x,1/2-y,1/2-z
-x,1/2+y,-z
-x,-y,-z
1/2+x,y,1/2-z
1/2-x,1/2+y,1/2+z
x,1/2-y,z
loop_
_atom_site_type_symbol
_atom_site_label
_atom_site_fract_x
_atom_site_fract_y
_atom_site_fract_z
Si Si1 0.411838 0.044822 0.692034
Si Si2 0.700326 0.541690 0.939730
Si Si3 0.164722 0.956040 0.325619
Si Si4 0.288767 0.541658 0.605215
Si Si5 0.865827 0.957755 0.027790
Si Si6 0.060849 0.449766 0.568704
Si Si7 0.868862 0.543059 0.281502
Si Si8 0.019891 0.452507 0.343609
O O1 0.413018 0.250000 0.703790
O O2 0.376547 0.975619 0.773921
O O3 0.398656 0.003122 0.565028
O O4 0.453679 0.975002 0.733331
O O5 0.701648 0.750000 0.946738
O O6 0.745300 0.479487 0.927919
O O7 0.674041 0.492775 0.832420
O O8 0.678506 0.476253 0.053069
O O9 0.160116 0.750000 0.335968
O O10 0.197901 0.990438 0.231018
O O11 0.288430 0.750000 0.600699
O O12 0.323806 0.479968 0.522503
O O13 0.863673 0.750000 0.032777
O O14 0.873232 0.023081 0.153998
O O15 0.070237 0.250000 0.544975
O O16 0.098518 0.528427 0.631040
O O17 0.045806 0.524334 0.449407
O O18 0.022801 0.460617 0.650540
O O19 0.874537 0.750000 0.276910
O O20 0.012880 0.250000 0.363573
#
# Coordination Sequence:
#
# PCOD9462788 Si02
#       8
#     8   8   8   8   8   8   8   8
#     4  10  19  33  54  79 104 137 177 219 264 309
#     4  10  21  34  51  76 105 136 170 214 264 312
#     4   9  19  34  52  74 102 134 171 215 260 309
#     4   9  19  34  51  73 101 134 172 214 258 303
#     4   9  19  36  55  74 102 140 178 217 262 313
#     4   9  19  35  53  80 112 138 173 219 264 314
#     4  10  21  36  56  79 104 140 177 215 264 316
#     4  10  19  32  55  82 109 141 173 214 266 318
#
# _framework density 20.617812000000001
#
# number of rings (size 3 to 8) (size 9 to 14) (size 15 to 20)
#    0.000    2.500    0.000    1.500    1.750    3.000 
#    0.000    0.625    0.000    0.000    0.000    0.000 
#    0.000    0.000    0.000    0.000    0.000    0.000 
#
# Total GULP energy -357242.961269 kJ/mol
# GULP energy per Si atom -5581.921270 kJ/mol
# Density = 2.057088 g / cm^3
# Si number density = 20.617812 Si / 1000 Ang^3
#
#
#
# Elastic Constant Matrix: (Units=GPa)
#
#
# Indices 1 2 3 4 5 6 
#
# 1 54.1746 -5.1273 0.9732 0.0000 0.0000 0.0000
# 2 -5.1273 27.8625 1.5242 0.0000 0.0000 0.0000
# 3 0.9732 1.5242 40.5662 0.0000 0.0000 0.0000
# 4 0.0000 0.0000 0.0000 11.5078 0.0000 0.0000
# 5 0.0000 0.0000 0.0000 0.0000 17.5981 0.0000
# 6 0.0000 0.0000 0.0000 0.0000 0.0000 19.3928
#
#
#
# Elastic Compliance Matrix: (Units=1/GPa)
#
#
# Indices 1 2 3 4 5 6 
#
# 1 0.018800 0.003491 -0.000582 0.000000 0.000000 0.000000
# 2 0.003491 0.036613 -0.001459 0.000000 0.000000 0.000000
# 3 -0.000582 -0.001459 0.024720 0.000000 0.000000 0.000000
# 4 0.000000 0.000000 0.000000 0.086897 0.000000 0.000000
# 5 0.000000 0.000000 0.000000 0.000000 0.056824 0.000000
# 6 0.000000 0.000000 0.000000 0.000000 0.000000 0.051566
#
#
# Mechanical properties :
#
#
# Convention : Reuss Voigt Hill
#
# Bulk Modulus (GPa) = 12.04355 13.03817 12.54086
# Shear Modulus (GPa) = 16.65570 18.04862 17.35216
#
# Velocity S-wave (km/s) = 2.84532 2.96191 2.90420
# Velocity P-wave (km/s) = 4.08025 4.24672 4.16432
#
# Compressibility (1/GPa) = 0.08303202
#
# Stress axis : x y z
#
# Youngs Moduli (GPa) = 53.19220 27.31283 40.45333
#
# Poissons Ratio (x) = -0.09536 0.02355
# Poissons Ratio (y) = -0.18572 0.05904
# Poissons Ratio (z) = 0.03097 0.03986
#
# Static dielectric constant tensor:
#      x y z
#    x 1.730260 0.000000 0.000000 
#    y 0.000000 1.750580 0.000000 
#    z 0.000000 0.000000 1.731710 
# 
# From -- ./inp_files/15914.got.cif
#   From: 2010.05.17/outbox.cif.g08.bks.cpg/sg62_8_cif.got.tgz:15914.got - 2010.06.03 15:25:27.
