data_PCOD9462643
_publ_section_title
;
Structure prediction by ZEFSAII (Michael W. Deem and Ramdas Pophale) SiO2 
 PCOD9462643
Probable space group: P N M A
;
_chemical_formula_sum "Si O2"
_cell_formula_units_Z 64
_cell_length_a 19.583061
_cell_length_b 8.870533
_cell_length_c 23.676680
_cell_angle_alpha 90.000000
_cell_angle_beta 90.000000
_cell_angle_gamma 90.000000
_cell_volume 4112.927907
_symmetry_space_group_name_H-M "P N M A"
_symmetry_group_IT_number 62
_symmetry_cell_setting 'orthorhombic'
loop_
_space_group_symop_operation_xyz
x,y,z
1/2-x,-y,1/2+z
1/2+x,1/2-y,1/2-z
-x,1/2+y,-z
-x,-y,-z
1/2+x,y,1/2-z
1/2-x,1/2+y,1/2+z
x,1/2-y,z
loop_
_atom_site_type_symbol
_atom_site_label
_atom_site_fract_x
_atom_site_fract_y
_atom_site_fract_z
Si Si1 0.495191 0.430904 0.375393
Si Si2 0.727278 0.929713 0.658720
Si Si3 0.500997 0.930118 0.250088
Si Si4 0.716797 0.929495 0.333927
Si Si5 0.639769 0.069909 0.227028
Si Si6 0.348010 0.929968 0.234635
Si Si7 0.638998 0.430623 0.434577
Si Si8 0.638164 0.430778 0.565722
O O1 0.489831 0.250000 0.370413
O O2 0.500312 0.502907 0.313402
O O3 0.563858 0.467482 0.410182
O O4 0.429374 0.495723 0.407238
O O5 0.721558 0.750000 0.652272
O O6 0.803866 0.966823 0.679469
O O7 0.678476 0.983542 0.709979
O O8 0.701548 0.011753 0.602801
O O9 0.508505 0.750000 0.253128
O O10 0.426911 0.965634 0.223795
O O11 0.565471 0.000365 0.218271
O O12 0.707121 0.750000 0.331853
O O13 0.794567 0.963450 0.315243
O O14 0.669603 0.004637 0.285725
O O15 0.693886 0.991757 0.394058
O O16 0.635240 0.250000 0.232007
O O17 0.343532 0.750000 0.246451
O O18 0.646996 0.250000 0.430425
O O19 0.644110 0.473502 0.500062
O O20 0.632590 0.250000 0.569691
#
# Coordination Sequence:
#
# PCOD9462643 Si02
#       8
#     8   8   8   8   8   8   8   8
#     4  11  21  33  48  69 100 135 171 205 238 283
#     4  10  20  33  50  71  95 128 165 205 248 288
#     4  11  20  31  50  75 101 133 165 198 244 293
#     4  10  19  32  51  72  94 127 165 202 244 289
#     4  10  20  33  49  71 100 128 161 203 247 295
#     4   9  19  33  49  71  99 126 159 202 245 293
#     4  10  22  36  49  68  98 134 168 206 245 286
#     4  11  22  35  50  69  97 133 171 207 244 287
#
# _framework density 15.560689999999999
#
# number of rings (size 3 to 8) (size 9 to 14) (size 15 to 20)
#    0.000    1.750    2.500    2.625    0.000    4.000 
#    0.000    0.000    0.000    0.000    0.000    0.875 
#    0.000    0.000    0.000    0.000    0.000    0.000 
#
# Total GULP energy -357267.436401 kJ/mol
# GULP energy per Si atom -5582.303694 kJ/mol
# Density = 1.552527 g / cm^3
# Si number density = 15.560690 Si / 1000 Ang^3
#
#
#
# Elastic Constant Matrix: (Units=GPa)
#
#
# Indices 1 2 3 4 5 6 
#
# 1 133.0698 49.6158 54.0092 0.0000 0.0000 0.0000
# 2 49.6158 44.9549 33.9977 0.0000 0.0000 0.0000
# 3 54.0092 33.9977 75.7462 0.0000 0.0000 0.0000
# 4 0.0000 0.0000 0.0000 23.4477 0.0000 0.0000
# 5 0.0000 0.0000 0.0000 0.0000 19.2437 0.0000
# 6 0.0000 0.0000 0.0000 0.0000 0.0000 25.7932
#
#
#
# Elastic Compliance Matrix: (Units=1/GPa)
#
#
# Indices 1 2 3 4 5 6 
#
# 1 0.013722 -0.011725 -0.004521 0.000000 0.000000 0.000000
# 2 -0.011725 0.043694 -0.011251 0.000000 0.000000 0.000000
# 3 -0.004521 -0.011251 0.021476 0.000000 0.000000 0.000000
# 4 0.000000 0.000000 0.000000 0.042648 0.000000 0.000000
# 5 0.000000 0.000000 0.000000 0.000000 0.051965 0.000000
# 6 0.000000 0.000000 0.000000 0.000000 0.000000 0.038770
#
#
# Mechanical properties :
#
#
# Convention : Reuss Voigt Hill
#
# Bulk Modulus (GPa) = 41.84736 58.77961 50.31349
# Shear Modulus (GPa) = 18.16625 21.44011 19.80318
#
# Velocity S-wave (km/s) = 3.42050 3.71595 3.57128
# Velocity P-wave (km/s) = 6.52312 7.50117 7.02917
#
# Compressibility (1/GPa) = 0.02389637
#
# Stress axis : x y z
#
# Youngs Moduli (GPa) = 72.87739 22.88633 46.56402
#
# Poissons Ratio (x) = 0.26834 0.21053
# Poissons Ratio (y) = 0.85449 0.52391
# Poissons Ratio (z) = 0.32950 0.25750
#
# Static dielectric constant tensor:
#      x y z
#    x 1.532390 0.000000 0.000000 
#    y 0.000000 1.520710 0.000000 
#    z 0.000000 0.000000 1.489310 
# 
# From -- ./inp_files/27645.got.cif
#   From: 2010.05.17/outbox.cif.g08.bks.cpg/sg62_14_cif.got.tgz:27645.got - 2010.06.03 15:25:27.
