data_PCOD9462748
_publ_section_title
;
Structure prediction by ZEFSAII (Michael W. Deem and Ramdas Pophale) SiO2 
 PCOD9462748
Probable space group: P N M A
;
_chemical_formula_sum "Si O2"
_cell_formula_units_Z 56
_cell_length_a 16.740732
_cell_length_b 8.338027
_cell_length_c 19.922681
_cell_angle_alpha 90.000000
_cell_angle_beta 90.000000
_cell_angle_gamma 90.000000
_cell_volume 2780.900961
_symmetry_space_group_name_H-M "P N M A"
_symmetry_group_IT_number 62
_symmetry_cell_setting 'orthorhombic'
loop_
_space_group_symop_operation_xyz
x,y,z
1/2-x,-y,1/2+z
1/2+x,1/2-y,1/2-z
-x,1/2+y,-z
-x,-y,-z
1/2+x,y,1/2-z
1/2-x,1/2+y,1/2+z
x,1/2-y,z
loop_
_atom_site_type_symbol
_atom_site_label
_atom_site_fract_x
_atom_site_fract_y
_atom_site_fract_z
Si Si1 0.590772 0.561187 0.507958
Si Si2 0.109156 0.941817 0.455529
Si Si3 0.969461 0.935387 0.673032
Si Si4 0.299083 0.938875 0.612138
Si Si5 0.619216 0.945491 0.894722
Si Si6 0.220918 0.060233 0.889956
Si Si7 0.182880 0.562164 0.258940
O O1 0.500000 0.500000 0.500000
O O2 0.586587 0.750000 0.512699
O O3 0.640990 0.514132 0.441486
O O4 0.641825 0.503707 0.573209
O O5 0.092971 0.750000 0.445117
O O6 0.090064 0.988578 0.531122
O O7 0.203741 0.962904 0.440230
O O8 0.063895 0.051050 0.402594
O O9 0.967503 0.750000 0.695713
O O10 0.060017 0.996030 0.664668
O O11 0.906575 0.041722 0.712550
O O12 0.297208 0.750000 0.596551
O O13 0.209189 0.005039 0.607915
O O14 0.318477 0.966774 0.689839
O O15 0.620214 0.750000 0.891774
O O16 0.210080 0.250000 0.881986
O O17 0.255047 0.002024 0.817097
O O18 0.199161 0.750000 0.246976
#
# Coordination Sequence:
#
# PCOD9462748 Si02
#       7
#     8   8   8   8   8   8   8
#     4  12  25  42  66  95 124 159 209 262 316 376
#     4   9  16  31  54  81 117 154 183 228 287 343
#     4  10  19  32  53  84 117 154 196 238 287 354
#     4  11  22  42  66  88 120 161 204 258 315 367
#     4   9  18  33  55  83 117 152 189 235 294 353
#     4   9  18  37  63  86 119 160 201 249 306 365
#     4  10  22  41  61  86 122 164 204 252 312 371
#
# _framework density 20.137359
#
# number of rings (size 3 to 8) (size 9 to 14) (size 15 to 20)
#    0.000    2.000    1.429    3.857    0.000    2.857 
#    2.571    3.571    0.000    0.000    0.000    0.000 
#    0.000    0.000    0.000    0.000    0.000    0.000 
#
# Total GULP energy -312227.969115 kJ/mol
# GULP energy per Si atom -5575.499448 kJ/mol
# Density = 2.009153 g / cm^3
# Si number density = 20.137359 Si / 1000 Ang^3
#
#
#
# Elastic Constant Matrix: (Units=GPa)
#
#
# Indices 1 2 3 4 5 6 
#
# 1 120.3960 16.8861 28.6901 0.0000 0.0000 0.0000
# 2 16.8861 32.4467 -6.5006 0.0000 0.0000 0.0000
# 3 28.6901 -6.5006 56.4749 0.0000 0.0000 0.0000
# 4 0.0000 0.0000 0.0000 28.2647 0.0000 0.0000
# 5 0.0000 0.0000 0.0000 0.0000 5.8924 0.0000
# 6 0.0000 0.0000 0.0000 0.0000 0.0000 22.2989
#
#
#
# Elastic Compliance Matrix: (Units=1/GPa)
#
#
# Indices 1 2 3 4 5 6 
#
# 1 0.010757 -0.006851 -0.006253 0.000000 0.000000 0.000000
# 2 -0.006851 0.035911 0.007614 0.000000 0.000000 0.000000
# 3 -0.006253 0.007614 0.021760 0.000000 0.000000 0.000000
# 4 0.000000 0.000000 0.000000 0.035380 0.000000 0.000000
# 5 0.000000 0.000000 0.000000 0.000000 0.169711 0.000000
# 6 0.000000 0.000000 0.000000 0.000000 0.000000 0.044845
#
#
# Mechanical properties :
#
#
# Convention : Reuss Voigt Hill
#
# Bulk Modulus (GPa) = 17.40730 31.94097 24.67414
# Shear Modulus (GPa) = 14.34744 22.64064 18.49404
#
# Velocity S-wave (km/s) = 2.67213 3.35671 3.03379
# Velocity P-wave (km/s) = 4.26420 5.56052 4.95493
#
# Compressibility (1/GPa) = 0.05744715
#
# Stress axis : x y z
#
# Youngs Moduli (GPa) = 92.96304 27.84683 45.95549
#
# Poissons Ratio (x) = 0.19078 0.28737
# Poissons Ratio (y) = 0.63689 -0.34990
# Poissons Ratio (z) = 0.58133 -0.21203
#
# Static dielectric constant tensor:
#      x y z
#    x 1.818980 0.000000 0.000000 
#    y 0.000000 1.619460 0.000000 
#    z 0.000000 0.000000 1.725800 
# 
# From -- ./inp_files/27504.got.cif
#   From: 2010.05.17/outbox.cif.g08.bks.cpg/sg62_14_cif.got.tgz:27504.got - 2010.06.03 15:25:27.
