data_PCOD9462455
_publ_section_title
;
Structure prediction by ZEFSAII (Michael W. Deem and Ramdas Pophale) SiO2 
 PCOD9462455
Probable space group: P N M A
;
_chemical_formula_sum "Si O2"
_cell_formula_units_Z 56
_cell_length_a 17.396820
_cell_length_b 9.045218
_cell_length_c 21.106640
_cell_angle_alpha 90.000000
_cell_angle_beta 90.000000
_cell_angle_gamma 90.000000
_cell_volume 3321.299278
_symmetry_space_group_name_H-M "P N M A"
_symmetry_group_IT_number 62
_symmetry_cell_setting 'orthorhombic'
loop_
_space_group_symop_operation_xyz
x,y,z
1/2-x,-y,1/2+z
1/2+x,1/2-y,1/2-z
-x,1/2+y,-z
-x,-y,-z
1/2+x,y,1/2-z
1/2-x,1/2+y,1/2+z
x,1/2-y,z
loop_
_atom_site_type_symbol
_atom_site_label
_atom_site_fract_x
_atom_site_fract_y
_atom_site_fract_z
Si Si1 0.861274 0.427219 0.107231
Si Si2 0.705225 0.573700 0.123726
Si Si3 0.962235 0.080947 0.404502
Si Si4 0.880460 0.581103 0.512381
Si Si5 0.445574 0.072467 0.796922
Si Si6 0.421128 0.427073 0.523443
Si Si7 0.479771 0.428368 0.653296
O O1 0.861326 0.250000 0.113325
O O2 0.785895 0.496917 0.137987
O O3 0.939655 0.493889 0.136001
O O4 0.861110 0.466949 0.031610
O O5 0.713562 0.750000 0.122779
O O6 0.675509 0.515231 0.055776
O O7 0.637466 0.534508 0.173247
O O8 0.938191 0.250000 0.394539
O O9 0.038989 0.083730 0.448581
O O10 0.899960 0.990084 0.444736
O O11 0.989680 0.004338 0.339999
O O12 0.853107 0.750000 0.506818
O O13 0.454115 0.250000 0.802790
O O14 0.453015 0.031144 0.723557
O O15 0.500000 0.500000 0.500000
O O16 0.428159 0.250000 0.520438
O O17 0.418232 0.466299 0.597730
O O18 0.490963 0.250000 0.651839
#
# Coordination Sequence:
#
# PCOD9462455 Si02
#       7
#     8   8   8   8   8   8   8
#     4  10  19  31  49  74 100 127 161 204 254 303
#     4  10  19  31  48  71  98 131 167 207 251 298
#     4   9  16  26  43  67  94 123 156 196 238 283
#     4   9  16  27  44  66  92 122 159 201 241 281
#     4   9  18  31  49  72  97 128 169 205 242 294
#     4   8  15  28  48  72  94 116 150 195 241 287
#     4   9  17  32  53  74  96 125 162 205 247 294
#
# _framework density 16.860872000000001
#
# number of rings (size 3 to 8) (size 9 to 14) (size 15 to 20)
#    0.000    2.857    0.000    1.714    0.000    5.143 
#    0.000    0.000    3.143    0.000    0.000    0.000 
#    0.000    0.000    0.000    0.000    0.000    0.000 
#
# Total GULP energy -311750.092106 kJ/mol
# GULP energy per Si atom -5566.965930 kJ/mol
# Density = 1.682250 g / cm^3
# Si number density = 16.860872 Si / 1000 Ang^3
#
#
#
# Elastic Constant Matrix: (Units=GPa)
#
#
# Indices 1 2 3 4 5 6 
#
# 1 57.8956 26.7444 36.5313 0.0000 0.0000 0.0000
# 2 26.7444 46.8698 41.2513 0.0000 0.0000 0.0000
# 3 36.5313 41.2513 135.7520 0.0000 0.0000 0.0000
# 4 0.0000 0.0000 0.0000 21.8637 0.0000 0.0000
# 5 0.0000 0.0000 0.0000 0.0000 14.2034 0.0000
# 6 0.0000 0.0000 0.0000 0.0000 0.0000 19.0877
#
#
#
# Elastic Compliance Matrix: (Units=1/GPa)
#
#
# Indices 1 2 3 4 5 6 
#
# 1 0.024428 -0.011130 -0.003192 0.000000 0.000000 0.000000
# 2 -0.011130 0.034196 -0.007396 0.000000 0.000000 0.000000
# 3 -0.003192 -0.007396 0.010473 0.000000 0.000000 0.000000
# 4 0.000000 0.000000 0.000000 0.045738 0.000000 0.000000
# 5 0.000000 0.000000 0.000000 0.000000 0.070406 0.000000
# 6 0.000000 0.000000 0.000000 0.000000 0.000000 0.052390
#
#
# Mechanical properties :
#
#
# Convention : Reuss Voigt Hill
#
# Bulk Modulus (GPa) = 38.96891 49.95239 44.46065
# Shear Modulus (GPa) = 17.26411 20.09699 18.68055
#
# Velocity S-wave (km/s) = 3.20334 3.45618 3.33216
# Velocity P-wave (km/s) = 6.06993 6.75407 6.42112
#
# Compressibility (1/GPa) = 0.02566148
#
# Stress axis : x y z
#
# Youngs Moduli (GPa) = 40.93736 29.24315 95.48610
#
# Poissons Ratio (x) = 0.32547 0.30475
# Poissons Ratio (y) = 0.45562 0.70624
# Poissons Ratio (z) = 0.13065 0.21629
#
# Static dielectric constant tensor:
#      x y z
#    x 1.559160 0.000000 0.000000 
#    y 0.000000 1.566950 0.000000 
#    z 0.000000 0.000000 1.587010 
# 
# From -- ./inp_files/29992.got.cif
#   From: 2010.05.17/outbox.cif.g08.bks.cpg/sg62_15_cif.got.tgz:29992.got - 2010.06.03 15:25:27.
