data_PCOD9462220
_publ_section_title
;
Structure prediction by ZEFSAII (Michael W. Deem and Ramdas Pophale) SiO2 
 PCOD9462220
Probable space group: P N M A
;
_chemical_formula_sum "Si O2"
_cell_formula_units_Z 64
_cell_length_a 31.629522
_cell_length_b 7.796672
_cell_length_c 12.326894
_cell_angle_alpha 90.000000
_cell_angle_beta 90.000000
_cell_angle_gamma 90.000000
_cell_volume 3039.873800
_symmetry_space_group_name_H-M "P N M A"
_symmetry_group_IT_number 62
_symmetry_cell_setting 'orthorhombic'
loop_
_space_group_symop_operation_xyz
x,y,z
1/2-x,-y,1/2+z
1/2+x,1/2-y,1/2-z
-x,1/2+y,-z
-x,-y,-z
1/2+x,y,1/2-z
1/2-x,1/2+y,1/2+z
x,1/2-y,z
loop_
_atom_site_type_symbol
_atom_site_label
_atom_site_fract_x
_atom_site_fract_y
_atom_site_fract_z
Si Si1 0.049278 0.954683 0.506102
Si Si2 0.576579 0.542216 0.227600
Si Si3 0.372784 0.453624 0.420743
Si Si4 0.694997 0.451703 0.989140
Si Si5 0.672135 0.955768 0.230456
Si Si6 0.455261 0.456766 0.550825
Si Si7 0.789322 0.460443 0.953280
Si Si8 0.878693 0.546940 0.330316
O O1 0.053084 0.750000 0.507851
O O2 0.068500 0.023596 0.393011
O O3 0.076927 0.017265 0.607578
O O4 0.000000 0.000000 0.500000
O O5 0.572635 0.750000 0.220978
O O6 0.624182 0.503700 0.262297
O O7 0.547115 0.480732 0.324767
O O8 0.372243 0.250000 0.441975
O O9 0.414781 0.521344 0.481971
O O10 0.328325 0.519410 0.470747
O O11 0.376547 0.478095 0.291764
O O12 0.698064 0.250000 0.963267
O O13 0.680858 0.469878 0.112971
O O14 0.742497 0.523121 0.981919
O O15 0.659189 0.523414 0.907656
O O16 0.675438 0.750000 0.220465
O O17 0.701380 0.010874 0.329247
O O18 0.500000 0.500000 0.500000
O O19 0.451935 0.250000 0.553735
O O20 0.789287 0.250000 0.958482
O O21 0.873241 0.750000 0.321320
#
# Coordination Sequence:
#
# PCOD9462220 Si02
#       8
#     8   8   8   8   8   8   8   8
#     4  11  23  40  62  89 118 153 196 241 289 347
#     4   9  18  36  61  84 109 143 189 237 282 335
#     4  10  21  39  61  83 113 154 197 238 286 349
#     4  10  22  38  56  85 120 152 188 239 294 342
#     4  10  18  36  64  85 107 148 197 241 284 344
#     4  10  21  38  59  86 114 146 186 233 286 343
#     4   9  19  37  61  85 114 152 192 237 294 349
#     4  11  24  40  57  83 122 159 192 239 294 346
#
# _framework density 21.053504
#
# number of rings (size 3 to 8) (size 9 to 14) (size 15 to 20)
#    0.000    2.000    2.500    0.750    3.500    1.000 
#    0.000    2.500    0.000    0.000    0.000    0.000 
#    0.000    0.000    0.000    0.000    0.000    0.000 
#
# Total GULP energy -357239.245879 kJ/mol
# GULP energy per Si atom -5581.863217 kJ/mol
# Density = 2.100559 g / cm^3
# Si number density = 21.053504 Si / 1000 Ang^3
#
#
#
# Elastic Constant Matrix: (Units=GPa)
#
#
# Indices 1 2 3 4 5 6 
#
# 1 92.0485 0.6899 19.2316 0.0000 0.0000 0.0000
# 2 0.6899 25.5497 -9.1861 0.0000 0.0000 0.0000
# 3 19.2316 -9.1861 91.4708 0.0000 0.0000 0.0000
# 4 0.0000 0.0000 0.0000 8.5088 0.0000 0.0000
# 5 0.0000 0.0000 0.0000 0.0000 35.9090 0.0000
# 6 0.0000 0.0000 0.0000 0.0000 0.0000 15.3713
#
#
#
# Elastic Compliance Matrix: (Units=1/GPa)
#
#
# Indices 1 2 3 4 5 6 
#
# 1 0.011399 -0.001213 -0.002518 0.000000 0.000000 0.000000
# 2 -0.001213 0.040735 0.004346 0.000000 0.000000 0.000000
# 3 -0.002518 0.004346 0.011898 0.000000 0.000000 0.000000
# 4 0.000000 0.000000 0.000000 0.117525 0.000000 0.000000
# 5 0.000000 0.000000 0.000000 0.000000 0.027848 0.000000
# 6 0.000000 0.000000 0.000000 0.000000 0.000000 0.065056
#
#
# Mechanical properties :
#
#
# Convention : Reuss Voigt Hill
#
# Bulk Modulus (GPa) = 15.32320 25.61553 20.46937
# Shear Modulus (GPa) = 16.94987 25.18005 21.06496
#
# Velocity S-wave (km/s) = 2.84048 3.46208 3.16657
# Velocity P-wave (km/s) = 4.24874 5.30798 4.80762
#
# Compressibility (1/GPa) = 0.06526051
#
# Stress axis : x y z
#
# Youngs Moduli (GPa) = 87.72607 24.54909 84.04489
#
# Poissons Ratio (x) = 0.02979 0.21167
# Poissons Ratio (y) = 0.10644 -0.36525
# Poissons Ratio (z) = 0.22094 -0.10669
#
# Static dielectric constant tensor:
#      x y z
#    x 1.776720 0.000000 0.000000 
#    y 0.000000 1.805590 0.000000 
#    z 0.000000 0.000000 1.737320 
# 
# From -- ./inp_files/15922.got.cif
#   From: 2010.05.17/outbox.cif.g08.bks.cpg/sg62_8_cif.got.tgz:15922.got - 2010.06.03 15:25:27.
