data_PCOD9462625
_publ_section_title
;
Structure prediction by ZEFSAII (Michael W. Deem and Ramdas Pophale) SiO2 
 PCOD9462625
Probable space group: P N M A
;
_chemical_formula_sum "Si O2"
_cell_formula_units_Z 56
_cell_length_a 19.637753
_cell_length_b 8.532872
_cell_length_c 19.960729
_cell_angle_alpha 90.000000
_cell_angle_beta 90.000000
_cell_angle_gamma 90.000000
_cell_volume 3344.748153
_symmetry_space_group_name_H-M "P N M A"
_symmetry_group_IT_number 62
_symmetry_cell_setting 'orthorhombic'
loop_
_space_group_symop_operation_xyz
x,y,z
1/2-x,-y,1/2+z
1/2+x,1/2-y,1/2-z
-x,1/2+y,-z
-x,-y,-z
1/2+x,y,1/2-z
1/2-x,1/2+y,1/2+z
x,1/2-y,z
loop_
_atom_site_type_symbol
_atom_site_label
_atom_site_fract_x
_atom_site_fract_y
_atom_site_fract_z
Si Si1 0.942883 0.063170 0.449207
Si Si2 0.241847 0.939484 0.166051
Si Si3 0.982371 0.937730 0.302635
Si Si4 0.854602 0.062532 0.231860
Si Si5 0.791633 0.560406 0.477059
Si Si6 0.635884 0.939002 0.225245
Si Si7 0.248322 0.060744 0.376580
O O1 0.942233 0.250000 0.451685
O O2 0.960568 0.008066 0.374121
O O3 0.868611 0.999898 0.469472
O O4 0.000000 0.000000 0.500000
O O5 0.248103 0.750000 0.169398
O O6 0.249623 0.987110 0.089003
O O7 0.172991 0.984195 0.205247
O O8 0.303804 0.012092 0.208297
O O9 0.982211 0.750000 0.308998
O O10 0.058363 0.991219 0.283419
O O11 0.927023 0.987552 0.247702
O O12 0.861056 0.250000 0.231631
O O13 0.815819 0.011020 0.164060
O O14 0.794145 0.750000 0.477993
O O15 0.759076 0.507140 0.547058
O O16 0.636520 0.750000 0.221673
O O17 0.683723 0.002761 0.166123
O O18 0.247643 0.250000 0.375834
#
# Coordination Sequence:
#
# PCOD9462625 Si02
#       7
#     8   8   8   8   8   8   8
#     4  12  24  35  49  73 107 139 170 204 251 310
#     4   9  17  32  53  73  96 128 169 211 254 302
#     4  11  21  34  51  73 102 135 172 211 255 304
#     4  10  19  32  50  73 100 131 170 209 251 301
#     4  10  19  33  53  75 101 133 168 206 256 306
#     4   9  19  33  50  73  98 129 169 212 252 297
#     4   9  19  33  50  74 102 131 165 207 251 303
#
# _framework density 16.742664999999999
#
# number of rings (size 3 to 8) (size 9 to 14) (size 15 to 20)
#    0.000    2.000    1.429    3.000    0.000    4.571 
#    0.000    0.000    0.000    0.857    0.000    0.000 
#    0.000    0.000    0.000    0.000    0.000    0.571 
#
# Total GULP energy -312494.748290 kJ/mol
# GULP energy per Si atom -5580.263362 kJ/mol
# Density = 1.670456 g / cm^3
# Si number density = 16.742665 Si / 1000 Ang^3
#
#
#
# Elastic Constant Matrix: (Units=GPa)
#
#
# Indices 1 2 3 4 5 6 
#
# 1 45.1128 7.8460 46.7938 0.0000 0.0000 0.0000
# 2 7.8460 18.8726 21.2656 0.0000 0.0000 0.0000
# 3 46.7938 21.2656 143.3605 0.0000 0.0000 0.0000
# 4 0.0000 0.0000 0.0000 16.1512 0.0000 0.0000
# 5 0.0000 0.0000 0.0000 0.0000 23.4772 0.0000
# 6 0.0000 0.0000 0.0000 0.0000 0.0000 20.4959
#
#
#
# Elastic Compliance Matrix: (Units=1/GPa)
#
#
# Indices 1 2 3 4 5 6 
#
# 1 0.033572 -0.001933 -0.010671 0.000000 0.000000 0.000000
# 2 -0.001933 0.063732 -0.008823 0.000000 0.000000 0.000000
# 3 -0.010671 -0.008823 0.011767 0.000000 0.000000 0.000000
# 4 0.000000 0.000000 0.000000 0.061915 0.000000 0.000000
# 5 0.000000 0.000000 0.000000 0.000000 0.042595 0.000000
# 6 0.000000 0.000000 0.000000 0.000000 0.000000 0.048790
#
#
# Mechanical properties :
#
#
# Convention : Reuss Voigt Hill
#
# Bulk Modulus (GPa) = 15.10178 39.90630 27.50404
# Shear Modulus (GPa) = 15.27664 20.78756 18.03210
#
# Velocity S-wave (km/s) = 3.02394 3.52745 3.28535
# Velocity P-wave (km/s) = 4.60779 6.36218 5.55469
#
# Compressibility (1/GPa) = 0.06621736
#
# Stress axis : x y z
#
# Youngs Moduli (GPa) = 29.78689 15.69070 84.98059
#
# Poissons Ratio (x) = 0.03032 0.90686
# Poissons Ratio (y) = 0.05757 0.74978
# Poissons Ratio (z) = 0.31787 0.13844
#
# Static dielectric constant tensor:
#      x y z
#    x 1.550380 0.000000 0.000000 
#    y 0.000000 1.569100 0.000000 
#    z 0.000000 0.000000 1.571230 
# 
# From -- ./inp_files/24635.got.cif
#   From: 2010.05.17/outbox.cif.g08.bks.cpg/sg62_13_cif.got.tgz:24635.got - 2010.06.03 15:25:27.
