data_PCOD9462208
_publ_section_title
;
Structure prediction by ZEFSAII (Michael W. Deem and Ramdas Pophale) SiO2 
 PCOD9462208
Probable space group: P N M A
;
_chemical_formula_sum "Si O2"
_cell_formula_units_Z 64
_cell_length_a 29.027721
_cell_length_b 12.833564
_cell_length_c 8.620951
_cell_angle_alpha 90.000000
_cell_angle_beta 90.000000
_cell_angle_gamma 90.000000
_cell_volume 3211.555248
_symmetry_space_group_name_H-M "P N M A"
_symmetry_group_IT_number 62
_symmetry_cell_setting 'orthorhombic'
loop_
_space_group_symop_operation_xyz
x,y,z
1/2-x,-y,1/2+z
1/2+x,1/2-y,1/2-z
-x,1/2+y,-z
-x,-y,-z
1/2+x,y,1/2-z
1/2-x,1/2+y,1/2+z
x,1/2-y,z
loop_
_atom_site_type_symbol
_atom_site_label
_atom_site_fract_x
_atom_site_fract_y
_atom_site_fract_z
Si Si1 0.509607 0.040276 0.250694
Si Si2 0.438851 0.564403 0.031478
Si Si3 0.841881 0.366603 0.891237
Si Si4 0.287463 0.974669 0.396928
Si Si5 0.781030 0.129424 0.376050
Si Si6 0.119503 0.132381 0.802569
Si Si7 0.432553 0.055834 0.472505
Si Si8 0.123561 0.869749 0.457743
O O1 0.481632 0.957291 0.145692
O O2 0.470316 0.097668 0.351170
O O3 0.541135 0.979090 0.372641
O O4 0.540730 0.104807 0.130608
O O5 0.400359 0.625864 0.127649
O O6 0.415558 0.452851 0.993437
O O7 0.822105 0.250000 0.901450
O O8 0.889972 0.371567 0.985614
O O9 0.854888 0.388416 0.712791
O O10 0.809897 0.453068 0.968890
O O11 0.248473 0.904932 0.475198
O O12 0.328007 0.904883 0.322279
O O13 0.269908 0.053391 0.265575
O O14 0.772074 0.250000 0.338727
O O15 0.835027 0.118942 0.418915
O O16 0.114174 0.250000 0.860195
O O17 0.089525 0.048635 0.898210
O O18 0.107152 0.750000 0.461252
#
# Coordination Sequence:
#
# PCOD9462208 Si02
#       8
#     8   8   8   8   8   8   8   8
#     4   9  18  33  56  81 114 155 190 242 304 336
#     4  10  18  36  57  81 116 153 193 242 291 352
#     4  10  20  36  61  88 118 155 196 237 293 355
#     4  11  22  40  64  87 124 153 191 246 294 351
#     4  11  23  40  64  94 123 154 197 244 298 358
#     4  10  21  38  58  79 111 160 199 235 292 349
#     4   9  18  35  55  82 117 153 192 245 291 347
#     4  10  20  36  59  87 116 151 192 239 294 351
#
# _framework density 19.928039999999999
#
# number of rings (size 3 to 8) (size 9 to 14) (size 15 to 20)
#    0.000    2.000    2.500    1.500    0.000    0.000 
#    0.000   15.000    0.000    0.000    0.000    0.000 
#    0.000    0.000    0.000    0.000    0.000    0.000 
#
# Total GULP energy -357146.369565 kJ/mol
# GULP energy per Si atom -5580.412024 kJ/mol
# Density = 1.988268 g / cm^3
# Si number density = 19.928040 Si / 1000 Ang^3
#
#
#
# Elastic Constant Matrix: (Units=GPa)
#
#
# Indices 1 2 3 4 5 6 
#
# 1 67.2205 19.0073 12.6846 0.0000 0.0000 0.0000
# 2 19.0073 67.5618 18.6750 0.0000 0.0000 0.0000
# 3 12.6846 18.6750 78.8594 0.0000 0.0000 0.0000
# 4 0.0000 0.0000 0.0000 18.1364 0.0000 0.0000
# 5 0.0000 0.0000 0.0000 0.0000 29.3796 0.0000
# 6 0.0000 0.0000 0.0000 0.0000 0.0000 8.1314
#
#
#
# Elastic Compliance Matrix: (Units=1/GPa)
#
#
# Indices 1 2 3 4 5 6 
#
# 1 0.016360 -0.004147 -0.001650 0.000000 0.000000 0.000000
# 2 -0.004147 0.016889 -0.003333 0.000000 0.000000 0.000000
# 3 -0.001650 -0.003333 0.013735 0.000000 0.000000 0.000000
# 4 0.000000 0.000000 0.000000 0.055138 0.000000 0.000000
# 5 0.000000 0.000000 0.000000 0.000000 0.034037 0.000000
# 6 0.000000 0.000000 0.000000 0.000000 0.000000 0.122980
#
#
# Mechanical properties :
#
#
# Convention : Reuss Voigt Hill
#
# Bulk Modulus (GPa) = 34.81053 34.93061 34.87057
# Shear Modulus (GPa) = 17.42328 22.01447 19.71887
#
# Velocity S-wave (km/s) = 2.96008 3.32731 3.14905
# Velocity P-wave (km/s) = 5.40267 5.68575 5.54601
#
# Compressibility (1/GPa) = 0.02872694
#
# Stress axis : x y z
#
# Youngs Moduli (GPa) = 61.12392 59.21004 72.80495
#
# Poissons Ratio (x) = 0.24553 0.12010
# Poissons Ratio (y) = 0.25346 0.24263
# Poissons Ratio (z) = 0.10083 0.19732
#
# Static dielectric constant tensor:
#      x y z
#    x 1.707840 0.000000 0.000000 
#    y 0.000000 1.661620 0.000000 
#    z 0.000000 0.000000 1.731110 
# 
# From -- ./inp_files/10464.got.cif
#   From: 2010.05.17/outbox.cif.g08.bks.cpg/sg62_6_cif.got.tgz:10464.got - 2010.06.03 15:25:27.
