data_PCOD9462414
_publ_section_title
;
Structure prediction by ZEFSAII (Michael W. Deem and Ramdas Pophale) SiO2 
 PCOD9462414
Probable space group: P N M A
;
_chemical_formula_sum "Si O2"
_cell_formula_units_Z 64
_cell_length_a 25.286867
_cell_length_b 7.704057
_cell_length_c 14.895892
_cell_angle_alpha 90.000000
_cell_angle_beta 90.000000
_cell_angle_gamma 90.000000
_cell_volume 2901.890539
_symmetry_space_group_name_H-M "P N M A"
_symmetry_group_IT_number 62
_symmetry_cell_setting 'orthorhombic'
loop_
_space_group_symop_operation_xyz
x,y,z
1/2-x,-y,1/2+z
1/2+x,1/2-y,1/2-z
-x,1/2+y,-z
-x,-y,-z
1/2+x,y,1/2-z
1/2-x,1/2+y,1/2+z
x,1/2-y,z
loop_
_atom_site_type_symbol
_atom_site_label
_atom_site_fract_x
_atom_site_fract_y
_atom_site_fract_z
Si Si1 0.620850 0.460667 0.617616
Si Si2 0.052424 0.047864 0.723757
Si Si3 0.670799 0.462005 0.440935
Si Si4 0.594505 0.045801 0.963444
Si Si5 0.945811 0.550590 0.646508
Si Si6 0.211503 0.949966 0.554744
Si Si7 0.278274 0.539596 0.262149
Si Si8 0.661409 0.548202 0.233756
O O1 0.617874 0.250000 0.610743
O O2 0.573707 0.524135 0.681980
O O3 0.628996 0.520216 0.515777
O O4 0.674487 0.503789 0.671484
O O5 0.068868 0.250000 0.725140
O O6 0.079519 0.971122 0.633929
O O7 0.990220 0.037928 0.706711
O O8 0.671775 0.250000 0.435647
O O9 0.730242 0.517778 0.470043
O O10 0.660034 0.530297 0.341647
O O11 0.581550 0.250000 0.961013
O O12 0.657287 0.032058 0.979171
O O13 0.561940 0.971458 0.047223
O O14 0.962786 0.750000 0.638479
O O15 0.888366 0.545006 0.691259
O O16 0.209538 0.750000 0.526724
O O17 0.211006 0.965588 0.663254
O O18 0.277026 0.750000 0.252903
O O19 0.219887 0.484316 0.293424
O O20 0.657171 0.750000 0.208614
#
# Coordination Sequence:
#
# PCOD9462414 Si02
#       8
#     8   8   8   8   8   8   8   8
#     4   9  17  33  59  84 109 147 187 228 280 333
#     4  10  20  38  61  82 109 146 192 235 277 338
#     4   9  19  35  56  83 117 150 184 228 282 334
#     4  10  21  37  56  80 114 153 186 226 280 339
#     4  11  24  39  57  81 113 150 189 238 290 335
#     4  10  19  30  51  83 118 148 181 226 272 327
#     4   9  17  33  56  79 111 150 186 224 276 336
#     4  10  21  37  59  83 112 150 192 234 279 335
#
# _framework density 22.054587000000001
#
# number of rings (size 3 to 8) (size 9 to 14) (size 15 to 20)
#    0.000    2.250    1.250    1.500    1.750    2.500 
#    0.000    1.875    0.000    0.000    0.000    0.000 
#    0.000    0.000    0.000    0.000    0.000    0.000 
#
# Total GULP energy -357358.554384 kJ/mol
# GULP energy per Si atom -5583.727412 kJ/mol
# Density = 2.200439 g / cm^3
# Si number density = 22.054587 Si / 1000 Ang^3
#
#
#
# Elastic Constant Matrix: (Units=GPa)
#
#
# Indices 1 2 3 4 5 6 
#
# 1 67.4482 -3.4509 1.8845 0.0000 0.0000 0.0000
# 2 -3.4509 36.0418 -2.3636 0.0000 0.0000 0.0000
# 3 1.8845 -2.3636 25.5936 0.0000 0.0000 0.0000
# 4 0.0000 0.0000 0.0000 5.9331 0.0000 0.0000
# 5 0.0000 0.0000 0.0000 0.0000 33.9565 0.0000
# 6 0.0000 0.0000 0.0000 0.0000 0.0000 12.3499
#
#
#
# Elastic Compliance Matrix: (Units=1/GPa)
#
#
# Indices 1 2 3 4 5 6 
#
# 1 0.014923 0.001365 -0.000973 0.000000 0.000000 0.000000
# 2 0.001365 0.028039 0.002489 0.000000 0.000000 0.000000
# 3 -0.000973 0.002489 0.039374 0.000000 0.000000 0.000000
# 4 0.000000 0.000000 0.000000 0.168547 0.000000 0.000000
# 5 0.000000 0.000000 0.000000 0.000000 0.029449 0.000000
# 6 0.000000 0.000000 0.000000 0.000000 0.000000 0.080972
#
#
# Mechanical properties :
#
#
# Convention : Reuss Voigt Hill
#
# Bulk Modulus (GPa) = 11.35087 13.46929 12.41008
# Shear Modulus (GPa) = 12.99011 19.31549 16.15280
#
# Velocity S-wave (km/s) = 2.42956 2.96261 2.70923
# Velocity P-wave (km/s) = 3.60947 4.22176 3.92756
#
# Compressibility (1/GPa) = 0.08809895
#
# Stress axis : x y z
#
# Youngs Moduli (GPa) = 67.00965 35.66402 25.39765
#
# Poissons Ratio (x) = -0.04868 0.02471
# Poissons Ratio (y) = -0.09147 -0.06321
# Poissons Ratio (z) = 0.06518 -0.08877
#
# Static dielectric constant tensor:
#      x y z
#    x 1.800050 0.000000 0.000000 
#    y 0.000000 1.819490 0.000000 
#    z 0.000000 0.000000 1.824860 
# 
# From -- ./inp_files/20914.got.cif
#   From: 2010.05.17/outbox.cif.g08.bks.cpg/sg62_11_cif.got.tgz:20914.got - 2010.06.03 15:25:27.
