data_PCOD9462182
_publ_section_title
;
Structure prediction by ZEFSAII (Michael W. Deem and Ramdas Pophale) SiO2 
 PCOD9462182
Probable space group: P N M A
;
_chemical_formula_sum "Si O2"
_cell_formula_units_Z 64
_cell_length_a 5.284434
_cell_length_b 32.399566
_cell_length_c 16.237016
_cell_angle_alpha 90.000000
_cell_angle_beta 90.000000
_cell_angle_gamma 90.000000
_cell_volume 2779.994198
_symmetry_space_group_name_H-M "P N M A"
_symmetry_group_IT_number 62
_symmetry_cell_setting 'orthorhombic'
loop_
_space_group_symop_operation_xyz
x,y,z
1/2-x,-y,1/2+z
1/2+x,1/2-y,1/2-z
-x,1/2+y,-z
-x,-y,-z
1/2+x,y,1/2-z
1/2-x,1/2+y,1/2+z
x,1/2-y,z
loop_
_atom_site_type_symbol
_atom_site_label
_atom_site_fract_x
_atom_site_fract_y
_atom_site_fract_z
Si Si1 0.301021 0.975736 0.652408
Si Si2 0.262177 0.297126 0.136237
Si Si3 0.259373 0.930342 0.192215
Si Si4 0.698712 0.440724 0.164788
Si Si5 0.809726 0.182925 0.551208
Si Si6 0.634903 0.296183 0.722534
Si Si7 0.257862 0.350789 0.356492
Si Si8 0.192701 0.635507 0.048385
O O1 0.331843 0.965248 0.749635
O O2 0.566691 0.960401 0.616234
O O3 0.067630 0.948452 0.620422
O O4 0.249271 0.024040 0.651510
O O5 0.255740 0.250000 0.167679
O O6 0.512216 0.322781 0.160763
O O7 0.007450 0.322969 0.153751
O O8 0.282515 0.295932 0.036713
O O9 0.511864 0.926035 0.248530
O O10 0.251198 0.899066 0.115426
O O11 0.753514 0.393799 0.190965
O O12 0.702310 0.207377 0.628069
O O13 0.607323 0.145328 0.550529
O O14 0.101493 0.171752 0.567502
O O15 0.871083 0.318289 0.763861
O O16 0.604433 0.250000 0.759540
O O17 0.249416 0.368408 0.450668
#
# Coordination Sequence:
#
# PCOD9462182 Si02
#       8
#     8   8   8   8   8   8   8   8
#     4  10  19  35  58  85 103 142 192 221 264 331
#     4  10  20  36  58  81 109 147 185 221 271 332
#     4  12  21  37  56  78 111 145 192 239 268 325
#     4  10  18  35  59  83 113 140 181 236 263 324
#     4  10  20  36  50  70 102 139 184 219 269 330
#     4  10  20  31  46  66  92 123 169 226 270 313
#     4  10  21  37  56  86 117 143 181 233 279 326
#     4  10  23  35  51  77 109 143 178 229 280 321
#
# _framework density 23.021633000000001
#
# number of rings (size 3 to 8) (size 9 to 14) (size 15 to 20)
#    0.000    1.750    2.500    3.000    0.000    3.000 
#    0.000    5.000    0.000    0.000    0.000   35.000 
#    0.000    0.000    0.000    0.000    0.000    0.000 
#
# Total GULP energy -357219.710684 kJ/mol
# GULP energy per Si atom -5581.557979 kJ/mol
# Density = 2.296923 g / cm^3
# Si number density = 23.021633 Si / 1000 Ang^3
#
#
#
# Elastic Constant Matrix: (Units=GPa)
#
#
# Indices 1 2 3 4 5 6 
#
# 1 148.2544 -3.6152 16.0353 0.0000 0.0000 0.0000
# 2 -3.6152 94.9903 17.7713 0.0000 0.0000 0.0000
# 3 16.0353 17.7713 66.2769 0.0000 0.0000 0.0000
# 4 0.0000 0.0000 0.0000 21.8473 0.0000 0.0000
# 5 0.0000 0.0000 0.0000 0.0000 -123.8734 0.0000
# 6 0.0000 0.0000 0.0000 0.0000 0.0000 17.3802
#
#
#
# Elastic Compliance Matrix: (Units=1/GPa)
#
#
# Indices 1 2 3 4 5 6 
#
# 1 0.006960 0.000611 -0.001848 0.000000 0.000000 0.000000
# 2 0.000611 0.011137 -0.003134 0.000000 0.000000 0.000000
# 3 -0.001848 -0.003134 0.016376 0.000000 0.000000 0.000000
# 4 0.000000 0.000000 0.000000 0.045772 0.000000 0.000000
# 5 0.000000 0.000000 0.000000 0.000000 -0.008073 0.000000
# 6 0.000000 0.000000 0.000000 0.000000 0.000000 0.057537
#
#
# Mechanical properties :
#
#
# Convention : Reuss Voigt Hill
#
# Bulk Modulus (GPa) = 38.86459 41.10050 39.98255
# Shear Modulus (GPa) = 34.00723 1.69281 17.85002
#
# Velocity S-wave (km/s) = 3.84759 0.85843 2.78755
# Velocity P-wave (km/s) = 6.05450 4.34446 5.26931
#
# Compressibility (1/GPa) = 0.02573036
#
# Stress axis : x y z
#
# Youngs Moduli (GPa) = 143.68045 89.79121 61.06659
#
# Poissons Ratio (x) = -0.05482 0.11283
# Poissons Ratio (y) = -0.08772 0.19138
# Poissons Ratio (z) = 0.26547 0.28140
#
# Static dielectric constant tensor:
#      x y z
#    x 2.009470 0.000000 0.000000 
#    y 0.000000 1.872150 0.000000 
#    z 0.000000 0.000000 1.938840 
# 
# From -- ./inp_files/25459.got.cif
#   From: 2010.05.17/outbox.cif.g08.bks.cpg/sg62_13_cif.got.tgz:25459.got - 2010.06.03 15:25:27.
