data_PCOD9462646
_publ_section_title
;
Structure prediction by ZEFSAII (Michael W. Deem and Ramdas Pophale) SiO2 
 PCOD9462646
Probable space group: P N M A
;
_chemical_formula_sum "Si O2"
_cell_formula_units_Z 56
_cell_length_a 22.297270
_cell_length_b 7.596442
_cell_length_c 15.405669
_cell_angle_alpha 90.000000
_cell_angle_beta 90.000000
_cell_angle_gamma 90.000000
_cell_volume 2609.410957
_symmetry_space_group_name_H-M "P N M A"
_symmetry_group_IT_number 62
_symmetry_cell_setting 'orthorhombic'
loop_
_space_group_symop_operation_xyz
x,y,z
1/2-x,-y,1/2+z
1/2+x,1/2-y,1/2-z
-x,1/2+y,-z
-x,-y,-z
1/2+x,y,1/2-z
1/2-x,1/2+y,1/2+z
x,1/2-y,z
loop_
_atom_site_type_symbol
_atom_site_label
_atom_site_fract_x
_atom_site_fract_y
_atom_site_fract_z
Si Si1 0.281179 0.545376 0.820501
Si Si2 0.610044 0.957697 0.298746
Si Si3 0.429412 0.461856 0.512861
Si Si4 0.865094 0.036383 0.519227
Si Si5 0.353986 0.466436 0.346594
Si Si6 0.606912 0.546777 0.838394
Si Si7 0.971276 0.036273 0.639112
O O1 0.273978 0.750000 0.801065
O O2 0.323755 0.476482 0.743063
O O3 0.316982 0.522632 0.910392
O O4 0.214750 0.473329 0.836451
O O5 0.598699 0.750000 0.303797
O O6 0.596061 0.029198 0.394544
O O7 0.563839 0.025418 0.225724
O O8 0.500000 0.500000 0.500000
O O9 0.423644 0.250000 0.513540
O O10 0.389869 0.527072 0.431544
O O11 0.863923 0.250000 0.518331
O O12 0.858227 0.969889 0.421205
O O13 0.929423 0.983352 0.558808
O O14 0.354592 0.250000 0.350843
O O15 0.385104 0.526977 0.257445
O O16 0.626256 0.750000 0.832216
O O17 0.537325 0.538228 0.862530
O O18 0.974691 0.250000 0.640169
#
# Coordination Sequence:
#
# PCOD9462646 Si02
#       7
#     8   8   8   8   8   8   8
#     4  10  20  35  54  75 100 133 175 217 257 307
#     4   9  19  35  54  76 105 140 172 211 262 308
#     4  10  20  36  57  80 110 144 178 219 268 319
#     4   9  19  34  51  73 103 135 164 203 253 301
#     4   9  20  36  52  75 106 135 168 217 265 302
#     4  10  19  32  51  73 100 134 166 199 248 303
#     4   9  17  30  47  72 104 129 160 206 248 292
#
# _framework density 21.460781999999998
#
# number of rings (size 3 to 8) (size 9 to 14) (size 15 to 20)
#    0.000    2.571    0.000    2.571    0.000    4.571 
#    0.000    2.857    0.000    0.000    0.000    0.000 
#    0.000    0.000    0.000    0.000    0.000    0.000 
#
# Total GULP energy -312437.342921 kJ/mol
# GULP energy per Si atom -5579.238266 kJ/mol
# Density = 2.141194 g / cm^3
# Si number density = 21.460782 Si / 1000 Ang^3
#
#
#
# Elastic Constant Matrix: (Units=GPa)
#
#
# Indices 1 2 3 4 5 6 
#
# 1 97.6617 -13.8302 56.2133 0.0000 0.0000 0.0000
# 2 -13.8302 39.5218 5.8835 0.0000 0.0000 0.0000
# 3 56.2133 5.8835 194.3023 0.0000 0.0000 0.0000
# 4 0.0000 0.0000 0.0000 -3.1448 0.0000 0.0000
# 5 0.0000 0.0000 0.0000 0.0000 13.9874 0.0000
# 6 0.0000 0.0000 0.0000 0.0000 0.0000 11.2312
#
#
#
# Elastic Compliance Matrix: (Units=1/GPa)
#
#
# Indices 1 2 3 4 5 6 
#
# 1 0.013286 0.005245 -0.004003 0.000000 0.000000 0.000000
# 2 0.005245 0.027488 -0.002350 0.000000 0.000000 0.000000
# 3 -0.004003 -0.002350 0.006376 0.000000 0.000000 0.000000
# 4 0.000000 0.000000 0.000000 -0.317987 0.000000 0.000000
# 5 0.000000 0.000000 0.000000 0.000000 0.071493 0.000000
# 6 0.000000 0.000000 0.000000 0.000000 0.000000 0.089037
#
#
# Mechanical properties :
#
#
# Convention : Reuss Voigt Hill
#
# Bulk Modulus (GPa) = 22.25425 47.55765 34.90595
# Shear Modulus (GPa) = -53.69738 23.29605 -15.20067
#
# Velocity S-wave (km/s) = -5.00754 3.29829 -2.66428
# Velocity P-wave (km/s) = 4.80018 6.05915 2.61454
#
# Compressibility (1/GPa) = 0.04493523
#
# Stress axis : x y z
#
# Youngs Moduli (GPa) = 75.26669 36.37973 156.84408
#
# Poissons Ratio (x) = -0.19082 0.62778
# Poissons Ratio (y) = -0.39479 0.36855
# Poissons Ratio (z) = 0.30126 0.08549
#
# Static dielectric constant tensor:
#      x y z
#    x 1.745340 0.000000 0.000000 
#    y 0.000000 1.791830 0.000000 
#    z 0.000000 0.000000 1.802030 
# 
# From -- ./inp_files/20361.got.cif
#   From: 2010.05.17/outbox.cif.g08.bks.cpg/sg62_11_cif.got.tgz:20361.got - 2010.06.03 15:25:27.
