data_PCOD9462071
_publ_section_title
;
Structure prediction by ZEFSAII (Michael W. Deem and Ramdas Pophale) SiO2 
 PCOD9462071
Probable space group: P N M A
;
_chemical_formula_sum "Si O2"
_cell_formula_units_Z 64
_cell_length_a 20.849885
_cell_length_b 7.927457
_cell_length_c 20.415947
_cell_angle_alpha 90.000000
_cell_angle_beta 90.000000
_cell_angle_gamma 90.000000
_cell_volume 3374.481787
_symmetry_space_group_name_H-M "P N M A"
_symmetry_group_IT_number 62
_symmetry_cell_setting 'orthorhombic'
loop_
_space_group_symop_operation_xyz
x,y,z
1/2-x,-y,1/2+z
1/2+x,1/2-y,1/2-z
-x,1/2+y,-z
-x,-y,-z
1/2+x,y,1/2-z
1/2-x,1/2+y,1/2+z
x,1/2-y,z
loop_
_atom_site_type_symbol
_atom_site_label
_atom_site_fract_x
_atom_site_fract_y
_atom_site_fract_z
Si Si1 0.299220 0.454517 0.774145
Si Si2 0.826740 0.046848 0.306279
Si Si3 0.872369 0.052981 0.089669
Si Si4 0.118888 0.052028 0.050069
Si Si5 0.773510 0.052975 0.583898
Si Si6 0.581637 0.948709 0.311551
Si Si7 0.766918 0.043300 0.440712
Si Si8 0.443944 0.454214 0.279682
O O1 0.302154 0.250000 0.776151
O O2 0.231661 0.502720 0.742008
O O3 0.301653 0.519247 0.848893
O O4 0.357300 0.516735 0.728688
O O5 0.830216 0.250000 0.309501
O O6 0.807426 0.984646 0.378481
O O7 0.893376 0.987111 0.275046
O O8 0.858575 0.250000 0.101058
O O9 0.915863 0.992555 0.149453
O O10 0.803782 0.960981 0.088930
O O11 0.902454 0.032928 0.017550
O O12 0.121692 0.250000 0.036215
O O13 0.192006 0.993209 0.065763
O O14 0.078756 0.023797 0.115519
O O15 0.791007 0.250000 0.582377
O O16 0.790066 0.982722 0.512100
O O17 0.590942 0.750000 0.319826
O O18 0.515878 0.981717 0.273783
O O19 0.767650 0.250000 0.440764
O O20 0.445816 0.250000 0.278846
#
# Coordination Sequence:
#
# PCOD9462071 Si02
#       8
#     8   8   8   8   8   8   8   8
#     4  10  20  33  52  78 105 134 171 216 264 308
#     4  10  18  33  55  78 101 130 173 217 258 305
#     4  10  19  32  50  75 106 136 172 213 254 303
#     4  10  19  33  53  75 103 139 175 210 256 311
#     4   9  17  31  51  77 106 134 168 207 259 315
#     4  11  23  36  51  74 104 140 178 218 263 308
#     4   8  15  28  51  78 100 127 163 206 252 303
#     4  10  22  36  51  73 103 140 176 213 259 310
#
# _framework density 18.965876000000002
#
# number of rings (size 3 to 8) (size 9 to 14) (size 15 to 20)
#    0.000    2.250    2.500    1.875    0.000    2.500 
#    0.000    0.000    0.000    0.750    0.000    0.000 
#    0.000    0.000    0.000    0.000    0.000    0.125 
#
# Total GULP energy -357053.079794 kJ/mol
# GULP energy per Si atom -5578.954372 kJ/mol
# Density = 1.892271 g / cm^3
# Si number density = 18.965876 Si / 1000 Ang^3
#
#
#
# Elastic Constant Matrix: (Units=GPa)
#
#
# Indices 1 2 3 4 5 6 
#
# 1 29.9122 -7.0247 1.0570 0.0000 0.0000 0.0000
# 2 -7.0247 19.3248 -2.0678 0.0000 0.0000 0.0000
# 3 1.0570 -2.0678 96.1353 0.0000 0.0000 0.0000
# 4 0.0000 0.0000 0.0000 13.0247 0.0000 0.0000
# 5 0.0000 0.0000 0.0000 0.0000 22.1730 0.0000
# 6 0.0000 0.0000 0.0000 0.0000 0.0000 16.7424
#
#
#
# Elastic Compliance Matrix: (Units=1/GPa)
#
#
# Indices 1 2 3 4 5 6 
#
# 1 0.036553 0.013275 -0.000116 0.000000 0.000000 0.000000
# 2 0.013275 0.056687 0.001073 0.000000 0.000000 0.000000
# 3 -0.000116 0.001073 0.010426 0.000000 0.000000 0.000000
# 4 0.000000 0.000000 0.000000 0.076777 0.000000 0.000000
# 5 0.000000 0.000000 0.000000 0.000000 0.045100 0.000000
# 6 0.000000 0.000000 0.000000 0.000000 0.000000 0.059729
#
#
# Mechanical properties :
#
#
# Convention : Reuss Voigt Hill
#
# Bulk Modulus (GPa) = 7.56829 14.36680 10.96754
# Shear Modulus (GPa) = 16.61945 20.61520 18.61732
#
# Velocity S-wave (km/s) = 2.96342 3.30049 3.13648
# Velocity P-wave (km/s) = 3.96336 4.70275 4.34880
#
# Compressibility (1/GPa) = 0.13213027
#
# Stress axis : x y z
#
# Youngs Moduli (GPa) = 27.35769 17.64059 95.91064
#
# Poissons Ratio (x) = -0.23418 0.01116
# Poissons Ratio (y) = -0.36317 -0.10294
# Poissons Ratio (z) = 0.00318 -0.01893
#
# Static dielectric constant tensor:
#      x y z
#    x 1.637110 0.000000 0.000000 
#    y 0.000000 1.687330 0.000000 
#    z 0.000000 0.000000 1.700520 
# 
# From -- ./inp_files/27950.got.cif
#   From: 2010.05.17/outbox.cif.g08.bks.cpg/sg62_14_cif.got.tgz:27950.got - 2010.06.03 15:25:27.
