data_PCOD9462525
_publ_section_title
;
Structure prediction by ZEFSAII (Michael W. Deem and Ramdas Pophale) SiO2 
 PCOD9462525
Probable space group: P N M A
;
_chemical_formula_sum "Si O2"
_cell_formula_units_Z 64
_cell_length_a 25.492206
_cell_length_b 7.490938
_cell_length_c 14.699379
_cell_angle_alpha 90.000000
_cell_angle_beta 90.000000
_cell_angle_gamma 90.000000
_cell_volume 2807.001273
_symmetry_space_group_name_H-M "P N M A"
_symmetry_group_IT_number 62
_symmetry_cell_setting 'orthorhombic'
loop_
_space_group_symop_operation_xyz
x,y,z
1/2-x,-y,1/2+z
1/2+x,1/2-y,1/2-z
-x,1/2+y,-z
-x,-y,-z
1/2+x,y,1/2-z
1/2-x,1/2+y,1/2+z
x,1/2-y,z
loop_
_atom_site_type_symbol
_atom_site_label
_atom_site_fract_x
_atom_site_fract_y
_atom_site_fract_z
Si Si1 0.442505 0.031834 0.125753
Si Si2 0.223579 0.032686 0.229194
Si Si3 0.778200 0.044937 0.557311
Si Si4 0.606461 0.532889 0.055309
Si Si5 0.456136 0.544620 0.770287
Si Si6 0.120665 0.458875 0.127890
Si Si7 0.160745 0.953924 0.939629
Si Si8 0.338891 0.031969 0.233231
O O1 0.444404 0.250000 0.124036
O O2 0.492988 0.964497 0.180398
O O3 0.389322 0.977809 0.176876
O O4 0.435167 0.976449 0.021165
O O5 0.223013 0.250000 0.231404
O O6 0.174625 0.967492 0.170600
O O7 0.281646 0.978743 0.196204
O O8 0.218634 0.967509 0.332835
O O9 0.774588 0.250000 0.526748
O O10 0.834887 0.974404 0.527248
O O11 0.722294 0.961990 0.533012
O O12 0.607752 0.750000 0.060593
O O13 0.589117 0.462175 0.152959
O O14 0.470834 0.750000 0.750736
O O15 0.430090 0.464988 0.679559
O O16 0.120334 0.250000 0.151990
O O17 0.125728 0.469375 0.019979
O O18 0.144824 0.750000 0.931487
O O19 0.157080 0.031400 0.838093
O O20 0.338722 0.250000 0.234063
#
# Coordination Sequence:
#
# PCOD9462525 Si02
#       8
#     8   8   8   8   8   8   8   8
#     4   9  18  33  54  77 100 135 181 219 258 315
#     4   9  17  31  52  74 103 140 174 210 258 315
#     4  10  19  31  50  78 110 139 170 211 259 312
#     4  10  20  32  52  80 109 141 175 211 258 318
#     4  10  20  35  55  77 105 138 175 220 263 310
#     4  10  20  33  52  78 106 139 177 217 266 316
#     4  10  21  35  53  77 106 141 178 221 269 316
#     4   8  16  32  53  74  99 133 176 218 256 308
#
# _framework density 22.800132000000001
#
# number of rings (size 3 to 8) (size 9 to 14) (size 15 to 20)
#    0.000    2.500    1.250    1.875    1.750    1.500 
#    0.000    0.625    0.000    5.250    0.000    0.000 
#    0.000    0.000    0.000    0.000    0.000    0.000 
#
# Total GULP energy -357295.646489 kJ/mol
# GULP energy per Si atom -5582.744476 kJ/mol
# Density = 2.274824 g / cm^3
# Si number density = 22.800132 Si / 1000 Ang^3
#
#
#
# Elastic Constant Matrix: (Units=GPa)
#
#
# Indices 1 2 3 4 5 6 
#
# 1 41.8466 -6.5030 -3.8432 0.0000 0.0000 0.0000
# 2 -6.5030 59.3556 -7.7016 0.0000 0.0000 0.0000
# 3 -3.8432 -7.7016 31.8307 0.0000 0.0000 0.0000
# 4 0.0000 0.0000 0.0000 14.3342 0.0000 0.0000
# 5 0.0000 0.0000 0.0000 0.0000 33.7668 0.0000
# 6 0.0000 0.0000 0.0000 0.0000 0.0000 4.6263
#
#
#
# Elastic Compliance Matrix: (Units=1/GPa)
#
#
# Indices 1 2 3 4 5 6 
#
# 1 0.024739 0.003198 0.003761 0.000000 0.000000 0.000000
# 2 0.003198 0.017807 0.004695 0.000000 0.000000 0.000000
# 3 0.003761 0.004695 0.033006 0.000000 0.000000 0.000000
# 4 0.000000 0.000000 0.000000 0.069763 0.000000 0.000000
# 5 0.000000 0.000000 0.000000 0.000000 0.029615 0.000000
# 6 0.000000 0.000000 0.000000 0.000000 0.000000 0.216156
#
#
# Mechanical properties :
#
#
# Convention : Reuss Voigt Hill
#
# Bulk Modulus (GPa) = 10.11524 10.77080 10.44302
# Shear Modulus (GPa) = 12.47716 20.61750 16.54733
#
# Velocity S-wave (km/s) = 2.34186 3.01037 2.69691
# Velocity P-wave (km/s) = 3.42907 4.10090 3.77994
#
# Compressibility (1/GPa) = 0.09886071
#
# Stress axis : x y z
#
# Youngs Moduli (GPa) = 40.42159 56.15705 30.29728
#
# Poissons Ratio (x) = -0.17961 -0.11394
# Poissons Ratio (y) = -0.12928 -0.14224
# Poissons Ratio (z) = -0.15202 -0.26364
#
# Static dielectric constant tensor:
#      x y z
#    x 1.856200 0.000000 0.000000 
#    y 0.000000 1.850260 0.000000 
#    z 0.000000 0.000000 1.843980 
# 
# From -- ./inp_files/20764.got.cif
#   From: 2010.05.17/outbox.cif.g08.bks.cpg/sg62_11_cif.got.tgz:20764.got - 2010.06.03 15:25:27.
