data_PCOD9462544
_publ_section_title
;
Structure prediction by ZEFSAII (Michael W. Deem and Ramdas Pophale) SiO2 
 PCOD9462544
Probable space group: P N M A
;
_chemical_formula_sum "Si O2"
_cell_formula_units_Z 56
_cell_length_a 19.433673
_cell_length_b 8.561124
_cell_length_c 17.952427
_cell_angle_alpha 90.000000
_cell_angle_beta 90.000000
_cell_angle_gamma 90.000000
_cell_volume 2986.818604
_symmetry_space_group_name_H-M "P N M A"
_symmetry_group_IT_number 62
_symmetry_cell_setting 'orthorhombic'
loop_
_space_group_symop_operation_xyz
x,y,z
1/2-x,-y,1/2+z
1/2+x,1/2-y,1/2-z
-x,1/2+y,-z
-x,-y,-z
1/2+x,y,1/2-z
1/2-x,1/2+y,1/2+z
x,1/2-y,z
loop_
_atom_site_type_symbol
_atom_site_label
_atom_site_fract_x
_atom_site_fract_y
_atom_site_fract_z
Si Si1 0.794564 0.067141 0.423010
Si Si2 0.433280 0.932809 0.578922
Si Si3 0.815494 0.067330 0.821113
Si Si4 0.224110 0.072618 0.920928
Si Si5 0.076492 0.062077 0.484426
Si Si6 0.583646 0.570405 0.581307
Si Si7 0.843632 0.569968 0.661950
O O1 0.804127 0.250000 0.406976
O O2 0.739103 0.054254 0.490958
O O3 0.759392 0.984616 0.352205
O O4 0.865633 0.000169 0.457387
O O5 0.431744 0.750000 0.555613
O O6 0.508413 0.961289 0.614652
O O7 0.371800 0.968932 0.633772
O O8 0.426463 0.042332 0.507052
O O9 0.823820 0.250000 0.836504
O O10 0.832010 0.030689 0.735457
O O11 0.245013 0.250000 0.901785
O O12 0.145961 0.041838 0.898718
O O13 0.271900 0.946936 0.881670
O O14 0.077276 0.250000 0.487469
O O15 0.101394 0.016355 0.400636
O O16 0.000000 0.000000 0.500000
O O17 0.602431 0.750000 0.595423
O O18 0.857767 0.750000 0.681898
#
# Coordination Sequence:
#
# PCOD9462544 Si02
#       7
#     8   8   8   8   8   8   8
#     4  10  20  35  58  85 114 149 188 234 286 343
#     4  10  20  33  50  76 110 148 185 224 273 329
#     4  12  23  36  56  83 115 150 190 236 288 347
#     4  10  19  33  55  81 110 143 184 230 276 331
#     4  10  21  39  64  91 117 151 197 248 296 352
#     4  10  19  31  51  78 108 142 184 229 272 323
#     4  10  22  39  59  82 114 150 188 235 291 346
#
# _framework density 18.749047000000001
#
# number of rings (size 3 to 8) (size 9 to 14) (size 15 to 20)
#    0.000    1.714    1.429    3.857    0.000    4.571 
#    0.000    1.429    0.000    5.143    0.000    0.000 
#    0.000    0.000    0.000    0.000    0.000    0.000 
#
# Total GULP energy -312297.593468 kJ/mol
# GULP energy per Si atom -5576.742741 kJ/mol
# Density = 1.870637 g / cm^3
# Si number density = 18.749047 Si / 1000 Ang^3
#
#
#
# Elastic Constant Matrix: (Units=GPa)
#
#
# Indices 1 2 3 4 5 6 
#
# 1 117.1475 26.3273 33.0484 0.0000 0.0000 0.0000
# 2 26.3273 60.4605 10.1592 0.0000 0.0000 0.0000
# 3 33.0484 10.1592 56.7670 0.0000 0.0000 0.0000
# 4 0.0000 0.0000 0.0000 25.3002 0.0000 0.0000
# 5 0.0000 0.0000 0.0000 0.0000 13.3126 0.0000
# 6 0.0000 0.0000 0.0000 0.0000 0.0000 28.8529
#
#
#
# Elastic Compliance Matrix: (Units=1/GPa)
#
#
# Indices 1 2 3 4 5 6 
#
# 1 0.011013 -0.003834 -0.005725 0.000000 0.000000 0.000000
# 2 -0.003834 0.018387 -0.001059 0.000000 0.000000 0.000000
# 3 -0.005725 -0.001059 0.021139 0.000000 0.000000 0.000000
# 4 0.000000 0.000000 0.000000 0.039525 0.000000 0.000000
# 5 0.000000 0.000000 0.000000 0.000000 0.075117 0.000000
# 6 0.000000 0.000000 0.000000 0.000000 0.000000 0.034659
#
#
# Mechanical properties :
#
#
# Convention : Reuss Voigt Hill
#
# Bulk Modulus (GPa) = 34.12625 41.49388 37.81007
# Shear Modulus (GPa) = 21.65976 24.48245 23.07111
#
# Velocity S-wave (km/s) = 3.40258 3.61750 3.51168
# Velocity P-wave (km/s) = 5.80326 6.29505 6.05415
#
# Compressibility (1/GPa) = 0.02930296
#
# Stress axis : x y z
#
# Youngs Moduli (GPa) = 90.80191 54.38650 47.30685
#
# Poissons Ratio (x) = 0.20849 0.27085
# Poissons Ratio (y) = 0.34809 0.05009
# Poissons Ratio (z) = 0.51988 0.05758
#
# Static dielectric constant tensor:
#      x y z
#    x 1.665700 0.000000 0.000000 
#    y 0.000000 1.619010 0.000000 
#    z 0.000000 0.000000 1.656120 
# 
# From -- ./inp_files/27588.got.cif
#   From: 2010.05.17/outbox.cif.g08.bks.cpg/sg62_14_cif.got.tgz:27588.got - 2010.06.03 15:25:27.
