data_PCOD9462140
_publ_section_title
;
Structure prediction by ZEFSAII (Michael W. Deem and Ramdas Pophale) SiO2 
 PCOD9462140
Probable space group: P N M A
;
_chemical_formula_sum "Si O2"
_cell_formula_units_Z 64
_cell_length_a 19.882131
_cell_length_b 8.592059
_cell_length_c 21.118900
_cell_angle_alpha 90.000000
_cell_angle_beta 90.000000
_cell_angle_gamma 90.000000
_cell_volume 3607.708796
_symmetry_space_group_name_H-M "P N M A"
_symmetry_group_IT_number 62
_symmetry_cell_setting 'orthorhombic'
loop_
_space_group_symop_operation_xyz
x,y,z
1/2-x,-y,1/2+z
1/2+x,1/2-y,1/2-z
-x,1/2+y,-z
-x,-y,-z
1/2+x,y,1/2-z
1/2-x,1/2+y,1/2+z
x,1/2-y,z
loop_
_atom_site_type_symbol
_atom_site_label
_atom_site_fract_x
_atom_site_fract_y
_atom_site_fract_z
Si Si1 0.819803 0.937159 0.240779
Si Si2 0.674751 0.435358 0.241184
Si Si3 0.539971 0.060299 0.688360
Si Si4 0.957834 0.437573 0.687957
Si Si5 0.326216 0.563695 0.611912
Si Si6 0.679788 0.062810 0.889466
Si Si7 0.537015 0.563148 0.438150
Si Si8 0.036492 0.061579 0.562135
O O1 0.813825 0.750000 0.236727
O O2 0.883064 0.988071 0.198937
O O3 0.832980 0.974051 0.315035
O O4 0.749372 0.012615 0.222650
O O5 0.669870 0.250000 0.240623
O O6 0.617936 0.506100 0.196679
O O7 0.664280 0.488984 0.314488
O O8 0.539491 0.250000 0.688612
O O9 0.498122 0.008515 0.749742
O O10 0.504456 0.009383 0.624047
O O11 0.959016 0.250000 0.688139
O O12 0.994976 0.489416 0.624323
O O13 0.329368 0.750000 0.610471
O O14 0.251445 0.509961 0.592562
O O15 0.386687 0.495114 0.570705
O O16 0.685424 0.250000 0.893926
O O17 0.614332 0.012301 0.928879
O O18 0.500000 0.500000 0.500000
O O19 0.537005 0.750000 0.439333
O O20 0.036400 0.250000 0.561129
O O21 0.000000 0.000000 0.500000
#
# Coordination Sequence:
#
# PCOD9462140 Si02
#       8
#     8   8   8   8   8   8   8   8
#     4   9  16  31  55  80 104 135 179 226 267 316
#     4  10  20  32  49  81 116 141 171 221 278 325
#     4   9  17  32  57  82 102 132 180 225 262 312
#     4  10  18  34  57  80 104 139 184 223 261 318
#     4  10  20  34  53  80 111 141 178 222 269 327
#     4   9  17  32  55  80 105 138 179 223 268 319
#     4  11  22  37  57  81 111 146 183 226 274 325
#     4  10  21  36  56  82 113 145 183 227 273 326
#
# _framework density 17.739792000000001
#
# number of rings (size 3 to 8) (size 9 to 14) (size 15 to 20)
#    0.000    2.250    2.500    1.125    0.000    2.000 
#    0.000    3.125    0.000    1.500    0.000    0.000 
#    0.000    0.000    0.000    0.000    0.000    0.000 
#
# Total GULP energy -357064.731144 kJ/mol
# GULP energy per Si atom -5579.136424 kJ/mol
# Density = 1.769942 g / cm^3
# Si number density = 17.739792 Si / 1000 Ang^3
#
#
#
# Elastic Constant Matrix: (Units=GPa)
#
#
# Indices 1 2 3 4 5 6 
#
# 1 173.2012 33.5764 84.3036 0.0000 0.0000 0.0000
# 2 33.5764 21.0286 26.9685 0.0000 0.0000 0.0000
# 3 84.3036 26.9685 113.5915 0.0000 0.0000 0.0000
# 4 0.0000 0.0000 0.0000 23.0564 0.0000 0.0000
# 5 0.0000 0.0000 0.0000 0.0000 30.2226 0.0000
# 6 0.0000 0.0000 0.0000 0.0000 0.0000 16.9950
#
#
#
# Elastic Compliance Matrix: (Units=1/GPa)
#
#
# Indices 1 2 3 4 5 6 
#
# 1 0.010198 -0.009456 -0.005324 0.000000 0.000000 0.000000
# 2 -0.009456 0.077140 -0.011297 0.000000 0.000000 0.000000
# 3 -0.005324 -0.011297 0.015436 0.000000 0.000000 0.000000
# 4 0.000000 0.000000 0.000000 0.043372 0.000000 0.000000
# 5 0.000000 0.000000 0.000000 0.000000 0.033088 0.000000
# 6 0.000000 0.000000 0.000000 0.000000 0.000000 0.058841
#
#
# Mechanical properties :
#
#
# Convention : Reuss Voigt Hill
#
# Bulk Modulus (GPa) = 19.75413 66.39092 43.07252
# Shear Modulus (GPa) = 16.28133 24.91965 20.60049
#
# Velocity S-wave (km/s) = 3.03278 3.75204 3.41142
# Velocity P-wave (km/s) = 4.83977 7.50177 6.31268
#
# Compressibility (1/GPa) = 0.05062233
#
# Stress axis : x y z
#
# Youngs Moduli (GPa) = 98.05988 12.96351 64.78174
#
# Poissons Ratio (x) = 0.12258 0.34487
# Poissons Ratio (y) = 0.92721 0.73182
# Poissons Ratio (z) = 0.52203 0.14644
#
# Static dielectric constant tensor:
#      x y z
#    x 1.602400 0.000000 0.000000 
#    y 0.000000 1.603470 0.000000 
#    z 0.000000 0.000000 1.588990 
# 
# From -- ./inp_files/27710.got.cif
#   From: 2010.05.17/outbox.cif.g08.bks.cpg/sg62_14_cif.got.tgz:27710.got - 2010.06.03 15:25:27.
