data_PCOD9462723
_publ_section_title
;
Structure prediction by ZEFSAII (Michael W. Deem and Ramdas Pophale) SiO2 
 PCOD9462723
Probable space group: P N M A
;
_chemical_formula_sum "Si O2"
_cell_formula_units_Z 64
_cell_length_a 28.035388
_cell_length_b 8.929961
_cell_length_c 14.938412
_cell_angle_alpha 90.000000
_cell_angle_beta 90.000000
_cell_angle_gamma 90.000000
_cell_volume 3739.904963
_symmetry_space_group_name_H-M "P N M A"
_symmetry_group_IT_number 62
_symmetry_cell_setting 'orthorhombic'
loop_
_space_group_symop_operation_xyz
x,y,z
1/2-x,-y,1/2+z
1/2+x,1/2-y,1/2-z
-x,1/2+y,-z
-x,-y,-z
1/2+x,y,1/2-z
1/2-x,1/2+y,1/2+z
x,1/2-y,z
loop_
_atom_site_type_symbol
_atom_site_label
_atom_site_fract_x
_atom_site_fract_y
_atom_site_fract_z
Si Si1 0.057782 0.428180 0.903125
Si Si2 0.053634 0.928729 0.093601
Si Si3 0.171760 0.928588 0.415909
Si Si4 0.220672 0.427654 0.108361
Si Si5 0.137737 0.570164 0.225675
Si Si6 0.324569 0.928149 0.105726
Si Si7 0.283477 0.926140 0.399566
Si Si8 0.363051 0.072420 0.279260
O O1 0.065108 0.250000 0.898035
O O2 0.091808 0.509785 0.833355
O O3 0.001801 0.461597 0.886992
O O4 0.068295 0.485087 0.003607
O O5 0.057197 0.750000 0.076348
O O6 0.088745 0.965987 0.174897
O O7 0.168308 0.750000 0.433722
O O8 0.139987 0.968755 0.330379
O O9 0.227142 0.956656 0.389263
O O10 0.161437 0.016082 0.506759
O O11 0.227716 0.250000 0.120361
O O12 0.180577 0.490293 0.173562
O O13 0.270971 0.509978 0.121941
O O14 0.205727 0.451682 0.004611
O O15 0.145137 0.750000 0.219963
O O16 0.324505 0.750000 0.110658
O O17 0.357518 0.997402 0.182458
O O18 0.291704 0.750000 0.379656
O O19 0.316673 0.024002 0.336785
O O20 0.365202 0.250000 0.271198
#
# Coordination Sequence:
#
# PCOD9462723 Si02
#       8
#     8   8   8   8   8   8   8   8
#     4  10  20  35  54  77 107 138 169 209 255 304
#     4   9  19  35  55  80 107 136 170 207 253 307
#     4   9  19  35  52  72 101 134 167 206 251 297
#     4  10  20  33  50  75 107 139 171 207 247 296
#     4  10  19  32  53  78 104 135 170 209 253 302
#     4  11  22  36  53  72  99 135 173 213 254 297
#     4   9  18  32  49  73 105 138 170 205 249 300
#     4  12  23  34  52  76 102 134 174 215 256 306
#
# _framework density 17.112734
#
# number of rings (size 3 to 8) (size 9 to 14) (size 15 to 20)
#    0.000    2.000    0.000    5.250    0.000    7.000 
#    0.000    0.000    0.000    0.750    0.000    0.000 
#    0.000    0.000    0.000    0.000    0.000    0.000 
#
# Total GULP energy -357495.976387 kJ/mol
# GULP energy per Si atom -5585.874631 kJ/mol
# Density = 1.707378 g / cm^3
# Si number density = 17.112734 Si / 1000 Ang^3
#
#
#
# Elastic Constant Matrix: (Units=GPa)
#
#
# Indices 1 2 3 4 5 6 
#
# 1 65.6111 52.4713 80.9585 0.0000 0.0000 0.0000
# 2 52.4713 89.5294 80.3150 0.0000 0.0000 0.0000
# 3 80.9585 80.3150 136.6865 0.0000 0.0000 0.0000
# 4 0.0000 0.0000 0.0000 29.7345 0.0000 0.0000
# 5 0.0000 0.0000 0.0000 0.0000 28.2496 0.0000
# 6 0.0000 0.0000 0.0000 0.0000 0.0000 20.3097
#
#
#
# Elastic Compliance Matrix: (Units=1/GPa)
#
#
# Indices 1 2 3 4 5 6 
#
# 1 0.058505 -0.006773 -0.030673 0.000000 0.000000 0.000000
# 2 -0.006773 0.024404 -0.010328 0.000000 0.000000 0.000000
# 3 -0.030673 -0.010328 0.031552 0.000000 0.000000 0.000000
# 4 0.000000 0.000000 0.000000 0.033631 0.000000 0.000000
# 5 0.000000 0.000000 0.000000 0.000000 0.035399 0.000000
# 6 0.000000 0.000000 0.000000 0.000000 0.000000 0.049238
#
#
# Mechanical properties :
#
#
# Convention : Reuss Voigt Hill
#
# Bulk Modulus (GPa) = 52.87063 79.92408 66.39735
# Shear Modulus (GPa) = 14.94414 20.86424 17.90419
#
# Velocity S-wave (km/s) = 2.95833 3.49553 3.23809
# Velocity P-wave (km/s) = 6.52928 7.94339 7.27080
#
# Compressibility (1/GPa) = 0.01891409
#
# Stress axis : x y z
#
# Youngs Moduli (GPa) = 17.09245 40.97722 31.69410
#
# Poissons Ratio (x) = 0.27754 0.97214
# Poissons Ratio (y) = 0.11577 0.32733
# Poissons Ratio (z) = 0.52427 0.42320
#
# Static dielectric constant tensor:
#      x y z
#    x 1.566500 0.000000 0.000000 
#    y 0.000000 1.571200 0.000000 
#    z 0.000000 0.000000 1.577440 
# 
# From -- ./inp_files/21239.got.cif
#   From: 2010.05.17/outbox.cif.g08.bks.cpg/sg62_11_cif.got.tgz:21239.got - 2010.06.03 15:25:27.
