data_PCOD9462102
_publ_section_title
;
Structure prediction by ZEFSAII (Michael W. Deem and Ramdas Pophale) SiO2 
 PCOD9462102
Probable space group: P N M A
;
_chemical_formula_sum "Si O2"
_cell_formula_units_Z 52
_cell_length_a 19.585168
_cell_length_b 12.711985
_cell_length_c 11.290679
_cell_angle_alpha 90.000000
_cell_angle_beta 90.000000
_cell_angle_gamma 90.000000
_cell_volume 2810.999273
_symmetry_space_group_name_H-M "P N M A"
_symmetry_group_IT_number 62
_symmetry_cell_setting 'orthorhombic'
loop_
_space_group_symop_operation_xyz
x,y,z
1/2-x,-y,1/2+z
1/2+x,1/2-y,1/2-z
-x,1/2+y,-z
-x,-y,-z
1/2+x,y,1/2-z
1/2-x,1/2+y,1/2+z
x,1/2-y,z
loop_
_atom_site_type_symbol
_atom_site_label
_atom_site_fract_x
_atom_site_fract_y
_atom_site_fract_z
Si Si1 0.423654 0.750000 0.305946
Si Si2 0.143474 0.630648 0.067627
Si Si3 0.415199 0.927779 0.111581
Si Si4 0.998586 0.871090 0.621097
Si Si5 0.527733 0.750000 0.505172
Si Si6 0.865003 0.935916 0.770304
Si Si7 0.212887 0.377176 0.455252
Si Si8 0.122860 0.250000 0.060461
O O1 0.416432 0.852210 0.224741
O O2 0.496988 0.750000 0.371701
O O3 0.372153 0.750000 0.418383
O O4 0.156064 0.750000 0.113339
O O5 0.076816 0.649168 0.985210
O O6 0.129760 0.549253 0.170795
O O7 0.210293 0.600165 0.994626
O O8 0.440818 0.045461 0.137257
O O9 0.468104 0.883560 0.012169
O O10 0.341083 0.919936 0.051200
O O11 0.017605 0.750000 0.640766
O O12 0.935302 0.903673 0.705151
O O13 0.459781 0.750000 0.580641
O O14 0.807595 0.926164 0.670124
O O15 0.850230 0.852834 0.874557
O O16 0.203486 0.250000 0.447409
#
# Coordination Sequence:
#
# PCOD9462102 Si02
#       8
#     4   8   8   8   4   8   8   4
#     4  10  18  34  52  92 118 143 194 257 296 354
#     4   9  21  40  59  84 119 160 205 241 294 366
#     4  10  18  33  58  88 115 152 202 241 299 352
#     4  10  19  33  58  85 119 158 193 250 300 361
#     4   8  20  36  50  88 112 151 186 240 303 338
#     4  11  19  40  61  86 120 157 204 240 314 362
#     4  10  19  39  65  84 116 166 203 245 297 367
#     4  10  22  34  60  88 116 154 196 247 305 360
#
# _framework density 18.498759
#
# number of rings (size 3 to 8) (size 9 to 14) (size 15 to 20)
#    0.923    1.231    3.077    1.846    0.000    0.615 
#    2.769    0.000    1.692    0.000    0.000    0.000 
#    0.000    0.000    0.000    0.000    0.000    0.000 
#
# Total GULP energy -289749.457749 kJ/mol
# GULP energy per Si atom -5572.104957 kJ/mol
# Density = 1.845665 g / cm^3
# Si number density = 18.498759 Si / 1000 Ang^3
#
#
#
# Elastic Constant Matrix: (Units=GPa)
#
#
# Indices 1 2 3 4 5 6 
#
# 1 48.2993 7.7263 13.4223 0.0000 0.0000 0.0000
# 2 7.7263 96.3202 24.4586 0.0000 0.0000 0.0000
# 3 13.4223 24.4586 79.1547 0.0000 0.0000 0.0000
# 4 0.0000 0.0000 0.0000 16.0948 0.0000 0.0000
# 5 0.0000 0.0000 0.0000 0.0000 9.2952 0.0000
# 6 0.0000 0.0000 0.0000 0.0000 0.0000 9.9808
#
#
#
# Elastic Compliance Matrix: (Units=1/GPa)
#
#
# Indices 1 2 3 4 5 6 
#
# 1 0.021796 -0.000879 -0.003424 0.000000 0.000000 0.000000
# 2 -0.000879 0.011301 -0.003343 0.000000 0.000000 0.000000
# 3 -0.003424 -0.003343 0.014247 0.000000 0.000000 0.000000
# 4 0.000000 0.000000 0.000000 0.062132 0.000000 0.000000
# 5 0.000000 0.000000 0.000000 0.000000 0.107582 0.000000
# 6 0.000000 0.000000 0.000000 0.000000 0.000000 0.100192
#
#
# Mechanical properties :
#
#
# Convention : Reuss Voigt Hill
#
# Bulk Modulus (GPa) = 31.19900 34.99873 33.09887
# Shear Modulus (GPa) = 14.56757 18.95198 16.75977
#
# Velocity S-wave (km/s) = 2.80927 3.20425 3.01324
# Velocity P-wave (km/s) = 5.23686 5.71404 5.48065
#
# Compressibility (1/GPa) = 0.03205231
#
# Stress axis : x y z
#
# Youngs Moduli (GPa) = 45.87898 88.48425 70.18928
#
# Poissons Ratio (x) = 0.07776 0.24036
# Poissons Ratio (y) = 0.04032 0.23465
# Poissons Ratio (z) = 0.15711 0.29581
#
# Static dielectric constant tensor:
#      x y z
#    x 1.649400 0.000000 0.000000 
#    y 0.000000 1.636080 0.000000 
#    z 0.000000 0.000000 1.642840 
# 
# From -- ./inp_files/14931.got.cif
#   From: 2010.05.17/outbox.cif.g08.bks.cpg/sg62_8_cif.got.tgz:14931.got - 2010.06.03 15:25:27.
