data_PCOD9462184
_publ_section_title
;
Structure prediction by ZEFSAII (Michael W. Deem and Ramdas Pophale) SiO2 
 PCOD9462184
Probable space group: P N M A
;
_chemical_formula_sum "Si O2"
_cell_formula_units_Z 56
_cell_length_a 21.600413
_cell_length_b 9.000559
_cell_length_c 15.784505
_cell_angle_alpha 90.000000
_cell_angle_beta 90.000000
_cell_angle_gamma 90.000000
_cell_volume 3068.757035
_symmetry_space_group_name_H-M "P N M A"
_symmetry_group_IT_number 62
_symmetry_cell_setting 'orthorhombic'
loop_
_space_group_symop_operation_xyz
x,y,z
1/2-x,-y,1/2+z
1/2+x,1/2-y,1/2-z
-x,1/2+y,-z
-x,-y,-z
1/2+x,y,1/2-z
1/2-x,1/2+y,1/2+z
x,1/2-y,z
loop_
_atom_site_type_symbol
_atom_site_label
_atom_site_fract_x
_atom_site_fract_y
_atom_site_fract_z
Si Si1 0.050953 0.573966 0.558938
Si Si2 0.100128 0.420903 0.027921
Si Si3 0.811551 0.070558 0.500381
Si Si4 0.487738 0.581390 0.393982
Si Si5 0.164821 0.930590 0.308613
Si Si6 0.289664 0.427197 0.622784
Si Si7 0.480065 0.079846 0.801140
O O1 0.047559 0.750000 0.552897
O O2 0.119286 0.530094 0.529567
O O3 0.000000 0.500000 0.500000
O O4 0.029293 0.518986 0.649981
O O5 0.119257 0.250000 0.040339
O O6 0.149043 0.528802 0.070324
O O7 0.034795 0.458357 0.071851
O O8 0.081302 0.444697 0.929722
O O9 0.804962 0.250000 0.498216
O O10 0.806347 0.024786 0.600134
O O11 0.764701 0.000980 0.432442
O O12 0.504493 0.750000 0.424085
O O13 0.497697 0.583598 0.294853
O O14 0.164880 0.750000 0.306971
O O15 0.198672 0.977848 0.220957
O O16 0.091613 0.973289 0.306480
O O17 0.281438 0.250000 0.624596
O O18 0.480425 0.250000 0.834869
#
# Coordination Sequence:
#
# PCOD9462184 Si02
#       7
#     8   8   8   8   8   8   8
#     4  11  22  37  60  88 117 147 184 237 297 351
#     4  10  19  32  54  84 116 151 188 237 292 338
#     4  10  22  42  61  81 115 153 189 240 297 346
#     4   9  18  33  54  81 115 153 194 234 280 340
#     4   9  18  37  63  83 108 150 192 229 283 345
#     4  11  22  39  62  86 113 153 202 244 284 349
#     4  10  18  35  60  84 113 149 189 234 282 340
#
# _framework density 18.248432000000001
#
# number of rings (size 3 to 8) (size 9 to 14) (size 15 to 20)
#    0.000    2.000    2.857    1.286    0.000    2.286 
#    2.571    1.429    0.000    0.000    0.000    0.000 
#    0.000    0.000    0.000    0.000    0.000    0.000 
#
# Total GULP energy -311915.133944 kJ/mol
# GULP energy per Si atom -5569.913106 kJ/mol
# Density = 1.820690 g / cm^3
# Si number density = 18.248432 Si / 1000 Ang^3
#
#
#
# Elastic Constant Matrix: (Units=GPa)
#
#
# Indices 1 2 3 4 5 6 
#
# 1 90.4025 27.0702 68.6221 0.0000 0.0000 0.0000
# 2 27.0702 21.1517 32.6767 0.0000 0.0000 0.0000
# 3 68.6221 32.6767 129.6569 0.0000 0.0000 0.0000
# 4 0.0000 0.0000 0.0000 29.7004 0.0000 0.0000
# 5 0.0000 0.0000 0.0000 0.0000 29.0138 0.0000
# 6 0.0000 0.0000 0.0000 0.0000 0.0000 31.3856
#
#
#
# Elastic Compliance Matrix: (Units=1/GPa)
#
#
# Indices 1 2 3 4 5 6 
#
# 1 0.021420 -0.016212 -0.007251 0.000000 0.000000 0.000000
# 2 -0.016212 0.089691 -0.014024 0.000000 0.000000 0.000000
# 3 -0.007251 -0.014024 0.015085 0.000000 0.000000 0.000000
# 4 0.000000 0.000000 0.000000 0.033670 0.000000 0.000000
# 5 0.000000 0.000000 0.000000 0.000000 0.034466 0.000000
# 6 0.000000 0.000000 0.000000 0.000000 0.000000 0.031862
#
#
# Mechanical properties :
#
#
# Convention : Reuss Voigt Hill
#
# Bulk Modulus (GPa) = 19.52291 55.32768 37.42530
# Shear Modulus (GPa) = 15.71136 25.54277 20.62707
#
# Velocity S-wave (km/s) = 2.93741 3.74535 3.36571
# Velocity P-wave (km/s) = 4.71446 7.00632 5.97137
#
# Compressibility (1/GPa) = 0.05122188
#
# Stress axis : x y z
#
# Youngs Moduli (GPa) = 46.68480 11.14943 66.29219
#
# Poissons Ratio (x) = 0.18075 0.48069
# Poissons Ratio (y) = 0.75685 0.92968
# Poissons Ratio (z) = 0.33852 0.15636
#
# Static dielectric constant tensor:
#      x y z
#    x 1.632390 0.000000 0.000000 
#    y 0.000000 1.642990 0.000000 
#    z 0.000000 0.000000 1.589500 
# 
# From -- ./inp_files/20311.got.cif
#   From: 2010.05.17/outbox.cif.g08.bks.cpg/sg62_11_cif.got.tgz:20311.got - 2010.06.03 15:25:27.
