data_PCOD9462074
_publ_section_title
;
Structure prediction by ZEFSAII (Michael W. Deem and Ramdas Pophale) SiO2 
 PCOD9462074
Probable space group: P N M A
;
_chemical_formula_sum "Si O2"
_cell_formula_units_Z 56
_cell_length_a 16.319666
_cell_length_b 7.442526
_cell_length_c 21.209187
_cell_angle_alpha 90.000000
_cell_angle_beta 90.000000
_cell_angle_gamma 90.000000
_cell_volume 2576.058065
_symmetry_space_group_name_H-M "P N M A"
_symmetry_group_IT_number 62
_symmetry_cell_setting 'orthorhombic'
loop_
_space_group_symop_operation_xyz
x,y,z
1/2-x,-y,1/2+z
1/2+x,1/2-y,1/2-z
-x,1/2+y,-z
-x,-y,-z
1/2+x,y,1/2-z
1/2-x,1/2+y,1/2+z
x,1/2-y,z
loop_
_atom_site_type_symbol
_atom_site_label
_atom_site_fract_x
_atom_site_fract_y
_atom_site_fract_z
Si Si1 0.933956 0.962340 0.053094
Si Si2 0.996553 0.030302 0.812237
Si Si3 0.862164 0.952728 0.281784
Si Si4 0.810720 0.470344 0.833779
Si Si5 0.969865 0.043655 0.395574
Si Si6 0.777813 0.045015 0.976998
Si Si7 0.611525 0.469020 0.028995
O O1 0.919875 0.750000 0.058851
O O2 0.969760 0.024251 0.119381
O O3 0.852828 0.045547 0.024594
O O4 0.000000 0.000000 0.000000
O O5 0.994263 0.250000 0.808497
O O6 0.066816 0.968066 0.763362
O O7 0.900615 0.974072 0.807810
O O8 0.847496 0.750000 0.258152
O O9 0.771105 0.029505 0.295558
O O10 0.908873 0.946636 0.348683
O O11 0.810763 0.250000 0.833499
O O12 0.800209 0.529352 0.907527
O O13 0.973642 0.250000 0.374265
O O14 0.061228 0.970947 0.409212
O O15 0.931527 0.033646 0.465016
O O16 0.753279 0.250000 0.962689
O O17 0.703031 0.966351 0.016867
O O18 0.607312 0.250000 0.031557
#
# Coordination Sequence:
#
# PCOD9462074 Si02
#       7
#     8   8   8   8   8   8   8
#     4  11  21  35  55  82 110 136 173 228 282 324
#     4   9  19  35  54  78 105 135 180 228 262 314
#     4  10  19  35  58  77 102 146 187 217 267 332
#     4   9  16  31  56  78  99 135 179 217 259 317
#     4  10  19  31  51  79 110 137 175 230 270 309
#     4  10  18  33  56  78 104 140 179 216 263 328
#     4   9  18  33  52  75 106 147 182 212 264 326
#
# _framework density 21.73864
#
# number of rings (size 3 to 8) (size 9 to 14) (size 15 to 20)
#    0.000    2.286    2.857    0.857    0.000    1.143 
#    2.571    1.429    0.000    0.000    0.000    0.000 
#    0.000    0.000    0.000    0.000    0.000    0.000 
#
# Total GULP energy -311937.382762 kJ/mol
# GULP energy per Si atom -5570.310406 kJ/mol
# Density = 2.168916 g / cm^3
# Si number density = 21.738640 Si / 1000 Ang^3
#
#
#
# Elastic Constant Matrix: (Units=GPa)
#
#
# Indices 1 2 3 4 5 6 
#
# 1 219.1808 -0.4475 72.8651 0.0000 0.0000 0.0000
# 2 -0.4475 66.7976 -1.5126 0.0000 0.0000 0.0000
# 3 72.8651 -1.5126 78.7105 0.0000 0.0000 0.0000
# 4 0.0000 0.0000 0.0000 9.6291 0.0000 0.0000
# 5 0.0000 0.0000 0.0000 0.0000 35.7334 0.0000
# 6 0.0000 0.0000 0.0000 0.0000 0.0000 -5.7749
#
#
#
# Elastic Compliance Matrix: (Units=1/GPa)
#
#
# Indices 1 2 3 4 5 6 
#
# 1 0.006591 -0.000094 -0.006104 0.000000 0.000000 0.000000
# 2 -0.000094 0.014978 0.000375 0.000000 0.000000 0.000000
# 3 -0.006104 0.000375 0.018362 0.000000 0.000000 0.000000
# 4 0.000000 0.000000 0.000000 0.103852 0.000000 0.000000
# 5 0.000000 0.000000 0.000000 0.000000 0.027985 0.000000
# 6 0.000000 0.000000 0.000000 0.000000 0.000000 -0.173163
#
#
# Mechanical properties :
#
#
# Convention : Reuss Voigt Hill
#
# Bulk Modulus (GPa) = 35.35244 56.27765 45.81505
# Shear Modulus (GPa) = 254.04582 27.50309 140.77445
#
# Velocity S-wave (km/s) = 10.82208 3.56078 8.05595
# Velocity P-wave (km/s) = 13.13219 6.54600 10.37556
#
# Compressibility (1/GPa) = 0.02828659
#
# Stress axis : x y z
#
# Youngs Moduli (GPa) = 151.71341 66.76250 54.45917
#
# Poissons Ratio (x) = 0.00628 0.33240
# Poissons Ratio (y) = 0.01427 -0.02042
# Poissons Ratio (z) = 0.92601 -0.02503
#
# Static dielectric constant tensor:
#      x y z
#    x 1.730890 0.000000 0.000000 
#    y 0.000000 1.923350 0.000000 
#    z 0.000000 0.000000 1.755020 
# 
# From -- ./inp_files/27199.got.cif
#   From: 2010.05.17/outbox.cif.g08.bks.cpg/sg62_14_cif.got.tgz:27199.got - 2010.06.03 15:25:27.
