data_PCOD9462520
_publ_section_title
;
Structure prediction by ZEFSAII (Michael W. Deem and Ramdas Pophale) SiO2 
 PCOD9462520
Probable space group: P N M A
;
_chemical_formula_sum "Si O2"
_cell_formula_units_Z 64
_cell_length_a 8.949831
_cell_length_b 20.951729
_cell_length_c 18.888457
_cell_angle_alpha 90.000000
_cell_angle_beta 90.000000
_cell_angle_gamma 90.000000
_cell_volume 3541.858318
_symmetry_space_group_name_H-M "P N M A"
_symmetry_group_IT_number 62
_symmetry_cell_setting 'orthorhombic'
loop_
_space_group_symop_operation_xyz
x,y,z
1/2-x,-y,1/2+z
1/2+x,1/2-y,1/2-z
-x,1/2+y,-z
-x,-y,-z
1/2+x,y,1/2-z
1/2-x,1/2+y,1/2+z
x,1/2-y,z
loop_
_atom_site_type_symbol
_atom_site_label
_atom_site_fract_x
_atom_site_fract_y
_atom_site_fract_z
Si Si1 0.242985 0.175149 0.498263
Si Si2 0.752661 0.082773 0.659388
Si Si3 0.778103 0.325458 0.167543
Si Si4 0.921447 0.599037 0.384880
Si Si5 0.517250 0.322808 0.596855
Si Si6 0.538502 0.099541 0.260635
Si Si7 0.705434 0.509093 0.788584
Si Si8 0.242618 0.820683 0.214071
O O1 0.202428 0.250000 0.513174
O O2 0.240892 0.164745 0.414795
O O3 0.138054 0.126189 0.541054
O O4 0.411064 0.167466 0.528841
O O5 0.630159 0.119045 0.611469
O O6 0.783991 0.133027 0.721686
O O7 0.908271 0.075679 0.617916
O O8 0.706793 0.021981 0.708466
O O9 0.789922 0.250000 0.180480
O O10 0.649236 0.355981 0.215985
O O11 0.932317 0.359894 0.188473
O O12 0.821730 0.543909 0.348143
O O13 0.886657 0.657200 0.330672
O O14 0.581442 0.250000 0.593311
O O15 0.398163 0.323097 0.661409
O O16 0.428812 0.059343 0.210208
O O17 0.641596 0.046977 0.298570
O O18 0.265788 0.750000 0.240685
#
# Coordination Sequence:
#
# PCOD9462520 Si02
#       8
#     8   8   8   8   8   8   8   8
#     4   9  20  38  57  80 118 154 189 231 281 339
#     4  11  19  27  47  75 112 157 200 236 266 306
#     4  10  21  42  69  93 108 133 175 237 305 354
#     4  10  19  31  50  76 112 163 192 224 271 327
#     4   9  18  30  46  73 111 156 198 235 271 320
#     4  10  21  38  65  86 115 135 179 238 293 344
#     4  10  20  35  53  85 118 155 192 234 274 317
#     4   9  17  27  41  67 104 150 205 250 274 300
#
# _framework density 18.069610000000001
#
# number of rings (size 3 to 8) (size 9 to 14) (size 15 to 20)
#    0.000    2.250    1.250    3.375    3.500    3.000 
#    0.000    3.750    0.000    6.000    0.000    0.000 
#    0.000    0.000    0.000    0.000    0.000    0.000 
#
# Total GULP energy -356680.893704 kJ/mol
# GULP energy per Si atom -5573.138964 kJ/mol
# Density = 1.802848 g / cm^3
# Si number density = 18.069610 Si / 1000 Ang^3
#
#
#
# Elastic Constant Matrix: (Units=GPa)
#
#
# Indices 1 2 3 4 5 6 
#
# 1 68.1165 13.8395 2.5056 0.0000 0.0000 0.0000
# 2 13.8395 59.3498 10.2567 0.0000 0.0000 0.0000
# 3 2.5056 10.2567 40.2020 0.0000 0.0000 0.0000
# 4 0.0000 0.0000 0.0000 13.3373 0.0000 0.0000
# 5 0.0000 0.0000 0.0000 0.0000 10.4287 0.0000
# 6 0.0000 0.0000 0.0000 0.0000 0.0000 25.1359
#
#
#
# Elastic Compliance Matrix: (Units=1/GPa)
#
#
# Indices 1 2 3 4 5 6 
#
# 1 0.015411 -0.003586 -0.000046 0.000000 0.000000 0.000000
# 2 -0.003586 0.018461 -0.004486 0.000000 0.000000 0.000000
# 3 -0.000046 -0.004486 0.026022 0.000000 0.000000 0.000000
# 4 0.000000 0.000000 0.000000 0.074977 0.000000 0.000000
# 5 0.000000 0.000000 0.000000 0.000000 0.095889 0.000000
# 6 0.000000 0.000000 0.000000 0.000000 0.000000 0.039784
#
#
# Mechanical properties :
#
#
# Convention : Reuss Voigt Hill
#
# Bulk Modulus (GPa) = 22.90533 24.54132 23.72332
# Shear Modulus (GPa) = 16.59298 19.18481 17.88890
#
# Velocity S-wave (km/s) = 3.03360 3.26194 3.14984
# Velocity P-wave (km/s) = 4.99740 5.27238 5.13673
#
# Compressibility (1/GPa) = 0.04365797
#
# Stress axis : x y z
#
# Youngs Moduli (GPa) = 64.88899 54.16911 38.42924
#
# Poissons Ratio (x) = 0.19423 0.00176
# Poissons Ratio (y) = 0.23267 0.17241
# Poissons Ratio (z) = 0.00296 0.24302
#
# Static dielectric constant tensor:
#      x y z
#    x 1.648940 0.000000 0.000000 
#    y 0.000000 1.639170 0.000000 
#    z 0.000000 0.000000 1.605180 
# 
# From -- ./inp_files/26287.got.cif
#   From: 2010.05.17/outbox.cif.g08.bks.cpg/sg62_14_cif.got.tgz:26287.got - 2010.06.03 15:25:27.
