data_PCOD9462065
_publ_section_title
;
Structure prediction by ZEFSAII (Michael W. Deem and Ramdas Pophale) SiO2 
 PCOD9462065
Probable space group: P N M A
;
_chemical_formula_sum "Si O2"
_cell_formula_units_Z 44
_cell_length_a 13.524284
_cell_length_b 24.284578
_cell_length_c 5.895776
_cell_angle_alpha 90.000000
_cell_angle_beta 90.000000
_cell_angle_gamma 90.000000
_cell_volume 1936.358730
_symmetry_space_group_name_H-M "P N M A"
_symmetry_group_IT_number 62
_symmetry_cell_setting 'orthorhombic'
loop_
_space_group_symop_operation_xyz
x,y,z
1/2-x,-y,1/2+z
1/2+x,1/2-y,1/2-z
-x,1/2+y,-z
-x,-y,-z
1/2+x,y,1/2-z
1/2-x,1/2+y,1/2+z
x,1/2-y,z
loop_
_atom_site_type_symbol
_atom_site_label
_atom_site_fract_x
_atom_site_fract_y
_atom_site_fract_z
Si Si1 0.990536 0.636573 0.519168
Si Si2 0.195420 0.345454 0.817047
Si Si3 0.868925 0.750000 0.862563
Si Si4 0.947139 0.035086 0.697815
Si Si5 0.740492 0.750000 0.470278
Si Si6 0.933930 0.250000 0.300526
Si Si7 0.610641 0.434956 0.422881
O O1 0.070236 0.594213 0.414054
O O2 0.044463 0.693474 0.571696
O O3 0.900764 0.646679 0.344317
O O4 0.940081 0.606579 0.738672
O O5 0.269172 0.307267 0.667430
O O6 0.172799 0.303423 0.019314
O O7 0.198926 0.404343 0.944154
O O8 0.847527 0.750000 0.594474
O O9 0.985624 0.750000 0.901293
O O10 0.866471 0.993128 0.799690
O O11 0.000000 0.000000 0.500000
O O12 0.026188 0.049436 0.894650
O O13 0.670737 0.750000 0.685139
#
# Coordination Sequence:
#
# PCOD9462065 Si02
#       7
#     8   8   4   8   4   4   8
#     4  10  18  33  54  79 118 153 186 236 307 356
#     4  10  18  34  54  74 114 156 195 246 298 360
#     4  11  20  39  54  76 122 156 193 240 298 359
#     4   8  16  27  47  85 116 132 190 240 292 360
#     4  11  23  35  49  83 119 153 219 239 289 378
#     4  12  21  36  55  79 125 161 196 251 293 359
#     4   9  15  28  53  78 116 138 185 247 295 352
#
# _framework density 22.72306
#
# number of rings (size 3 to 8) (size 9 to 14) (size 15 to 20)
#    0.000    2.182    3.636    0.545    0.000    0.000 
#    6.545    0.000    0.000    0.000    0.000    0.000 
#  452.727    0.000    0.000    0.182    0.000    1.455 
#
# Total GULP energy -245011.949322 kJ/mol
# GULP energy per Si atom -5568.453394 kJ/mol
# Density = 2.267134 g / cm^3
# Si number density = 22.723060 Si / 1000 Ang^3
#
#
#
# Elastic Constant Matrix: (Units=GPa)
#
#
# Indices 1 2 3 4 5 6 
#
# 1 34.8381 9.9444 4.1544 0.0000 0.0000 0.0000
# 2 9.9444 151.7648 36.3010 0.0000 0.0000 0.0000
# 3 4.1544 36.3010 82.1706 0.0000 0.0000 0.0000
# 4 0.0000 0.0000 0.0000 30.9982 0.0000 0.0000
# 5 0.0000 0.0000 0.0000 0.0000 13.4928 0.0000
# 6 0.0000 0.0000 0.0000 0.0000 0.0000 -0.1647
#
#
#
# Elastic Compliance Matrix: (Units=1/GPa)
#
#
# Indices 1 2 3 4 5 6 
#
# 1 0.029288 -0.001750 -0.000708 0.000000 0.000000 0.000000
# 2 -0.001750 0.007472 -0.003213 0.000000 0.000000 0.000000
# 3 -0.000708 -0.003213 0.013625 0.000000 0.000000 0.000000
# 4 0.000000 0.000000 0.000000 0.032260 0.000000 0.000000
# 5 0.000000 0.000000 0.000000 0.000000 0.074113 0.000000
# 6 0.000000 0.000000 0.000000 0.000000 0.000000 -6.070481
#
#
# Mechanical properties :
#
#
# Convention : Reuss Voigt Hill
#
# Bulk Modulus (GPa) = 25.61156 41.06368 33.33762
# Shear Modulus (GPa) = -0.84899 23.42350 11.28726
#
# Velocity S-wave (km/s) = -0.61191 3.21413 2.23116
# Velocity P-wave (km/s) = 3.28579 5.64666 4.61959
#
# Compressibility (1/GPa) = 0.03904487
#
# Stress axis : x y z
#
# Youngs Moduli (GPa) = 34.14358 133.82888 73.39540
#
# Poissons Ratio (x) = 0.23418 0.05194
# Poissons Ratio (y) = 0.05975 0.23579
# Poissons Ratio (z) = 0.02416 0.42994
#
# Static dielectric constant tensor:
#      x y z
#    x 1.849920 0.000000 0.000000 
#    y 0.000000 1.900820 0.000000 
#    z 0.000000 0.000000 1.883880 
# 
# From -- ./inp_files/1687.got.cif
#   From: 2010.05.17/outbox.cif.g08.bks.cpg/sg62_1_cif.got.tgz:1687.got - 2010.06.03 15:25:27.
