data_PCOD9462931
_publ_section_title
;
Structure prediction by ZEFSAII (Michael W. Deem and Ramdas Pophale) SiO2 
 PCOD9462931
Probable space group: P N M A
;
_chemical_formula_sum "Si O2"
_cell_formula_units_Z 48
_cell_length_a 8.433942
_cell_length_b 15.498149
_cell_length_c 15.962734
_cell_angle_alpha 90.000000
_cell_angle_beta 90.000000
_cell_angle_gamma 90.000000
_cell_volume 2086.496779
_symmetry_space_group_name_H-M "P N M A"
_symmetry_group_IT_number 62
_symmetry_cell_setting 'orthorhombic'
loop_
_space_group_symop_operation_xyz
x,y,z
1/2-x,-y,1/2+z
1/2+x,1/2-y,1/2-z
-x,1/2+y,-z
-x,-y,-z
1/2+x,y,1/2-z
1/2-x,1/2+y,1/2+z
x,1/2-y,z
loop_
_atom_site_type_symbol
_atom_site_label
_atom_site_fract_x
_atom_site_fract_y
_atom_site_fract_z
Si Si1 0.591495 0.353970 0.509722
Si Si2 0.288906 0.853103 0.665439
Si Si3 0.340431 0.153231 0.642941
Si Si4 0.743102 0.992157 0.123207
Si Si5 0.053701 0.431877 0.732521
Si Si6 0.422593 0.852808 0.850756
O O1 0.627302 0.250000 0.519490
O O2 0.600558 0.377645 0.412267
O O3 0.424971 0.368490 0.555847
O O4 0.710793 0.419248 0.556458
O O5 0.280501 0.750000 0.663455
O O6 0.357180 0.870764 0.756847
O O7 0.107363 0.879904 0.648281
O O8 0.278051 0.250000 0.639198
O O9 0.481161 0.146275 0.712110
O O10 0.202824 0.091765 0.675296
O O11 0.882513 0.993623 0.193118
O O12 0.588355 0.960363 0.173693
O O13 0.687485 0.086208 0.092539
O O14 0.409348 0.750000 0.867709
#
# Coordination Sequence:
#
# PCOD9462931 Si02
#       6
#     8   8   8   8   8   8
#     4   9  19  35  55  83 120 154 182 224 285 339
#     4   9  19  37  59  84 112 145 189 237 285 335
#     4   9  16  28  48  75 110 152 189 222 265 325
#     4  10  19  33  54  81 114 149 187 233 282 332
#     4   9  18  29  47  76 112 148 189 226 265 334
#     4  10  20  36  60  82 104 142 192 239 280 331
#
# _framework density 23.005067
#
# number of rings (size 3 to 8) (size 9 to 14) (size 15 to 20)
#    0.000    2.667    0.000    1.500    0.000    5.333 
#    0.000    1.667    0.000   27.000    0.000    1.167 
#    0.000    0.000    0.000    0.000    0.000    0.000 
#
# Total GULP energy -267944.416548 kJ/mol
# GULP energy per Si atom -5582.175345 kJ/mol
# Density = 2.295271 g / cm^3
# Si number density = 23.005067 Si / 1000 Ang^3
#
#
#
# Elastic Constant Matrix: (Units=GPa)
#
#
# Indices 1 2 3 4 5 6 
#
# 1 78.9540 41.7272 37.3196 0.0000 0.0000 0.0000
# 2 41.7272 86.9139 36.3531 0.0000 0.0000 0.0000
# 3 37.3196 36.3531 65.6851 0.0000 0.0000 0.0000
# 4 0.0000 0.0000 0.0000 17.2664 0.0000 0.0000
# 5 0.0000 0.0000 0.0000 0.0000 33.1897 0.0000
# 6 0.0000 0.0000 0.0000 0.0000 0.0000 29.5939
#
#
#
# Elastic Compliance Matrix: (Units=1/GPa)
#
#
# Indices 1 2 3 4 5 6 
#
# 1 0.019569 -0.006174 -0.007701 0.000000 0.000000 0.000000
# 2 -0.006174 0.016919 -0.005856 0.000000 0.000000 0.000000
# 3 -0.007701 -0.005856 0.022841 0.000000 0.000000 0.000000
# 4 0.000000 0.000000 0.000000 0.057916 0.000000 0.000000
# 5 0.000000 0.000000 0.000000 0.000000 0.030130 0.000000
# 6 0.000000 0.000000 0.000000 0.000000 0.000000 0.033791
#
#
# Mechanical properties :
#
#
# Convention : Reuss Voigt Hill
#
# Bulk Modulus (GPa) = 50.33672 51.37253 50.85462
# Shear Modulus (GPa) = 22.00228 23.75355 22.87791
#
# Velocity S-wave (km/s) = 3.09594 3.21679 3.15695
# Velocity P-wave (km/s) = 5.89135 6.01469 5.95334
#
# Compressibility (1/GPa) = 0.01986621
#
# Stress axis : x y z
#
# Youngs Moduli (GPa) = 51.10231 59.10512 43.78135
#
# Poissons Ratio (x) = 0.36489 0.33717
# Poissons Ratio (y) = 0.31549 0.25639
# Poissons Ratio (z) = 0.39355 0.34613
#
# Static dielectric constant tensor:
#      x y z
#    x 1.860460 0.000000 0.000000 
#    y 0.000000 1.934340 0.000000 
#    z 0.000000 0.000000 1.853420 
# 
# From -- ./inp_files/16950.got.cif
#   From: 2010.05.17/outbox.cif.g08.bks.cpg/sg62_9_cif.got.tgz:16950.got - 2010.06.03 15:25:27.
