data_PCOD9462895
_publ_section_title
;
Structure prediction by ZEFSAII (Michael W. Deem and Ramdas Pophale) SiO2 
 PCOD9462895
Probable space group: P N M A
;
_chemical_formula_sum "Si O2"
_cell_formula_units_Z 64
_cell_length_a 24.666244
_cell_length_b 7.575206
_cell_length_c 15.962066
_cell_angle_alpha 90.000000
_cell_angle_beta 90.000000
_cell_angle_gamma 90.000000
_cell_volume 2982.542034
_symmetry_space_group_name_H-M "P N M A"
_symmetry_group_IT_number 62
_symmetry_cell_setting 'orthorhombic'
loop_
_space_group_symop_operation_xyz
x,y,z
1/2-x,-y,1/2+z
1/2+x,1/2-y,1/2-z
-x,1/2+y,-z
-x,-y,-z
1/2+x,y,1/2-z
1/2-x,1/2+y,1/2+z
x,1/2-y,z
loop_
_atom_site_type_symbol
_atom_site_label
_atom_site_fract_x
_atom_site_fract_y
_atom_site_fract_z
Si Si1 0.690168 0.039092 0.499657
Si Si2 0.388226 0.461583 0.159400
Si Si3 0.499633 0.538388 0.401386
Si Si4 0.115626 0.536667 0.159699
Si Si5 0.504526 0.460581 0.099029
Si Si6 0.623941 0.955236 0.156962
Si Si7 0.813622 0.032752 0.493747
Si Si8 0.117286 0.461493 0.847576
O O1 0.694312 0.250000 0.509978
O O2 0.751486 0.973394 0.491463
O O3 0.657822 0.969928 0.580978
O O4 0.655252 0.006297 0.416510
O O5 0.391072 0.250000 0.151437
O O6 0.449678 0.527378 0.143668
O O7 0.348501 0.525637 0.086303
O O8 0.367578 0.502979 0.252012
O O9 0.500000 0.500000 0.500000
O O10 0.499823 0.750000 0.390572
O O11 0.555087 0.470198 0.361097
O O12 0.443638 0.468906 0.363153
O O13 0.112723 0.750000 0.164534
O O14 0.133478 0.468806 0.250718
O O15 0.507562 0.250000 0.109341
O O16 0.560047 0.536140 0.135859
O O17 0.500000 0.500000 0.000000
O O18 0.639884 0.750000 0.161186
O O19 0.656917 0.029427 0.078508
O O20 0.814528 0.250000 0.492821
O O21 0.115017 0.250000 0.858334
#
# Coordination Sequence:
#
# PCOD9462895 Si02
#       8
#     8   8   8   8   8   8   8   8
#     4  10  21  38  59  79 108 149 191 233 275 328
#     4  10  21  37  57  82 111 148 184 219 276 337
#     4  10  19  33  53  81 112 142 177 220 277 332
#     4  10  21  35  57  85 113 146 183 229 284 332
#     4  11  21  35  58  87 115 147 186 227 278 337
#     4  10  20  38  60  82 114 150 184 228 282 340
#     4   9  19  38  59  79 108 149 189 226 279 334
#     4  10  21  36  56  85 112 141 185 232 277 324
#
# _framework density 21.458207000000002
#
# number of rings (size 3 to 8) (size 9 to 14) (size 15 to 20)
#    0.000    2.000    2.500    1.125    0.000    4.500 
#    0.000    2.500    0.000    0.000    0.000    0.000 
#    0.000    0.000    0.000    0.000    0.000    0.000 
#
# Total GULP energy -357621.603022 kJ/mol
# GULP energy per Si atom -5587.837547 kJ/mol
# Density = 2.140937 g / cm^3
# Si number density = 21.458207 Si / 1000 Ang^3
#
#
#
# Elastic Constant Matrix: (Units=GPa)
#
#
# Indices 1 2 3 4 5 6 
#
# 1 153.0775 -0.2058 85.4273 0.0000 0.0000 0.0000
# 2 -0.2058 47.1008 -10.8033 0.0000 0.0000 0.0000
# 3 85.4273 -10.8033 194.6553 0.0000 0.0000 0.0000
# 4 0.0000 0.0000 0.0000 6.2761 0.0000 0.0000
# 5 0.0000 0.0000 0.0000 0.0000 0.4769 0.0000
# 6 0.0000 0.0000 0.0000 0.0000 0.0000 10.9161
#
#
#
# Elastic Compliance Matrix: (Units=1/GPa)
#
#
# Indices 1 2 3 4 5 6 
#
# 1 0.008685 -0.000847 -0.003858 0.000000 0.000000 0.000000
# 2 -0.000847 0.021587 0.001570 0.000000 0.000000 0.000000
# 3 -0.003858 0.001570 0.006918 0.000000 0.000000 0.000000
# 4 0.000000 0.000000 0.000000 0.159335 0.000000 0.000000
# 5 0.000000 0.000000 0.000000 0.000000 2.097041 0.000000
# 6 0.000000 0.000000 0.000000 0.000000 0.000000 0.091608
#
#
# Mechanical properties :
#
#
# Convention : Reuss Voigt Hill
#
# Bulk Modulus (GPa) = 32.34296 60.40776 46.37536
# Shear Modulus (GPa) = 2.08181 24.89484 13.48832
#
# Velocity S-wave (km/s) = 0.98604 3.40980 2.50988
# Velocity P-wave (km/s) = 4.04989 6.61172 5.48254
#
# Compressibility (1/GPa) = 0.03091863
#
# Stress axis : x y z
#
# Youngs Moduli (GPa) = 115.14412 46.32324 144.55575
#
# Poissons Ratio (x) = 0.03924 0.55776
# Poissons Ratio (y) = 0.09753 -0.22693
# Poissons Ratio (z) = 0.44428 -0.07272
#
# Static dielectric constant tensor:
#      x y z
#    x 1.758080 0.000000 0.000000 
#    y 0.000000 1.808720 0.000000 
#    z 0.000000 0.000000 1.753100 
# 
# From -- ./inp_files/20753.got.cif
#   From: 2010.05.17/outbox.cif.g08.bks.cpg/sg62_11_cif.got.tgz:20753.got - 2010.06.03 15:25:27.
