data_PCOD9462648
_publ_section_title
;
Structure prediction by ZEFSAII (Michael W. Deem and Ramdas Pophale) SiO2 
 PCOD9462648
Probable space group: P N M A
;
_chemical_formula_sum "Si O2"
_cell_formula_units_Z 40
_cell_length_a 13.014920
_cell_length_b 7.371945
_cell_length_c 18.929687
_cell_angle_alpha 90.000000
_cell_angle_beta 90.000000
_cell_angle_gamma 90.000000
_cell_volume 1816.214014
_symmetry_space_group_name_H-M "P N M A"
_symmetry_group_IT_number 62
_symmetry_cell_setting 'orthorhombic'
loop_
_space_group_symop_operation_xyz
x,y,z
1/2-x,-y,1/2+z
1/2+x,1/2-y,1/2-z
-x,1/2+y,-z
-x,-y,-z
1/2+x,y,1/2-z
1/2-x,1/2+y,1/2+z
x,1/2-y,z
loop_
_atom_site_type_symbol
_atom_site_label
_atom_site_fract_x
_atom_site_fract_y
_atom_site_fract_z
Si Si1 0.183970 0.962364 0.121288
Si Si2 0.455009 0.528262 0.349493
Si Si3 0.108329 0.472172 0.692291
Si Si4 0.779784 0.530634 0.043050
Si Si5 0.946854 0.466377 0.575449
O O1 0.178611 0.750000 0.139801
O O2 0.280775 0.035863 0.164770
O O3 0.070872 0.036537 0.136915
O O4 0.207832 0.977719 0.038354
O O5 0.455810 0.750000 0.351638
O O6 0.416403 0.475077 0.272053
O O7 0.375215 0.468862 0.409560
O O8 0.108966 0.250000 0.690138
O O9 0.020127 0.533946 0.637895
O O10 0.778596 0.750000 0.044946
O O11 0.669910 0.465453 0.072391
O O12 0.940328 0.250000 0.584822
O O13 0.000000 0.500000 0.500000
#
# Coordination Sequence:
#
# PCOD9462648 Si02
#       5
#     8   8   8   8   8
#     4  10  19  33  54  75 100 134 169 206 247 299
#     4   9  19  32  50  77 103 131 168 210 253 293
#     4   9  18  31  49  75 101 127 167 212 249 288
#     4  10  20  33  52  76 103 132 165 209 256 298
#     4  10  19  32  51  74 100 131 165 206 249 294
#
# _framework density 22.023834999999998
#
# number of rings (size 3 to 8) (size 9 to 14) (size 15 to 20)
#    0.000    2.400    2.000    0.600    2.800    0.000 
#    0.000    0.000    0.000    4.800    0.000    0.000 
#    0.000    0.000    0.000    0.000    0.000    0.000 
#
# Total GULP energy -223566.049371 kJ/mol
# GULP energy per Si atom -5589.151234 kJ/mol
# Density = 2.197371 g / cm^3
# Si number density = 22.023835 Si / 1000 Ang^3
#
#
#
# Elastic Constant Matrix: (Units=GPa)
#
#
# Indices 1 2 3 4 5 6 
#
# 1 230.7844 7.2181 62.5726 0.0000 0.0000 0.0000
# 2 7.2181 77.2922 -10.3109 0.0000 0.0000 0.0000
# 3 62.5726 -10.3109 57.6014 0.0000 0.0000 0.0000
# 4 0.0000 0.0000 0.0000 17.6932 0.0000 0.0000
# 5 0.0000 0.0000 0.0000 0.0000 29.2661 0.0000
# 6 0.0000 0.0000 0.0000 0.0000 0.0000 -3.0267
#
#
#
# Elastic Compliance Matrix: (Units=1/GPa)
#
#
# Indices 1 2 3 4 5 6 
#
# 1 0.006317 -0.001542 -0.007138 0.000000 0.000000 0.000000
# 2 -0.001542 0.013631 0.004115 0.000000 0.000000 0.000000
# 3 -0.007138 0.004115 0.025851 0.000000 0.000000 0.000000
# 4 0.000000 0.000000 0.000000 0.056519 0.000000 0.000000
# 5 0.000000 0.000000 0.000000 0.000000 0.034169 0.000000
# 6 0.000000 0.000000 0.000000 0.000000 0.000000 -0.330397
#
#
# Mechanical properties :
#
#
# Convention : Reuss Voigt Hill
#
# Bulk Modulus (GPa) = 27.27084 53.84862 40.55973
# Shear Modulus (GPa) = -28.97570 29.19975 0.11203
#
# Velocity S-wave (km/s) = -3.63113 3.64514 0.22578
# Velocity P-wave (km/s) = 2.27394 6.49764 4.30398
#
# Compressibility (1/GPa) = 0.03666920
#
# Stress axis : x y z
#
# Youngs Moduli (GPa) = 158.31505 73.36280 38.68321
#
# Poissons Ratio (x) = 0.11313 0.27611
# Poissons Ratio (y) = 0.24413 -0.15919
# Poissons Ratio (z) = 1.13000 -0.30190
#
# Static dielectric constant tensor:
#      x y z
#    x 1.787710 0.000000 0.000000 
#    y 0.000000 1.850220 0.000000 
#    z 0.000000 0.000000 1.686450 
# 
# From -- ./inp_files/17776.got.cif
#   From: 2010.05.17/outbox.cif.g08.bks.cpg/sg62_9_cif.got.tgz:17776.got - 2010.06.03 15:25:27.
