data_PCOD9462821
_publ_section_title
;
Structure prediction by ZEFSAII (Michael W. Deem and Ramdas Pophale) SiO2 
 PCOD9462821
Probable space group: P N M A
;
_chemical_formula_sum "Si O2"
_cell_formula_units_Z 64
_cell_length_a 9.262500
_cell_length_b 24.333058
_cell_length_c 16.328387
_cell_angle_alpha 90.000000
_cell_angle_beta 90.000000
_cell_angle_gamma 90.000000
_cell_volume 3680.172683
_symmetry_space_group_name_H-M "P N M A"
_symmetry_group_IT_number 62
_symmetry_cell_setting 'orthorhombic'
loop_
_space_group_symop_operation_xyz
x,y,z
1/2-x,-y,1/2+z
1/2+x,1/2-y,1/2-z
-x,1/2+y,-z
-x,-y,-z
1/2+x,y,1/2-z
1/2-x,1/2+y,1/2+z
x,1/2-y,z
loop_
_atom_site_type_symbol
_atom_site_label
_atom_site_fract_x
_atom_site_fract_y
_atom_site_fract_z
Si Si1 0.304545 0.684032 0.708362
Si Si2 0.008296 0.400511 0.113223
Si Si3 0.027398 0.398709 0.506206
Si Si4 0.735044 0.047662 0.111452
Si Si5 0.231389 0.453274 0.001970
Si Si6 0.680079 0.459944 0.857834
Si Si7 0.425790 0.501666 0.739459
Si Si8 0.991017 0.815642 0.637090
O O1 0.312714 0.750000 0.699691
O O2 0.417708 0.652980 0.650241
O O3 0.361265 0.670815 0.799810
O O4 0.142479 0.666621 0.681571
O O5 0.838726 0.400665 0.097320
O O6 0.098265 0.418251 0.034093
O O7 0.020496 0.450581 0.178726
O O8 0.090942 0.442298 0.440642
O O9 0.126127 0.409101 0.586120
O O10 0.864631 0.416137 0.526505
O O11 0.024239 0.343956 0.451213
O O12 0.686835 0.033361 0.201709
O O13 0.809734 0.995135 0.069462
O O14 0.286640 0.490069 0.078805
O O15 0.552259 0.476778 0.795419
O O16 0.830504 0.456418 0.808458
O O17 0.996315 0.750000 0.628802
#
# Coordination Sequence:
#
# PCOD9462821 Si02
#       8
#     8   8   8   8   8   8   8   8
#     4  10  22  36  51  74 100 133 178 215 245 287
#     4  11  22  30  48  71  99 138 170 208 252 294
#     4  11  19  35  52  71 101 136 171 206 254 297
#     4  11  20  31  47  71 105 135 170 204 250 303
#     4  10  19  33  48  69 100 137 173 204 244 299
#     4  10  20  32  48  72 102 132 165 208 245 302
#     4  11  19  30  47  73  97 132 171 204 243 302
#     4  10  22  38  55  74  99 133 174 215 251 295
#
# _framework density 17.390488000000001
#
# number of rings (size 3 to 8) (size 9 to 14) (size 15 to 20)
#    0.000    1.500    5.000    1.875    3.500    0.000 
#    0.000    0.000    0.000    0.000    0.000    0.875 
#    0.000    0.000    0.000    0.000    0.000    0.000 
#
# Total GULP energy -356860.884486 kJ/mol
# GULP energy per Si atom -5575.951320 kJ/mol
# Density = 1.735091 g / cm^3
# Si number density = 17.390488 Si / 1000 Ang^3
#
#
#
# Elastic Constant Matrix: (Units=GPa)
#
#
# Indices 1 2 3 4 5 6 
#
# 1 64.1975 14.6750 15.1120 0.0000 0.0000 0.0000
# 2 14.6750 33.2960 10.0224 0.0000 0.0000 0.0000
# 3 15.1120 10.0224 39.6578 0.0000 0.0000 0.0000
# 4 0.0000 0.0000 0.0000 31.1270 0.0000 0.0000
# 5 0.0000 0.0000 0.0000 0.0000 28.2407 0.0000
# 6 0.0000 0.0000 0.0000 0.0000 0.0000 22.5732
#
#
#
# Elastic Compliance Matrix: (Units=1/GPa)
#
#
# Indices 1 2 3 4 5 6 
#
# 1 0.018312 -0.006462 -0.005345 0.000000 0.000000 0.000000
# 2 -0.006462 0.034787 -0.006329 0.000000 0.000000 0.000000
# 3 -0.005345 -0.006329 0.028852 0.000000 0.000000 0.000000
# 4 0.000000 0.000000 0.000000 0.032126 0.000000 0.000000
# 5 0.000000 0.000000 0.000000 0.000000 0.035410 0.000000
# 6 0.000000 0.000000 0.000000 0.000000 0.000000 0.044300
#
#
# Mechanical properties :
#
#
# Convention : Reuss Voigt Hill
#
# Bulk Modulus (GPa) = 21.89189 24.08556 22.98873
# Shear Modulus (GPa) = 20.38434 22.87763 21.63098
#
# Velocity S-wave (km/s) = 3.42739 3.63095 3.53064
# Velocity P-wave (km/s) = 5.31775 5.60877 5.46520
#
# Compressibility (1/GPa) = 0.04567901
#
# Stress axis : x y z
#
# Youngs Moduli (GPa) = 54.60805 28.74649 34.65969
#
# Poissons Ratio (x) = 0.18576 0.18526
# Poissons Ratio (y) = 0.35288 0.21936
# Poissons Ratio (z) = 0.29188 0.18194
#
# Static dielectric constant tensor:
#      x y z
#    x 1.670890 0.000000 0.000000 
#    y 0.000000 1.582590 0.000000 
#    z 0.000000 0.000000 1.605820 
# 
# From -- ./inp_files/22643.got.cif
#   From: 2010.05.17/outbox.cif.g08.bks.cpg/sg62_12_cif.got.tgz:22643.got - 2010.06.03 15:25:27.
