data_PCOD9462756
_publ_section_title
;
Structure prediction by ZEFSAII (Michael W. Deem and Ramdas Pophale) SiO2 
 PCOD9462756
Probable space group: P N M A
;
_chemical_formula_sum "Si O2"
_cell_formula_units_Z 56
_cell_length_a 20.135609
_cell_length_b 11.398788
_cell_length_c 12.777518
_cell_angle_alpha 90.000000
_cell_angle_beta 90.000000
_cell_angle_gamma 90.000000
_cell_volume 2932.715586
_symmetry_space_group_name_H-M "P N M A"
_symmetry_group_IT_number 62
_symmetry_cell_setting 'orthorhombic'
loop_
_space_group_symop_operation_xyz
x,y,z
1/2-x,-y,1/2+z
1/2+x,1/2-y,1/2-z
-x,1/2+y,-z
-x,-y,-z
1/2+x,y,1/2-z
1/2-x,1/2+y,1/2+z
x,1/2-y,z
loop_
_atom_site_type_symbol
_atom_site_label
_atom_site_fract_x
_atom_site_fract_y
_atom_site_fract_z
Si Si1 0.673999 0.987015 0.976469
Si Si2 0.819919 0.387128 0.702027
Si Si3 0.538117 0.114600 0.953303
Si Si4 0.687365 0.533899 0.744809
Si Si5 0.190732 0.619169 0.976202
Si Si6 0.056621 0.114952 0.790715
Si Si7 0.575381 0.891912 0.379390
O O1 0.616095 0.085225 0.972551
O O2 0.674554 0.924371 0.863273
O O3 0.746521 0.043539 0.989508
O O4 0.663439 0.911276 0.080644
O O5 0.806018 0.250000 0.715884
O O6 0.755725 0.460953 0.737035
O O7 0.881041 0.420109 0.776748
O O8 0.522504 0.250000 0.989140
O O9 0.528233 0.113960 0.828048
O O10 0.500000 0.000000 0.000000
O O11 0.689890 0.622783 0.648899
O O12 0.625642 0.451366 0.714801
O O13 0.199617 0.750000 0.019287
O O14 0.121667 0.572205 0.023760
O O15 0.069521 0.250000 0.819465
O O16 0.999135 0.062641 0.864535
O O17 0.568519 0.750000 0.383299
#
# Coordination Sequence:
#
# PCOD9462756 Si02
#       7
#     8   8   8   8   8   8   8
#     4  10  20  34  53  78 107 142 179 224 280 328
#     4  10  19  32  54  79 104 136 181 229 271 324
#     4  10  20  34  54  81 113 147 184 227 281 336
#     4  10  20  33  51  77 104 136 176 222 275 325
#     4  10  20  34  52  74 103 140 180 222 272 329
#     4   9  18  32  51  76 105 137 177 225 271 320
#     4   9  17  31  52  75 100 135 177 219 266 320
#
# _framework density 19.094930000000002
#
# number of rings (size 3 to 8) (size 9 to 14) (size 15 to 20)
#    0.000    2.286    1.429    1.714    0.000    4.000 
#    0.000    2.143    0.000    0.000    0.000    1.000 
#    0.000    0.000    0.000    0.000    0.000    0.000 
#
# Total GULP energy -311951.141142 kJ/mol
# GULP energy per Si atom -5570.556092 kJ/mol
# Density = 1.905147 g / cm^3
# Si number density = 19.094930 Si / 1000 Ang^3
#
#
#
# Elastic Constant Matrix: (Units=GPa)
#
#
# Indices 1 2 3 4 5 6 
#
# 1 79.8176 15.0382 0.9966 0.0000 0.0000 0.0000
# 2 15.0382 46.9498 10.0458 0.0000 0.0000 0.0000
# 3 0.9966 10.0458 97.4300 0.0000 0.0000 0.0000
# 4 0.0000 0.0000 0.0000 4.9069 0.0000 0.0000
# 5 0.0000 0.0000 0.0000 0.0000 24.8353 0.0000
# 6 0.0000 0.0000 0.0000 0.0000 0.0000 -12.3636
#
#
#
# Elastic Compliance Matrix: (Units=1/GPa)
#
#
# Indices 1 2 3 4 5 6 
#
# 1 0.013342 -0.004340 0.000311 0.000000 0.000000 0.000000
# 2 -0.004340 0.023192 -0.002347 0.000000 0.000000 0.000000
# 3 0.000311 -0.002347 0.010503 0.000000 0.000000 0.000000
# 4 0.000000 0.000000 0.000000 0.203796 0.000000 0.000000
# 5 0.000000 0.000000 0.000000 0.000000 0.040265 0.000000
# 6 0.000000 0.000000 0.000000 0.000000 0.000000 -0.080883
#
#
# Mechanical properties :
#
#
# Convention : Reuss Voigt Hill
#
# Bulk Modulus (GPa) = 29.16755 30.70650 29.93703
# Shear Modulus (GPa) = 21.33152 16.68352 19.00752
#
# Velocity S-wave (km/s) = 3.34598 2.95907 3.15845
# Velocity P-wave (km/s) = 5.49869 5.27169 5.38639
#
# Compressibility (1/GPa) = 0.03428467
#
# Stress axis : x y z
#
# Youngs Moduli (GPa) = 74.94907 43.11898 95.21477
#
# Poissons Ratio (x) = 0.18714 -0.02961
# Poissons Ratio (y) = 0.32529 0.22345
# Poissons Ratio (z) = -0.02331 0.10119
#
# Static dielectric constant tensor:
#      x y z
#    x 1.674160 0.000000 0.000000 
#    y 0.000000 1.649770 0.000000 
#    z 0.000000 0.000000 1.698960 
# 
# From -- ./inp_files/14804.got.cif
#   From: 2010.05.17/outbox.cif.g08.bks.cpg/sg62_8_cif.got.tgz:14804.got - 2010.06.03 15:25:27.
