data_PCOD9462276
_publ_section_title
;
Structure prediction by ZEFSAII (Michael W. Deem and Ramdas Pophale) SiO2 
 PCOD9462276
Probable space group: P N M A
;
_chemical_formula_sum "Si O2"
_cell_formula_units_Z 56
_cell_length_a 14.019710
_cell_length_b 8.512585
_cell_length_c 18.705524
_cell_angle_alpha 90.000000
_cell_angle_beta 90.000000
_cell_angle_gamma 90.000000
_cell_volume 2232.391552
_symmetry_space_group_name_H-M "P N M A"
_symmetry_group_IT_number 62
_symmetry_cell_setting 'orthorhombic'
loop_
_space_group_symop_operation_xyz
x,y,z
1/2-x,-y,1/2+z
1/2+x,1/2-y,1/2-z
-x,1/2+y,-z
-x,-y,-z
1/2+x,y,1/2-z
1/2-x,1/2+y,1/2+z
x,1/2-y,z
loop_
_atom_site_type_symbol
_atom_site_label
_atom_site_fract_x
_atom_site_fract_y
_atom_site_fract_z
Si Si1 0.110767 0.434342 0.982086
Si Si2 0.101250 0.566684 0.270457
Si Si3 0.739115 0.071549 0.123911
Si Si4 0.489712 0.066727 0.352477
Si Si5 0.387588 0.565100 0.223850
Si Si6 0.751027 0.429415 0.394267
Si Si7 0.098728 0.928678 0.478024
O O1 0.089994 0.250000 0.988687
O O2 0.193948 0.454078 0.921100
O O3 0.028988 0.520469 0.934632
O O4 0.164396 0.490526 0.054561
O O5 0.122304 0.750000 0.275527
O O6 0.074748 0.521462 0.188987
O O7 0.996140 0.537332 0.306725
O O8 0.191093 0.474492 0.301039
O O9 0.775807 0.250000 0.120219
O O10 0.644555 0.052006 0.075804
O O11 0.506067 0.250000 0.347910
O O12 0.399378 0.025979 0.299668
O O13 0.381385 0.750000 0.240106
O O14 0.303008 0.518323 0.170850
O O15 0.727257 0.250000 0.372129
O O16 0.835387 0.420013 0.452388
O O17 0.092648 0.750000 0.448118
O O18 0.000000 0.000000 0.500000
#
# Coordination Sequence:
#
# PCOD9462276 Si02
#       7
#     8   8   8   8   8   8   8
#     4  10  20  34  47  64  93 123 152 187 231 273
#     4   9  18  31  46  64  87 119 154 188 226 265
#     4  11  20  29  43  64  88 116 151 189 225 264
#     4  10  19  32  49  66  87 117 154 190 228 271
#     4   9  18  29  45  64  87 118 153 187 224 266
#     4   9  18  29  42  60  85 116 150 187 221 259
#     4  10  19  28  38  55  84 118 151 184 220 256
#
# _framework density 25.085204000000001
#
# number of rings (size 3 to 8) (size 9 to 14) (size 15 to 20)
#    0.857    1.429    0.000    5.571    0.000    5.714 
#    0.000    0.000    0.000    0.000    0.000    0.000 
#    0.000    1.143    0.000    4.286    0.000    6.571 
#
# Total GULP energy -312641.704945 kJ/mol
# GULP energy per Si atom -5582.887588 kJ/mol
# Density = 2.502811 g / cm^3
# Si number density = 25.085204 Si / 1000 Ang^3
#
#
#
# Elastic Constant Matrix: (Units=GPa)
#
#
# Indices 1 2 3 4 5 6 
#
# 1 74.4345 7.6013 10.5817 0.0000 0.0000 0.0000
# 2 7.6013 102.4231 32.6664 0.0000 0.0000 0.0000
# 3 10.5817 32.6664 135.4963 0.0000 0.0000 0.0000
# 4 0.0000 0.0000 0.0000 36.8656 0.0000 0.0000
# 5 0.0000 0.0000 0.0000 0.0000 43.4705 0.0000
# 6 0.0000 0.0000 0.0000 0.0000 0.0000 -7.1307
#
#
#
# Elastic Compliance Matrix: (Units=1/GPa)
#
#
# Indices 1 2 3 4 5 6 
#
# 1 0.013635 -0.000728 -0.000889 0.000000 0.000000 0.000000
# 2 -0.000728 0.010616 -0.002502 0.000000 0.000000 0.000000
# 3 -0.000889 -0.002502 0.008053 0.000000 0.000000 0.000000
# 4 0.000000 0.000000 0.000000 0.027126 0.000000 0.000000
# 5 0.000000 0.000000 0.000000 0.000000 0.023004 0.000000
# 6 0.000000 0.000000 0.000000 0.000000 0.000000 -0.140239
#
#
# Mechanical properties :
#
#
# Convention : Reuss Voigt Hill
#
# Bulk Modulus (GPa) = 41.55582 46.00586 43.78084
# Shear Modulus (GPa) = -120.35518 32.07473 -44.14023
#
# Velocity S-wave (km/s) = -6.93417 3.57967 -4.19932
# Velocity P-wave (km/s) = 6.89264 5.95526 2.45391
#
# Compressibility (1/GPa) = 0.02406402
#
# Stress axis : x y z
#
# Youngs Moduli (GPa) = 73.33834 94.20123 124.17706
#
# Poissons Ratio (x) = 0.06861 0.11043
# Poissons Ratio (y) = 0.05341 0.31074
# Poissons Ratio (z) = 0.06522 0.23573
#
# Static dielectric constant tensor:
#      x y z
#    x 4.315150 0.000000 0.000000 
#    y 0.000000 1.884210 0.000000 
#    z 0.000000 0.000000 1.637030 
# 
# From -- ./inp_files/27585.got.cif
#   From: 2010.05.17/outbox.cif.g08.bks.cpg/sg62_14_cif.got.tgz:27585.got - 2010.06.03 15:25:27.
