data_PCOD9462707
_publ_section_title
;
Structure prediction by ZEFSAII (Michael W. Deem and Ramdas Pophale) SiO2 
 PCOD9462707
Probable space group: P N M A
;
_chemical_formula_sum "Si O2"
_cell_formula_units_Z 64
_cell_length_a 19.805298
_cell_length_b 8.688784
_cell_length_c 19.991696
_cell_angle_alpha 90.000000
_cell_angle_beta 90.000000
_cell_angle_gamma 90.000000
_cell_volume 3440.250142
_symmetry_space_group_name_H-M "P N M A"
_symmetry_group_IT_number 62
_symmetry_cell_setting 'orthorhombic'
loop_
_space_group_symop_operation_xyz
x,y,z
1/2-x,-y,1/2+z
1/2+x,1/2-y,1/2-z
-x,1/2+y,-z
-x,-y,-z
1/2+x,y,1/2-z
1/2-x,1/2+y,1/2+z
x,1/2-y,z
loop_
_atom_site_type_symbol
_atom_site_label
_atom_site_fract_x
_atom_site_fract_y
_atom_site_fract_z
Si Si1 0.955645 0.567842 0.097950
Si Si2 0.869016 0.063782 0.600991
Si Si3 0.151190 0.936384 0.545171
Si Si4 0.781983 0.566366 0.874139
Si Si5 0.994565 0.066355 0.235569
Si Si6 0.645118 0.935058 0.249357
Si Si7 0.603468 0.931705 0.468140
Si Si8 0.475029 0.565396 0.121231
O O1 0.943613 0.750000 0.102232
O O2 0.954814 0.492397 0.170706
O O3 0.031629 0.544585 0.069127
O O4 0.906532 0.492969 0.043243
O O5 0.865733 0.250000 0.601347
O O6 0.836733 0.011571 0.531421
O O7 0.840251 0.014127 0.672910
O O8 0.948462 0.021934 0.600854
O O9 0.148867 0.750000 0.545447
O O10 0.210859 0.984960 0.594763
O O11 0.080283 0.999316 0.571347
O O12 0.781256 0.750000 0.866324
O O13 0.801684 0.491012 0.803798
O O14 0.839623 0.520002 0.927132
O O15 0.996619 0.250000 0.236844
O O16 0.071255 0.001449 0.232174
O O17 0.964376 0.001688 0.304529
O O18 0.640161 0.750000 0.251285
O O19 0.617628 0.750000 0.467774
O O20 0.471598 0.750000 0.123340
#
# Coordination Sequence:
#
# PCOD9462707 Si02
#       8
#     8   8   8   8   8   8   8   8
#     4  10  19  32  52  79 111 144 183 231 278 326
#     4   8  17  35  59  83 107 137 180 231 279 328
#     4  10  21  38  57  80 111 147 185 229 283 338
#     4  11  22  35  54  79 112 151 189 227 275 337
#     4  11  20  32  54  82 113 144 179 225 279 332
#     4  10  19  34  56  81 107 140 183 228 274 328
#     4  10  20  33  52  76 107 146 186 231 278 326
#     4  10  20  35  57  84 111 141 182 232 285 335
#
# _framework density 18.603299
#
# number of rings (size 3 to 8) (size 9 to 14) (size 15 to 20)
#    0.000    2.000    1.250    4.125    0.000    2.000 
#    0.000    4.375    0.000    4.500    0.000    0.000 
#    0.000    0.000    0.000    0.000    0.000    0.000 
#
# Total GULP energy -357288.452920 kJ/mol
# GULP energy per Si atom -5582.632077 kJ/mol
# Density = 1.856096 g / cm^3
# Si number density = 18.603299 Si / 1000 Ang^3
#
#
#
# Elastic Constant Matrix: (Units=GPa)
#
#
# Indices 1 2 3 4 5 6 
#
# 1 36.2983 11.4805 39.2416 0.0000 0.0000 0.0000
# 2 11.4805 31.0171 18.9777 0.0000 0.0000 0.0000
# 3 39.2416 18.9777 157.2830 0.0000 0.0000 0.0000
# 4 0.0000 0.0000 0.0000 27.3296 0.0000 0.0000
# 5 0.0000 0.0000 0.0000 0.0000 22.5514 0.0000
# 6 0.0000 0.0000 0.0000 0.0000 0.0000 18.4674
#
#
#
# Elastic Compliance Matrix: (Units=1/GPa)
#
#
# Indices 1 2 3 4 5 6 
#
# 1 0.040123 -0.009421 -0.008874 0.000000 0.000000 0.000000
# 2 -0.009421 0.037023 -0.002116 0.000000 0.000000 0.000000
# 3 -0.008874 -0.002116 0.008827 0.000000 0.000000 0.000000
# 4 0.000000 0.000000 0.000000 0.036590 0.000000 0.000000
# 5 0.000000 0.000000 0.000000 0.000000 0.044343 0.000000
# 6 0.000000 0.000000 0.000000 0.000000 0.000000 0.054149
#
#
# Mechanical properties :
#
#
# Convention : Reuss Voigt Hill
#
# Bulk Modulus (GPa) = 22.14886 40.44425 31.29655
# Shear Modulus (GPa) = 18.05523 23.99626 21.02575
#
# Velocity S-wave (km/s) = 3.11873 3.59540 3.36552
# Velocity P-wave (km/s) = 4.99002 6.24688 5.65349
#
# Compressibility (1/GPa) = 0.04514906
#
# Stress axis : x y z
#
# Youngs Moduli (GPa) = 24.92366 27.01060 113.28502
#
# Poissons Ratio (x) = 0.25448 1.00525
# Poissons Ratio (y) = 0.23482 0.23977
# Poissons Ratio (z) = 0.22116 0.05717
#
# Static dielectric constant tensor:
#      x y z
#    x 1.616730 0.000000 0.000000 
#    y 0.000000 1.624620 0.000000 
#    z 0.000000 0.000000 1.662140 
# 
# From -- ./inp_files/24701.got.cif
#   From: 2010.05.17/outbox.cif.g08.bks.cpg/sg62_13_cif.got.tgz:24701.got - 2010.06.03 15:25:27.
