data_PCOD9462131
_publ_section_title
;
Structure prediction by ZEFSAII (Michael W. Deem and Ramdas Pophale) SiO2 
 PCOD9462131
Probable space group: P N M A
;
_chemical_formula_sum "Si O2"
_cell_formula_units_Z 48
_cell_length_a 7.955436
_cell_length_b 18.441056
_cell_length_c 13.647064
_cell_angle_alpha 90.000000
_cell_angle_beta 90.000000
_cell_angle_gamma 90.000000
_cell_volume 2002.114916
_symmetry_space_group_name_H-M "P N M A"
_symmetry_group_IT_number 62
_symmetry_cell_setting 'orthorhombic'
loop_
_space_group_symop_operation_xyz
x,y,z
1/2-x,-y,1/2+z
1/2+x,1/2-y,1/2-z
-x,1/2+y,-z
-x,-y,-z
1/2+x,y,1/2-z
1/2-x,1/2+y,1/2+z
x,1/2-y,z
loop_
_atom_site_type_symbol
_atom_site_label
_atom_site_fract_x
_atom_site_fract_y
_atom_site_fract_z
Si Si1 0.570334 0.830924 0.532359
Si Si2 0.527626 0.459337 0.721886
Si Si3 0.774772 0.918583 0.405331
Si Si4 0.267762 0.936641 0.465101
Si Si5 0.589513 0.666347 0.905164
Si Si6 0.080720 0.373097 0.221590
O O1 0.521079 0.750000 0.502353
O O2 0.743482 0.852263 0.479165
O O3 0.431773 0.890675 0.499563
O O4 0.555149 0.836245 0.649115
O O5 0.382279 0.413573 0.670312
O O6 0.575755 0.432215 0.829350
O O7 0.687056 0.455724 0.646796
O O8 0.461786 0.541718 0.724204
O O9 0.751251 0.989909 0.472799
O O10 0.113911 0.886298 0.501864
O O11 0.606446 0.750000 0.932811
O O12 0.435307 0.655121 0.831630
O O13 0.744094 0.643206 0.832459
#
# Coordination Sequence:
#
# PCOD9462131 Si02
#       6
#     8   8   8   8   8   8
#     4  10  19  34  55  80 104 144 182 216 263 319
#     4  11  19  35  56  81 103 140 181 222 261 310
#     4  11  20  36  56  79 110 137 181 225 259 313
#     4  10  18  34  56  75 106 138 181 214 255 314
#     4  11  21  32  51  81 109 136 169 217 272 322
#     4  11  18  33  54  78 107 135 172 221 266 322
#
# _framework density 23.974646
#
# number of rings (size 3 to 8) (size 9 to 14) (size 15 to 20)
#    0.000    1.333    6.667    4.000    0.000    0.000 
#    0.000    6.667    0.000    0.000    0.000    0.000 
#    0.000    0.000    0.000    0.000    0.000    0.000 
#
# Total GULP energy -268344.899472 kJ/mol
# GULP energy per Si atom -5590.518739 kJ/mol
# Density = 2.392008 g / cm^3
# Si number density = 23.974646 Si / 1000 Ang^3
#
#
#
# Elastic Constant Matrix: (Units=GPa)
#
#
# Indices 1 2 3 4 5 6 
#
# 1 58.7502 -11.5783 15.5288 0.0000 0.0000 0.0000
# 2 -11.5783 75.3973 41.1039 0.0000 0.0000 0.0000
# 3 15.5288 41.1039 153.2400 0.0000 0.0000 0.0000
# 4 0.0000 0.0000 0.0000 21.5984 0.0000 0.0000
# 5 0.0000 0.0000 0.0000 0.0000 50.3003 0.0000
# 6 0.0000 0.0000 0.0000 0.0000 0.0000 12.1512
#
#
#
# Elastic Compliance Matrix: (Units=1/GPa)
#
#
# Indices 1 2 3 4 5 6 
#
# 1 0.018753 0.004586 -0.003131 0.000000 0.000000 0.000000
# 2 0.004586 0.016656 -0.004933 0.000000 0.000000 0.000000
# 3 -0.003131 -0.004933 0.008166 0.000000 0.000000 0.000000
# 4 0.000000 0.000000 0.000000 0.046300 0.000000 0.000000
# 5 0.000000 0.000000 0.000000 0.000000 0.019881 0.000000
# 6 0.000000 0.000000 0.000000 0.000000 0.000000 0.082296
#
#
# Mechanical properties :
#
#
# Convention : Reuss Voigt Hill
#
# Bulk Modulus (GPa) = 27.30633 41.94404 34.62519
# Shear Modulus (GPa) = 23.67289 32.96553 28.31921
#
# Velocity S-wave (km/s) = 3.14572 3.71214 3.44061
# Velocity P-wave (km/s) = 4.96069 5.99220 5.50068
#
# Compressibility (1/GPa) = 0.03662154
#
# Stress axis : x y z
#
# Youngs Moduli (GPa) = 53.32609 60.03693 122.45879
#
# Poissons Ratio (x) = -0.27535 0.38336
# Poissons Ratio (y) = -0.24457 0.60403
# Poissons Ratio (z) = 0.16694 0.29614
#
# Static dielectric constant tensor:
#      x y z
#    x 2.117600 0.000000 0.000000 
#    y 0.000000 1.863260 0.000000 
#    z 0.000000 0.000000 1.927600 
# 
# From -- ./inp_files/18154.got.cif
#   From: 2010.05.17/outbox.cif.g08.bks.cpg/sg62_10_cif.got.tgz:18154.got - 2010.06.03 15:25:27.
