data_PCOD9462431
_publ_section_title
;
Structure prediction by ZEFSAII (Michael W. Deem and Ramdas Pophale) SiO2 
 PCOD9462431
Probable space group: P N M A
;
_chemical_formula_sum "Si O2"
_cell_formula_units_Z 64
_cell_length_a 5.195039
_cell_length_b 23.516605
_cell_length_c 27.431747
_cell_angle_alpha 90.000000
_cell_angle_beta 90.000000
_cell_angle_gamma 90.000000
_cell_volume 3351.327756
_symmetry_space_group_name_H-M "P N M A"
_symmetry_group_IT_number 62
_symmetry_cell_setting 'orthorhombic'
loop_
_space_group_symop_operation_xyz
x,y,z
1/2-x,-y,1/2+z
1/2+x,1/2-y,1/2-z
-x,1/2+y,-z
-x,-y,-z
1/2+x,y,1/2-z
1/2-x,1/2+y,1/2+z
x,1/2-y,z
loop_
_atom_site_type_symbol
_atom_site_label
_atom_site_fract_x
_atom_site_fract_y
_atom_site_fract_z
Si Si1 0.481408 0.188302 0.912497
Si Si2 0.489884 0.556562 0.111836
Si Si3 0.025043 0.830868 0.027222
Si Si4 0.993455 0.365191 0.279925
Si Si5 0.001989 0.461571 0.951945
Si Si6 0.018967 0.999095 0.282250
Si Si7 0.195826 0.315028 0.078476
Si Si8 0.195638 0.317748 0.379549
O O1 0.513629 0.250000 0.886445
O O2 0.522494 0.126334 0.887543
O O3 0.194343 0.186957 0.934342
O O4 0.694527 0.188620 0.955645
O O5 0.735337 0.537916 0.079338
O O6 0.511857 0.532733 0.166284
O O7 0.237667 0.531586 0.084937
O O8 0.028126 0.898340 0.027524
O O9 0.927678 0.812744 0.974573
O O10 0.207090 0.352430 0.238626
O O11 0.013717 0.432639 0.290723
O O12 0.076577 0.331191 0.327491
O O13 0.000000 0.500000 0.000000
O O14 0.273379 0.985382 0.251291
O O15 0.236249 0.250000 0.095186
O O16 0.481365 0.340167 0.082209
O O17 0.977959 0.343721 0.111928
O O18 0.233905 0.250000 0.385751
#
# Coordination Sequence:
#
# PCOD9462431 Si02
#       8
#     8   8   8   8   8   8   8   8
#     4  10  19  33  53  77 105 137 175 211 250 308
#     4  10  21  36  56  81 109 143 179 221 272 317
#     4  10  20  32  50  75 103 141 177 208 247 293
#     4  10  21  36  53  72  92 120 162 206 253 309
#     4  10  21  35  52  80 114 145 180 216 259 320
#     4  10  21  38  59  80 102 132 174 221 265 315
#     4  10  19  31  46  67  97 129 164 202 241 288
#     4  10  21  33  47  70  96 125 163 207 254 300
#
# _framework density 19.096907999999999
#
# number of rings (size 3 to 8) (size 9 to 14) (size 15 to 20)
#    0.000    2.000    0.000    3.750    0.000    3.500 
#    0.000    0.000    0.000    0.750    0.000    0.000 
#    0.000    0.000    0.000    0.000    0.000    0.000 
#
# Total GULP energy -356869.872557 kJ/mol
# GULP energy per Si atom -5576.091759 kJ/mol
# Density = 1.905344 g / cm^3
# Si number density = 19.096908 Si / 1000 Ang^3
#
#
#
# Elastic Constant Matrix: (Units=GPa)
#
#
# Indices 1 2 3 4 5 6 
#
# 1 81.8620 31.1279 12.9096 0.0000 0.0000 0.0000
# 2 31.1279 35.0976 15.6741 0.0000 0.0000 0.0000
# 3 12.9096 15.6741 55.1123 0.0000 0.0000 0.0000
# 4 0.0000 0.0000 0.0000 37.2441 0.0000 0.0000
# 5 0.0000 0.0000 0.0000 0.0000 22.2983 0.0000
# 6 0.0000 0.0000 0.0000 0.0000 0.0000 -20.2029
#
#
#
# Elastic Compliance Matrix: (Units=1/GPa)
#
#
# Indices 1 2 3 4 5 6 
#
# 1 0.018438 -0.016523 0.000380 0.000000 0.000000 0.000000
# 2 -0.016523 0.047443 -0.009623 0.000000 0.000000 0.000000
# 3 0.000380 -0.009623 0.020792 0.000000 0.000000 0.000000
# 4 0.000000 0.000000 0.000000 0.026850 0.000000 0.000000
# 5 0.000000 0.000000 0.000000 0.000000 0.044846 0.000000
# 6 0.000000 0.000000 0.000000 0.000000 0.000000 -0.049498
#
#
# Mechanical properties :
#
#
# Convention : Reuss Voigt Hill
#
# Bulk Modulus (GPa) = 28.45478 32.38834 30.42156
# Shear Modulus (GPa) = 29.04995 15.35861 22.20428
#
# Velocity S-wave (km/s) = 3.90447 2.83900 3.41356
# Velocity P-wave (km/s) = 5.93793 5.26720 5.61259
#
# Compressibility (1/GPa) = 0.03514348
#
# Stress axis : x y z
#
# Youngs Moduli (GPa) = 54.23449 21.07789 48.09434
#
# Poissons Ratio (x) = 0.34826 -0.01828
# Poissons Ratio (y) = 0.89610 0.46279
# Poissons Ratio (z) = -0.02061 0.20282
#
# Static dielectric constant tensor:
#      x y z
#    x 1.724870 0.000000 0.000000 
#    y 0.000000 1.760580 0.000000 
#    z 0.000000 0.000000 1.634160 
# 
# From -- ./inp_files/28466.got.cif
#   From: 2010.05.17/outbox.cif.g08.bks.cpg/sg62_15_cif.got.tgz:28466.got - 2010.06.03 15:25:27.
