data_PCOD9462510
_publ_section_title
;
Structure prediction by ZEFSAII (Michael W. Deem and Ramdas Pophale) SiO2 
 PCOD9462510
Probable space group: P N M A
;
_chemical_formula_sum "Si O2"
_cell_formula_units_Z 56
_cell_length_a 14.555123
_cell_length_b 15.000481
_cell_length_c 11.032429
_cell_angle_alpha 90.000000
_cell_angle_beta 90.000000
_cell_angle_gamma 90.000000
_cell_volume 2408.752654
_symmetry_space_group_name_H-M "P N M A"
_symmetry_group_IT_number 62
_symmetry_cell_setting 'orthorhombic'
loop_
_space_group_symop_operation_xyz
x,y,z
1/2-x,-y,1/2+z
1/2+x,1/2-y,1/2-z
-x,1/2+y,-z
-x,-y,-z
1/2+x,y,1/2-z
1/2-x,1/2+y,1/2+z
x,1/2-y,z
loop_
_atom_site_type_symbol
_atom_site_label
_atom_site_fract_x
_atom_site_fract_y
_atom_site_fract_z
Si Si1 0.773010 0.647685 0.775442
Si Si2 0.079434 0.646775 0.304164
Si Si3 0.839246 0.407081 0.949761
Si Si4 0.219152 0.517758 0.399285
Si Si5 0.391344 0.647232 0.320222
Si Si6 0.428862 0.910069 0.566073
Si Si7 0.586321 0.847267 0.699484
O O1 0.783960 0.750000 0.729868
O O2 0.800448 0.564194 0.692150
O O3 0.835244 0.637018 0.891682
O O4 0.664392 0.634381 0.795949
O O5 0.083281 0.750000 0.340480
O O6 0.140510 0.636215 0.179096
O O7 0.132188 0.582301 0.396621
O O8 0.971712 0.625214 0.276935
O O9 0.910351 0.488106 0.960090
O O10 0.746310 0.463453 0.978119
O O11 0.858260 0.350059 0.070501
O O12 0.307843 0.576485 0.346692
O O13 0.359199 0.750000 0.300293
O O14 0.450559 0.644180 0.445271
O O15 0.500092 0.907779 0.675842
O O16 0.547168 0.750000 0.719371
#
# Coordination Sequence:
#
# PCOD9462510 Si02
#       7
#     8   8   8   8   8   8   8
#     4  10  21  32  47  77 113 151 187 228 286 350
#     4  11  21  37  61  90 119 154 199 247 302 357
#     4  10  20  32  53  83 112 146 188 236 289 347
#     4  10  22  35  54  84 123 150 189 248 304 349
#     4  10  21  35  59  90 114 146 193 247 299 349
#     4  11  19  33  54  81 112 144 187 238 289 346
#     4  10  19  31  49  78 110 143 180 231 283 335
#
# _framework density 23.248546999999999
#
# number of rings (size 3 to 8) (size 9 to 14) (size 15 to 20)
#    0.000    1.714    2.857    2.571    4.000    0.571 
#    0.000    0.000    0.000    0.857   11.143    0.000 
#    0.000    0.000    0.000    0.000    0.000    0.000 
#
# Total GULP energy -311932.163731 kJ/mol
# GULP energy per Si atom -5570.217209 kJ/mol
# Density = 2.319563 g / cm^3
# Si number density = 23.248547 Si / 1000 Ang^3
#
#
#
# Elastic Constant Matrix: (Units=GPa)
#
#
# Indices 1 2 3 4 5 6 
#
# 1 69.5155 19.5945 3.2028 0.0000 0.0000 0.0000
# 2 19.5945 126.4952 -5.2404 0.0000 0.0000 0.0000
# 3 3.2028 -5.2404 16.1593 0.0000 0.0000 0.0000
# 4 0.0000 0.0000 0.0000 27.7528 0.0000 0.0000
# 5 0.0000 0.0000 0.0000 0.0000 34.9059 0.0000
# 6 0.0000 0.0000 0.0000 0.0000 0.0000 28.6537
#
#
#
# Elastic Compliance Matrix: (Units=1/GPa)
#
#
# Indices 1 2 3 4 5 6 
#
# 1 0.015274 -0.002525 -0.003846 0.000000 0.000000 0.000000
# 2 -0.002525 0.008431 0.003235 0.000000 0.000000 0.000000
# 3 -0.003846 0.003235 0.063695 0.000000 0.000000 0.000000
# 4 0.000000 0.000000 0.000000 0.036032 0.000000 0.000000
# 5 0.000000 0.000000 0.000000 0.000000 0.028648 0.000000
# 6 0.000000 0.000000 0.000000 0.000000 0.000000 0.034899
#
#
# Mechanical properties :
#
#
# Convention : Reuss Voigt Hill
#
# Bulk Modulus (GPa) = 12.32654 27.47598 19.90126
# Shear Modulus (GPa) = 22.69665 31.23670 26.96667
#
# Velocity S-wave (km/s) = 3.12791 3.66949 3.40947
# Velocity P-wave (km/s) = 4.28470 5.45871 4.90694
#
# Compressibility (1/GPa) = 0.08112575
#
# Stress axis : x y z
#
# Youngs Moduli (GPa) = 65.46933 118.61512 15.69976
#
# Poissons Ratio (x) = 0.29955 0.06039
# Poissons Ratio (y) = 0.16534 -0.05078
# Poissons Ratio (z) = 0.25182 -0.38367
#
# Static dielectric constant tensor:
#      x y z
#    x 2.016160 0.000000 0.000000 
#    y 0.000000 1.887590 0.000000 
#    z 0.000000 0.000000 1.892760 
# 
# From -- ./inp_files/19129.got.cif
#   From: 2010.05.17/outbox.cif.g08.bks.cpg/sg62_10_cif.got.tgz:19129.got - 2010.06.03 15:25:27.
