data_PCOD9462264
_publ_section_title
;
Structure prediction by ZEFSAII (Michael W. Deem and Ramdas Pophale) SiO2 
 PCOD9462264
Probable space group: P N M A
;
_chemical_formula_sum "Si O2"
_cell_formula_units_Z 48
_cell_length_a 14.288331
_cell_length_b 18.159191
_cell_length_c 9.061302
_cell_angle_alpha 90.000000
_cell_angle_beta 90.000000
_cell_angle_gamma 90.000000
_cell_volume 2351.086480
_symmetry_space_group_name_H-M "P N M A"
_symmetry_group_IT_number 62
_symmetry_cell_setting 'orthorhombic'
loop_
_space_group_symop_operation_xyz
x,y,z
1/2-x,-y,1/2+z
1/2+x,1/2-y,1/2-z
-x,1/2+y,-z
-x,-y,-z
1/2+x,y,1/2-z
1/2-x,1/2+y,1/2+z
x,1/2-y,z
loop_
_atom_site_type_symbol
_atom_site_label
_atom_site_fract_x
_atom_site_fract_y
_atom_site_fract_z
Si Si1 0.435212 0.413599 0.336850
Si Si2 0.693878 0.250000 0.837472
Si Si3 0.777902 0.750000 0.671053
Si Si4 0.830994 0.358554 0.676632
Si Si5 0.445339 0.250000 0.384015
Si Si6 0.485527 0.250000 0.729736
Si Si7 0.256758 0.113617 0.138461
Si Si8 0.111573 0.512552 0.143411
O O1 0.474137 0.329886 0.322002
O O2 0.343901 0.417762 0.233632
O O3 0.406208 0.431596 0.506789
O O4 0.515386 0.473544 0.307867
O O5 0.756598 0.318894 0.784206
O O6 0.594469 0.250000 0.759736
O O7 0.675793 0.250000 0.011659
O O8 0.666723 0.750000 0.635553
O O9 0.793363 0.676651 0.765126
O O10 0.930460 0.319243 0.701957
O O11 0.797209 0.350660 0.510027
O O12 0.843170 0.442424 0.723490
O O13 0.469702 0.250000 0.555434
O O14 0.183249 0.050871 0.096154
#
# Coordination Sequence:
#
# PCOD9462264 Si02
#       8
#     8   4   4   8   4   4   8   8
#     4  10  23  41  64  92 122 180 212 258 322 389
#     4  11  24  39  71  90 120 169 213 253 326 382
#     4  10  20  43  61  89 123 166 204 263 317 384
#     4  11  23  42  60  97 129 158 214 273 309 376
#     4  10  18  41  65  82 123 160 219 255 304 381
#     4  11  22  39  67  93 122 167 210 271 309 367
#     4  11  24  39  65  90 131 164 210 268 320 374
#     4  11  23  41  64  91 129 170 216 254 323 391
#
# _framework density 20.416093
#
# number of rings (size 3 to 8) (size 9 to 14) (size 15 to 20)
#    0.000    1.333    3.333    3.000    2.333    4.000 
#    0.000    0.000    0.000    0.000    0.000    0.000 
#    0.000    0.000    0.000    0.000    0.000    0.000 
#
# Total GULP energy -268201.150229 kJ/mol
# GULP energy per Si atom -5587.523963 kJ/mol
# Density = 2.036963 g / cm^3
# Si number density = 20.416093 Si / 1000 Ang^3
#
#
#
# Elastic Constant Matrix: (Units=GPa)
#
#
# Indices 1 2 3 4 5 6 
#
# 1 78.8026 25.7802 -4.7944 0.0000 0.0000 0.0000
# 2 25.7802 72.6921 12.5313 0.0000 0.0000 0.0000
# 3 -4.7944 12.5313 52.4906 0.0000 0.0000 0.0000
# 4 0.0000 0.0000 0.0000 382.9287 0.0000 0.0000
# 5 0.0000 0.0000 0.0000 0.0000 6.6630 0.0000
# 6 0.0000 0.0000 0.0000 0.0000 0.0000 -5.7238
#
#
#
# Elastic Compliance Matrix: (Units=1/GPa)
#
#
# Indices 1 2 3 4 5 6 
#
# 1 0.014714 -0.005684 0.002701 0.000000 0.000000 0.000000
# 2 -0.005684 0.016543 -0.004468 0.000000 0.000000 0.000000
# 3 0.002701 -0.004468 0.020364 0.000000 0.000000 0.000000
# 4 0.000000 0.000000 0.000000 0.002611 0.000000 0.000000
# 5 0.000000 0.000000 0.000000 0.000000 0.150082 0.000000
# 6 0.000000 0.000000 0.000000 0.000000 0.000000 -0.174710
#
#
# Mechanical properties :
#
#
# Convention : Reuss Voigt Hill
#
# Bulk Modulus (GPa) = 27.23453 30.11327 28.67390
# Shear Modulus (GPa) = 88.11182 88.13815 88.12498
#
# Velocity S-wave (km/s) = 6.57660 6.57759 6.57709
# Velocity P-wave (km/s) = 8.42838 8.51281 8.47070
#
# Compressibility (1/GPa) = 0.03671809
#
# Stress axis : x y z
#
# Youngs Moduli (GPa) = 67.96389 60.44961 49.10506
#
# Poissons Ratio (x) = 0.34358 -0.13262
# Poissons Ratio (y) = 0.38629 0.21942
# Poissons Ratio (z) = -0.18356 0.27012
#
# Static dielectric constant tensor:
#      x y z
#    x 1.692990 0.000000 0.000000 
#    y 0.000000 1.761030 0.000000 
#    z 0.000000 0.000000 1.693260 
# 
# From -- ./inp_files/6558.got.cif
#   From: 2010.05.17/outbox.cif.g08.bks.cpg/sg62_4_cif.got.tgz:6558.got - 2010.06.03 15:25:27.
