data_PCOD9462588
_publ_section_title
;
Structure prediction by ZEFSAII (Michael W. Deem and Ramdas Pophale) SiO2 
 PCOD9462588
Probable space group: P N M A
;
_chemical_formula_sum "Si O2"
_cell_formula_units_Z 64
_cell_length_a 20.805500
_cell_length_b 8.911964
_cell_length_c 19.610174
_cell_angle_alpha 90.000000
_cell_angle_beta 90.000000
_cell_angle_gamma 90.000000
_cell_volume 3636.076635
_symmetry_space_group_name_H-M "P N M A"
_symmetry_group_IT_number 62
_symmetry_cell_setting 'orthorhombic'
loop_
_space_group_symop_operation_xyz
x,y,z
1/2-x,-y,1/2+z
1/2+x,1/2-y,1/2-z
-x,1/2+y,-z
-x,-y,-z
1/2+x,y,1/2-z
1/2-x,1/2+y,1/2+z
x,1/2-y,z
loop_
_atom_site_type_symbol
_atom_site_label
_atom_site_fract_x
_atom_site_fract_y
_atom_site_fract_z
Si Si1 0.818942 0.928326 0.536510
Si Si2 0.252019 0.928420 0.827816
Si Si3 0.253234 0.927267 0.671726
Si Si4 0.439802 0.070083 0.461099
Si Si5 0.612748 0.429423 0.828893
Si Si6 0.312781 0.428014 0.546458
Si Si7 0.939407 0.071499 0.461923
Si Si8 0.387951 0.571017 0.328125
O O1 0.833849 0.750000 0.531303
O O2 0.804109 0.967123 0.615061
O O3 0.751887 0.954225 0.497130
O O4 0.875572 0.021232 0.502631
O O5 0.238178 0.750000 0.836000
O O6 0.273138 0.954427 0.750082
O O7 0.185273 0.014992 0.838700
O O8 0.241655 0.750000 0.663344
O O9 0.185886 0.013465 0.660619
O O10 0.304008 0.984464 0.616826
O O11 0.444542 0.250000 0.459238
O O12 0.374933 0.029531 0.502699
O O13 0.500000 0.000000 0.500000
O O14 0.431458 0.006962 0.384903
O O15 0.611340 0.250000 0.837418
O O16 0.569108 0.506787 0.885679
O O17 0.595227 0.466288 0.750520
O O18 0.316349 0.250000 0.560233
O O19 0.944819 0.250000 0.459995
O O20 0.000000 0.000000 0.500000
O O21 0.390775 0.750000 0.335794
#
# Coordination Sequence:
#
# PCOD9462588 Si02
#       8
#     8   8   8   8   8   8   8   8
#     4  10  19  36  59  82 113 149 186 231 283 338
#     4   9  18  34  55  82 115 150 186 232 286 336
#     4  10  19  31  54  86 115 145 189 237 281 333
#     4  11  23  40  59  83 115 155 196 237 286 342
#     4  10  20  36  57  83 115 149 187 231 283 340
#     4  10  20  35  57  81 113 151 185 227 286 337
#     4  12  25  40  59  85 115 151 192 236 285 340
#     4  10  20  34  57  86 114 147 188 235 283 337
#
# _framework density 17.601389000000001
#
# number of rings (size 3 to 8) (size 9 to 14) (size 15 to 20)
#    0.000    1.750    2.500    2.625    0.000    3.500 
#    0.000    1.250    0.000    3.000    0.000    0.000 
#    0.000    0.000    0.000    0.000    0.000    0.000 
#
# Total GULP energy -357391.491853 kJ/mol
# GULP energy per Si atom -5584.242060 kJ/mol
# Density = 1.756133 g / cm^3
# Si number density = 17.601389 Si / 1000 Ang^3
#
#
#
# Elastic Constant Matrix: (Units=GPa)
#
#
# Indices 1 2 3 4 5 6 
#
# 1 86.7818 55.5527 65.3331 0.0000 0.0000 0.0000
# 2 55.5527 81.2791 76.0204 0.0000 0.0000 0.0000
# 3 65.3331 76.0204 153.6414 0.0000 0.0000 0.0000
# 4 0.0000 0.0000 0.0000 32.1171 0.0000 0.0000
# 5 0.0000 0.0000 0.0000 0.0000 30.5262 0.0000
# 6 0.0000 0.0000 0.0000 0.0000 0.0000 26.9495
#
#
#
# Elastic Compliance Matrix: (Units=1/GPa)
#
#
# Indices 1 2 3 4 5 6 
#
# 1 0.021438 -0.011404 -0.003474 0.000000 0.000000 0.000000
# 2 -0.011404 0.028968 -0.009484 0.000000 0.000000 0.000000
# 3 -0.003474 -0.009484 0.012678 0.000000 0.000000 0.000000
# 4 0.000000 0.000000 0.000000 0.031136 0.000000 0.000000
# 5 0.000000 0.000000 0.000000 0.000000 0.032759 0.000000
# 6 0.000000 0.000000 0.000000 0.000000 0.000000 0.037106
#
#
# Mechanical properties :
#
#
# Convention : Reuss Voigt Hill
#
# Bulk Modulus (GPa) = 69.62881 79.50160 74.56520
# Shear Modulus (GPa) = 22.97847 26.23831 24.60839
#
# Velocity S-wave (km/s) = 3.61708 3.86514 3.74317
# Velocity P-wave (km/s) = 7.55572 8.07372 7.81901
#
# Compressibility (1/GPa) = 0.01436187
#
# Stress axis : x y z
#
# Youngs Moduli (GPa) = 46.64545 34.52139 78.87486
#
# Poissons Ratio (x) = 0.39367 0.27400
# Poissons Ratio (y) = 0.53193 0.74803
# Poissons Ratio (z) = 0.16204 0.32739
#
# Static dielectric constant tensor:
#      x y z
#    x 1.563640 0.000000 0.000000 
#    y 0.000000 1.870350 0.000000 
#    z 0.000000 0.000000 1.622600 
# 
# From -- ./inp_files/24811.got.cif
#   From: 2010.05.17/outbox.cif.g08.bks.cpg/sg62_13_cif.got.tgz:24811.got - 2010.06.03 15:25:27.
