data_PCOD9462886
_publ_section_title
;
Structure prediction by ZEFSAII (Michael W. Deem and Ramdas Pophale) SiO2 
 PCOD9462886
Probable space group: P N M A
;
_chemical_formula_sum "Si O2"
_cell_formula_units_Z 48
_cell_length_a 8.442501
_cell_length_b 30.986383
_cell_length_c 8.816775
_cell_angle_alpha 90.000000
_cell_angle_beta 90.000000
_cell_angle_gamma 90.000000
_cell_volume 2306.490994
_symmetry_space_group_name_H-M "P N M A"
_symmetry_group_IT_number 62
_symmetry_cell_setting 'orthorhombic'
loop_
_space_group_symop_operation_xyz
x,y,z
1/2-x,-y,1/2+z
1/2+x,1/2-y,1/2-z
-x,1/2+y,-z
-x,-y,-z
1/2+x,y,1/2-z
1/2-x,1/2+y,1/2+z
x,1/2-y,z
loop_
_atom_site_type_symbol
_atom_site_label
_atom_site_fract_x
_atom_site_fract_y
_atom_site_fract_z
Si Si1 0.788329 0.369573 0.975621
Si Si2 0.804424 0.922368 0.743875
Si Si3 0.709150 0.836849 0.919129
Si Si4 0.446638 0.380114 0.822690
Si Si5 0.626752 0.200697 0.169428
Si Si6 0.914034 0.043705 0.455224
O O1 0.626457 0.375120 0.878774
O O2 0.927477 0.373407 0.855116
O O3 0.798297 0.408218 0.096943
O O4 0.757229 0.325654 0.070333
O O5 0.786137 0.880505 0.851103
O O6 0.743278 0.960461 0.852737
O O7 0.970582 0.931563 0.663867
O O8 0.821137 0.801195 0.845279
O O9 0.535298 0.825545 0.852556
O O10 0.666425 0.845183 0.092929
O O11 0.394526 0.426092 0.896507
O O12 0.609261 0.250000 0.120091
O O13 0.000000 0.000000 0.500000
#
# Coordination Sequence:
#
# PCOD9462886 Si02
#       6
#     8   8   8   8   8   8
#     4   9  19  34  52  73 104 141 177 215 263 328
#     4   9  19  37  56  77 106 144 181 218 272 332
#     4   9  18  34  55  76 104 140 179 220 266 328
#     4   9  19  34  52  76 104 141 180 214 265 328
#     4  10  19  33  53  80 106 135 177 227 272 317
#     4  10  21  36  55  82 111 139 182 234 274 319
#
# _framework density 20.810832999999999
#
# number of rings (size 3 to 8) (size 9 to 14) (size 15 to 20)
#    0.000    2.667    0.000    3.500    0.000    8.000 
#    0.000    5.833    0.000    0.000    0.000    0.000 
#    0.000    0.000    0.000    0.000    0.000    0.000 
#
# Total GULP energy -267212.027442 kJ/mol
# GULP energy per Si atom -5566.917238 kJ/mol
# Density = 2.076347 g / cm^3
# Si number density = 20.810833 Si / 1000 Ang^3
#
#
#
# Elastic Constant Matrix: (Units=GPa)
#
#
# Indices 1 2 3 4 5 6 
#
# 1 28.4059 10.2177 13.0174 0.0000 0.0000 0.0000
# 2 10.2177 47.5735 10.0176 0.0000 0.0000 0.0000
# 3 13.0174 10.0176 60.5630 0.0000 0.0000 0.0000
# 4 0.0000 0.0000 0.0000 20.4620 0.0000 0.0000
# 5 0.0000 0.0000 0.0000 0.0000 43.8224 0.0000
# 6 0.0000 0.0000 0.0000 0.0000 0.0000 8.6742
#
#
#
# Elastic Compliance Matrix: (Units=1/GPa)
#
#
# Indices 1 2 3 4 5 6 
#
# 1 0.041337 -0.007260 -0.007684 0.000000 0.000000 0.000000
# 2 -0.007260 0.023054 -0.002253 0.000000 0.000000 0.000000
# 3 -0.007684 -0.002253 0.018536 0.000000 0.000000 0.000000
# 4 0.000000 0.000000 0.000000 0.048871 0.000000 0.000000
# 5 0.000000 0.000000 0.000000 0.000000 0.022819 0.000000
# 6 0.000000 0.000000 0.000000 0.000000 0.000000 0.115285
#
#
# Mechanical properties :
#
#
# Convention : Reuss Voigt Hill
#
# Bulk Modulus (GPa) = 20.60472 22.56087 21.58280
# Shear Modulus (GPa) = 15.60194 21.47770 18.53982
#
# Velocity S-wave (km/s) = 2.74104 3.21603 2.98799
# Velocity P-wave (km/s) = 4.46544 4.96537 4.72203
#
# Compressibility (1/GPa) = 0.04853256
#
# Stress axis : x y z
#
# Youngs Moduli (GPa) = 24.19154 43.37677 53.94921
#
# Poissons Ratio (x) = 0.31492 0.41455
# Poissons Ratio (y) = 0.17564 0.12154
# Poissons Ratio (z) = 0.18589 0.09772
#
# Static dielectric constant tensor:
#      x y z
#    x 1.827460 0.000000 0.000000 
#    y 0.000000 1.771450 0.000000 
#    z 0.000000 0.000000 1.755670 
# 
# From -- ./inp_files/4504.got.cif
#   From: 2010.05.17/outbox.cif.g08.bks.cpg/sg62_3_cif.got.tgz:4504.got - 2010.06.03 15:25:27.
