data_PCOD9462133
_publ_section_title
;
Structure prediction by ZEFSAII (Michael W. Deem and Ramdas Pophale) SiO2 
 PCOD9462133
Probable space group: P N M A
;
_chemical_formula_sum "Si O2"
_cell_formula_units_Z 64
_cell_length_a 22.420532
_cell_length_b 13.530568
_cell_length_c 9.529121
_cell_angle_alpha 90.000000
_cell_angle_beta 90.000000
_cell_angle_gamma 90.000000
_cell_volume 2890.778282
_symmetry_space_group_name_H-M "P N M A"
_symmetry_group_IT_number 62
_symmetry_cell_setting 'orthorhombic'
loop_
_space_group_symop_operation_xyz
x,y,z
1/2-x,-y,1/2+z
1/2+x,1/2-y,1/2-z
-x,1/2+y,-z
-x,-y,-z
1/2+x,y,1/2-z
1/2-x,1/2+y,1/2+z
x,1/2-y,z
loop_
_atom_site_type_symbol
_atom_site_label
_atom_site_fract_x
_atom_site_fract_y
_atom_site_fract_z
Si Si1 0.500115 0.637403 0.181937
Si Si2 0.204128 0.099916 0.404571
Si Si3 0.266716 0.906318 0.345939
Si Si4 0.527688 0.457188 0.357588
Si Si5 0.126225 0.053194 0.644747
Si Si6 0.688062 0.853614 0.410538
Si Si7 0.157371 0.086334 0.099452
Si Si8 0.552984 0.862129 0.876198
O O1 0.512552 0.750000 0.224193
O O2 0.539002 0.554284 0.259967
O O3 0.431171 0.608453 0.208975
O O4 0.511711 0.629361 0.014889
O O5 0.263329 0.148689 0.464816
O O6 0.221742 0.984568 0.413404
O O7 0.149506 0.113891 0.510556
O O8 0.186489 0.118347 0.245826
O O9 0.226107 0.850859 0.233800
O O10 0.318179 0.955103 0.249147
O O11 0.305674 0.865181 0.473476
O O12 0.500000 0.500000 0.500000
O O13 0.587084 0.397091 0.393285
O O14 0.483287 0.391503 0.263503
O O15 0.103476 0.944490 0.606665
O O16 0.652108 0.750000 0.418208
O O17 0.661651 0.964916 0.416556
O O18 0.574946 0.750000 0.868585
#
# Coordination Sequence:
#
# PCOD9462133 Si02
#       8
#     8   8   8   8   8   8   8   8
#     4  10  21  36  57  82 107 141 189 231 268 321
#     4   9  18  33  55  76 101 135 176 217 260 315
#     4   9  19  34  53  76 107 141 172 208 263 325
#     4  11  22  37  56  81 115 148 179 224 280 333
#     4  10  18  35  57  78 108 147 180 218 274 326
#     4   9  19  35  55  80 105 136 180 225 263 312
#     4  10  18  34  56  77 105 144 178 212 267 325
#     4  10  21  38  58  82 109 142 189 237 272 317
#
# _framework density 22.139365000000002
#
# number of rings (size 3 to 8) (size 9 to 14) (size 15 to 20)
#    0.000    2.250    0.000    5.250    0.000    3.000 
#    0.000   10.625    0.000    0.000    0.000    0.000 
#    0.000    0.000    0.000    0.000    0.000    0.000 
#
# Total GULP energy -356979.741891 kJ/mol
# GULP energy per Si atom -5577.808467 kJ/mol
# Density = 2.208897 g / cm^3
# Si number density = 22.139365 Si / 1000 Ang^3
#
#
#
# Elastic Constant Matrix: (Units=GPa)
#
#
# Indices 1 2 3 4 5 6 
#
# 1 36.0127 -16.6830 -3.1006 0.0000 0.0000 0.0000
# 2 -16.6830 79.7213 -10.4997 0.0000 0.0000 0.0000
# 3 -3.1006 -10.4997 94.2306 0.0000 0.0000 0.0000
# 4 0.0000 0.0000 0.0000 -11.9261 0.0000 0.0000
# 5 0.0000 0.0000 0.0000 0.0000 24.7372 0.0000
# 6 0.0000 0.0000 0.0000 0.0000 0.0000 11.6211
#
#
#
# Elastic Compliance Matrix: (Units=1/GPa)
#
#
# Indices 1 2 3 4 5 6 
#
# 1 0.031037 0.006728 0.001771 0.000000 0.000000 0.000000
# 2 0.006728 0.014189 0.001802 0.000000 0.000000 0.000000
# 3 0.001771 0.001802 0.010871 0.000000 0.000000 0.000000
# 4 0.000000 0.000000 0.000000 -0.083850 0.000000 0.000000
# 5 0.000000 0.000000 0.000000 0.000000 0.040425 0.000000
# 6 0.000000 0.000000 0.000000 0.000000 0.000000 0.086051
#
#
# Mechanical properties :
#
#
# Convention : Reuss Voigt Hill
#
# Bulk Modulus (GPa) = 13.03760 16.59978 14.81869
# Shear Modulus (GPa) = 48.22184 20.90295 34.56240
#
# Velocity S-wave (km/s) = 4.67208 3.07604 3.95540
# Velocity P-wave (km/s) = 5.91659 4.48667 5.25054
#
# Compressibility (1/GPa) = 0.07670126
#
# Stress axis : x y z
#
# Youngs Moduli (GPa) = 32.21926 70.47661 91.98468
#
# Poissons Ratio (x) = -0.47419 -0.16290
# Poissons Ratio (y) = -0.21678 -0.16579
# Poissons Ratio (z) = -0.05706 -0.12703
#
# Static dielectric constant tensor:
#      x y z
#    x 1.785620 0.000000 0.000000 
#    y 0.000000 1.881910 0.000000 
#    z 0.000000 0.000000 1.820060 
# 
# From -- ./inp_files/9504.got.cif
#   From: 2010.05.17/outbox.cif.g08.bks.cpg/sg62_5_cif.got.tgz:9504.got - 2010.06.03 15:25:27.
