data_PCOD9462890
_publ_section_title
;
Structure prediction by ZEFSAII (Michael W. Deem and Ramdas Pophale) SiO2 
 PCOD9462890
Probable space group: P N M A
;
_chemical_formula_sum "Si O2"
_cell_formula_units_Z 64
_cell_length_a 25.632571
_cell_length_b 8.564304
_cell_length_c 14.627707
_cell_angle_alpha 90.000000
_cell_angle_beta 90.000000
_cell_angle_gamma 90.000000
_cell_volume 3211.149286
_symmetry_space_group_name_H-M "P N M A"
_symmetry_group_IT_number 62
_symmetry_cell_setting 'orthorhombic'
loop_
_space_group_symop_operation_xyz
x,y,z
1/2-x,-y,1/2+z
1/2+x,1/2-y,1/2-z
-x,1/2+y,-z
-x,-y,-z
1/2+x,y,1/2-z
1/2-x,1/2+y,1/2+z
x,1/2-y,z
loop_
_atom_site_type_symbol
_atom_site_label
_atom_site_fract_x
_atom_site_fract_y
_atom_site_fract_z
Si Si1 0.803724 0.562560 0.781830
Si Si2 0.830329 0.060259 0.982561
Si Si3 0.943356 0.061419 0.468801
Si Si4 0.590051 0.936817 0.766893
Si Si5 0.301094 0.440423 0.319717
Si Si6 0.395689 0.061025 0.846983
Si Si7 0.513777 0.570786 0.277233
Si Si8 0.445241 0.072691 0.526023
O O1 0.804498 0.750000 0.785523
O O2 0.811539 0.499998 0.884622
O O3 0.748694 0.509533 0.738719
O O4 0.849094 0.507397 0.712726
O O5 0.832174 0.250000 0.977484
O O6 0.889785 0.002108 0.999963
O O7 0.798501 0.014782 0.073259
O O8 0.946982 0.250000 0.466375
O O9 0.924753 0.006122 0.368953
O O10 0.900525 0.020732 0.546366
O O11 0.000000 0.000000 0.500000
O O12 0.593950 0.750000 0.771159
O O13 0.644455 0.994712 0.725397
O O14 0.539656 0.980452 0.706882
O O15 0.301945 0.250000 0.318567
O O16 0.394105 0.250000 0.838010
O O17 0.450899 0.006388 0.804041
O O18 0.499337 0.750000 0.257787
O O19 0.551750 0.571751 0.364013
O O20 0.445495 0.250000 0.492101
O O21 0.500000 0.000000 0.500000
#
# Coordination Sequence:
#
# PCOD9462890 Si02
#       8
#     8   8   8   8   8   8   8   8
#     4  11  23  39  61  89 115 146 197 253 283 322
#     4  10  20  40  63  81 111 156 190 224 290 358
#     4  10  20  33  55  84 115 152 191 231 283 342
#     4  10  20  36  58  84 113 151 192 234 288 344
#     4   9  21  40  60  83 116 151 189 237 290 341
#     4  10  20  37  57  80 115 157 191 228 287 350
#     4  10  19  33  53  80 114 146 183 230 281 339
#     4  10  20  33  53  81 111 146 186 227 278 340
#
# _framework density 19.930558000000001
#
# number of rings (size 3 to 8) (size 9 to 14) (size 15 to 20)
#    0.000    2.000    2.500    1.125    0.000    4.000 
#    0.000    4.375    0.000    0.000    0.000    0.000 
#    0.000    0.000    0.000    0.000    0.000    0.000 
#
# Total GULP energy -356994.640036 kJ/mol
# GULP energy per Si atom -5578.041251 kJ/mol
# Density = 1.988519 g / cm^3
# Si number density = 19.930558 Si / 1000 Ang^3
#
#
#
# Elastic Constant Matrix: (Units=GPa)
#
#
# Indices 1 2 3 4 5 6 
#
# 1 129.3214 16.6983 58.5145 0.0000 0.0000 0.0000
# 2 16.6983 12.2109 18.9875 0.0000 0.0000 0.0000
# 3 58.5145 18.9875 113.6951 0.0000 0.0000 0.0000
# 4 0.0000 0.0000 0.0000 21.3891 0.0000 0.0000
# 5 0.0000 0.0000 0.0000 0.0000 30.9668 0.0000
# 6 0.0000 0.0000 0.0000 0.0000 0.0000 22.0787
#
#
#
# Elastic Compliance Matrix: (Units=1/GPa)
#
#
# Indices 1 2 3 4 5 6 
#
# 1 0.010650 -0.008159 -0.004118 0.000000 0.000000 0.000000
# 2 -0.008159 0.116872 -0.015319 0.000000 0.000000 0.000000
# 3 -0.004118 -0.015319 0.013473 0.000000 0.000000 0.000000
# 4 0.000000 0.000000 0.000000 0.046753 0.000000 0.000000
# 5 0.000000 0.000000 0.000000 0.000000 0.032293 0.000000
# 6 0.000000 0.000000 0.000000 0.000000 0.000000 0.045293
#
#
# Mechanical properties :
#
#
# Convention : Reuss Voigt Hill
#
# Bulk Modulus (GPa) = 11.65472 49.29199 30.47336
# Shear Modulus (GPa) = 14.32144 25.62206 19.97175
#
# Velocity S-wave (km/s) = 2.68352 3.58937 3.16898
# Velocity P-wave (km/s) = 3.93218 6.47794 5.35844
#
# Compressibility (1/GPa) = 0.08580213
#
# Stress axis : x y z
#
# Youngs Moduli (GPa) = 93.89959 8.55636 74.22099
#
# Poissons Ratio (x) = 0.06982 0.30567
# Poissons Ratio (y) = 0.76617 1.13697
# Poissons Ratio (z) = 0.38671 0.13107
#
# Static dielectric constant tensor:
#      x y z
#    x 1.694100 0.000000 0.000000 
#    y 0.000000 1.799560 0.000000 
#    z 0.000000 0.000000 1.750790 
# 
# From -- ./inp_files/21003.got.cif
#   From: 2010.05.17/outbox.cif.g08.bks.cpg/sg62_11_cif.got.tgz:21003.got - 2010.06.03 15:25:27.
