data_PCOD9462522
_publ_section_title
;
Structure prediction by ZEFSAII (Michael W. Deem and Ramdas Pophale) SiO2 
 PCOD9462522
Probable space group: P N M A
;
_chemical_formula_sum "Si O2"
_cell_formula_units_Z 64
_cell_length_a 17.377202
_cell_length_b 9.372179
_cell_length_c 19.765683
_cell_angle_alpha 90.000000
_cell_angle_beta 90.000000
_cell_angle_gamma 90.000000
_cell_volume 3219.083560
_symmetry_space_group_name_H-M "P N M A"
_symmetry_group_IT_number 62
_symmetry_cell_setting 'orthorhombic'
loop_
_space_group_symop_operation_xyz
x,y,z
1/2-x,-y,1/2+z
1/2+x,1/2-y,1/2-z
-x,1/2+y,-z
-x,-y,-z
1/2+x,y,1/2-z
1/2-x,1/2+y,1/2+z
x,1/2-y,z
loop_
_atom_site_type_symbol
_atom_site_label
_atom_site_fract_x
_atom_site_fract_y
_atom_site_fract_z
Si Si1 0.825687 0.080803 0.319080
Si Si2 0.921181 0.085042 0.785563
Si Si3 0.365368 0.421656 0.915517
Si Si4 0.994637 0.919086 0.661863
Si Si5 0.735464 0.922917 0.959948
Si Si6 0.112103 0.088696 0.965400
Si Si7 0.259688 0.413793 0.789799
Si Si8 0.990613 0.909801 0.901170
O O1 0.811814 0.250000 0.310844
O O2 0.775936 0.026661 0.383428
O O3 0.913897 0.062038 0.342012
O O4 0.804032 0.005132 0.248951
O O5 0.945544 0.250000 0.787673
O O6 0.833689 0.081346 0.760006
O O7 0.968555 0.995776 0.730607
O O8 0.936500 0.007773 0.855679
O O9 0.376924 0.250000 0.907889
O O10 0.442086 0.504987 0.894716
O O11 0.296788 0.459269 0.861834
O O12 0.336193 0.452837 0.990808
O O13 0.978255 0.750000 0.663086
O O14 0.742269 0.750000 0.956054
O O15 0.811302 0.971187 0.999712
O O16 0.126721 0.250000 0.939417
O O17 0.050858 0.101905 0.026387
O O18 0.072399 0.987020 0.910965
O O19 0.234304 0.250000 0.796675
O O20 0.998211 0.750000 0.873032
#
# Coordination Sequence:
#
# PCOD9462522 Si02
#       8
#     8   8   8   8   8   8   8   8
#     4  10  21  36  56  82 110 140 174 217 268 320
#     4  10  20  35  55  77 102 136 178 218 262 318
#     4   9  19  37  58  78 104 141 182 221 262 313
#     4  10  21  36  53  78 109 137 172 218 269 321
#     4   9  18  35  57  78 103 140 184 223 264 318
#     4   9  18  32  50  74 106 143 178 213 261 321
#     4   9  19  34  53  79 107 137 176 220 263 310
#     4  10  19  31  50  77 109 142 176 217 265 316
#
# _framework density 19.881436000000001
#
# number of rings (size 3 to 8) (size 9 to 14) (size 15 to 20)
#    0.000    2.500    0.000    2.625    0.000    6.500 
#    0.000    3.125    0.000    0.000    0.000    0.000 
#    0.000    0.000    0.000    0.000    0.000    0.000 
#
# Total GULP energy -356951.684643 kJ/mol
# GULP energy per Si atom -5577.370073 kJ/mol
# Density = 1.983618 g / cm^3
# Si number density = 19.881436 Si / 1000 Ang^3
#
#
#
# Elastic Constant Matrix: (Units=GPa)
#
#
# Indices 1 2 3 4 5 6 
#
# 1 43.2496 30.6636 3.2023 0.0000 0.0000 0.0000
# 2 30.6636 61.7393 12.7119 0.0000 0.0000 0.0000
# 3 3.2023 12.7119 40.9882 0.0000 0.0000 0.0000
# 4 0.0000 0.0000 0.0000 -4.0792 0.0000 0.0000
# 5 0.0000 0.0000 0.0000 0.0000 -21.4158 0.0000
# 6 0.0000 0.0000 0.0000 0.0000 0.0000 23.5577
#
#
#
# Elastic Compliance Matrix: (Units=1/GPa)
#
#
# Indices 1 2 3 4 5 6 
#
# 1 0.036013 -0.018488 0.002920 0.000000 0.000000 0.000000
# 2 -0.018488 0.026793 -0.006865 0.000000 0.000000 0.000000
# 3 0.002920 -0.006865 0.026298 0.000000 0.000000 0.000000
# 4 0.000000 0.000000 0.000000 -0.245146 0.000000 0.000000
# 5 0.000000 0.000000 0.000000 0.000000 -0.046694 0.000000
# 6 0.000000 0.000000 0.000000 0.000000 0.000000 0.042449
#
#
# Mechanical properties :
#
#
# Convention : Reuss Voigt Hill
#
# Bulk Modulus (GPa) = 22.60454 26.57029 24.58742
# Shear Modulus (GPa) = -49.66383 6.23917 -21.71233
#
# Velocity S-wave (km/s) = -5.00342 1.77341 -3.30826
# Velocity P-wave (km/s) = 4.68878 4.19365 1.48289
#
# Compressibility (1/GPa) = 0.04423890
#
# Stress axis : x y z
#
# Youngs Moduli (GPa) = 27.76782 37.32363 38.02544
#
# Poissons Ratio (x) = 0.69002 -0.11104
# Poissons Ratio (y) = 0.51336 0.26104
# Poissons Ratio (z) = -0.08108 0.25623
#
# Static dielectric constant tensor:
#      x y z
#    x 1.716780 0.000000 0.000000 
#    y 0.000000 1.685970 0.000000 
#    z 0.000000 0.000000 1.716660 
# 
# From -- ./inp_files/27632.got.cif
#   From: 2010.05.17/outbox.cif.g08.bks.cpg/sg62_14_cif.got.tgz:27632.got - 2010.06.03 15:25:27.
