data_PCOD9462683
_publ_section_title
;
Structure prediction by ZEFSAII (Michael W. Deem and Ramdas Pophale) SiO2 
 PCOD9462683
Probable space group: P N M A
;
_chemical_formula_sum "Si O2"
_cell_formula_units_Z 48
_cell_length_a 31.930079
_cell_length_b 9.504071
_cell_length_c 7.604996
_cell_angle_alpha 90.000000
_cell_angle_beta 90.000000
_cell_angle_gamma 90.000000
_cell_volume 2307.855722
_symmetry_space_group_name_H-M "P N M A"
_symmetry_group_IT_number 62
_symmetry_cell_setting 'orthorhombic'
loop_
_space_group_symop_operation_xyz
x,y,z
1/2-x,-y,1/2+z
1/2+x,1/2-y,1/2-z
-x,1/2+y,-z
-x,-y,-z
1/2+x,y,1/2-z
1/2-x,1/2+y,1/2+z
x,1/2-y,z
loop_
_atom_site_type_symbol
_atom_site_label
_atom_site_fract_x
_atom_site_fract_y
_atom_site_fract_z
Si Si1 0.040695 0.407941 0.538594
Si Si2 0.117499 0.907815 0.531185
Si Si3 0.200249 0.412673 0.931753
Si Si4 0.707255 0.912255 0.912157
Si Si5 0.541391 0.410670 0.538968
Si Si6 0.378404 0.412452 0.462612
O O1 0.035789 0.250000 0.470603
O O2 0.083009 0.481757 0.471766
O O3 0.044782 0.401925 0.749652
O O4 0.000000 0.500000 0.500000
O O5 0.103966 0.750000 0.483598
O O6 0.165447 0.929578 0.470646
O O7 0.119961 0.912844 0.746569
O O8 0.186974 0.250000 0.939992
O O9 0.203847 0.469011 0.734161
O O10 0.164758 0.511754 0.015338
O O11 0.247085 0.424439 0.005510
O O12 0.704079 0.750000 0.841531
O O13 0.500000 0.500000 0.500000
O O14 0.539215 0.250000 0.472284
O O15 0.581964 0.496806 0.475829
O O16 0.380387 0.250000 0.518155
#
# Coordination Sequence:
#
# PCOD9462683 Si02
#       6
#     8   8   8   8   8   8
#     4  10  20  33  51  75 100 128 164 203 245 294
#     4   8  15  30  50  69  94 129 165 201 241 288
#     4  10  19  32  52  76 101 132 169 207 248 296
#     4   9  19  34  51  74 102 131 165 205 249 296
#     4  10  20  34  53  77 102 131 168 207 248 296
#     4   9  17  31  51  73  99 133 168 203 246 296
#
# _framework density 20.798527
#
# number of rings (size 3 to 8) (size 9 to 14) (size 15 to 20)
#    0.000    2.667    0.000    3.000    0.000    7.333 
#    0.000    1.667    0.000    6.000    0.000    0.000 
#    0.000    0.000    0.000    0.000    0.000    0.000 
#
# Total GULP energy -267779.220488 kJ/mol
# GULP energy per Si atom -5578.733760 kJ/mol
# Density = 2.075119 g / cm^3
# Si number density = 20.798527 Si / 1000 Ang^3
#
#
#
# Elastic Constant Matrix: (Units=GPa)
#
#
# Indices 1 2 3 4 5 6 
#
# 1 180.7298 125.4508 0.1228 0.0000 0.0000 0.0000
# 2 125.4508 199.2739 13.4122 0.0000 0.0000 0.0000
# 3 0.1228 13.4122 27.0776 0.0000 0.0000 0.0000
# 4 0.0000 0.0000 0.0000 12.4429 0.0000 0.0000
# 5 0.0000 0.0000 0.0000 0.0000 18.9328 0.0000
# 6 0.0000 0.0000 0.0000 0.0000 0.0000 45.8238
#
#
#
# Elastic Compliance Matrix: (Units=1/GPa)
#
#
# Indices 1 2 3 4 5 6 
#
# 1 0.010090 -0.006568 0.003207 0.000000 0.000000 0.000000
# 2 -0.006568 0.009467 -0.004659 0.000000 0.000000 0.000000
# 3 0.003207 -0.004659 0.039224 0.000000 0.000000 0.000000
# 4 0.000000 0.000000 0.000000 0.080367 0.000000 0.000000
# 5 0.000000 0.000000 0.000000 0.000000 0.052818 0.000000
# 6 0.000000 0.000000 0.000000 0.000000 0.000000 0.021823
#
#
# Mechanical properties :
#
#
# Convention : Reuss Voigt Hill
#
# Bulk Modulus (GPa) = 23.39657 76.11701 49.75679
# Shear Modulus (GPa) = 20.48545 33.31291 26.89918
#
# Velocity S-wave (km/s) = 3.14179 4.00646 3.60018
# Velocity P-wave (km/s) = 4.94315 7.62096 6.42315
#
# Compressibility (1/GPa) = 0.04274131
#
# Stress axis : x y z
#
# Youngs Moduli (GPa) = 99.10843 105.63487 25.49452
#
# Poissons Ratio (x) = 0.69380 -0.08177
# Poissons Ratio (y) = 0.65094 0.11878
# Poissons Ratio (z) = -0.31789 0.49218
#
# Static dielectric constant tensor:
#      x y z
#    x 1.752190 0.000000 0.000000 
#    y 0.000000 1.724620 0.000000 
#    z 0.000000 0.000000 1.794930 
# 
# From -- ./inp_files/15390.got.cif
#   From: 2010.05.17/outbox.cif.g08.bks.cpg/sg62_8_cif.got.tgz:15390.got - 2010.06.03 15:25:27.
