data_PCOD9462318
_publ_section_title
;
Structure prediction by ZEFSAII (Michael W. Deem and Ramdas Pophale) SiO2 
 PCOD9462318
Probable space group: P N M A
;
_chemical_formula_sum "Si O2"
_cell_formula_units_Z 64
_cell_length_a 29.476090
_cell_length_b 7.411439
_cell_length_c 12.476093
_cell_angle_alpha 90.000000
_cell_angle_beta 90.000000
_cell_angle_gamma 90.000000
_cell_volume 2725.530308
_symmetry_space_group_name_H-M "P N M A"
_symmetry_group_IT_number 62
_symmetry_cell_setting 'orthorhombic'
loop_
_space_group_symop_operation_xyz
x,y,z
1/2-x,-y,1/2+z
1/2+x,1/2-y,1/2-z
-x,1/2+y,-z
-x,-y,-z
1/2+x,y,1/2-z
1/2-x,1/2+y,1/2+z
x,1/2-y,z
loop_
_atom_site_type_symbol
_atom_site_label
_atom_site_fract_x
_atom_site_fract_y
_atom_site_fract_z
Si Si1 0.017795 0.548640 0.290550
Si Si2 0.671432 0.458181 0.932665
Si Si3 0.612910 0.037938 0.118004
Si Si4 0.831492 0.529981 0.195760
Si Si5 0.730428 0.468883 0.498818
Si Si6 0.561535 0.467325 0.434234
Si Si7 0.843256 0.531980 0.837243
Si Si8 0.436071 0.529133 0.329016
O O1 0.010376 0.750000 0.331236
O O2 0.059199 0.473687 0.359935
O O3 0.037533 0.550312 0.168861
O O4 0.968642 0.464305 0.266832
O O5 0.658611 0.250000 0.911888
O O6 0.680792 0.533928 0.814920
O O7 0.632026 0.538305 0.007168
O O8 0.718214 0.466530 0.997419
O O9 0.623577 0.250000 0.116047
O O10 0.640270 0.963542 0.221391
O O11 0.829926 0.750000 0.189604
O O12 0.797872 0.469415 0.102307
O O13 0.883860 0.477621 0.180246
O O14 0.731236 0.250000 0.498372
O O15 0.702969 0.529818 0.392424
O O16 0.556272 0.250000 0.426120
O O17 0.615043 0.505431 0.417885
O O18 0.547567 0.528181 0.552386
O O19 0.840641 0.750000 0.829827
O O20 0.437801 0.750000 0.327781
#
# Coordination Sequence:
#
# PCOD9462318 Si02
#       8
#     8   8   8   8   8   8   8   8
#     4  10  19  29  48  79 107 133 173 224 264 296
#     4  10  22  37  55  77 102 133 174 221 257 298
#     4   9  19  36  53  70 101 143 177 205 251 315
#     4   9  18  35  56  78 103 134 176 214 252 308
#     4  10  19  33  56  79 101 134 170 208 259 315
#     4   9  15  28  49  72 104 142 173 202 249 316
#     4   8  14  27  49  72  93 129 170 195 231 303
#     4   9  16  29  51  76 104 139 177 214 256 310
#
# _framework density 23.481669
#
# number of rings (size 3 to 8) (size 9 to 14) (size 15 to 20)
#    0.000    2.750    1.250    1.500    1.750    0.500 
#    0.000    3.750    0.000    3.750    0.000    0.000 
#    0.000    0.000    0.000    0.000    0.000    0.000 
#
# Total GULP energy -357183.913328 kJ/mol
# GULP energy per Si atom -5580.998646 kJ/mol
# Density = 2.342822 g / cm^3
# Si number density = 23.481669 Si / 1000 Ang^3
#
#
#
# Elastic Constant Matrix: (Units=GPa)
#
#
# Indices 1 2 3 4 5 6 
#
# 1 65.0438 -15.4664 12.9839 0.0000 0.0000 0.0000
# 2 -15.4664 72.2050 -1.4172 0.0000 0.0000 0.0000
# 3 12.9839 -1.4172 61.1360 0.0000 0.0000 0.0000
# 4 0.0000 0.0000 0.0000 -3.5318 0.0000 0.0000
# 5 0.0000 0.0000 0.0000 0.0000 19.6130 0.0000
# 6 0.0000 0.0000 0.0000 0.0000 0.0000 10.7216
#
#
#
# Elastic Compliance Matrix: (Units=1/GPa)
#
#
# Indices 1 2 3 4 5 6 
#
# 1 0.016921 0.003556 -0.003511 0.000000 0.000000 0.000000
# 2 0.003556 0.014603 -0.000417 0.000000 0.000000 0.000000
# 3 -0.003511 -0.000417 0.017093 0.000000 0.000000 0.000000
# 4 0.000000 0.000000 0.000000 -0.283143 0.000000 0.000000
# 5 0.000000 0.000000 0.000000 0.000000 0.050987 0.000000
# 6 0.000000 0.000000 0.000000 0.000000 0.000000 0.093270
#
#
# Mechanical properties :
#
#
# Convention : Reuss Voigt Hill
#
# Bulk Modulus (GPa) = 20.88903 21.17615 21.03259
# Shear Modulus (GPa) = -67.96413 18.84620 -24.55897
#
# Velocity S-wave (km/s) = -5.38575 2.83608 -3.23751
# Velocity P-wave (km/s) = 5.45526 4.44547 2.23581
#
# Compressibility (1/GPa) = 0.04787201
#
# Stress axis : x y z
#
# Youngs Moduli (GPa) = 59.09963 68.47970 58.50348
#
# Poissons Ratio (x) = -0.24348 0.20541
# Poissons Ratio (y) = -0.21013 0.02437
# Poissons Ratio (z) = 0.20751 0.02853
#
# Static dielectric constant tensor:
#      x y z
#    x 1.891070 0.000000 0.000000 
#    y 0.000000 1.895500 0.000000 
#    z 0.000000 0.000000 1.887210 
# 
# From -- ./inp_files/15781.got.cif
#   From: 2010.05.17/outbox.cif.g08.bks.cpg/sg62_8_cif.got.tgz:15781.got - 2010.06.03 15:25:27.
