data_PCOD9462263
_publ_section_title
;
Structure prediction by ZEFSAII (Michael W. Deem and Ramdas Pophale) SiO2 
 PCOD9462263
Probable space group: P N M A
;
_chemical_formula_sum "Si O2"
_cell_formula_units_Z 40
_cell_length_a 20.208256
_cell_length_b 10.915084
_cell_length_c 7.021649
_cell_angle_alpha 90.000000
_cell_angle_beta 90.000000
_cell_angle_gamma 90.000000
_cell_volume 1548.798906
_symmetry_space_group_name_H-M "P N M A"
_symmetry_group_IT_number 62
_symmetry_cell_setting 'orthorhombic'
loop_
_space_group_symop_operation_xyz
x,y,z
1/2-x,-y,1/2+z
1/2+x,1/2-y,1/2-z
-x,1/2+y,-z
-x,-y,-z
1/2+x,y,1/2-z
1/2-x,1/2+y,1/2+z
x,1/2-y,z
loop_
_atom_site_type_symbol
_atom_site_label
_atom_site_fract_x
_atom_site_fract_y
_atom_site_fract_z
Si Si1 0.518019 0.250000 0.966202
Si Si2 0.375278 0.250000 0.977324
Si Si3 0.332175 0.978472 0.339795
Si Si4 0.030469 0.118576 0.905208
Si Si5 0.679814 0.512884 0.109322
Si Si6 0.312652 0.250000 0.376786
Si Si7 0.662390 0.250000 0.156220
O O1 0.515042 0.364681 0.819268
O O2 0.447821 0.250000 0.071752
O O3 0.588425 0.250000 0.068523
O O4 0.364312 0.130478 0.850996
O O5 0.319853 0.250000 0.144085
O O6 0.336847 0.980294 0.109618
O O7 0.342134 0.116969 0.420478
O O8 0.390526 0.893151 0.408156
O O9 0.256165 0.948264 0.379672
O O10 0.010419 0.250000 0.992769
O O11 0.000000 0.000000 0.000000
O O12 0.668476 0.390121 0.231029
O O13 0.236080 0.250000 0.446139
#
# Coordination Sequence:
#
# PCOD9462263 Si02
#       7
#     4   4   8   8   8   4   4
#     4  10  22  40  69  91 131 186 227 264 343 404
#     4  10  22  38  60  96 135 168 219 276 326 398
#     4  10  20  39  64  91 127 171 217 272 336 390
#     4  10  23  41  64  92 134 174 224 275 337 403
#     4  10  21  37  65  90 129 167 220 278 323 393
#     4   8  20  37  64  94 133 164 209 288 325 380
#     4  10  18  41  63  97 127 174 221 268 338 390
#
# _framework density 25.826464000000001
#
# number of rings (size 3 to 8) (size 9 to 14) (size 15 to 20)
#    0.600    1.600    2.000    0.000    2.800    2.400 
#    0.000    0.000    6.600    0.000    0.000    0.000 
#    0.000    0.000    0.000    0.000    0.000    0.000 
#
# Total GULP energy -223184.539539 kJ/mol
# GULP energy per Si atom -5579.613488 kJ/mol
# Density = 2.576768 g / cm^3
# Si number density = 25.826464 Si / 1000 Ang^3
#
#
#
# Elastic Constant Matrix: (Units=GPa)
#
#
# Indices 1 2 3 4 5 6 
#
# 1 140.2466 71.5365 27.1758 0.0000 0.0000 0.0000
# 2 71.5365 147.4680 -17.3560 0.0000 0.0000 0.0000
# 3 27.1758 -17.3560 73.2249 0.0000 0.0000 0.0000
# 4 0.0000 0.0000 0.0000 -4.8463 0.0000 0.0000
# 5 0.0000 0.0000 0.0000 0.0000 26.8267 0.0000
# 6 0.0000 0.0000 0.0000 0.0000 0.0000 31.0971
#
#
#
# Elastic Compliance Matrix: (Units=1/GPa)
#
#
# Indices 1 2 3 4 5 6 
#
# 1 0.011397 -0.006199 -0.005699 0.000000 0.000000 0.000000
# 2 -0.006199 0.010348 0.004753 0.000000 0.000000 0.000000
# 3 -0.005699 0.004753 0.016898 0.000000 0.000000 0.000000
# 4 0.000000 0.000000 0.000000 -0.206343 0.000000 0.000000
# 5 0.000000 0.000000 0.000000 0.000000 0.037276 0.000000
# 6 0.000000 0.000000 0.000000 0.000000 0.000000 0.032157
#
#
# Mechanical properties :
#
#
# Convention : Reuss Voigt Hill
#
# Bulk Modulus (GPa) = 41.06259 58.18356 49.62308
# Shear Modulus (GPa) = -65.91138 29.25438 -18.32850
#
# Velocity S-wave (km/s) = -5.05730 3.36926 -2.66687
# Velocity P-wave (km/s) = 4.26237 6.14112 3.12615
#
# Compressibility (1/GPa) = 0.02435307
#
# Stress axis : x y z
#
# Youngs Moduli (GPa) = 87.74475 96.63877 59.17763
#
# Poissons Ratio (x) = 0.59909 0.33725
# Poissons Ratio (y) = 0.54395 -0.28129
# Poissons Ratio (z) = 0.50006 -0.45936
#
# Static dielectric constant tensor:
#      x y z
#    x 1.950870 0.000000 0.000000 
#    y 0.000000 2.096050 0.000000 
#    z 0.000000 0.000000 2.077860 
# 
# From -- ./inp_files/8522.got.cif
#   From: 2010.05.17/outbox.cif.g08.bks.cpg/sg62_5_cif.got.tgz:8522.got - 2010.06.03 15:25:27.
