data_PCOD9462316
_publ_section_title
;
Structure prediction by ZEFSAII (Michael W. Deem and Ramdas Pophale) SiO2 
 PCOD9462316
Probable space group: P N M A
;
_chemical_formula_sum "Si O2"
_cell_formula_units_Z 56
_cell_length_a 5.263675
_cell_length_b 26.285516
_cell_length_c 18.650728
_cell_angle_alpha 90.000000
_cell_angle_beta 90.000000
_cell_angle_gamma 90.000000
_cell_volume 2580.485135
_symmetry_space_group_name_H-M "P N M A"
_symmetry_group_IT_number 62
_symmetry_cell_setting 'orthorhombic'
loop_
_space_group_symop_operation_xyz
x,y,z
1/2-x,-y,1/2+z
1/2+x,1/2-y,1/2-z
-x,1/2+y,-z
-x,-y,-z
1/2+x,y,1/2-z
1/2-x,1/2+y,1/2+z
x,1/2-y,z
loop_
_atom_site_type_symbol
_atom_site_label
_atom_site_fract_x
_atom_site_fract_y
_atom_site_fract_z
Si Si1 0.566543 0.555318 0.919994
Si Si2 0.182504 0.024966 0.941714
Si Si3 0.522289 0.131982 0.577216
Si Si4 0.210402 0.837974 0.562641
Si Si5 0.575417 0.325374 0.290359
Si Si6 0.598497 0.051195 0.291452
Si Si7 0.010979 0.307923 0.580705
O O1 0.335141 0.518868 0.901469
O O2 0.541350 0.615353 0.906199
O O3 0.806305 0.538472 0.871676
O O4 0.604378 0.550975 0.005573
O O5 0.050633 0.072663 0.903778
O O6 0.000000 0.000000 0.000000
O O7 0.256755 0.157883 0.594575
O O8 0.574310 0.137567 0.490559
O O9 0.756987 0.164358 0.609190
O O10 0.341943 0.811028 0.629140
O O11 0.042416 0.807674 0.505577
O O12 0.799719 0.309101 0.236546
O O13 0.574941 0.387274 0.290316
O O14 0.836816 0.033670 0.243203
O O15 0.040281 0.250000 0.605118
#
# Coordination Sequence:
#
# PCOD9462316 Si02
#       7
#     8   8   8   8   8   8   8
#     4   9  18  31  44  70  92 128 154 197 232 277
#     4  10  19  29  48  68 101 126 154 191 240 286
#     4   9  20  31  47  67  87 112 147 186 220 275
#     4   8  18  30  46  63  85 108 149 189 225 272
#     4   9  17  26  41  60  79 104 138 184 235 269
#     4   9  18  30  43  62  87 119 160 196 223 265
#     4  10  19  33  49  64  82 113 151 191 228 271
#
# _framework density 21.701346000000001
#
# number of rings (size 3 to 8) (size 9 to 14) (size 15 to 20)
#    0.857    2.000    0.000    1.286    6.000    0.000 
#    0.000    0.000    0.000    0.857    0.000    0.000 
#    0.000    0.000    0.000    0.000    0.000   14.286 
#
# Total GULP energy -312009.448507 kJ/mol
# GULP energy per Si atom -5571.597295 kJ/mol
# Density = 2.165195 g / cm^3
# Si number density = 21.701346 Si / 1000 Ang^3
#
#
#
# Elastic Constant Matrix: (Units=GPa)
#
#
# Indices 1 2 3 4 5 6 
#
# 1 90.1660 9.6798 1.1889 0.0000 0.0000 0.0000
# 2 9.6798 69.0558 -18.9606 0.0000 0.0000 0.0000
# 3 1.1889 -18.9606 27.2194 0.0000 0.0000 0.0000
# 4 0.0000 0.0000 0.0000 -2.2281 0.0000 0.0000
# 5 0.0000 0.0000 0.0000 0.0000 21.4676 0.0000
# 6 0.0000 0.0000 0.0000 0.0000 0.0000 -87.6999
#
#
#
# Elastic Compliance Matrix: (Units=1/GPa)
#
#
# Indices 1 2 3 4 5 6 
#
# 1 0.011346 -0.002135 -0.001983 0.000000 0.000000 0.000000
# 2 -0.002135 0.018307 0.012846 0.000000 0.000000 0.000000
# 3 -0.001983 0.012846 0.045773 0.000000 0.000000 0.000000
# 4 0.000000 0.000000 0.000000 -0.448822 0.000000 0.000000
# 5 0.000000 0.000000 0.000000 0.000000 0.046582 0.000000
# 6 0.000000 0.000000 0.000000 0.000000 0.000000 -0.011403
#
#
# Mechanical properties :
#
#
# Convention : Reuss Voigt Hill
#
# Bulk Modulus (GPa) = 10.76616 18.91750 14.84183
# Shear Modulus (GPa) = -15.39826 -0.72318 -8.06072
#
# Velocity S-wave (km/s) = -2.66663 -0.57790 -1.92937
# Velocity P-wave (km/s) = 2.12354 2.87938 1.37503
#
# Compressibility (1/GPa) = 0.09288366
#
# Stress axis : x y z
#
# Youngs Moduli (GPa) = 88.13700 54.62283 21.84677
#
# Poissons Ratio (x) = 0.11661 0.04331
# Poissons Ratio (y) = 0.18815 -0.28064
# Poissons Ratio (z) = 0.17474 -0.70168
#
# Static dielectric constant tensor:
#      x y z
#    x 1.843700 0.000000 0.000000 
#    y 0.000000 1.870880 0.000000 
#    z 0.000000 0.000000 1.810950 
# 
# From -- ./inp_files/28432.got.cif
#   From: 2010.05.17/outbox.cif.g08.bks.cpg/sg62_15_cif.got.tgz:28432.got - 2010.06.03 15:25:27.
