data_PCOD9462221
_publ_section_title
;
Structure prediction by ZEFSAII (Michael W. Deem and Ramdas Pophale) SiO2 
 PCOD9462221
Probable space group: P N M A
;
_chemical_formula_sum "Si O2"
_cell_formula_units_Z 64
_cell_length_a 17.193608
_cell_length_b 13.778408
_cell_length_c 11.770756
_cell_angle_alpha 90.000000
_cell_angle_beta 90.000000
_cell_angle_gamma 90.000000
_cell_volume 2788.498523
_symmetry_space_group_name_H-M "P N M A"
_symmetry_group_IT_number 62
_symmetry_cell_setting 'orthorhombic'
loop_
_space_group_symop_operation_xyz
x,y,z
1/2-x,-y,1/2+z
1/2+x,1/2-y,1/2-z
-x,1/2+y,-z
-x,-y,-z
1/2+x,y,1/2-z
1/2-x,1/2+y,1/2+z
x,1/2-y,z
loop_
_atom_site_type_symbol
_atom_site_label
_atom_site_fract_x
_atom_site_fract_y
_atom_site_fract_z
Si Si1 0.646403 0.868245 0.259024
Si Si2 0.996829 0.859215 0.637062
Si Si3 0.178600 0.639148 0.862201
Si Si4 0.162321 0.147413 0.504218
Si Si5 0.639164 0.564210 0.000102
Si Si6 0.253540 0.535806 0.656603
Si Si7 0.457972 0.367379 0.534885
Si Si8 0.421026 0.632231 0.638591
O O1 0.655684 0.750000 0.252925
O O2 0.571326 0.889801 0.338588
O O3 0.718079 0.923361 0.320604
O O4 0.637036 0.914476 0.133433
O O5 0.025811 0.750000 0.647732
O O6 0.912318 0.856159 0.578860
O O7 0.982538 0.896868 0.762922
O O8 0.058105 0.907970 0.554611
O O9 0.161432 0.750000 0.824726
O O10 0.259081 0.644556 0.932197
O O11 0.196600 0.568705 0.758688
O O12 0.111890 0.606288 0.948549
O O13 0.158436 0.250000 0.567861
O O14 0.156254 0.041885 0.557260
O O15 0.720096 0.601443 0.949837
O O16 0.339234 0.585579 0.668213
O O17 0.460580 0.250000 0.531270
O O18 0.539699 0.399128 0.480408
O O19 0.414474 0.750000 0.643523
#
# Coordination Sequence:
#
# PCOD9462221 Si02
#       8
#     8   8   8   8   8   8   8   8
#     4  11  25  44  62  89 134 177 215 265 326 392
#     4  10  20  37  64  99 131 164 212 273 333 382
#     4  10  18  36  65  96 121 156 216 273 319 370
#     4  10  20  38  64  91 124 161 207 271 324 374
#     4  12  24  40  66  98 132 173 220 268 330 398
#     4  12  24  38  65  99 129 170 217 272 330 383
#     4   9  20  38  65  89 123 176 216 255 317 390
#     4  10  20  39  65  97 131 165 217 276 325 380
#
# _framework density 22.951421
#
# number of rings (size 3 to 8) (size 9 to 14) (size 15 to 20)
#    0.000    1.500    2.500    2.625    0.000    5.000 
#    0.000    0.000    5.500    0.000    0.000    0.000 
#    0.000    0.000    0.000    0.000    0.000    0.000 
#
# Total GULP energy -356747.146825 kJ/mol
# GULP energy per Si atom -5574.174169 kJ/mol
# Density = 2.289918 g / cm^3
# Si number density = 22.951421 Si / 1000 Ang^3
#
#
#
# Elastic Constant Matrix: (Units=GPa)
#
#
# Indices 1 2 3 4 5 6 
#
# 1 114.6437 67.4524 81.5669 0.0000 0.0000 0.0000
# 2 67.4524 183.8086 100.9369 0.0000 0.0000 0.0000
# 3 81.5669 100.9369 172.1012 0.0000 0.0000 0.0000
# 4 0.0000 0.0000 0.0000 38.1618 0.0000 0.0000
# 5 0.0000 0.0000 0.0000 0.0000 58.0661 0.0000
# 6 0.0000 0.0000 0.0000 0.0000 0.0000 12.2019
#
#
#
# Elastic Compliance Matrix: (Units=1/GPa)
#
#
# Indices 1 2 3 4 5 6 
#
# 1 0.013718 -0.002159 -0.005235 0.000000 0.000000 0.000000
# 2 -0.002159 0.008365 -0.003883 0.000000 0.000000 0.000000
# 3 -0.005235 -0.003883 0.010569 0.000000 0.000000 0.000000
# 4 0.000000 0.000000 0.000000 0.026204 0.000000 0.000000
# 5 0.000000 0.000000 0.000000 0.000000 0.017222 0.000000
# 6 0.000000 0.000000 0.000000 0.000000 0.000000 0.081954
#
#
# Mechanical properties :
#
#
# Convention : Reuss Voigt Hill
#
# Bulk Modulus (GPa) = 99.03346 107.82956 103.43151
# Shear Modulus (GPa) = 27.18103 36.39244 31.78674
#
# Velocity S-wave (km/s) = 3.44508 3.98632 3.72554
# Velocity P-wave (km/s) = 7.68554 8.26264 7.97931
#
# Compressibility (1/GPa) = 0.01009760
#
# Stress axis : x y z
#
# Youngs Moduli (GPa) = 72.89803 119.54662 94.61727
#
# Poissons Ratio (x) = 0.25812 0.49534
# Poissons Ratio (y) = 0.15740 0.36737
# Poissons Ratio (z) = 0.38163 0.46416
#
# Static dielectric constant tensor:
#      x y z
#    x -0.237340 0.000000 0.000000 
#    y 0.000000 2.025380 0.000000 
#    z 0.000000 0.000000 1.656760 
# 
# From -- ./inp_files/14352.got.cif
#   From: 2010.05.17/outbox.cif.g08.bks.cpg/sg62_8_cif.got.tgz:14352.got - 2010.06.03 15:25:27.
