data_PCOD9462261
_publ_section_title
;
Structure prediction by ZEFSAII (Michael W. Deem and Ramdas Pophale) SiO2 
 PCOD9462261
Probable space group: P N M A
;
_chemical_formula_sum "Si O2"
_cell_formula_units_Z 48
_cell_length_a 10.705765
_cell_length_b 16.499876
_cell_length_c 11.318645
_cell_angle_alpha 90.000000
_cell_angle_beta 90.000000
_cell_angle_gamma 90.000000
_cell_volume 1999.368407
_symmetry_space_group_name_H-M "P N M A"
_symmetry_group_IT_number 62
_symmetry_cell_setting 'orthorhombic'
loop_
_space_group_symop_operation_xyz
x,y,z
1/2-x,-y,1/2+z
1/2+x,1/2-y,1/2-z
-x,1/2+y,-z
-x,-y,-z
1/2+x,y,1/2-z
1/2-x,1/2+y,1/2+z
x,1/2-y,z
loop_
_atom_site_type_symbol
_atom_site_label
_atom_site_fract_x
_atom_site_fract_y
_atom_site_fract_z
Si Si1 0.264798 0.250000 0.873712
Si Si2 0.466229 0.549195 0.883678
Si Si3 0.734634 0.910036 0.508259
Si Si4 0.354677 0.909772 0.490901
Si Si5 0.535294 0.250000 0.794447
Si Si6 0.470630 0.345603 0.314886
Si Si7 0.427666 0.086206 0.691737
O O1 0.214269 0.167747 0.935415
O O2 0.417006 0.250000 0.891061
O O3 0.184968 0.250000 0.746199
O O4 0.365680 0.611825 0.935737
O O5 0.557502 0.603023 0.803202
O O6 0.418103 0.481519 0.790818
O O7 0.500000 0.500000 0.000000
O O8 0.635569 0.864110 0.589146
O O9 0.702651 0.894530 0.372282
O O10 0.724842 0.008178 0.510995
O O11 0.406096 0.881534 0.618895
O O12 0.474290 0.936574 0.411104
O O13 0.488947 0.167331 0.737042
O O14 0.482835 0.250000 0.294942
#
# Coordination Sequence:
#
# PCOD9462261 Si02
#       7
#     4   8   8   8   4   8   8
#     4  10  20  34  62  98 130 178 230 282 346 418
#     4  12  27  43  67 103 139 174 231 295 354 415
#     4  11  23  40  73  95 131 189 228 279 358 424
#     4  10  18  40  71  94 126 180 240 273 338 424
#     4  10  22  36  62  94 134 172 218 294 338 418
#     4  11  23  45  71  99 138 183 237 291 346 427
#     4  10  21  42  65  94 133 177 227 282 346 420
#
# _framework density 24.007580999999998
#
# number of rings (size 3 to 8) (size 9 to 14) (size 15 to 20)
#    0.000    1.333    4.167    2.000    5.833    3.333 
#    1.500    0.000    0.000    0.000    0.000    0.000 
#    0.000    0.000    0.000    0.000    0.000    0.000 
#
# Total GULP energy -267423.066502 kJ/mol
# GULP energy per Si atom -5571.313885 kJ/mol
# Density = 2.395294 g / cm^3
# Si number density = 24.007581 Si / 1000 Ang^3
#
#
#
# Elastic Constant Matrix: (Units=GPa)
#
#
# Indices 1 2 3 4 5 6 
#
# 1 20.3482 4.6480 19.7461 0.0000 0.0000 0.0000
# 2 4.6480 117.0933 44.4981 0.0000 0.0000 0.0000
# 3 19.7461 44.4981 119.8160 0.0000 0.0000 0.0000
# 4 0.0000 0.0000 0.0000 60.4101 0.0000 0.0000
# 5 0.0000 0.0000 0.0000 0.0000 17.3240 0.0000
# 6 0.0000 0.0000 0.0000 0.0000 0.0000 32.8126
#
#
#
# Elastic Compliance Matrix: (Units=1/GPa)
#
#
# Indices 1 2 3 4 5 6 
#
# 1 0.058747 0.001569 -0.010264 0.000000 0.000000 0.000000
# 2 0.001569 0.009985 -0.003967 0.000000 0.000000 0.000000
# 3 -0.010264 -0.003967 0.011511 0.000000 0.000000 0.000000
# 4 0.000000 0.000000 0.000000 0.016554 0.000000 0.000000
# 5 0.000000 0.000000 0.000000 0.000000 0.057723 0.000000
# 6 0.000000 0.000000 0.000000 0.000000 0.000000 0.030476
#
#
# Mechanical properties :
#
#
# Convention : Reuss Voigt Hill
#
# Bulk Modulus (GPa) = 18.20899 43.89354 31.05126
# Shear Modulus (GPa) = 21.86967 34.66701 28.26834
#
# Velocity S-wave (km/s) = 3.02147 3.80413 3.43516
# Velocity P-wave (km/s) = 4.44674 6.13336 5.35684
#
# Compressibility (1/GPa) = 0.05491794
#
# Stress axis : x y z
#
# Youngs Moduli (GPa) = 17.02229 100.14532 86.87331
#
# Poissons Ratio (x) = -0.15710 0.89169
# Poissons Ratio (y) = -0.02670 0.34463
# Poissons Ratio (z) = 0.17472 0.39728
#
# Static dielectric constant tensor:
#      x y z
#    x 2.118550 0.000000 0.000000 
#    y 0.000000 2.031480 0.000000 
#    z 0.000000 0.000000 2.009650 
# 
# From -- ./inp_files/12293.got.cif
#   From: 2010.05.17/outbox.cif.g08.bks.cpg/sg62_7_cif.got.tgz:12293.got - 2010.06.03 15:25:27.
