data_PCOD9462899
_publ_section_title
;
Structure prediction by ZEFSAII (Michael W. Deem and Ramdas Pophale) SiO2 
 PCOD9462899
Probable space group: P N M A
;
_chemical_formula_sum "Si O2"
_cell_formula_units_Z 56
_cell_length_a 16.234299
_cell_length_b 17.221747
_cell_length_c 9.791042
_cell_angle_alpha 90.000000
_cell_angle_beta 90.000000
_cell_angle_gamma 90.000000
_cell_volume 2737.408799
_symmetry_space_group_name_H-M "P N M A"
_symmetry_group_IT_number 62
_symmetry_cell_setting 'orthorhombic'
loop_
_space_group_symop_operation_xyz
x,y,z
1/2-x,-y,1/2+z
1/2+x,1/2-y,1/2-z
-x,1/2+y,-z
-x,-y,-z
1/2+x,y,1/2-z
1/2-x,1/2+y,1/2+z
x,1/2-y,z
loop_
_atom_site_type_symbol
_atom_site_label
_atom_site_fract_x
_atom_site_fract_y
_atom_site_fract_z
Si Si1 0.545952 0.660257 0.684251
Si Si2 0.562685 0.428250 0.519667
Si Si3 0.733879 0.493549 0.417506
Si Si4 0.174277 0.835303 0.056000
Si Si5 0.344774 0.522200 0.850830
Si Si6 0.460491 0.114830 0.760718
Si Si7 0.007086 0.410038 0.451964
O O1 0.537817 0.750000 0.722577
O O2 0.468554 0.633663 0.591547
O O3 0.624837 0.652212 0.585756
O O4 0.547174 0.609514 0.820648
O O5 0.500000 0.500000 0.500000
O O6 0.654013 0.457092 0.491896
O O7 0.542124 0.397231 0.670476
O O8 0.727357 0.587792 0.417960
O O9 0.726535 0.464753 0.261279
O O10 0.810176 0.477843 0.516659
O O11 0.214128 0.750000 0.054598
O O12 0.102911 0.835197 0.172143
O O13 0.409750 0.466465 0.772993
O O14 0.398133 0.595109 0.901192
O O15 0.483162 0.138070 0.914043
O O16 0.000000 0.500000 0.500000
#
# Coordination Sequence:
#
# PCOD9462899 Si02
#       7
#     8   8   8   8   8   8   8
#     4  10  19  33  56  83 110 142 181 229 278 331
#     4  11  16  35  59  78 104 143 190 229 275 328
#     4  11  21  33  56  79 111 145 191 231 278 331
#     4   9  19  35  56  80 106 143 187 225 277 338
#     4  10  21  33  49  85 108 143 185 232 273 332
#     4   9  19  32  55  81 109 138 181 236 276 320
#     4  10  19  33  53  82 116 139 180 231 278 322
#
# _framework density 20.457301999999999
#
# number of rings (size 3 to 8) (size 9 to 14) (size 15 to 20)
#    0.000    2.000    5.714    0.857    2.000    1.714 
#    0.000    0.714    0.000    3.429    0.000    0.000 
#    0.000    0.000    0.000    0.000    0.000    0.000 
#
# Total GULP energy -312020.083276 kJ/mol
# GULP energy per Si atom -5571.787201 kJ/mol
# Density = 2.041074 g / cm^3
# Si number density = 20.457302 Si / 1000 Ang^3
#
#
#
# Elastic Constant Matrix: (Units=GPa)
#
#
# Indices 1 2 3 4 5 6 
#
# 1 28.9217 -2.9440 17.4111 0.0000 0.0000 0.0000
# 2 -2.9440 61.4159 8.9279 0.0000 0.0000 0.0000
# 3 17.4111 8.9279 154.3897 0.0000 0.0000 0.0000
# 4 0.0000 0.0000 0.0000 12.8858 0.0000 0.0000
# 5 0.0000 0.0000 0.0000 0.0000 27.4670 0.0000
# 6 0.0000 0.0000 0.0000 0.0000 0.0000 11.8961
#
#
#
# Elastic Compliance Matrix: (Units=1/GPa)
#
#
# Indices 1 2 3 4 5 6 
#
# 1 0.037451 0.002430 -0.004364 0.000000 0.000000 0.000000
# 2 0.002430 0.016578 -0.001233 0.000000 0.000000 0.000000
# 3 -0.004364 -0.001233 0.007041 0.000000 0.000000 0.000000
# 4 0.000000 0.000000 0.000000 0.077605 0.000000 0.000000
# 5 0.000000 0.000000 0.000000 0.000000 0.036407 0.000000
# 6 0.000000 0.000000 0.000000 0.000000 0.000000 0.084061
#
#
# Mechanical properties :
#
#
# Convention : Reuss Voigt Hill
#
# Bulk Modulus (GPa) = 18.26980 32.39083 25.33031
# Shear Modulus (GPa) = 17.62291 25.20526 21.41408
#
# Velocity S-wave (km/s) = 2.93823 3.51392 3.23889
# Velocity P-wave (km/s) = 4.52338 5.68606 5.13772
#
# Compressibility (1/GPa) = 0.05473515
#
# Stress axis : x y z
#
# Youngs Moduli (GPa) = 26.70185 60.32063 142.03469
#
# Poissons Ratio (x) = -0.14655 0.61983
# Poissons Ratio (y) = -0.06487 0.17508
# Poissons Ratio (z) = 0.11653 0.07435
#
# Static dielectric constant tensor:
#      x y z
#    x 1.796010 0.000000 0.000000 
#    y 0.000000 1.746360 0.000000 
#    z 0.000000 0.000000 1.807220 
# 
# From -- ./inp_files/8044.got.cif
#   From: 2010.05.17/outbox.cif.g08.bks.cpg/sg62_5_cif.got.tgz:8044.got - 2010.06.03 15:25:27.
