data_PCOD9462811
_publ_section_title
;
Structure prediction by ZEFSAII (Michael W. Deem and Ramdas Pophale) SiO2 
 PCOD9462811
Probable space group: P N M A
;
_chemical_formula_sum "Si O2"
_cell_formula_units_Z 48
_cell_length_a 15.088597
_cell_length_b 19.782719
_cell_length_c 9.050996
_cell_angle_alpha 90.000000
_cell_angle_beta 90.000000
_cell_angle_gamma 90.000000
_cell_volume 2701.663244
_symmetry_space_group_name_H-M "P N M A"
_symmetry_group_IT_number 62
_symmetry_cell_setting 'orthorhombic'
loop_
_space_group_symop_operation_xyz
x,y,z
1/2-x,-y,1/2+z
1/2+x,1/2-y,1/2-z
-x,1/2+y,-z
-x,-y,-z
1/2+x,y,1/2-z
1/2-x,1/2+y,1/2+z
x,1/2-y,z
loop_
_atom_site_type_symbol
_atom_site_label
_atom_site_fract_x
_atom_site_fract_y
_atom_site_fract_z
Si Si1 0.287931 0.042962 0.369845
Si Si2 0.058069 0.928109 0.361534
Si Si3 0.595542 0.415557 0.076866
Si Si4 0.104048 0.329718 0.131163
Si Si5 0.235873 0.585191 0.536226
Si Si6 0.036788 0.576483 0.020995
O O1 0.200566 0.075242 0.445233
O O2 0.278044 0.047759 0.193716
O O3 0.376266 0.079875 0.419894
O O4 0.288126 0.966277 0.428744
O O5 0.141585 0.902559 0.458135
O O6 0.062867 0.911061 0.190276
O O7 0.966850 0.903711 0.436534
O O8 0.063681 0.010280 0.366686
O O9 0.587197 0.360647 0.205635
O O10 0.093112 0.250000 0.128656
O O11 0.202070 0.351930 0.076674
O O12 0.035155 0.369568 0.029132
O O13 0.000000 0.500000 0.000000
#
# Coordination Sequence:
#
# PCOD9462811 Si02
#       6
#     8   8   8   8   8   8
#     4  10  19  32  57  85 118 147 204 251 298 332
#     4  10  20  34  62  88 116 146 204 259 298 338
#     4   9  19  36  57  88 115 154 198 251 295 352
#     4  11  23  40  58  85 124 163 195 243 315 371
#     4  10  20  35  58  88 115 156 198 256 298 357
#     4  12  21  35  58  91 122 157 200 252 300 360
#
# _framework density 17.766832999999998
#
# number of rings (size 3 to 8) (size 9 to 14) (size 15 to 20)
#    0.000    1.667    3.333    3.000    4.667    1.333 
#    0.000    9.167    0.000    0.000    0.000    0.000 
#    0.000    0.000    0.000    0.000    0.000    0.000 
#
# Total GULP energy -267819.706129 kJ/mol
# GULP energy per Si atom -5579.577211 kJ/mol
# Density = 1.772639 g / cm^3
# Si number density = 17.766833 Si / 1000 Ang^3
#
#
#
# Elastic Constant Matrix: (Units=GPa)
#
#
# Indices 1 2 3 4 5 6 
#
# 1 84.8530 42.2872 39.6165 0.0000 0.0000 0.0000
# 2 42.2872 100.6189 39.0169 0.0000 0.0000 0.0000
# 3 39.6165 39.0169 71.4471 0.0000 0.0000 0.0000
# 4 0.0000 0.0000 0.0000 15.8936 0.0000 0.0000
# 5 0.0000 0.0000 0.0000 0.0000 30.8755 0.0000
# 6 0.0000 0.0000 0.0000 0.0000 0.0000 15.3351
#
#
#
# Elastic Compliance Matrix: (Units=1/GPa)
#
#
# Indices 1 2 3 4 5 6 
#
# 1 0.017389 -0.004528 -0.007169 0.000000 0.000000 0.000000
# 2 -0.004528 0.013788 -0.005019 0.000000 0.000000 0.000000
# 3 -0.007169 -0.005019 0.020712 0.000000 0.000000 0.000000
# 4 0.000000 0.000000 0.000000 0.062919 0.000000 0.000000
# 5 0.000000 0.000000 0.000000 0.000000 0.032388 0.000000
# 6 0.000000 0.000000 0.000000 0.000000 0.000000 0.065210
#
#
# Mechanical properties :
#
#
# Convention : Reuss Voigt Hill
#
# Bulk Modulus (GPa) = 54.17986 55.41782 54.79884
# Shear Modulus (GPa) = 19.84212 21.48738 20.66475
#
# Velocity S-wave (km/s) = 3.34549 3.48143 3.41414
# Velocity P-wave (km/s) = 6.74420 6.88621 6.81558
#
# Compressibility (1/GPa) = 0.01845704
#
# Stress axis : x y z
#
# Youngs Moduli (GPa) = 57.50819 72.52921 48.28076
#
# Poissons Ratio (x) = 0.32842 0.34613
# Poissons Ratio (y) = 0.26040 0.24230
# Poissons Ratio (z) = 0.41228 0.36399
#
# Static dielectric constant tensor:
#      x y z
#    x 1.644200 0.000000 0.000000 
#    y 0.000000 1.571300 0.000000 
#    z 0.000000 0.000000 1.616640 
# 
# From -- ./inp_files/6426.got.cif
#   From: 2010.05.17/outbox.cif.g08.bks.cpg/sg62_4_cif.got.tgz:6426.got - 2010.06.03 15:25:27.
