data_PCOD9462237
_publ_section_title
;
Structure prediction by ZEFSAII (Michael W. Deem and Ramdas Pophale) SiO2 
 PCOD9462237
Probable space group: P N M A
;
_chemical_formula_sum "Si O2"
_cell_formula_units_Z 64
_cell_length_a 15.234409
_cell_length_b 19.245675
_cell_length_c 11.143426
_cell_angle_alpha 90.000000
_cell_angle_beta 90.000000
_cell_angle_gamma 90.000000
_cell_volume 3267.213328
_symmetry_space_group_name_H-M "P N M A"
_symmetry_group_IT_number 62
_symmetry_cell_setting 'orthorhombic'
loop_
_space_group_symop_operation_xyz
x,y,z
1/2-x,-y,1/2+z
1/2+x,1/2-y,1/2-z
-x,1/2+y,-z
-x,-y,-z
1/2+x,y,1/2-z
1/2-x,1/2+y,1/2+z
x,1/2-y,z
loop_
_atom_site_type_symbol
_atom_site_label
_atom_site_fract_x
_atom_site_fract_y
_atom_site_fract_z
Si Si1 0.706552 0.440788 0.254870
Si Si2 0.171358 0.668901 0.647776
Si Si3 0.426405 0.948562 0.549160
Si Si4 0.194642 0.075763 0.821674
Si Si5 0.870738 0.672387 0.601207
Si Si6 0.938248 0.831061 0.329531
Si Si7 0.013251 0.671802 0.815682
Si Si8 0.364509 0.168323 0.873347
O O1 0.746742 0.381326 0.340351
O O2 0.621796 0.469619 0.326049
O O3 0.774047 0.502432 0.232189
O O4 0.685013 0.395890 0.135482
O O5 0.195466 0.750000 0.659221
O O6 0.104447 0.650179 0.754280
O O7 0.127709 0.661025 0.517776
O O8 0.353308 0.938404 0.447553
O O9 0.476346 0.877781 0.583229
O O10 0.500000 0.000000 0.500000
O O11 0.125215 0.117853 0.741585
O O12 0.282576 0.121938 0.834760
O O13 0.827558 0.750000 0.606280
O O14 0.912410 0.665903 0.470147
O O15 0.944616 0.672841 0.704863
O O16 0.927227 0.750000 0.292267
O O17 0.041086 0.849671 0.317638
O O18 0.022728 0.750000 0.860821
O O19 0.347124 0.250000 0.849032
#
# Coordination Sequence:
#
# PCOD9462237 Si02
#       8
#     8   8   8   8   8   8   8   8
#     4  11  24  39  61  90 126 167 213 265 314 375
#     4  10  18  37  65  94 120 151 205 266 316 369
#     4  11  25  43  58  87 132 174 209 260 318 381
#     4  12  26  41  64  91 131 174 214 255 317 386
#     4   9  18  37  63  91 118 155 204 259 317 372
#     4  10  22  42  67  92 124 164 207 262 319 379
#     4   9  18  36  65  93 115 150 205 261 319 374
#     4  10  21  41  66  93 124 160 214 265 310 378
#
# _framework density 19.588557999999999
#
# number of rings (size 3 to 8) (size 9 to 14) (size 15 to 20)
#    0.000    1.750    2.500    1.500    3.500    1.500 
#    0.000    1.250    0.000    0.000    0.000    0.000 
#    0.000    0.000    0.000    0.000    0.000    0.000 
#
# Total GULP energy -357137.186367 kJ/mol
# GULP energy per Si atom -5580.268537 kJ/mol
# Density = 1.954397 g / cm^3
# Si number density = 19.588558 Si / 1000 Ang^3
#
#
#
# Elastic Constant Matrix: (Units=GPa)
#
#
# Indices 1 2 3 4 5 6 
#
# 1 101.7140 57.9311 23.5084 0.0000 0.0000 0.0000
# 2 57.9311 68.9075 24.5422 0.0000 0.0000 0.0000
# 3 23.5084 24.5422 40.3203 0.0000 0.0000 0.0000
# 4 0.0000 0.0000 0.0000 13.5020 0.0000 0.0000
# 5 0.0000 0.0000 0.0000 0.0000 36.7722 0.0000
# 6 0.0000 0.0000 0.0000 0.0000 0.0000 38.0693
#
#
#
# Elastic Compliance Matrix: (Units=1/GPa)
#
#
# Indices 1 2 3 4 5 6 
#
# 1 0.018958 -0.015323 -0.001726 0.000000 0.000000 0.000000
# 2 -0.015323 0.030914 -0.009883 0.000000 0.000000 0.000000
# 3 -0.001726 -0.009883 0.031824 0.000000 0.000000 0.000000
# 4 0.000000 0.000000 0.000000 0.074063 0.000000 0.000000
# 5 0.000000 0.000000 0.000000 0.000000 0.027194 0.000000
# 6 0.000000 0.000000 0.000000 0.000000 0.000000 0.026268
#
#
# Mechanical properties :
#
#
# Convention : Reuss Voigt Hill
#
# Bulk Modulus (GPa) = 35.93130 46.98948 41.46039
# Shear Modulus (GPa) = 18.35785 24.66603 21.51194
#
# Velocity S-wave (km/s) = 3.06465 3.55238 3.31749
# Velocity P-wave (km/s) = 5.55928 6.39267 5.99048
#
# Compressibility (1/GPa) = 0.02783089
#
# Stress axis : x y z
#
# Youngs Moduli (GPa) = 52.74895 32.34734 31.42329
#
# Poissons Ratio (x) = 0.49566 0.05425
# Poissons Ratio (y) = 0.80828 0.31056
# Poissons Ratio (z) = 0.09106 0.31969
#
# Static dielectric constant tensor:
#      x y z
#    x 1.707560 0.000000 0.000000 
#    y 0.000000 1.701280 0.000000 
#    z 0.000000 0.000000 1.672390 
# 
# From -- ./inp_files/13583.got.cif
#   From: 2010.05.17/outbox.cif.g08.bks.cpg/sg62_7_cif.got.tgz:13583.got - 2010.06.03 15:25:27.
