data_PCOD9462119
_publ_section_title
;
Structure prediction by ZEFSAII (Michael W. Deem and Ramdas Pophale) SiO2 
 PCOD9462119
Probable space group: P N M A
;
_chemical_formula_sum "Si O2"
_cell_formula_units_Z 44
_cell_length_a 4.987820
_cell_length_b 17.125089
_cell_length_c 26.376037
_cell_angle_alpha 90.000000
_cell_angle_beta 90.000000
_cell_angle_gamma 90.000000
_cell_volume 2252.958297
_symmetry_space_group_name_H-M "P N M A"
_symmetry_group_IT_number 62
_symmetry_cell_setting 'orthorhombic'
loop_
_space_group_symop_operation_xyz
x,y,z
1/2-x,-y,1/2+z
1/2+x,1/2-y,1/2-z
-x,1/2+y,-z
-x,-y,-z
1/2+x,y,1/2-z
1/2-x,1/2+y,1/2+z
x,1/2-y,z
loop_
_atom_site_type_symbol
_atom_site_label
_atom_site_fract_x
_atom_site_fract_y
_atom_site_fract_z
Si Si1 0.075738 0.507122 0.388053
Si Si2 0.069291 0.414574 0.085227
Si Si3 0.163882 0.250000 0.480948
Si Si4 0.597660 0.588889 0.014019
Si Si5 0.767222 0.419743 0.714576
Si Si6 0.111981 0.750000 0.282960
Si Si7 0.671562 0.250000 0.412417
O O1 0.262969 0.437624 0.408983
O O2 0.145849 0.578156 0.426142
O O3 0.160155 0.523660 0.330949
O O4 0.767024 0.481171 0.393202
O O5 0.119431 0.332725 0.113140
O O6 0.160373 0.404206 0.026495
O O7 0.081214 0.332494 0.507299
O O8 0.974477 0.250000 0.431465
O O9 0.465655 0.250000 0.460546
O O10 0.500000 0.500000 0.000000
O O11 0.474763 0.427796 0.738688
O O12 0.811328 0.331978 0.692856
O O13 0.300393 0.750000 0.232295
#
# Coordination Sequence:
#
# PCOD9462119 Si02
#       7
#     8   8   4   8   8   4   4
#     4  11  21  33  54  79 104 139 174 213 271 312
#     4  10  20  34  53  79 105 139 174 212 260 314
#     4  10  20  31  50  76 104 148 178 206 259 300
#     4   9  19  34  51  75 111 140 173 216 255 310
#     4  10  20  36  54  76 104 136 177 222 260 310
#     4   8  16  31  52  71  96 134 170 208 256 296
#     4  10  18  34  52  73 106 138 176 210 243 312
#
# _framework density 19.529879000000001
#
# number of rings (size 3 to 8) (size 9 to 14) (size 15 to 20)
#    0.000    2.182    0.000    4.909    0.000    5.091 
#    0.000    0.000    0.000   12.000    0.000   12.727 
#    0.000    0.000    0.000    0.000    0.000    0.000 
#
# Total GULP energy -244946.983852 kJ/mol
# GULP energy per Si atom -5566.976906 kJ/mol
# Density = 1.948543 g / cm^3
# Si number density = 19.529879 Si / 1000 Ang^3
#
#
#
# Elastic Constant Matrix: (Units=GPa)
#
#
# Indices 1 2 3 4 5 6 
#
# 1 46.3122 5.2784 -3.6050 0.0000 0.0000 0.0000
# 2 5.2784 89.6972 16.0017 0.0000 0.0000 0.0000
# 3 -3.6050 16.0017 44.1731 0.0000 0.0000 0.0000
# 4 0.0000 0.0000 0.0000 11.4112 0.0000 0.0000
# 5 0.0000 0.0000 0.0000 0.0000 13.5272 0.0000
# 6 0.0000 0.0000 0.0000 0.0000 0.0000 29.9659
#
#
#
# Elastic Compliance Matrix: (Units=1/GPa)
#
#
# Indices 1 2 3 4 5 6 
#
# 1 0.021977 -0.001725 0.002418 0.000000 0.000000 0.000000
# 2 -0.001725 0.012054 -0.004507 0.000000 0.000000 0.000000
# 3 0.002418 -0.004507 0.024468 0.000000 0.000000 0.000000
# 4 0.000000 0.000000 0.000000 0.087633 0.000000 0.000000
# 5 0.000000 0.000000 0.000000 0.000000 0.073925 0.000000
# 6 0.000000 0.000000 0.000000 0.000000 0.000000 0.033371
#
#
# Mechanical properties :
#
#
# Convention : Reuss Voigt Hill
#
# Bulk Modulus (GPa) = 19.65698 23.94807 21.80252
# Shear Modulus (GPa) = 17.98465 21.81469 19.89967
#
# Velocity S-wave (km/s) = 3.03789 3.34577 3.19554
# Velocity P-wave (km/s) = 4.73202 5.21675 4.98028
#
# Compressibility (1/GPa) = 0.05087253
#
# Stress axis : x y z
#
# Youngs Moduli (GPa) = 45.50130 82.95847 40.86902
#
# Poissons Ratio (x) = 0.14308 -0.09884
# Poissons Ratio (y) = 0.07848 0.18421
# Poissons Ratio (z) = -0.11004 0.37393
#
# Static dielectric constant tensor:
#      x y z
#    x 1.690230 0.000000 0.000000 
#    y 0.000000 1.777340 0.000000 
#    z 0.000000 0.000000 1.681360 
# 
# From -- ./inp_files/30382.got.cif
#   From: 2010.05.17/outbox.cif.g08.bks.cpg/sg62_16_cif.got.tgz:30382.got - 2010.06.03 15:25:27.
