data_PCOD9462602
_publ_section_title
;
Structure prediction by ZEFSAII (Michael W. Deem and Ramdas Pophale) SiO2 
 PCOD9462602
Probable space group: P N M A
;
_chemical_formula_sum "Si O2"
_cell_formula_units_Z 48
_cell_length_a 7.828746
_cell_length_b 15.931588
_cell_length_c 17.211216
_cell_angle_alpha 90.000000
_cell_angle_beta 90.000000
_cell_angle_gamma 90.000000
_cell_volume 2146.657829
_symmetry_space_group_name_H-M "P N M A"
_symmetry_group_IT_number 62
_symmetry_cell_setting 'orthorhombic'
loop_
_space_group_symop_operation_xyz
x,y,z
1/2-x,-y,1/2+z
1/2+x,1/2-y,1/2-z
-x,1/2+y,-z
-x,-y,-z
1/2+x,y,1/2-z
1/2-x,1/2+y,1/2+z
x,1/2-y,z
loop_
_atom_site_type_symbol
_atom_site_label
_atom_site_fract_x
_atom_site_fract_y
_atom_site_fract_z
Si Si1 0.980792 0.250000 0.285319
Si Si2 0.728766 0.596846 0.460982
Si Si3 0.724157 0.091764 0.462480
Si Si4 0.092940 0.405858 0.377278
Si Si5 0.096460 0.594384 0.375641
Si Si6 0.114824 0.250000 0.126086
Si Si7 0.726301 0.750000 0.215058
Si Si8 0.416197 0.250000 0.625633
O O1 0.080703 0.332706 0.314733
O O2 0.973875 0.250000 0.192709
O O3 0.796301 0.250000 0.326849
O O4 0.657991 0.502685 0.451187
O O5 0.777993 0.609850 0.551302
O O6 0.610396 0.668136 0.426357
O O7 0.908300 0.600696 0.413617
O O8 0.773649 0.105744 0.552103
O O9 0.616796 0.166655 0.425852
O O10 0.907328 0.092710 0.418670
O O11 0.121778 0.499526 0.345024
O O12 0.130460 0.666294 0.313872
O O13 0.728800 0.750000 0.307566
O O14 0.908279 0.750000 0.172761
#
# Coordination Sequence:
#
# PCOD9462602 Si02
#       8
#     4   8   8   8   8   4   4   4
#     4  10  19  32  48  74 108 140 169 202 246 304
#     4   9  17  35  60  82 101 131 174 220 264 314
#     4   8  16  32  58  83 104 133 172 213 260 313
#     4   8  16  32  58  83 104 133 172 213 260 313
#     4   9  17  35  60  82 101 131 174 220 264 314
#     4  10  19  32  48  74 108 140 169 202 246 304
#     4  12  25  38  52  76 108 144 179 220 270 318
#     4  12  25  38  52  76 108 144 179 220 270 318
#
# _framework density 22.360340000000001
#
# number of rings (size 3 to 8) (size 9 to 14) (size 15 to 20)
#    0.000    2.667    0.000    4.500    0.000    4.000 
#    0.000   11.667    0.000    0.000    0.000    0.000 
#    0.000    0.000    0.000    0.000    0.000    0.000 
#
# Total GULP energy -268458.159160 kJ/mol
# GULP energy per Si atom -5592.878316 kJ/mol
# Density = 2.230945 g / cm^3
# Si number density = 22.360340 Si / 1000 Ang^3
#
#
#
# Elastic Constant Matrix: (Units=GPa)
#
#
# Indices 1 2 3 4 5 6 
#
# 1 91.0075 41.6408 17.5638 0.0000 0.0000 0.0000
# 2 41.6408 132.1961 60.8569 0.0000 0.0000 0.0000
# 3 17.5638 60.8569 65.0365 0.0000 0.0000 0.0000
# 4 0.0000 0.0000 0.0000 -0.3598 0.0000 0.0000
# 5 0.0000 0.0000 0.0000 0.0000 34.3981 0.0000
# 6 0.0000 0.0000 0.0000 0.0000 0.0000 -72.7366
#
#
#
# Elastic Compliance Matrix: (Units=1/GPa)
#
#
# Indices 1 2 3 4 5 6 
#
# 1 0.012850 -0.004304 0.000557 0.000000 0.000000 0.000000
# 2 -0.004304 0.014731 -0.012622 0.000000 0.000000 0.000000
# 3 0.000557 -0.012622 0.027036 0.000000 0.000000 0.000000
# 4 0.000000 0.000000 0.000000 -2.779657 0.000000 0.000000
# 5 0.000000 0.000000 0.000000 0.000000 0.029071 0.000000
# 6 0.000000 0.000000 0.000000 0.000000 0.000000 -0.013748
#
#
# Mechanical properties :
#
#
# Convention : Reuss Voigt Hill
#
# Bulk Modulus (GPa) = 45.70466 58.70700 52.20583
# Shear Modulus (GPa) = -1.87288 3.47227 0.79970
#
# Velocity S-wave (km/s) = -0.91619 1.24749 0.59868
# Velocity P-wave (km/s) = 4.40059 5.32794 4.88632
#
# Compressibility (1/GPa) = 0.02187961
#
# Stress axis : x y z
#
# Youngs Moduli (GPa) = 77.82137 67.88535 36.98774
#
# Poissons Ratio (x) = 0.29219 -0.02061
# Poissons Ratio (y) = 0.33496 0.46685
# Poissons Ratio (z) = -0.04337 0.85682
#
# Static dielectric constant tensor:
#      x y z
#    x 1.870260 0.000000 0.000000 
#    y 0.000000 1.796450 0.000000 
#    z 0.000000 0.000000 1.755760 
# 
# From -- ./inp_files/22377.got.cif
#   From: 2010.05.17/outbox.cif.g08.bks.cpg/sg62_12_cif.got.tgz:22377.got - 2010.06.03 15:25:27.
