data_PCOD9462700
_publ_section_title
;
Structure prediction by ZEFSAII (Michael W. Deem and Ramdas Pophale) SiO2 
 PCOD9462700
Probable space group: P N M A
;
_chemical_formula_sum "Si O2"
_cell_formula_units_Z 40
_cell_length_a 9.833793
_cell_length_b 9.213181
_cell_length_c 25.987915
_cell_angle_alpha 90.000000
_cell_angle_beta 90.000000
_cell_angle_gamma 90.000000
_cell_volume 2354.518478
_symmetry_space_group_name_H-M "P N M A"
_symmetry_group_IT_number 62
_symmetry_cell_setting 'orthorhombic'
loop_
_space_group_symop_operation_xyz
x,y,z
1/2-x,-y,1/2+z
1/2+x,1/2-y,1/2-z
-x,1/2+y,-z
-x,-y,-z
1/2+x,y,1/2-z
1/2-x,1/2+y,1/2+z
x,1/2-y,z
loop_
_atom_site_type_symbol
_atom_site_label
_atom_site_fract_x
_atom_site_fract_y
_atom_site_fract_z
Si Si1 0.022082 0.924169 0.336377
Si Si2 0.280706 0.422478 0.630089
Si Si3 0.981702 0.922670 0.945639
Si Si4 0.705335 0.577748 0.641112
Si Si5 0.497404 0.577606 0.283448
O O1 0.040890 0.750000 0.339673
O O2 0.875995 0.960005 0.360670
O O3 0.017927 0.962639 0.275756
O O4 0.147952 0.004705 0.362091
O O5 0.290209 0.250000 0.618967
O O6 0.354049 0.511766 0.585400
O O7 0.367441 0.447005 0.682421
O O8 0.967407 0.750000 0.951845
O O9 0.112024 0.950544 0.908892
O O10 0.000000 0.000000 0.000000
O O11 0.716855 0.750000 0.647811
O O12 0.623566 0.508187 0.688931
O O13 0.466118 0.750000 0.285302
#
# Coordination Sequence:
#
# PCOD9462700 Si02
#       5
#     8   8   8   8   8
#     4  10  19  32  52  78 108 141 174 207 245 295
#     4   9  18  32  52  78 105 134 171 212 251 294
#     4  10  21  38  58  76  96 127 169 214 260 310
#     4  10  21  34  50  77 108 135 167 209 256 304
#     4   9  17  32  53  75 103 141 179 208 238 287
#
# _framework density 16.988612
#
# number of rings (size 3 to 8) (size 9 to 14) (size 15 to 20)
#    0.000    2.400    0.000    2.400    0.000    7.200 
#    0.000    5.000    0.000    0.000    0.000    0.000 
#    0.000    0.000    0.000    0.000    0.000    0.000 
#
# Total GULP energy -223262.282236 kJ/mol
# GULP energy per Si atom -5581.557056 kJ/mol
# Density = 1.694995 g / cm^3
# Si number density = 16.988612 Si / 1000 Ang^3
#
#
#
# Elastic Constant Matrix: (Units=GPa)
#
#
# Indices 1 2 3 4 5 6 
#
# 1 153.7213 73.4669 54.7608 0.0000 0.0000 0.0000
# 2 73.4669 59.4640 59.9121 0.0000 0.0000 0.0000
# 3 54.7608 59.9121 98.7545 0.0000 0.0000 0.0000
# 4 0.0000 0.0000 0.0000 24.3114 0.0000 0.0000
# 5 0.0000 0.0000 0.0000 0.0000 3.9769 0.0000
# 6 0.0000 0.0000 0.0000 0.0000 0.0000 28.9315
#
#
#
# Elastic Compliance Matrix: (Units=1/GPa)
#
#
# Indices 1 2 3 4 5 6 
#
# 1 0.018765 -0.032668 0.009414 0.000000 0.000000 0.000000
# 2 -0.032668 0.100132 -0.042633 0.000000 0.000000 0.000000
# 3 0.009414 -0.042633 0.030770 0.000000 0.000000 0.000000
# 4 0.000000 0.000000 0.000000 0.041133 0.000000 0.000000
# 5 0.000000 0.000000 0.000000 0.000000 0.251451 0.000000
# 6 0.000000 0.000000 0.000000 0.000000 0.000000 0.034564
#
#
# Mechanical properties :
#
#
# Convention : Reuss Voigt Hill
#
# Bulk Modulus (GPa) = 55.88899 76.46883 66.17891
# Shear Modulus (GPa) = 8.13599 19.69731 13.91665
#
# Velocity S-wave (km/s) = 2.19077 3.40875 2.86523
# Velocity P-wave (km/s) = 6.27444 7.78475 7.07004
#
# Compressibility (1/GPa) = 0.01789261
#
# Stress axis : x y z
#
# Youngs Moduli (GPa) = 53.29192 9.98684 32.49872
#
# Poissons Ratio (x) = 0.32625 -0.30593
# Poissons Ratio (y) = 1.74094 1.38551
# Poissons Ratio (z) = -0.50167 0.42577
#
# Static dielectric constant tensor:
#      x y z
#    x 1.564310 0.000000 0.000000 
#    y 0.000000 1.562820 0.000000 
#    z 0.000000 0.000000 1.549890 
# 
# From -- ./inp_files/28562.got.cif
#   From: 2010.05.17/outbox.cif.g08.bks.cpg/sg62_15_cif.got.tgz:28562.got - 2010.06.03 15:25:27.
