data_PCOD9462291
_publ_section_title
;
Structure prediction by ZEFSAII (Michael W. Deem and Ramdas Pophale) SiO2 
 PCOD9462291
Probable space group: P N M A
;
_chemical_formula_sum "Si O2"
_cell_formula_units_Z 64
_cell_length_a 13.990745
_cell_length_b 8.975269
_cell_length_c 34.998575
_cell_angle_alpha 90.000000
_cell_angle_beta 90.000000
_cell_angle_gamma 90.000000
_cell_volume 4394.795558
_symmetry_space_group_name_H-M "P N M A"
_symmetry_group_IT_number 62
_symmetry_cell_setting 'orthorhombic'
loop_
_space_group_symop_operation_xyz
x,y,z
1/2-x,-y,1/2+z
1/2+x,1/2-y,1/2-z
-x,1/2+y,-z
-x,-y,-z
1/2+x,y,1/2-z
1/2-x,1/2+y,1/2+z
x,1/2-y,z
loop_
_atom_site_type_symbol
_atom_site_label
_atom_site_fract_x
_atom_site_fract_y
_atom_site_fract_z
Si Si1 0.220493 0.073719 0.811469
Si Si2 0.303962 0.572470 0.692114
Si Si3 0.385409 0.071273 0.380646
Si Si4 0.904697 0.072373 0.879715
Si Si5 0.124996 0.427374 0.730020
Si Si6 0.622059 0.920962 0.534730
Si Si7 0.594466 0.571622 0.235761
Si Si8 0.390209 0.579831 0.541700
O O1 0.213663 0.250000 0.820280
O O2 0.154738 0.045250 0.774150
O O3 0.327840 0.040567 0.797144
O O4 0.183993 0.979961 0.847050
O O5 0.308387 0.750000 0.689370
O O6 0.339717 0.497254 0.653276
O O7 0.198307 0.517548 0.703891
O O8 0.371891 0.514313 0.726457
O O9 0.399087 0.250000 0.380703
O O10 0.347243 0.029129 0.422959
O O11 0.488181 0.993461 0.374967
O O12 0.907630 0.250000 0.876910
O O13 0.869438 0.021016 0.921587
O O14 0.139017 0.250000 0.723378
O O15 0.013957 0.464048 0.724872
O O16 0.651618 0.750000 0.528458
O O17 0.505974 0.921733 0.537354
O O18 0.649496 0.018860 0.498336
O O19 0.599753 0.750000 0.243782
O O20 0.361457 0.750000 0.548740
#
# Coordination Sequence:
#
# PCOD9462291 Si02
#       8
#     8   8   8   8   8   8   8   8
#     4   9  17  28  44  66  88 113 146 179 214 257
#     4  11  21  31  45  66  89 111 142 182 218 254
#     4  10  19  29  42  62  88 116 148 184 216 249
#     4  11  20  30  44  60  84 117 148 178 214 256
#     4   9  18  33  49  63  83 113 146 178 215 258
#     4   8  15  26  38  55  81 113 144 172 208 253
#     4   9  18  33  50  65  85 115 147 178 214 259
#     4   9  16  26  40  59  82 108 141 177 211 250
#
# _framework density 14.56268
#
# number of rings (size 3 to 8) (size 9 to 14) (size 15 to 20)
#    0.000    2.500    0.000    5.250    0.000    7.000 
#    0.000    0.000    0.000    0.000    0.000    0.000 
#    0.000    1.000    0.000    3.000    0.000    4.875 
#
# Total GULP energy -356756.037595 kJ/mol
# GULP energy per Si atom -5574.313087 kJ/mol
# Density = 1.452953 g / cm^3
# Si number density = 14.562680 Si / 1000 Ang^3
#
#
#
# Elastic Constant Matrix: (Units=GPa)
#
#
# Indices 1 2 3 4 5 6 
#
# 1 73.3848 41.7650 46.9443 0.0000 0.0000 0.0000
# 2 41.7650 90.0450 67.6198 0.0000 0.0000 0.0000
# 3 46.9443 67.6198 116.4267 0.0000 0.0000 0.0000
# 4 0.0000 0.0000 0.0000 27.7776 0.0000 0.0000
# 5 0.0000 0.0000 0.0000 0.0000 16.0771 0.0000
# 6 0.0000 0.0000 0.0000 0.0000 0.0000 13.9818
#
#
#
# Elastic Compliance Matrix: (Units=1/GPa)
#
#
# Indices 1 2 3 4 5 6 
#
# 1 0.019875 -0.005676 -0.004717 0.000000 0.000000 0.000000
# 2 -0.005676 0.021317 -0.010092 0.000000 0.000000 0.000000
# 3 -0.004717 -0.010092 0.016352 0.000000 0.000000 0.000000
# 4 0.000000 0.000000 0.000000 0.036000 0.000000 0.000000
# 5 0.000000 0.000000 0.000000 0.000000 0.062200 0.000000
# 6 0.000000 0.000000 0.000000 0.000000 0.000000 0.071521
#
#
# Mechanical properties :
#
#
# Convention : Reuss Voigt Hill
#
# Bulk Modulus (GPa) = 60.33652 65.83496 63.08574
# Shear Modulus (GPa) = 18.26412 19.80248 19.03330
#
# Velocity S-wave (km/s) = 3.54527 3.69156 3.61916
# Velocity P-wave (km/s) = 7.63419 7.96720 7.80247
#
# Compressibility (1/GPa) = 0.01657371
#
# Stress axis : x y z
#
# Youngs Moduli (GPa) = 50.31535 46.91099 61.15296
#
# Poissons Ratio (x) = 0.26627 0.28846
# Poissons Ratio (y) = 0.28559 0.61716
# Poissons Ratio (z) = 0.23734 0.47343
#
# Static dielectric constant tensor:
#      x y z
#    x 1.461760 0.000000 0.000000 
#    y 0.000000 1.487700 0.000000 
#    z 0.000000 0.000000 1.483090 
# 
# From -- ./inp_files/32723.got.cif
#   From: 2010.05.17/outbox.cif.g08.bks.cpg/sg62_17_cif.got.tgz:32723.got - 2010.06.03 15:25:27.
