data_PCOD9462298
_publ_section_title
;
Structure prediction by ZEFSAII (Michael W. Deem and Ramdas Pophale) SiO2 
 PCOD9462298
Probable space group: P N M A
;
_chemical_formula_sum "Si O2"
_cell_formula_units_Z 44
_cell_length_a 5.268324
_cell_length_b 30.939159
_cell_length_c 16.314697
_cell_angle_alpha 90.000000
_cell_angle_beta 90.000000
_cell_angle_gamma 90.000000
_cell_volume 2659.255051
_symmetry_space_group_name_H-M "P N M A"
_symmetry_group_IT_number 62
_symmetry_cell_setting 'orthorhombic'
loop_
_space_group_symop_operation_xyz
x,y,z
1/2-x,-y,1/2+z
1/2+x,1/2-y,1/2-z
-x,1/2+y,-z
-x,-y,-z
1/2+x,y,1/2-z
1/2-x,1/2+y,1/2+z
x,1/2-y,z
loop_
_atom_site_type_symbol
_atom_site_label
_atom_site_fract_x
_atom_site_fract_y
_atom_site_fract_z
Si Si1 0.840334 0.937664 0.715273
Si Si2 0.034644 0.449591 0.475353
Si Si3 0.760504 0.535907 0.219808
Si Si4 0.966582 0.250000 0.802507
Si Si5 0.039674 0.344908 0.807071
Si Si6 0.047188 0.077023 0.934727
O O1 0.568470 0.916936 0.733594
O O2 0.913781 0.942803 0.620780
O O3 0.794642 0.987054 0.746691
O O4 0.279959 0.432338 0.523703
O O5 0.000000 0.500000 0.500000
O O6 0.779067 0.424755 0.501825
O O7 0.479319 0.556264 0.223058
O O8 0.880825 0.539300 0.130519
O O9 0.174928 0.250000 0.728327
O O10 0.021363 0.296156 0.843439
O O11 0.295773 0.349023 0.752936
O O12 0.040389 0.380478 0.878223
#
# Coordination Sequence:
#
# PCOD9462298 Si02
#       6
#     8   8   8   4   8   8
#     4  10  21  35  49  61  81 119 164 198 234 291
#     4  12  24  36  48  68  95 126 162 211 262 290
#     4  10  19  29  44  64  86 117 157 199 237 274
#     4   8  16  30  52  72 102 138 168 198 236 296
#     4  10  19  34  51  77 105 137 173 204 244 296
#     4  12  22  32  49  68  98 127 161 213 249 284
#
# _framework density 16.545987
#
# number of rings (size 3 to 8) (size 9 to 14) (size 15 to 20)
#    0.000    1.455    1.818    4.909    5.091    0.000 
#    0.000    0.000    0.000    0.000    0.000    0.000 
#    0.000    0.000    0.000   16.364    0.000    0.000 
#
# Total GULP energy -245322.872679 kJ/mol
# GULP energy per Si atom -5575.519834 kJ/mol
# Density = 1.650833 g / cm^3
# Si number density = 16.545987 Si / 1000 Ang^3
#
#
#
# Elastic Constant Matrix: (Units=GPa)
#
#
# Indices 1 2 3 4 5 6 
#
# 1 140.8499 32.6446 34.0264 0.0000 0.0000 0.0000
# 2 32.6446 71.9372 17.3127 0.0000 0.0000 0.0000
# 3 34.0264 17.3127 63.3947 0.0000 0.0000 0.0000
# 4 0.0000 0.0000 0.0000 13.4494 0.0000 0.0000
# 5 0.0000 0.0000 0.0000 0.0000 34.1133 0.0000
# 6 0.0000 0.0000 0.0000 0.0000 0.0000 16.0858
#
#
#
# Elastic Compliance Matrix: (Units=1/GPa)
#
#
# Indices 1 2 3 4 5 6 
#
# 1 0.008736 -0.003035 -0.003860 0.000000 0.000000 0.000000
# 2 -0.003035 0.015934 -0.002722 0.000000 0.000000 0.000000
# 3 -0.003860 -0.002722 0.018589 0.000000 0.000000 0.000000
# 4 0.000000 0.000000 0.000000 0.074353 0.000000 0.000000
# 5 0.000000 0.000000 0.000000 0.000000 0.029314 0.000000
# 6 0.000000 0.000000 0.000000 0.000000 0.000000 0.062167
#
#
# Mechanical properties :
#
#
# Convention : Reuss Voigt Hill
#
# Bulk Modulus (GPa) = 41.62524 49.34993 45.48759
# Shear Modulus (GPa) = 21.15644 25.54290 23.34967
#
# Velocity S-wave (km/s) = 3.57969 3.93332 3.76067
# Velocity P-wave (km/s) = 6.50365 7.10765 6.81235
#
# Compressibility (1/GPa) = 0.02402389
#
# Stress axis : x y z
#
# Youngs Moduli (GPa) = 114.47276 62.76069 53.79421
#
# Poissons Ratio (x) = 0.19050 0.20764
# Poissons Ratio (y) = 0.34746 0.14644
# Poissons Ratio (z) = 0.44185 0.17085
#
# Static dielectric constant tensor:
#      x y z
#    x 1.680550 0.000000 0.000000 
#    y 0.000000 1.579430 0.000000 
#    z 0.000000 0.000000 1.568090 
# 
# From -- ./inp_files/16264.got.cif
#   From: 2010.05.17/outbox.cif.g08.bks.cpg/sg62_9_cif.got.tgz:16264.got - 2010.06.03 15:25:27.
