data_PCOD9462032
_publ_section_title
;
Structure prediction by ZEFSAII (Michael W. Deem and Ramdas Pophale) SiO2 
 PCOD9462032
Probable space group: P N M A
;
_chemical_formula_sum "Si O2"
_cell_formula_units_Z 64
_cell_length_a 24.690386
_cell_length_b 8.105612
_cell_length_c 13.854860
_cell_angle_alpha 90.000000
_cell_angle_beta 90.000000
_cell_angle_gamma 90.000000
_cell_volume 2772.782678
_symmetry_space_group_name_H-M "P N M A"
_symmetry_group_IT_number 62
_symmetry_cell_setting 'orthorhombic'
loop_
_space_group_symop_operation_xyz
x,y,z
1/2-x,-y,1/2+z
1/2+x,1/2-y,1/2-z
-x,1/2+y,-z
-x,-y,-z
1/2+x,y,1/2-z
1/2-x,1/2+y,1/2+z
x,1/2-y,z
loop_
_atom_site_type_symbol
_atom_site_label
_atom_site_fract_x
_atom_site_fract_y
_atom_site_fract_z
Si Si1 0.440258 0.060214 0.176791
Si Si2 0.335922 0.439135 0.860486
Si Si3 0.164959 0.060149 0.573554
Si Si4 0.103639 0.048912 0.090306
Si Si5 0.897984 0.557873 0.131309
Si Si6 0.719189 0.941122 0.633625
Si Si7 0.775878 0.948744 0.910665
Si Si8 0.052275 0.445630 0.277191
O O1 0.436442 0.250000 0.144173
O O2 0.500725 0.989113 0.164027
O O3 0.391061 0.963623 0.128811
O O4 0.430565 0.047496 0.291672
O O5 0.338209 0.250000 0.830542
O O6 0.278538 0.514208 0.826966
O O7 0.390046 0.529139 0.826815
O O8 0.336416 0.451698 0.976900
O O9 0.171131 0.250000 0.544382
O O10 0.218856 0.008101 0.632518
O O11 0.102423 0.250000 0.089540
O O12 0.164405 0.002743 0.125714
O O13 0.060627 0.987961 0.168464
O O14 0.096028 0.998469 0.979346
O O15 0.913684 0.750000 0.137043
O O16 0.834335 0.543375 0.158906
O O17 0.707960 0.750000 0.653015
O O18 0.724489 0.975151 0.518592
O O19 0.774668 0.750000 0.915978
O O20 0.042072 0.250000 0.269981
#
# Coordination Sequence:
#
# PCOD9462032 Si02
#       8
#     8   8   8   8   8   8   8   8
#     4  11  24  40  58  82 113 151 196 243 287 339
#     4  11  22  38  60  87 118 149 187 236 291 345
#     4  11  22  38  60  84 114 151 190 234 287 346
#     4   8  17  35  60  86 114 149 184 228 281 333
#     4  10  20  37  60  86 117 151 189 235 288 341
#     4  10  18  32  56  86 118 150 187 228 280 344
#     4   9  16  31  56  86 118 147 182 229 284 342
#     4  10  22  41  60  81 112 152 199 240 282 342
#
# _framework density 23.081507999999999
#
# number of rings (size 3 to 8) (size 9 to 14) (size 15 to 20)
#    0.000    2.000    0.000    6.750    0.000    3.000 
#    0.000    7.500    0.000    0.000    0.000    0.000 
#    0.000    0.000    0.000    0.000    0.000    0.000 
#
# Total GULP energy -357537.695040 kJ/mol
# GULP energy per Si atom -5586.526485 kJ/mol
# Density = 2.302897 g / cm^3
# Si number density = 23.081508 Si / 1000 Ang^3
#
#
#
# Elastic Constant Matrix: (Units=GPa)
#
#
# Indices 1 2 3 4 5 6 
#
# 1 84.2052 -7.4056 -2.2464 0.0000 0.0000 0.0000
# 2 -7.4056 57.8574 -18.8266 0.0000 0.0000 0.0000
# 3 -2.2464 -18.8266 32.7501 0.0000 0.0000 0.0000
# 4 0.0000 0.0000 0.0000 21.9326 0.0000 0.0000
# 5 0.0000 0.0000 0.0000 0.0000 22.0003 0.0000
# 6 0.0000 0.0000 0.0000 0.0000 0.0000 16.7739
#
#
#
# Elastic Compliance Matrix: (Units=1/GPa)
#
#
# Indices 1 2 3 4 5 6 
#
# 1 0.012130 0.002243 0.002121 0.000000 0.000000 0.000000
# 2 0.002243 0.021676 0.012614 0.000000 0.000000 0.000000
# 3 0.002121 0.012614 0.037931 0.000000 0.000000 0.000000
# 4 0.000000 0.000000 0.000000 0.045594 0.000000 0.000000
# 5 0.000000 0.000000 0.000000 0.000000 0.045454 0.000000
# 6 0.000000 0.000000 0.000000 0.000000 0.000000 0.059616
#
#
# Mechanical properties :
#
#
# Convention : Reuss Voigt Hill
#
# Bulk Modulus (GPa) = 9.46139 13.09506 11.27822
# Shear Modulus (GPa) = 22.35384 25.69411 24.02398
#
# Velocity S-wave (km/s) = 3.11541 3.34007 3.22969
# Velocity P-wave (km/s) = 4.12905 4.53437 4.33645
#
# Compressibility (1/GPa) = 0.10569271
#
# Stress axis : x y z
#
# Youngs Moduli (GPa) = 82.44297 46.13491 26.36362
#
# Poissons Ratio (x) = -0.10347 -0.05592
# Poissons Ratio (y) = -0.18490 -0.33255
# Poissons Ratio (z) = -0.17488 -0.58195
#
# Static dielectric constant tensor:
#      x y z
#    x 1.920620 0.000000 0.000000 
#    y 0.000000 1.772560 0.000000 
#    z 0.000000 0.000000 1.945600 
# 
# From -- ./inp_files/21005.got.cif
#   From: 2010.05.17/outbox.cif.g08.bks.cpg/sg62_11_cif.got.tgz:21005.got - 2010.06.03 15:25:27.
