data_PCOD9462224
_publ_section_title
;
Structure prediction by ZEFSAII (Michael W. Deem and Ramdas Pophale) SiO2 
 PCOD9462224
Probable space group: P N M A
;
_chemical_formula_sum "Si O2"
_cell_formula_units_Z 52
_cell_length_a 5.250308
_cell_length_b 29.302451
_cell_length_c 13.947864
_cell_angle_alpha 90.000000
_cell_angle_beta 90.000000
_cell_angle_gamma 90.000000
_cell_volume 2145.835539
_symmetry_space_group_name_H-M "P N M A"
_symmetry_group_IT_number 62
_symmetry_cell_setting 'orthorhombic'
loop_
_space_group_symop_operation_xyz
x,y,z
1/2-x,-y,1/2+z
1/2+x,1/2-y,1/2-z
-x,1/2+y,-z
-x,-y,-z
1/2+x,y,1/2-z
1/2-x,1/2+y,1/2+z
x,1/2-y,z
loop_
_atom_site_type_symbol
_atom_site_label
_atom_site_fract_x
_atom_site_fract_y
_atom_site_fract_z
Si Si1 0.582556 0.038868 0.353037
Si Si2 0.450145 0.900855 0.188548
Si Si3 0.081087 0.499228 0.364109
Si Si4 0.277124 0.327893 0.936934
Si Si5 0.982455 0.698719 0.626178
Si Si6 0.537054 0.250000 0.688500
Si Si7 0.465662 0.642669 0.620696
O O1 0.613719 0.015323 0.248592
O O2 0.353023 0.013614 0.405316
O O3 0.516247 0.091747 0.340777
O O4 0.854369 0.032126 0.402503
O O5 0.160365 0.900152 0.225375
O O6 0.533571 0.858196 0.125288
O O7 0.502957 0.948355 0.134576
O O8 0.105064 0.294640 0.873582
O O9 0.441519 0.299473 0.013568
O O10 0.104080 0.359002 0.007138
O O11 0.967163 0.750000 0.664768
O O12 0.720344 0.671605 0.631167
O O13 0.223129 0.669631 0.664848
O O14 0.249145 0.250000 0.726582
#
# Coordination Sequence:
#
# PCOD9462224 Si02
#       7
#     8   8   8   8   8   4   8
#     4  10  18  37  58  89 112 151 204 233 301 341
#     4  12  22  38  57  84 111 161 201 243 301 342
#     4  10  19  36  61  81 116 152 197 246 282 368
#     4  10  25  38  59  83 124 150 203 249 291 347
#     4  10  21  39  60  83 117 156 189 242 286 358
#     4  12  26  40  60  88 114 162 200 246 290 336
#     4  10  22  36  61  88 118 154 196 245 291 358
#
# _framework density 24.232983000000001
#
# number of rings (size 3 to 8) (size 9 to 14) (size 15 to 20)
#    0.923    0.615    3.846    2.308    5.385    0.000 
#    0.000    1.538    0.000    0.000    0.000   43.077 
#    0.000    0.000    0.000    0.000    0.000    0.000 
#
# Total GULP energy -290854.182753 kJ/mol
# GULP energy per Si atom -5593.349668 kJ/mol
# Density = 2.417783 g / cm^3
# Si number density = 24.232983 Si / 1000 Ang^3
#
#
#
# Elastic Constant Matrix: (Units=GPa)
#
#
# Indices 1 2 3 4 5 6 
#
# 1 112.8553 -28.8441 -2.3912 0.0000 0.0000 0.0000
# 2 -28.8441 82.1476 8.7115 0.0000 0.0000 0.0000
# 3 -2.3912 8.7115 60.4923 0.0000 0.0000 0.0000
# 4 0.0000 0.0000 0.0000 -25.4164 0.0000 0.0000
# 5 0.0000 0.0000 0.0000 0.0000 34.9194 0.0000
# 6 0.0000 0.0000 0.0000 0.0000 0.0000 35.5117
#
#
#
# Elastic Compliance Matrix: (Units=1/GPa)
#
#
# Indices 1 2 3 4 5 6 
#
# 1 0.009735 0.003430 -0.000109 0.000000 0.000000 0.000000
# 2 0.003430 0.013570 -0.001819 0.000000 0.000000 0.000000
# 3 -0.000109 -0.001819 0.016789 0.000000 0.000000 0.000000
# 4 0.000000 0.000000 0.000000 -0.039345 0.000000 0.000000
# 5 0.000000 0.000000 0.000000 0.000000 0.028637 0.000000
# 6 0.000000 0.000000 0.000000 0.000000 0.000000 0.028160
#
#
# Mechanical properties :
#
#
# Convention : Reuss Voigt Hill
#
# Bulk Modulus (GPa) = 23.20277 23.38307 23.29292
# Shear Modulus (GPa) = 72.55975 27.53753 50.04864
#
# Velocity S-wave (km/s) = 5.47792 3.37466 4.54950
# Velocity P-wave (km/s) = 7.04313 4.98544 6.10166
#
# Compressibility (1/GPa) = 0.04309831
#
# Stress axis : x y z
#
# Youngs Moduli (GPa) = 102.71995 73.68986 59.56415
#
# Poissons Ratio (x) = -0.25274 0.00650
# Poissons Ratio (y) = -0.35231 0.10833
# Poissons Ratio (z) = 0.01121 0.13402
#
# Static dielectric constant tensor:
#      x y z
#    x 1.953200 0.000000 0.000000 
#    y 0.000000 1.886560 0.000000 
#    z 0.000000 0.000000 2.092170 
# 
# From -- ./inp_files/21642.got.cif
#   From: 2010.05.17/outbox.cif.g08.bks.cpg/sg62_11_cif.got.tgz:21642.got - 2010.06.03 15:25:27.
