data_PCOD9462322
_publ_section_title
;
Structure prediction by ZEFSAII (Michael W. Deem and Ramdas Pophale) SiO2 
 PCOD9462322
Probable space group: P N M A
;
_chemical_formula_sum "Si O2"
_cell_formula_units_Z 60
_cell_length_a 16.093168
_cell_length_b 9.706224
_cell_length_c 17.678206
_cell_angle_alpha 90.000000
_cell_angle_beta 90.000000
_cell_angle_gamma 90.000000
_cell_volume 2761.404607
_symmetry_space_group_name_H-M "P N M A"
_symmetry_group_IT_number 62
_symmetry_cell_setting 'orthorhombic'
loop_
_space_group_symop_operation_xyz
x,y,z
1/2-x,-y,1/2+z
1/2+x,1/2-y,1/2-z
-x,1/2+y,-z
-x,-y,-z
1/2+x,y,1/2-z
1/2-x,1/2+y,1/2+z
x,1/2-y,z
loop_
_atom_site_type_symbol
_atom_site_label
_atom_site_fract_x
_atom_site_fract_y
_atom_site_fract_z
Si Si1 0.869251 0.407860 0.558119
Si Si2 0.025358 0.250000 0.007830
Si Si3 0.584471 0.976568 0.573753
Si Si4 0.258544 0.414576 0.347151
Si Si5 0.372021 0.587719 0.713379
Si Si6 0.877071 0.906943 0.419848
Si Si7 0.503024 0.906237 0.198372
Si Si8 0.178874 0.902262 0.079017
O O1 0.844105 0.250000 0.542599
O O2 0.793758 0.497489 0.591714
O O3 0.901345 0.483141 0.483174
O O4 0.938278 0.406695 0.623496
O O5 0.054889 0.371899 0.948004
O O6 0.990964 0.129548 0.066945
O O7 0.645722 0.962225 0.645516
O O8 0.642456 0.924263 0.503847
O O9 0.254713 0.250000 0.362817
O O10 0.206985 0.438438 0.269739
O O11 0.383640 0.750000 0.709847
O O12 0.453024 0.511712 0.746122
O O13 0.350457 0.520791 0.634028
O O14 0.905277 0.750000 0.438624
O O15 0.777903 0.904194 0.419828
O O16 0.914144 0.941153 0.337692
O O17 0.502142 0.750000 0.228908
O O18 0.149836 0.750000 0.104567
#
# Coordination Sequence:
#
# PCOD9462322 Si02
#       8
#     8   4   8   8   8   8   8   8
#     4  10  19  29  52  90 118 149 185 237 291 340
#     4  10  24  38  62  94 122 150 208 258 318 354
#     4  11  21  41  65  93 121 157 200 264 305 363
#     4  10  19  37  61  85 117 155 197 244 303 365
#     4  10  23  39  61  86 117 162 198 244 307 364
#     4  10  20  34  57  85 116 155 191 237 289 353
#     4   9  19  37  56  81 120 154 193 237 290 356
#     4  11  22  39  63  87 118 160 200 245 302 364
#
# _framework density 21.728072000000001
#
# number of rings (size 3 to 8) (size 9 to 14) (size 15 to 20)
#    0.000    1.867    2.667    1.200    1.867    2.133 
#    0.000    2.667    2.933    0.000    0.000    0.000 
#    0.000    0.000    0.000    0.000    0.000    0.000 
#
# Total GULP energy -334254.182233 kJ/mol
# GULP energy per Si atom -5570.903037 kJ/mol
# Density = 2.167862 g / cm^3
# Si number density = 21.728072 Si / 1000 Ang^3
#
#
#
# Elastic Constant Matrix: (Units=GPa)
#
#
# Indices 1 2 3 4 5 6 
#
# 1 67.5680 23.4266 6.4848 0.0000 0.0000 0.0000
# 2 23.4266 99.7561 8.9457 0.0000 0.0000 0.0000
# 3 6.4848 8.9457 47.9524 0.0000 0.0000 0.0000
# 4 0.0000 0.0000 0.0000 17.1304 0.0000 0.0000
# 5 0.0000 0.0000 0.0000 0.0000 17.1837 0.0000
# 6 0.0000 0.0000 0.0000 0.0000 0.0000 20.5020
#
#
#
# Elastic Compliance Matrix: (Units=1/GPa)
#
#
# Indices 1 2 3 4 5 6 
#
# 1 0.016218 -0.003673 -0.001508 0.000000 0.000000 0.000000
# 2 -0.003673 0.011027 -0.001560 0.000000 0.000000 0.000000
# 3 -0.001508 -0.001560 0.021349 0.000000 0.000000 0.000000
# 4 0.000000 0.000000 0.000000 0.058376 0.000000 0.000000
# 5 0.000000 0.000000 0.000000 0.000000 0.058195 0.000000
# 6 0.000000 0.000000 0.000000 0.000000 0.000000 0.048776
#
#
# Mechanical properties :
#
#
# Convention : Reuss Voigt Hill
#
# Bulk Modulus (GPa) = 28.48127 32.55454 30.51791
# Shear Modulus (GPa) = 20.90932 22.72450 21.81691
#
# Velocity S-wave (km/s) = 3.10549 3.23748 3.17217
# Velocity P-wave (km/s) = 5.09856 5.38426 5.24336
#
# Compressibility (1/GPa) = 0.03511079
#
# Stress axis : x y z
#
# Youngs Moduli (GPa) = 61.65893 90.68611 46.84049
#
# Poissons Ratio (x) = 0.33313 0.07063
# Poissons Ratio (y) = 0.22650 0.07309
# Poissons Ratio (z) = 0.09298 0.14150
#
# Static dielectric constant tensor:
#      x y z
#    x 1.876680 0.000000 0.000000 
#    y 0.000000 1.748960 0.000000 
#    z 0.000000 0.000000 1.794350 
# 
# From -- ./inp_files/24379.got.cif
#   From: 2010.05.17/outbox.cif.g08.bks.cpg/sg62_13_cif.got.tgz:24379.got - 2010.06.03 15:25:27.
