data_PCOD9462166
_publ_section_title
;
Structure prediction by ZEFSAII (Michael W. Deem and Ramdas Pophale) SiO2 
 PCOD9462166
Probable space group: P N M A
;
_chemical_formula_sum "Si O2"
_cell_formula_units_Z 56
_cell_length_a 13.136547
_cell_length_b 13.683155
_cell_length_c 12.228537
_cell_angle_alpha 90.000000
_cell_angle_beta 90.000000
_cell_angle_gamma 90.000000
_cell_volume 2198.072296
_symmetry_space_group_name_H-M "P N M A"
_symmetry_group_IT_number 62
_symmetry_cell_setting 'orthorhombic'
loop_
_space_group_symop_operation_xyz
x,y,z
1/2-x,-y,1/2+z
1/2+x,1/2-y,1/2-z
-x,1/2+y,-z
-x,-y,-z
1/2+x,y,1/2-z
1/2-x,1/2+y,1/2+z
x,1/2-y,z
loop_
_atom_site_type_symbol
_atom_site_label
_atom_site_fract_x
_atom_site_fract_y
_atom_site_fract_z
Si Si1 0.035647 0.366975 0.432396
Si Si2 0.968369 0.858375 0.220060
Si Si3 0.874039 0.633948 0.798166
Si Si4 0.135278 0.861901 0.411463
Si Si5 0.745434 0.867797 0.467737
Si Si6 0.466087 0.363253 0.468916
Si Si7 0.774411 0.528182 0.243249
O O1 0.028122 0.250000 0.446754
O O2 0.053003 0.385875 0.305475
O O3 0.142451 0.393257 0.489461
O O4 0.932181 0.402679 0.488459
O O5 0.917172 0.750000 0.232071
O O6 0.892283 0.946791 0.239913
O O7 0.055321 0.860099 0.311051
O O8 0.008951 0.863486 0.097158
O O9 0.853776 0.750000 0.805866
O O10 0.938281 0.595776 0.901818
O O11 0.770014 0.577528 0.772178
O O12 0.169469 0.750000 0.433176
O O13 0.226048 0.927386 0.367264
O O14 0.739085 0.750000 0.465911
O O15 0.649004 0.902111 0.540589
O O16 0.734650 0.907521 0.345938
O O17 0.462064 0.250000 0.431220
#
# Coordination Sequence:
#
# PCOD9462166 Si02
#       7
#     8   8   8   8   8   8   8
#     4   9  19  38  61  83 121 164 197 236 287 357
#     4  10  19  35  60  93 126 145 179 248 314 353
#     4  10  24  44  56  76 118 169 210 240 281 337
#     4  10  19  35  61  93 122 145 182 246 309 353
#     4  10  18  34  63  96 117 146 195 245 300 359
#     4   9  19  38  62  87 123 156 189 245 300 347
#     4  12  22  34  61  94 119 154 196 247 294 364
#
# _framework density 25.476869000000001
#
# number of rings (size 3 to 8) (size 9 to 14) (size 15 to 20)
#    0.000    2.000    2.857    1.286    0.000    2.286 
#    2.571    1.429    0.000    6.857    0.000    0.000 
#    0.000    0.000    0.000    0.000    0.000    0.000 
#
# Total GULP energy -313609.257064 kJ/mol
# GULP energy per Si atom -5600.165305 kJ/mol
# Density = 2.541888 g / cm^3
# Si number density = 25.476869 Si / 1000 Ang^3
#
#
#
# Elastic Constant Matrix: (Units=GPa)
#
#
# Indices 1 2 3 4 5 6 
#
# 1 66.2691 49.7410 -14.4842 0.0000 0.0000 0.0000
# 2 49.7410 133.4145 6.3905 0.0000 0.0000 0.0000
# 3 -14.4842 6.3905 42.3222 0.0000 0.0000 0.0000
# 4 0.0000 0.0000 0.0000 17.2346 0.0000 0.0000
# 5 0.0000 0.0000 0.0000 0.0000 11.1703 0.0000
# 6 0.0000 0.0000 0.0000 0.0000 0.0000 43.2741
#
#
#
# Elastic Compliance Matrix: (Units=1/GPa)
#
#
# Indices 1 2 3 4 5 6 
#
# 1 0.024418 -0.009573 0.009802 0.000000 0.000000 0.000000
# 2 -0.009573 0.011303 -0.004983 0.000000 0.000000 0.000000
# 3 0.009802 -0.004983 0.027735 0.000000 0.000000 0.000000
# 4 0.000000 0.000000 0.000000 0.058023 0.000000 0.000000
# 5 0.000000 0.000000 0.000000 0.000000 0.089523 0.000000
# 6 0.000000 0.000000 0.000000 0.000000 0.000000 0.023108
#
#
# Mechanical properties :
#
#
# Convention : Reuss Voigt Hill
#
# Bulk Modulus (GPa) = 18.53620 36.14450 27.34035
# Shear Modulus (GPa) = 19.11295 27.69303 23.40299
#
# Velocity S-wave (km/s) = 2.74196 3.30053 3.03413
# Velocity P-wave (km/s) = 4.16125 5.36121 4.79888
#
# Compressibility (1/GPa) = 0.05394849
#
# Stress axis : x y z
#
# Youngs Moduli (GPa) = 40.95324 88.46923 36.05505
#
# Poissons Ratio (x) = 0.84695 -0.35342
# Poissons Ratio (y) = 0.39206 0.17967
# Poissons Ratio (z) = -0.40143 0.44085
#
# Static dielectric constant tensor:
#      x y z
#    x 1.980630 0.000000 0.000000 
#    y 0.000000 2.044760 0.000000 
#    z 0.000000 0.000000 1.990450 
# 
# From -- ./inp_files/13412.got.cif
#   From: 2010.05.17/outbox.cif.g08.bks.cpg/sg62_7_cif.got.tgz:13412.got - 2010.06.03 15:25:27.
