data_PCOD9462289
_publ_section_title
;
Structure prediction by ZEFSAII (Michael W. Deem and Ramdas Pophale) SiO2 
 PCOD9462289
Probable space group: P N M A
;
_chemical_formula_sum "Si O2"
_cell_formula_units_Z 64
_cell_length_a 27.101618
_cell_length_b 9.020742
_cell_length_c 18.509186
_cell_angle_alpha 90.000000
_cell_angle_beta 90.000000
_cell_angle_gamma 90.000000
_cell_volume 4525.064783
_symmetry_space_group_name_H-M "P N M A"
_symmetry_group_IT_number 62
_symmetry_cell_setting 'orthorhombic'
loop_
_space_group_symop_operation_xyz
x,y,z
1/2-x,-y,1/2+z
1/2+x,1/2-y,1/2-z
-x,1/2+y,-z
-x,-y,-z
1/2+x,y,1/2-z
1/2-x,1/2+y,1/2+z
x,1/2-y,z
loop_
_atom_site_type_symbol
_atom_site_label
_atom_site_fract_x
_atom_site_fract_y
_atom_site_fract_z
Si Si1 0.851452 0.071559 0.668630
Si Si2 0.055219 0.926770 0.424898
Si Si3 0.354871 0.426325 0.168018
Si Si4 0.798845 0.079751 0.807572
Si Si5 0.440988 0.573307 0.079060
Si Si6 0.260189 0.926957 0.915019
Si Si7 0.200792 0.079039 0.793410
Si Si8 0.257629 0.425190 0.070592
O O1 0.842919 0.250000 0.663306
O O2 0.905290 0.039474 0.637140
O O3 0.841822 0.031913 0.752363
O O4 0.810718 0.990580 0.619709
O O5 0.058036 0.750000 0.440126
O O6 0.998575 0.960373 0.405143
O O7 0.068272 0.013133 0.498136
O O8 0.359217 0.250000 0.176350
O O9 0.403671 0.495223 0.133503
O O10 0.339957 0.500916 0.243772
O O11 0.309347 0.454109 0.112387
O O12 0.806838 0.250000 0.830876
O O13 0.750286 0.078534 0.756227
O O14 0.785348 0.978087 0.875028
O O15 0.434060 0.750000 0.081245
O O16 0.260402 0.750000 0.912352
O O17 0.216311 0.991888 0.865199
O O18 0.256191 0.985902 0.996276
O O19 0.188602 0.250000 0.808820
O O20 0.254540 0.250000 0.056627
#
# Coordination Sequence:
#
# PCOD9462289 Si02
#       8
#     8   8   8   8   8   8   8   8
#     4   9  17  30  45  59  80 111 143 174 210 249
#     4   9  18  31  44  59  82 112 145 180 215 249
#     4  10  19  30  44  61  83 112 144 176 211 249
#     4   8  15  27  42  59  78 102 133 169 206 243
#     4  10  19  29  42  61  84 111 144 180 215 249
#     4  11  20  28  41  62  86 110 139 172 205 245
#     4   9  17  30  45  60  81 108 138 171 207 247
#     4  10  19  29  41  58  82 111 140 169 203 244
#
# _framework density 14.143444000000001
#
# number of rings (size 3 to 8) (size 9 to 14) (size 15 to 20)
#    0.000    2.500    0.000    4.125    0.000    8.500 
#    0.000    0.000    0.000    0.000    0.000    0.000 
#    0.000    1.000    0.000    2.750    0.000    4.000 
#
# Total GULP energy -356739.554988 kJ/mol
# GULP energy per Si atom -5574.055547 kJ/mol
# Density = 1.411125 g / cm^3
# Si number density = 14.143444 Si / 1000 Ang^3
#
#
#
# Elastic Constant Matrix: (Units=GPa)
#
#
# Indices 1 2 3 4 5 6 
#
# 1 68.0786 36.7322 39.3389 0.0000 0.0000 0.0000
# 2 36.7322 71.3804 51.9031 0.0000 0.0000 0.0000
# 3 39.3389 51.9031 75.1306 0.0000 0.0000 0.0000
# 4 0.0000 0.0000 0.0000 25.6058 0.0000 0.0000
# 5 0.0000 0.0000 0.0000 0.0000 27.5257 0.0000
# 6 0.0000 0.0000 0.0000 0.0000 0.0000 17.4674
#
#
#
# Elastic Compliance Matrix: (Units=1/GPa)
#
#
# Indices 1 2 3 4 5 6 
#
# 1 0.022267 -0.005989 -0.007521 0.000000 0.000000 0.000000
# 2 -0.005989 0.029761 -0.017424 0.000000 0.000000 0.000000
# 3 -0.007521 -0.017424 0.029286 0.000000 0.000000 0.000000
# 4 0.000000 0.000000 0.000000 0.039054 0.000000 0.000000
# 5 0.000000 0.000000 0.000000 0.000000 0.036330 0.000000
# 6 0.000000 0.000000 0.000000 0.000000 0.000000 0.057250
#
#
# Mechanical properties :
#
#
# Convention : Reuss Voigt Hill
#
# Bulk Modulus (GPa) = 51.42995 52.28198 51.85596
# Shear Modulus (GPa) = 17.71185 19.89416 18.80300
#
# Velocity S-wave (km/s) = 3.54263 3.75453 3.65012
# Velocity P-wave (km/s) = 7.29216 7.47269 7.38298
#
# Compressibility (1/GPa) = 0.01944392
#
# Stress axis : x y z
#
# Youngs Moduli (GPa) = 44.91025 33.60080 34.14651
#
# Poissons Ratio (x) = 0.20125 0.25682
# Poissons Ratio (y) = 0.26899 0.59497
# Poissons Ratio (z) = 0.33778 0.58546
#
# Static dielectric constant tensor:
#      x y z
#    x 1.459320 0.000000 0.000000 
#    y 0.000000 1.472670 0.000000 
#    z 0.000000 0.000000 1.454130 
# 
# From -- ./inp_files/24990.got.cif
#   From: 2010.05.17/outbox.cif.g08.bks.cpg/sg62_13_cif.got.tgz:24990.got - 2010.06.03 15:25:27.
