data_PCOD9462603
_publ_section_title
;
Structure prediction by ZEFSAII (Michael W. Deem and Ramdas Pophale) SiO2 
 PCOD9462603
Probable space group: P N M A
;
_chemical_formula_sum "Si O2"
_cell_formula_units_Z 64
_cell_length_a 8.146611
_cell_length_b 19.858301
_cell_length_c 24.835005
_cell_angle_alpha 90.000000
_cell_angle_beta 90.000000
_cell_angle_gamma 90.000000
_cell_volume 4017.753797
_symmetry_space_group_name_H-M "P N M A"
_symmetry_group_IT_number 62
_symmetry_cell_setting 'orthorhombic'
loop_
_space_group_symop_operation_xyz
x,y,z
1/2-x,-y,1/2+z
1/2+x,1/2-y,1/2-z
-x,1/2+y,-z
-x,-y,-z
1/2+x,y,1/2-z
1/2-x,1/2+y,1/2+z
x,1/2-y,z
loop_
_atom_site_type_symbol
_atom_site_label
_atom_site_fract_x
_atom_site_fract_y
_atom_site_fract_z
Si Si1 0.849790 0.828494 0.932959
Si Si2 0.942275 0.952221 0.669364
Si Si3 0.154666 0.407005 0.507808
Si Si4 0.530635 0.172276 0.315101
Si Si5 0.482328 0.574303 0.474735
Si Si6 0.149335 0.960395 0.430943
Si Si7 0.788413 0.090705 0.258821
Si Si8 0.462200 0.828142 0.908523
O O1 0.870414 0.750000 0.947112
O O2 0.656327 0.838765 0.920751
O O3 0.950179 0.841573 0.878227
O O4 0.913427 0.876626 0.979205
O O5 0.831329 0.953494 0.722486
O O6 0.124848 0.950195 0.693520
O O7 0.916292 0.880438 0.638613
O O8 0.902577 0.009223 0.626340
O O9 0.330220 0.403921 0.537950
O O10 0.154333 0.475724 0.472041
O O11 0.994635 0.412495 0.545845
O O12 0.132380 0.348762 0.463150
O O13 0.486781 0.250000 0.307768
O O14 0.703128 0.154467 0.287276
O O15 0.411807 0.122396 0.284260
O O16 0.500000 0.500000 0.500000
O O17 0.333337 0.569935 0.431876
O O18 0.435221 0.750000 0.894215
#
# Coordination Sequence:
#
# PCOD9462603 Si02
#       8
#     8   8   8   8   8   8   8   8
#     4  10  20  33  47  69 102 135 166 212 260 306
#     4  10  21  35  48  66  92 130 170 216 257 291
#     4   9  18  31  49  71  92 123 159 207 247 299
#     4  10  20  31  44  61  86 126 170 215 253 287
#     4  10  20  31  51  75  94 125 170 210 253 315
#     4   9  18  34  49  68  94 120 160 205 254 307
#     4  10  21  33  44  61  89 121 176 219 258 282
#     4  10  19  32  49  68  99 139 172 204 256 304
#
# _framework density 15.929297999999999
#
# number of rings (size 3 to 8) (size 9 to 14) (size 15 to 20)
#    0.000    2.250    2.500    0.375    7.000    3.000 
#    2.250    0.000    0.000    0.000    0.000    0.000 
#    0.000    0.000    0.000    4.500    0.500    0.250 
#
# Total GULP energy -356533.208572 kJ/mol
# GULP energy per Si atom -5570.831384 kJ/mol
# Density = 1.589304 g / cm^3
# Si number density = 15.929298 Si / 1000 Ang^3
#
#
#
# Elastic Constant Matrix: (Units=GPa)
#
#
# Indices 1 2 3 4 5 6 
#
# 1 52.8122 7.5265 11.6205 0.0000 0.0000 0.0000
# 2 7.5265 30.2567 24.0759 0.0000 0.0000 0.0000
# 3 11.6205 24.0759 54.6278 0.0000 0.0000 0.0000
# 4 0.0000 0.0000 0.0000 21.2593 0.0000 0.0000
# 5 0.0000 0.0000 0.0000 0.0000 16.1716 0.0000
# 6 0.0000 0.0000 0.0000 0.0000 0.0000 17.5372
#
#
#
# Elastic Compliance Matrix: (Units=1/GPa)
#
#
# Indices 1 2 3 4 5 6 
#
# 1 0.019982 -0.002446 -0.003172 0.000000 0.000000 0.000000
# 2 -0.002446 0.051201 -0.022045 0.000000 0.000000 0.000000
# 3 -0.003172 -0.022045 0.028696 0.000000 0.000000 0.000000
# 4 0.000000 0.000000 0.000000 0.047038 0.000000 0.000000
# 5 0.000000 0.000000 0.000000 0.000000 0.061837 0.000000
# 6 0.000000 0.000000 0.000000 0.000000 0.000000 0.057022
#
#
# Mechanical properties :
#
#
# Convention : Reuss Voigt Hill
#
# Bulk Modulus (GPa) = 22.44597 24.90471 23.67534
# Shear Modulus (GPa) = 14.88301 17.29189 16.08745
#
# Velocity S-wave (km/s) = 3.05998 3.29833 3.18138
# Velocity P-wave (km/s) = 5.15812 5.49306 5.32822
#
# Compressibility (1/GPa) = 0.04455143
#
# Stress axis : x y z
#
# Youngs Moduli (GPa) = 50.04590 19.53092 34.84757
#
# Poissons Ratio (x) = 0.04777 0.11055
# Poissons Ratio (y) = 0.12242 0.76822
# Poissons Ratio (z) = 0.15877 0.43056
#
# Static dielectric constant tensor:
#      x y z
#    x 1.628330 0.000000 0.000000 
#    y 0.000000 1.498840 0.000000 
#    z 0.000000 0.000000 1.519670 
# 
# From -- ./inp_files/29068.got.cif
#   From: 2010.05.17/outbox.cif.g08.bks.cpg/sg62_15_cif.got.tgz:29068.got - 2010.06.03 15:25:27.
