data_PCOD9462814
_publ_section_title
;
Structure prediction by ZEFSAII (Michael W. Deem and Ramdas Pophale) SiO2 
 PCOD9462814
Probable space group: P N M A
;
_chemical_formula_sum "Si O2"
_cell_formula_units_Z 48
_cell_length_a 12.208603
_cell_length_b 16.695117
_cell_length_c 11.945429
_cell_angle_alpha 90.000000
_cell_angle_beta 90.000000
_cell_angle_gamma 90.000000
_cell_volume 2434.765783
_symmetry_space_group_name_H-M "P N M A"
_symmetry_group_IT_number 62
_symmetry_cell_setting 'orthorhombic'
loop_
_space_group_symop_operation_xyz
x,y,z
1/2-x,-y,1/2+z
1/2+x,1/2-y,1/2-z
-x,1/2+y,-z
-x,-y,-z
1/2+x,y,1/2-z
1/2-x,1/2+y,1/2+z
x,1/2-y,z
loop_
_atom_site_type_symbol
_atom_site_label
_atom_site_fract_x
_atom_site_fract_y
_atom_site_fract_z
Si Si1 0.689166 0.576643 0.673360
Si Si2 0.114914 0.100179 0.480512
Si Si3 0.630593 0.916434 0.931476
Si Si4 0.961444 0.090729 0.976130
Si Si5 0.277499 0.336806 0.655017
Si Si6 0.310047 0.887674 0.389535
O O1 0.808837 0.602421 0.629747
O O2 0.663681 0.590497 0.802266
O O3 0.599966 0.616788 0.589948
O O4 0.683662 0.481250 0.648512
O O5 0.174217 0.153705 0.573068
O O6 0.989585 0.118814 0.454726
O O7 0.122201 0.010232 0.532459
O O8 0.723439 0.880287 0.010741
O O9 0.867004 0.097144 0.881645
O O10 0.069567 0.135165 0.933206
O O11 0.000000 0.000000 0.000000
O O12 0.329663 0.250000 0.636805
O O13 0.235127 0.344462 0.780309
#
# Coordination Sequence:
#
# PCOD9462814 Si02
#       6
#     8   8   8   8   8   8
#     4   9  18  33  57  84 120 149 197 258 308 342
#     4   9  20  35  53  87 117 155 194 245 305 361
#     4  10  19  32  58  87 117 148 197 256 301 352
#     4   9  21  37  59  88 118 160 209 259 306 364
#     4  11  23  40  60  86 126 165 200 251 319 379
#     4  10  21  33  55  87 120 154 202 248 303 366
#
# _framework density 19.714421999999999
#
# number of rings (size 3 to 8) (size 9 to 14) (size 15 to 20)
#    0.000    2.333    1.667    1.000    4.667    3.333 
#    0.000    0.000    0.000    8.000    0.000    0.000 
#    0.000    0.000    0.000    0.000    0.000    0.000 
#
# Total GULP energy -267709.495515 kJ/mol
# GULP energy per Si atom -5577.281157 kJ/mol
# Density = 1.966955 g / cm^3
# Si number density = 19.714422 Si / 1000 Ang^3
#
#
#
# Elastic Constant Matrix: (Units=GPa)
#
#
# Indices 1 2 3 4 5 6 
#
# 1 175.7145 15.2129 99.8079 0.0000 0.0000 0.0000
# 2 15.2129 25.5427 6.0820 0.0000 0.0000 0.0000
# 3 99.8079 6.0820 170.0249 0.0000 0.0000 0.0000
# 4 0.0000 0.0000 0.0000 -11.3146 0.0000 0.0000
# 5 0.0000 0.0000 0.0000 0.0000 19.5682 0.0000
# 6 0.0000 0.0000 0.0000 0.0000 0.0000 6.5196
#
#
#
# Elastic Compliance Matrix: (Units=1/GPa)
#
#
# Indices 1 2 3 4 5 6 
#
# 1 0.008947 -0.004113 -0.005105 0.000000 0.000000 0.000000
# 2 -0.004113 0.041377 0.000934 0.000000 0.000000 0.000000
# 3 -0.005105 0.000934 0.008845 0.000000 0.000000 0.000000
# 4 0.000000 0.000000 0.000000 -0.088382 0.000000 0.000000
# 5 0.000000 0.000000 0.000000 0.000000 0.051103 0.000000
# 6 0.000000 0.000000 0.000000 0.000000 0.000000 0.153385
#
#
# Mechanical properties :
#
#
# Convention : Reuss Voigt Hill
#
# Bulk Modulus (GPa) = 23.47325 68.16531 45.81928
# Shear Modulus (GPa) = 24.26684 19.63326 21.95005
#
# Velocity S-wave (km/s) = 3.51225 3.15919 3.34039
# Velocity P-wave (km/s) = 5.32732 6.92522 6.17815
#
# Compressibility (1/GPa) = 0.04260168
#
# Stress axis : x y z
#
# Youngs Moduli (GPa) = 111.77279 24.16785 113.06242
#
# Poissons Ratio (x) = 0.09940 0.57716
# Poissons Ratio (y) = 0.45973 -0.10564
# Poissons Ratio (z) = 0.57057 -0.02258
#
# Static dielectric constant tensor:
#      x y z
#    x 1.694020 0.000000 0.000000 
#    y 0.000000 -0.053680 0.000000 
#    z 0.000000 0.000000 1.666940 
# 
# From -- ./inp_files/12274.got.cif
#   From: 2010.05.17/outbox.cif.g08.bks.cpg/sg62_7_cif.got.tgz:12274.got - 2010.06.03 15:25:27.
