data_PCOD9462360
_publ_section_title
;
Structure prediction by ZEFSAII (Michael W. Deem and Ramdas Pophale) SiO2 
 PCOD9462360
Probable space group: P N M A
;
_chemical_formula_sum "Si O2"
_cell_formula_units_Z 56
_cell_length_a 22.748723
_cell_length_b 7.573650
_cell_length_c 15.169491
_cell_angle_alpha 90.000000
_cell_angle_beta 90.000000
_cell_angle_gamma 90.000000
_cell_volume 2613.564740
_symmetry_space_group_name_H-M "P N M A"
_symmetry_group_IT_number 62
_symmetry_cell_setting 'orthorhombic'
loop_
_space_group_symop_operation_xyz
x,y,z
1/2-x,-y,1/2+z
1/2+x,1/2-y,1/2-z
-x,1/2+y,-z
-x,-y,-z
1/2+x,y,1/2-z
1/2-x,1/2+y,1/2+z
x,1/2-y,z
loop_
_atom_site_type_symbol
_atom_site_label
_atom_site_fract_x
_atom_site_fract_y
_atom_site_fract_z
Si Si1 0.280262 0.965920 0.834885
Si Si2 0.618867 0.035214 0.293511
Si Si3 0.431619 0.541963 0.520821
Si Si4 0.864304 0.962542 0.507174
Si Si5 0.353567 0.462481 0.350146
Si Si6 0.592681 0.541424 0.828982
Si Si7 0.965157 0.964705 0.630342
O O1 0.280318 0.750000 0.833145
O O2 0.318796 0.022390 0.749619
O O3 0.213448 0.026863 0.843390
O O4 0.315156 0.019705 0.923274
O O5 0.621919 0.250000 0.297651
O O6 0.596493 0.967638 0.388218
O O7 0.570362 0.992202 0.219343
O O8 0.500000 0.500000 0.500000
O O9 0.431065 0.750000 0.533016
O O10 0.389605 0.499822 0.438538
O O11 0.864313 0.750000 0.507860
O O12 0.926007 0.027829 0.548705
O O13 0.860156 0.019810 0.406566
O O14 0.350342 0.250000 0.343502
O O15 0.387767 0.531637 0.264542
O O16 0.583302 0.750000 0.816170
O O17 0.530823 0.466038 0.862113
O O18 0.966199 0.750000 0.624281
#
# Coordination Sequence:
#
# PCOD9462360 Si02
#       7
#     8   8   8   8   8   8   8
#     4   8  16  33  54  75 100 133 173 213 258 312
#     4   8  15  30  53  76  98 132 176 214 253 309
#     4  11  22  36  57  83 110 141 179 224 270 317
#     4   9  17  30  50  72  96 128 163 202 249 304
#     4  10  21  36  53  74 103 138 175 216 259 306
#     4  10  19  30  47  71  99 131 165 206 255 303
#     4   8  14  27  47  71  97 125 160 201 247 301
#
# _framework density 21.426673000000001
#
# number of rings (size 3 to 8) (size 9 to 14) (size 15 to 20)
#    0.000    2.857    0.000    3.429    0.000    4.000 
#    0.000    2.143    0.000   10.286    0.000    0.000 
#    0.000    0.000    0.000    0.000    0.000    0.000 
#
# Total GULP energy -312380.081461 kJ/mol
# GULP energy per Si atom -5578.215740 kJ/mol
# Density = 2.137790 g / cm^3
# Si number density = 21.426673 Si / 1000 Ang^3
#
#
#
# Elastic Constant Matrix: (Units=GPa)
#
#
# Indices 1 2 3 4 5 6 
#
# 1 131.8737 3.2652 62.8077 0.0000 0.0000 0.0000
# 2 3.2652 45.6866 -5.9156 0.0000 0.0000 0.0000
# 3 62.8077 -5.9156 171.8865 0.0000 0.0000 0.0000
# 4 0.0000 0.0000 0.0000 10.8803 0.0000 0.0000
# 5 0.0000 0.0000 0.0000 0.0000 14.7045 0.0000
# 6 0.0000 0.0000 0.0000 0.0000 0.0000 7.7117
#
#
#
# Elastic Compliance Matrix: (Units=1/GPa)
#
#
# Indices 1 2 3 4 5 6 
#
# 1 0.009236 -0.001102 -0.003413 0.000000 0.000000 0.000000
# 2 -0.001102 0.022118 0.001164 0.000000 0.000000 0.000000
# 3 -0.003413 0.001164 0.007105 0.000000 0.000000 0.000000
# 4 0.000000 0.000000 0.000000 0.091910 0.000000 0.000000
# 5 0.000000 0.000000 0.000000 0.000000 0.068006 0.000000
# 6 0.000000 0.000000 0.000000 0.000000 0.000000 0.129672
#
#
# Mechanical properties :
#
#
# Convention : Reuss Voigt Hill
#
# Bulk Modulus (GPa) = 31.48942 52.19571 41.84256
# Shear Modulus (GPa) = 14.47875 25.94526 20.21201
#
# Velocity S-wave (km/s) = 2.60231 3.48355 3.07467
# Velocity P-wave (km/s) = 4.87418 6.37128 5.67234
#
# Compressibility (1/GPa) = 0.03175670
#
# Stress axis : x y z
#
# Youngs Moduli (GPa) = 108.27609 45.21264 140.74913
#
# Poissons Ratio (x) = 0.04982 0.48033
# Poissons Ratio (y) = 0.11932 -0.16381
# Poissons Ratio (z) = 0.36951 -0.05262
#
# Static dielectric constant tensor:
#      x y z
#    x 1.732570 0.000000 0.000000 
#    y 0.000000 1.805600 0.000000 
#    z 0.000000 0.000000 1.768010 
# 
# From -- ./inp_files/20432.got.cif
#   From: 2010.05.17/outbox.cif.g08.bks.cpg/sg62_11_cif.got.tgz:20432.got - 2010.06.03 15:25:27.
