data_PCOD9462792
_publ_section_title
;
Structure prediction by ZEFSAII (Michael W. Deem and Ramdas Pophale) SiO2 
 PCOD9462792
Probable space group: P N M A
;
_chemical_formula_sum "Si O2"
_cell_formula_units_Z 56
_cell_length_a 19.669258
_cell_length_b 8.641687
_cell_length_c 14.398748
_cell_angle_alpha 90.000000
_cell_angle_beta 90.000000
_cell_angle_gamma 90.000000
_cell_volume 2447.435415
_symmetry_space_group_name_H-M "P N M A"
_symmetry_group_IT_number 62
_symmetry_cell_setting 'orthorhombic'
loop_
_space_group_symop_operation_xyz
x,y,z
1/2-x,-y,1/2+z
1/2+x,1/2-y,1/2-z
-x,1/2+y,-z
-x,-y,-z
1/2+x,y,1/2-z
1/2-x,1/2+y,1/2+z
x,1/2-y,z
loop_
_atom_site_type_symbol
_atom_site_label
_atom_site_fract_x
_atom_site_fract_y
_atom_site_fract_z
Si Si1 0.792955 0.432914 0.061069
Si Si2 0.148018 0.435569 0.224309
Si Si3 0.288382 0.568652 0.233574
Si Si4 0.643835 0.438222 0.058575
Si Si5 0.073036 0.065966 0.617595
Si Si6 0.932817 0.570867 0.044078
Si Si7 0.495755 0.432519 0.285965
O O1 0.795569 0.250000 0.048555
O O2 0.794513 0.471029 0.171482
O O3 0.719355 0.490226 0.027625
O O4 0.860042 0.504121 0.016889
O O5 0.158416 0.250000 0.218371
O O6 0.215530 0.520983 0.190090
O O7 0.139232 0.478670 0.333548
O O8 0.073211 0.469452 0.185178
O O9 0.286239 0.750000 0.258515
O O10 0.353178 0.546059 0.167652
O O11 0.643223 0.250000 0.054048
O O12 0.586236 0.490525 0.987298
O O13 0.056956 0.250000 0.619244
O O14 0.019576 0.972509 0.679228
O O15 0.932236 0.750000 0.025296
O O16 0.944779 0.533873 0.152849
O O17 0.000000 0.500000 0.000000
O O18 0.484175 0.250000 0.302086
#
# Coordination Sequence:
#
# PCOD9462792 Si02
#       7
#     8   8   8   8   8   8   8
#     4  10  19  36  60  83 114 153 190 238 294 350
#     4   9  20  38  58  81 115 157 201 249 298 349
#     4  10  19  32  55  84 112 150 198 245 293 353
#     4   8  17  35  58  84 115 153 195 241 293 344
#     4  10  20  35  57  85 117 154 196 241 292 355
#     4  12  25  41  61  87 118 154 195 244 300 363
#     4  11  23  39  59  86 119 158 200 245 299 358
#
# _framework density 22.881095999999999
#
# number of rings (size 3 to 8) (size 9 to 14) (size 15 to 20)
#    0.000    2.000    1.429    3.429    0.000    3.429 
#    0.000    5.000    0.000    0.000    0.000    0.000 
#    0.000    0.000    0.000    0.000    0.000    0.000 
#
# Total GULP energy -313045.166171 kJ/mol
# GULP energy per Si atom -5590.092253 kJ/mol
# Density = 2.282902 g / cm^3
# Si number density = 22.881096 Si / 1000 Ang^3
#
#
#
# Elastic Constant Matrix: (Units=GPa)
#
#
# Indices 1 2 3 4 5 6 
#
# 1 108.5699 24.9039 -4.1079 0.0000 0.0000 0.0000
# 2 24.9039 50.7888 -8.3124 0.0000 0.0000 0.0000
# 3 -4.1079 -8.3124 43.9808 0.0000 0.0000 0.0000
# 4 0.0000 0.0000 0.0000 14.8520 0.0000 0.0000
# 5 0.0000 0.0000 0.0000 0.0000 37.2790 0.0000
# 6 0.0000 0.0000 0.0000 0.0000 0.0000 31.3132
#
#
#
# Elastic Compliance Matrix: (Units=1/GPa)
#
#
# Indices 1 2 3 4 5 6 
#
# 1 0.010378 -0.005087 0.000008 0.000000 0.000000 0.000000
# 2 -0.005087 0.022812 0.003836 0.000000 0.000000 0.000000
# 3 0.000008 0.003836 0.023463 0.000000 0.000000 0.000000
# 4 0.000000 0.000000 0.000000 0.067331 0.000000 0.000000
# 5 0.000000 0.000000 0.000000 0.000000 0.026825 0.000000
# 6 0.000000 0.000000 0.000000 0.000000 0.000000 0.031935
#
#
# Mechanical properties :
#
#
# Convention : Reuss Voigt Hill
#
# Bulk Modulus (GPa) = 18.46179 25.36743 21.91461
# Shear Modulus (GPa) = 24.59587 29.41255 27.00421
#
# Velocity S-wave (km/s) = 3.28219 3.58921 3.43913
# Velocity P-wave (km/s) = 4.73812 5.31858 5.03672
#
# Compressibility (1/GPa) = 0.05416592
#
# Stress axis : x y z
#
# Youngs Moduli (GPa) = 96.35842 43.83687 42.62033
#
# Poissons Ratio (x) = 0.22302 -0.00033
# Poissons Ratio (y) = 0.49022 -0.16350
# Poissons Ratio (z) = -0.00075 -0.16817
#
# Static dielectric constant tensor:
#      x y z
#    x 1.389880 0.000000 0.000000 
#    y 0.000000 1.765210 0.000000 
#    z 0.000000 0.000000 2.395050 
# 
# From -- ./inp_files/20303.got.cif
#   From: 2010.05.17/outbox.cif.g08.bks.cpg/sg62_11_cif.got.tgz:20303.got - 2010.06.03 15:25:27.
