data_PCOD9462490
_publ_section_title
;
Structure prediction by ZEFSAII (Michael W. Deem and Ramdas Pophale) SiO2 
 PCOD9462490
Probable space group: P N M A
;
_chemical_formula_sum "Si O2"
_cell_formula_units_Z 48
_cell_length_a 28.949668
_cell_length_b 7.493596
_cell_length_c 7.934485
_cell_angle_alpha 90.000000
_cell_angle_beta 90.000000
_cell_angle_gamma 90.000000
_cell_volume 1721.284295
_symmetry_space_group_name_H-M "P N M A"
_symmetry_group_IT_number 62
_symmetry_cell_setting 'orthorhombic'
loop_
_space_group_symop_operation_xyz
x,y,z
1/2-x,-y,1/2+z
1/2+x,1/2-y,1/2-z
-x,1/2+y,-z
-x,-y,-z
1/2+x,y,1/2-z
1/2-x,1/2+y,1/2+z
x,1/2-y,z
loop_
_atom_site_type_symbol
_atom_site_label
_atom_site_fract_x
_atom_site_fract_y
_atom_site_fract_z
Si Si1 0.347919 0.535366 0.152893
Si Si2 0.430205 0.536350 0.938565
Si Si3 0.176364 0.957486 0.183106
Si Si4 0.989616 0.462935 0.222220
Si Si5 0.592991 0.960615 0.513660
Si Si6 0.739507 0.544316 0.025114
O O1 0.346410 0.750000 0.153591
O O2 0.379518 0.473296 0.993359
O O3 0.296437 0.464906 0.130845
O O4 0.375457 0.477885 0.318023
O O5 0.428724 0.750000 0.923392
O O6 0.459845 0.466756 0.778953
O O7 0.460073 0.495226 0.106723
O O8 0.168455 0.750000 0.222196
O O9 0.127251 0.039024 0.128386
O O10 0.212134 0.962767 0.026787
O O11 0.207671 0.041034 0.329687
O O12 0.992306 0.250000 0.201561
O O13 0.956909 0.536860 0.072213
O O14 0.587573 0.750000 0.485610
O O15 0.748770 0.750000 0.070393
#
# Coordination Sequence:
#
# PCOD9462490 Si02
#       6
#     8   8   8   8   8   8
#     4  10  19  31  49  74 103 132 163 201 242 284
#     4   8  14  24  40  66  98 128 159 196 235 274
#     4  10  22  38  54  74  98 124 158 199 243 291
#     4   8  13  23  42  68  96 127 161 195 233 276
#     4   9  17  31  52  76 102 131 163 200 241 286
#     4  11  23  37  53  72  95 125 160 198 242 292
#
# _framework density 27.886151999999999
#
# number of rings (size 3 to 8) (size 9 to 14) (size 15 to 20)
#    0.000    2.667    0.000    2.000    0.000    5.333 
#    0.000    0.000    0.000    1.000    0.000    0.000 
#    0.000    0.000    0.000    0.000    0.000    1.333 
#
# Total GULP energy -268637.731487 kJ/mol
# GULP energy per Si atom -5596.619406 kJ/mol
# Density = 2.782268 g / cm^3
# Si number density = 27.886152 Si / 1000 Ang^3
#
#
#
# Elastic Constant Matrix: (Units=GPa)
#
#
# Indices 1 2 3 4 5 6 
#
# 1 223.6813 16.9193 23.6885 0.0000 0.0000 0.0000
# 2 16.9193 133.7511 19.9137 0.0000 0.0000 0.0000
# 3 23.6885 19.9137 105.1458 0.0000 0.0000 0.0000
# 4 0.0000 0.0000 0.0000 22.1047 0.0000 0.0000
# 5 0.0000 0.0000 0.0000 0.0000 64.9654 0.0000
# 6 0.0000 0.0000 0.0000 0.0000 0.0000 10.5945
#
#
#
# Elastic Compliance Matrix: (Units=1/GPa)
#
#
# Indices 1 2 3 4 5 6 
#
# 1 0.004605 -0.000440 -0.000954 0.000000 0.000000 0.000000
# 2 -0.000440 0.007736 -0.001366 0.000000 0.000000 0.000000
# 3 -0.000954 -0.001366 0.009984 0.000000 0.000000 0.000000
# 4 0.000000 0.000000 0.000000 0.045239 0.000000 0.000000
# 5 0.000000 0.000000 0.000000 0.000000 0.015393 0.000000
# 6 0.000000 0.000000 0.000000 0.000000 0.000000 0.094388
#
#
# Mechanical properties :
#
#
# Convention : Reuss Voigt Hill
#
# Bulk Modulus (GPa) = 59.50909 64.84680 62.17794
# Shear Modulus (GPa) = 26.52978 46.33672 36.43325
#
# Velocity S-wave (km/s) = 3.08776 4.08074 3.61847
# Velocity P-wave (km/s) = 5.83941 6.74595 6.30898
#
# Compressibility (1/GPa) = 0.01680416
#
# Stress axis : x y z
#
# Youngs Moduli (GPa) = 217.15522 129.27167 100.15806
#
# Poissons Ratio (x) = 0.05694 0.09556
# Poissons Ratio (y) = 0.09565 0.13680
# Poissons Ratio (z) = 0.20718 0.17656
#
# Static dielectric constant tensor:
#      x y z
#    x 2.169110 0.000000 0.000000 
#    y 0.000000 1.773760 0.000000 
#    z 0.000000 0.000000 2.360060 
# 
# From -- ./inp_files/10215.got.cif
#   From: 2010.05.17/outbox.cif.g08.bks.cpg/sg62_6_cif.got.tgz:10215.got - 2010.06.03 15:25:27.
