data_PCOD9462999
_publ_section_title
;
Structure prediction by ZEFSAII (Michael W. Deem and Ramdas Pophale) SiO2 
 PCOD9462999
Probable space group: P N M A
;
_chemical_formula_sum "Si O2"
_cell_formula_units_Z 48
_cell_length_a 30.381315
_cell_length_b 8.267380
_cell_length_c 10.513396
_cell_angle_alpha 90.000000
_cell_angle_beta 90.000000
_cell_angle_gamma 90.000000
_cell_volume 2640.690423
_symmetry_space_group_name_H-M "P N M A"
_symmetry_group_IT_number 62
_symmetry_cell_setting 'orthorhombic'
loop_
_space_group_symop_operation_xyz
x,y,z
1/2-x,-y,1/2+z
1/2+x,1/2-y,1/2-z
-x,1/2+y,-z
-x,-y,-z
1/2+x,y,1/2-z
1/2-x,1/2+y,1/2+z
x,1/2-y,z
loop_
_atom_site_type_symbol
_atom_site_label
_atom_site_fract_x
_atom_site_fract_y
_atom_site_fract_z
Si Si1 0.885588 0.444826 0.223683
Si Si2 0.976044 0.557309 0.126327
Si Si3 0.473310 0.445819 0.876159
Si Si4 0.716320 0.554767 0.010067
Si Si5 0.616918 0.946925 0.016332
Si Si6 0.214069 0.554864 0.781166
O O1 0.885934 0.250000 0.221452
O O2 0.925378 0.504963 0.138064
O O3 0.893393 0.495515 0.370614
O O4 0.836113 0.498497 0.189438
O O5 0.977508 0.750000 0.130338
O O6 0.002402 0.493750 0.250015
O O7 0.000000 0.500000 0.000000
O O8 0.473192 0.250000 0.873256
O O9 0.422747 0.500747 0.893609
O O10 0.500000 0.500000 0.000000
O O11 0.716025 0.750000 0.008479
O O12 0.666654 0.500050 0.045520
O O13 0.751745 0.500024 0.112740
O O14 0.724942 0.501259 0.863846
O O15 0.617365 0.750000 0.017895
O O16 0.213812 0.750000 0.779280
#
# Coordination Sequence:
#
# PCOD9462999 Si02
#       6
#     8   8   8   8   8   8
#     4   9  17  34  58  76 100 140 177 213 262 315
#     4  11  23  36  52  78 111 143 176 216 261 316
#     4  10  19  33  56  81 103 132 174 217 257 307
#     4   9  18  34  55  77 105 139 175 214 260 314
#     4   8  15  31  55  78 100 132 172 215 262 309
#     4   9  19  35  55  80 106 135 174 216 261 315
#
# _framework density 18.177064000000001
#
# number of rings (size 3 to 8) (size 9 to 14) (size 15 to 20)
#    0.000    2.667    1.667    2.500    0.000    2.000 
#    3.000    3.333    0.000    0.000    0.000    0.000 
#    0.000    0.000    0.000    0.000    0.000    0.000 
#
# Total GULP energy -267592.221776 kJ/mol
# GULP energy per Si atom -5574.837954 kJ/mol
# Density = 1.813569 g / cm^3
# Si number density = 18.177064 Si / 1000 Ang^3
#
#
#
# Elastic Constant Matrix: (Units=GPa)
#
#
# Indices 1 2 3 4 5 6 
#
# 1 174.2869 18.4885 103.6318 0.0000 0.0000 0.0000
# 2 18.4885 9.8231 15.0481 0.0000 0.0000 0.0000
# 3 103.6318 15.0481 126.1081 0.0000 0.0000 0.0000
# 4 0.0000 0.0000 0.0000 23.5240 0.0000 0.0000
# 5 0.0000 0.0000 0.0000 0.0000 38.3394 0.0000
# 6 0.0000 0.0000 0.0000 0.0000 0.0000 27.2957
#
#
#
# Elastic Compliance Matrix: (Units=1/GPa)
#
#
# Indices 1 2 3 4 5 6 
#
# 1 0.011840 -0.009031 -0.008653 0.000000 0.000000 0.000000
# 2 -0.009031 0.131459 -0.008266 0.000000 0.000000 0.000000
# 3 -0.008653 -0.008266 0.016026 0.000000 0.000000 0.000000
# 4 0.000000 0.000000 0.000000 0.042510 0.000000 0.000000
# 5 0.000000 0.000000 0.000000 0.000000 0.026083 0.000000
# 6 0.000000 0.000000 0.000000 0.000000 0.000000 0.036636
#
#
# Mechanical properties :
#
#
# Convention : Reuss Voigt Hill
#
# Bulk Modulus (GPa) = 9.30848 64.95053 37.12951
# Shear Modulus (GPa) = 14.19398 29.36846 21.78122
#
# Velocity S-wave (km/s) = 2.79744 4.02392 3.46537
# Velocity P-wave (km/s) = 3.94542 7.57621 6.04009
#
# Compressibility (1/GPa) = 0.10742889
#
# Stress axis : x y z
#
# Youngs Moduli (GPa) = 84.45600 7.60691 62.39690
#
# Poissons Ratio (x) = 0.06869 0.53989
# Poissons Ratio (y) = 0.76268 0.51575
# Poissons Ratio (z) = 0.73076 0.06288
#
# Static dielectric constant tensor:
#      x y z
#    x 1.637850 0.000000 0.000000 
#    y 0.000000 1.638000 0.000000 
#    z 0.000000 0.000000 1.615610 
# 
# From -- ./inp_files/10191.got.cif
#   From: 2010.05.17/outbox.cif.g08.bks.cpg/sg62_6_cif.got.tgz:10191.got - 2010.06.03 15:25:27.
