data_PCOD9462628
_publ_section_title
;
Structure prediction by ZEFSAII (Michael W. Deem and Ramdas Pophale) SiO2 
 PCOD9462628
Probable space group: P N M A
;
_chemical_formula_sum "Si O2"
_cell_formula_units_Z 64
_cell_length_a 17.557799
_cell_length_b 7.570770
_cell_length_c 19.478979
_cell_angle_alpha 90.000000
_cell_angle_beta 90.000000
_cell_angle_gamma 90.000000
_cell_volume 2589.263891
_symmetry_space_group_name_H-M "P N M A"
_symmetry_group_IT_number 62
_symmetry_cell_setting 'orthorhombic'
loop_
_space_group_symop_operation_xyz
x,y,z
1/2-x,-y,1/2+z
1/2+x,1/2-y,1/2-z
-x,1/2+y,-z
-x,-y,-z
1/2+x,y,1/2-z
1/2-x,1/2+y,1/2+z
x,1/2-y,z
loop_
_atom_site_type_symbol
_atom_site_label
_atom_site_fract_x
_atom_site_fract_y
_atom_site_fract_z
Si Si1 0.998836 0.452034 0.612922
Si Si2 0.006660 0.045400 0.155157
Si Si3 0.619425 0.455394 0.558083
Si Si4 0.271061 0.533990 0.555520
Si Si5 0.612350 0.534023 0.008461
Si Si6 0.898490 0.550988 0.270383
Si Si7 0.175716 0.465344 0.198387
Si Si8 0.234963 0.948164 0.820326
O O1 0.985222 0.250000 0.635316
O O2 0.055419 0.456972 0.548026
O O3 0.049405 0.537426 0.671809
O O4 0.919652 0.523180 0.582714
O O5 0.003741 0.250000 0.176206
O O6 0.092715 0.988078 0.168410
O O7 0.959733 0.036372 0.084185
O O8 0.953896 0.936606 0.205729
O O9 0.604273 0.250000 0.548267
O O10 0.655845 0.526637 0.487929
O O11 0.687607 0.470106 0.616095
O O12 0.272868 0.750000 0.555700
O O13 0.196284 0.481473 0.513563
O O14 0.270309 0.478752 0.634826
O O15 0.607565 0.750000 0.006711
O O16 0.874646 0.750000 0.290746
O O17 0.827203 0.446046 0.241492
O O18 0.178583 0.250000 0.203153
O O19 0.195871 0.530512 0.275432
O O20 0.254188 0.750000 0.842000
#
# Coordination Sequence:
#
# PCOD9462628 Si02
#       8
#     8   8   8   8   8   8   8   8
#     4   9  18  30  46  72 103 131 160 202 250 296
#     4  10  20  35  53  73  99 130 169 213 255 300
#     4  10  20  35  55  78 105 136 170 209 256 308
#     4   9  18  33  53  75 100 133 173 212 251 301
#     4   9  17  31  50  71  97 132 170 202 242 301
#     4  10  19  32  50  73 103 133 164 204 252 305
#     4   9  19  34  53  78 103 131 171 216 254 295
#     4  10  19  34  56  78 102 133 171 212 254 303
#
# _framework density 24.717448999999998
#
# number of rings (size 3 to 8) (size 9 to 14) (size 15 to 20)
#    0.000    2.500    0.000    3.750    0.000    3.500 
#    0.000    5.000    0.000    6.750    0.000    0.000 
#    0.000    0.000    0.000    0.000    0.000    0.000 
#
# Total GULP energy -356953.208065 kJ/mol
# GULP energy per Si atom -5577.393876 kJ/mol
# Density = 2.466119 g / cm^3
# Si number density = 24.717449 Si / 1000 Ang^3
#
#
#
# Elastic Constant Matrix: (Units=GPa)
#
#
# Indices 1 2 3 4 5 6 
#
# 1 63.4028 2.9513 -7.5278 0.0000 0.0000 0.0000
# 2 2.9513 73.7821 -6.2243 0.0000 0.0000 0.0000
# 3 -7.5278 -6.2243 53.6796 0.0000 0.0000 0.0000
# 4 0.0000 0.0000 0.0000 11.7620 0.0000 0.0000
# 5 0.0000 0.0000 0.0000 0.0000 25.8321 0.0000
# 6 0.0000 0.0000 0.0000 0.0000 0.0000 10.1927
#
#
#
# Elastic Compliance Matrix: (Units=1/GPa)
#
#
# Indices 1 2 3 4 5 6 
#
# 1 0.016054 -0.000457 0.002198 0.000000 0.000000 0.000000
# 2 -0.000457 0.013700 0.001525 0.000000 0.000000 0.000000
# 3 0.002198 0.001525 0.019114 0.000000 0.000000 0.000000
# 4 0.000000 0.000000 0.000000 0.085019 0.000000 0.000000
# 5 0.000000 0.000000 0.000000 0.000000 0.038712 0.000000
# 6 0.000000 0.000000 0.000000 0.000000 0.000000 0.098109
#
#
# Mechanical properties :
#
#
# Convention : Reuss Voigt Hill
#
# Bulk Modulus (GPa) = 18.05006 18.80697 18.42851
# Shear Modulus (GPa) = 17.69011 23.00171 20.34591
#
# Velocity S-wave (km/s) = 2.67815 3.05386 2.87215
# Velocity P-wave (km/s) = 4.10873 4.47884 4.29778
#
# Compressibility (1/GPa) = 0.05540149
#
# Stress axis : x y z
#
# Youngs Moduli (GPa) = 62.28796 72.99103 52.31731
#
# Poissons Ratio (x) = 0.03334 -0.11502
# Poissons Ratio (y) = 0.02845 -0.07976
# Poissons Ratio (z) = -0.13694 -0.11128
#
# Static dielectric constant tensor:
#      x y z
#    x 2.034230 0.000000 0.000000 
#    y 0.000000 1.914130 0.000000 
#    z 0.000000 0.000000 2.027940 
# 
# From -- ./inp_files/27737.got.cif
#   From: 2010.05.17/outbox.cif.g08.bks.cpg/sg62_14_cif.got.tgz:27737.got - 2010.06.03 15:25:27.
