data_PCOD9462176
_publ_section_title
;
Structure prediction by ZEFSAII (Michael W. Deem and Ramdas Pophale) SiO2 
 PCOD9462176
Probable space group: P N M A
;
_chemical_formula_sum "Si O2"
_cell_formula_units_Z 56
_cell_length_a 21.250981
_cell_length_b 7.564579
_cell_length_c 15.003609
_cell_angle_alpha 90.000000
_cell_angle_beta 90.000000
_cell_angle_gamma 90.000000
_cell_volume 2411.901033
_symmetry_space_group_name_H-M "P N M A"
_symmetry_group_IT_number 62
_symmetry_cell_setting 'orthorhombic'
loop_
_space_group_symop_operation_xyz
x,y,z
1/2-x,-y,1/2+z
1/2+x,1/2-y,1/2-z
-x,1/2+y,-z
-x,-y,-z
1/2+x,y,1/2-z
1/2-x,1/2+y,1/2+z
x,1/2-y,z
loop_
_atom_site_type_symbol
_atom_site_label
_atom_site_fract_x
_atom_site_fract_y
_atom_site_fract_z
Si Si1 0.902566 0.464367 0.081292
Si Si2 0.727563 0.533821 0.897070
Si Si3 0.978973 0.946212 0.597372
Si Si4 0.783502 0.462902 0.196584
Si Si5 0.837162 0.041272 0.580600
Si Si6 0.630580 0.453697 0.387010
Si Si7 0.013070 0.031527 0.213327
O O1 0.902103 0.250000 0.075542
O O2 0.838538 0.522892 0.130448
O O3 0.961290 0.519078 0.141291
O O4 0.903541 0.538129 0.982163
O O5 0.726679 0.750000 0.901100
O O6 0.704660 0.480428 0.798606
O O7 0.800008 0.470486 0.900295
O O8 0.690256 0.476305 0.985164
O O9 0.004420 0.750000 0.605401
O O10 0.002312 0.035963 0.687928
O O11 0.903332 0.951570 0.601524
O O12 0.000000 0.000000 0.500000
O O13 0.784701 0.250000 0.197490
O O14 0.716205 0.515524 0.155656
O O15 0.850143 0.250000 0.572740
O O16 0.641028 0.250000 0.360552
O O17 0.582159 0.531223 0.316282
O O18 0.014667 0.250000 0.212982
#
# Coordination Sequence:
#
# PCOD9462176 Si02
#       7
#     8   8   8   8   8   8   8
#     4  10  20  34  56  87 116 147 192 243 291 341
#     4   9  19  34  57  82 110 156 199 232 285 360
#     4  11  24  43  65  88 118 155 201 245 293 352
#     4  10  20  36  59  84 116 156 199 241 289 348
#     4  11  22  39  62  88 119 153 196 246 297 349
#     4  10  18  35  58  83 115 153 194 235 287 348
#     4   9  20  37  60  84 113 157 199 232 281 359
#
# _framework density 23.218201000000001
#
# number of rings (size 3 to 8) (size 9 to 14) (size 15 to 20)
#    0.000    2.000    1.429    2.143    2.000    2.286 
#    0.000    6.429    0.000    0.000    0.000    0.000 
#    0.000    0.000    0.000    0.000    0.000    0.000 
#
# Total GULP energy -312956.945366 kJ/mol
# GULP energy per Si atom -5588.516882 kJ/mol
# Density = 2.316535 g / cm^3
# Si number density = 23.218201 Si / 1000 Ang^3
#
#
#
# Elastic Constant Matrix: (Units=GPa)
#
#
# Indices 1 2 3 4 5 6 
#
# 1 28.4013 -15.4532 -14.8912 0.0000 0.0000 0.0000
# 2 -15.4532 52.0330 -10.6127 0.0000 0.0000 0.0000
# 3 -14.8912 -10.6127 105.7141 0.0000 0.0000 0.0000
# 4 0.0000 0.0000 0.0000 11.6642 0.0000 0.0000
# 5 0.0000 0.0000 0.0000 0.0000 32.7901 0.0000
# 6 0.0000 0.0000 0.0000 0.0000 0.0000 11.1180
#
#
#
# Elastic Compliance Matrix: (Units=1/GPa)
#
#
# Indices 1 2 3 4 5 6 
#
# 1 0.048384 0.016089 0.008431 0.000000 0.000000 0.000000
# 2 0.016089 0.024970 0.004773 0.000000 0.000000 0.000000
# 3 0.008431 0.004773 0.011126 0.000000 0.000000 0.000000
# 4 0.000000 0.000000 0.000000 0.085732 0.000000 0.000000
# 5 0.000000 0.000000 0.000000 0.000000 0.030497 0.000000
# 6 0.000000 0.000000 0.000000 0.000000 0.000000 0.089945
#
#
# Mechanical properties :
#
#
# Convention : Reuss Voigt Hill
#
# Bulk Modulus (GPa) = 6.98976 11.58158 9.28567
# Shear Modulus (GPa) = 17.87260 26.25481 22.06371
#
# Velocity S-wave (km/s) = 2.77748 3.36636 3.08600
# Velocity P-wave (km/s) = 3.64731 4.48429 4.08728
#
# Compressibility (1/GPa) = 0.14306633
#
# Stress axis : x y z
#
# Youngs Moduli (GPa) = 20.66798 40.04746 89.87775
#
# Poissons Ratio (x) = -0.64432 -0.75773
# Poissons Ratio (y) = -0.33253 -0.42900
# Poissons Ratio (z) = -0.17425 -0.19115
#
# Static dielectric constant tensor:
#      x y z
#    x 1.838350 0.000000 0.000000 
#    y 0.000000 2.253910 0.000000 
#    z 0.000000 0.000000 1.880610 
# 
# From -- ./inp_files/20204.got.cif
#   From: 2010.05.17/outbox.cif.g08.bks.cpg/sg62_11_cif.got.tgz:20204.got - 2010.06.03 15:25:27.
