data_PCOD9462927
_publ_section_title
;
Structure prediction by ZEFSAII (Michael W. Deem and Ramdas Pophale) SiO2 
 PCOD9462927
Probable space group: P N M A
;
_chemical_formula_sum "Si O2"
_cell_formula_units_Z 48
_cell_length_a 15.571516
_cell_length_b 7.642812
_cell_length_c 19.640639
_cell_angle_alpha 90.000000
_cell_angle_beta 90.000000
_cell_angle_gamma 90.000000
_cell_volume 2337.435773
_symmetry_space_group_name_H-M "P N M A"
_symmetry_group_IT_number 62
_symmetry_cell_setting 'orthorhombic'
loop_
_space_group_symop_operation_xyz
x,y,z
1/2-x,-y,1/2+z
1/2+x,1/2-y,1/2-z
-x,1/2+y,-z
-x,-y,-z
1/2+x,y,1/2-z
1/2-x,1/2+y,1/2+z
x,1/2-y,z
loop_
_atom_site_type_symbol
_atom_site_label
_atom_site_fract_x
_atom_site_fract_y
_atom_site_fract_z
Si Si1 0.027115 0.958686 0.077416
Si Si2 0.631712 0.544190 0.671145
Si Si3 0.219985 0.464647 0.428814
Si Si4 0.721441 0.538702 0.420605
Si Si5 0.377857 0.041275 0.176377
Si Si6 0.526612 0.460229 0.077292
O O1 0.027601 0.750000 0.084608
O O2 0.123978 0.023874 0.089986
O O3 0.956413 0.028721 0.129376
O O4 0.000000 0.000000 0.000000
O O5 0.650927 0.750000 0.679018
O O6 0.708620 0.472637 0.624419
O O7 0.624644 0.469354 0.747026
O O8 0.221075 0.250000 0.429304
O O9 0.244918 0.520150 0.505283
O O10 0.123789 0.522446 0.411204
O O11 0.719077 0.750000 0.422385
O O12 0.788757 0.486344 0.363060
O O13 0.391868 0.250000 0.181330
O O14 0.455349 0.970400 0.129614
O O15 0.528235 0.250000 0.083594
O O16 0.500000 0.500000 0.000000
#
# Coordination Sequence:
#
# PCOD9462927 Si02
#       6
#     8   8   8   8   8   8
#     4  11  22  37  59  86 113 149 195 239 283 338
#     4  10  21  39  58  82 117 150 183 232 290 340
#     4   9  17  33  56  77 105 148 185 220 274 335
#     4  10  20  36  58  81 109 150 190 226 277 338
#     4  10  22  36  56  87 117 144 184 236 284 334
#     4  10  19  33  54  81 107 141 185 226 273 331
#
# _framework density 20.535323999999999
#
# number of rings (size 3 to 8) (size 9 to 14) (size 15 to 20)
#    0.000    2.000    3.333    0.500    0.000    3.333 
#    0.000    4.167    0.000    0.000    0.000    0.000 
#    0.000    0.000    0.000    0.000    0.000    0.000 
#
# Total GULP energy -268116.857730 kJ/mol
# GULP energy per Si atom -5585.767869 kJ/mol
# Density = 2.048858 g / cm^3
# Si number density = 20.535324 Si / 1000 Ang^3
#
#
#
# Elastic Constant Matrix: (Units=GPa)
#
#
# Indices 1 2 3 4 5 6 
#
# 1 197.8340 -10.8919 107.1726 0.0000 0.0000 0.0000
# 2 -10.8919 35.4826 -5.5138 0.0000 0.0000 0.0000
# 3 107.1726 -5.5138 198.1283 0.0000 0.0000 0.0000
# 4 0.0000 0.0000 0.0000 17.1030 0.0000 0.0000
# 5 0.0000 0.0000 0.0000 0.0000 28.4484 0.0000
# 6 0.0000 0.0000 0.0000 0.0000 0.0000 18.7628
#
#
#
# Elastic Compliance Matrix: (Units=1/GPa)
#
#
# Indices 1 2 3 4 5 6 
#
# 1 0.007242 0.001621 -0.003872 0.000000 0.000000 0.000000
# 2 0.001621 0.028668 -0.000079 0.000000 0.000000 0.000000
# 3 -0.003872 -0.000079 0.007140 0.000000 0.000000 0.000000
# 4 0.000000 0.000000 0.000000 0.058469 0.000000 0.000000
# 5 0.000000 0.000000 0.000000 0.000000 0.035151 0.000000
# 6 0.000000 0.000000 0.000000 0.000000 0.000000 0.053297
#
#
# Mechanical properties :
#
#
# Convention : Reuss Voigt Hill
#
# Bulk Modulus (GPa) = 26.04889 68.10874 47.07882
# Shear Modulus (GPa) = 24.10531 35.57471 29.84001
#
# Velocity S-wave (km/s) = 3.42986 4.16669 3.81610
# Velocity P-wave (km/s) = 5.32895 7.50913 6.51094
#
# Compressibility (1/GPa) = 0.03838936
#
# Stress axis : x y z
#
# Youngs Moduli (GPa) = 138.09091 34.88190 140.06536
#
# Poissons Ratio (x) = -0.05655 0.54234
# Poissons Ratio (y) = -0.22388 0.01108
# Poissons Ratio (z) = 0.53470 0.00276
#
# Static dielectric constant tensor:
#      x y z
#    x 1.712280 0.000000 0.000000 
#    y 0.000000 1.753140 0.000000 
#    z 0.000000 0.000000 1.694890 
# 
# From -- ./inp_files/23665.got.cif
#   From: 2010.05.17/outbox.cif.g08.bks.cpg/sg62_12_cif.got.tgz:23665.got - 2010.06.03 15:25:27.
