data_PCOD9462883
_publ_section_title
;
Structure prediction by ZEFSAII (Michael W. Deem and Ramdas Pophale) SiO2 
 PCOD9462883
Probable space group: P N M A
;
_chemical_formula_sum "Si O2"
_cell_formula_units_Z 64
_cell_length_a 26.498717
_cell_length_b 7.322467
_cell_length_c 13.478743
_cell_angle_alpha 90.000000
_cell_angle_beta 90.000000
_cell_angle_gamma 90.000000
_cell_volume 2615.361118
_symmetry_space_group_name_H-M "P N M A"
_symmetry_group_IT_number 62
_symmetry_cell_setting 'orthorhombic'
loop_
_space_group_symop_operation_xyz
x,y,z
1/2-x,-y,1/2+z
1/2+x,1/2-y,1/2-z
-x,1/2+y,-z
-x,-y,-z
1/2+x,y,1/2-z
1/2-x,1/2+y,1/2+z
x,1/2-y,z
loop_
_atom_site_type_symbol
_atom_site_label
_atom_site_fract_x
_atom_site_fract_y
_atom_site_fract_z
Si Si1 0.949280 0.467056 0.438696
Si Si2 0.940867 0.467412 0.011251
Si Si3 0.691815 0.546698 0.807622
Si Si4 0.784876 0.971124 0.913523
Si Si5 0.748986 0.529243 0.115905
Si Si6 0.914988 0.473367 0.231776
Si Si7 0.612245 0.957635 0.314309
Si Si8 0.632256 0.973132 0.097217
O O1 0.942889 0.250000 0.432495
O O2 0.950538 0.530552 0.324015
O O3 0.901557 0.534211 0.504133
O O4 0.000000 0.500000 0.500000
O O5 0.930158 0.250000 0.011911
O O6 0.925340 0.537795 0.120200
O O7 0.914219 0.541806 0.911443
O O8 0.000000 0.500000 0.000000
O O9 0.678918 0.750000 0.845722
O O10 0.728970 0.460463 0.886602
O O11 0.729262 0.555111 0.714665
O O12 0.640118 0.466539 0.769247
O O13 0.785337 0.750000 0.904042
O O14 0.828777 0.044606 0.844723
O O15 0.788543 0.017154 0.028816
O O16 0.748933 0.750000 0.125715
O O17 0.691161 0.474821 0.095835
O O18 0.915887 0.250000 0.226132
O O19 0.593163 0.750000 0.306424
O O20 0.609107 0.035378 0.203347
O O21 0.631515 0.750000 0.098322
#
# Coordination Sequence:
#
# PCOD9462883 Si02
#       8
#     8   8   8   8   8   8   8   8
#     4  10  21  38  60  82 106 142 185 230 277 327
#     4  10  22  38  58  82 107 143 185 227 277 328
#     4  10  19  34  55  80 108 143 182 219 260 317
#     4  10  20  32  52  83 114 143 179 223 268 312
#     4  10  19  33  53  79 112 148 181 216 265 321
#     4   9  19  37  57  79 110 145 181 221 272 332
#     4  10  20  36  57  81 110 146 186 223 269 332
#     4   9  18  34  56  80 108 144 182 220 269 329
#
# _framework density 24.470807000000001
#
# number of rings (size 3 to 8) (size 9 to 14) (size 15 to 20)
#    0.000    2.250    1.250    1.500    1.750    5.000 
#    0.000    2.500    0.000    1.500    0.000    0.000 
#    0.000    0.000    0.000    0.000    0.000    0.000 
#
# Total GULP energy -357480.132018 kJ/mol
# GULP energy per Si atom -5585.627063 kJ/mol
# Density = 2.441511 g / cm^3
# Si number density = 24.470807 Si / 1000 Ang^3
#
#
#
# Elastic Constant Matrix: (Units=GPa)
#
#
# Indices 1 2 3 4 5 6 
#
# 1 63.8472 -12.4831 6.7842 0.0000 0.0000 0.0000
# 2 -12.4831 98.3262 4.3970 0.0000 0.0000 0.0000
# 3 6.7842 4.3970 152.2507 0.0000 0.0000 0.0000
# 4 0.0000 0.0000 0.0000 -1.7880 0.0000 0.0000
# 5 0.0000 0.0000 0.0000 0.0000 42.1557 0.0000
# 6 0.0000 0.0000 0.0000 0.0000 0.0000 17.4929
#
#
#
# Elastic Compliance Matrix: (Units=1/GPa)
#
#
# Indices 1 2 3 4 5 6 
#
# 1 0.016153 0.002086 -0.000780 0.000000 0.000000 0.000000
# 2 0.002086 0.010453 -0.000395 0.000000 0.000000 0.000000
# 3 -0.000780 -0.000395 0.006614 0.000000 0.000000 0.000000
# 4 0.000000 0.000000 0.000000 -0.559281 0.000000 0.000000
# 5 0.000000 0.000000 0.000000 0.000000 0.023722 0.000000
# 6 0.000000 0.000000 0.000000 0.000000 0.000000 0.057166
#
#
# Mechanical properties :
#
#
# Convention : Reuss Voigt Hill
#
# Bulk Modulus (GPa) = 28.53753 34.64670 31.59211
# Shear Modulus (GPa) = -11.48594 32.62052 10.56729
#
# Velocity S-wave (km/s) = -2.16885 3.65504 2.08031
# Velocity P-wave (km/s) = 2.32708 5.65699 4.32532
#
# Compressibility (1/GPa) = 0.03504158
#
# Stress axis : x y z
#
# Youngs Moduli (GPa) = 61.90788 95.66932 151.18824
#
# Poissons Ratio (x) = -0.19953 0.11793
# Poissons Ratio (y) = -0.12912 0.05969
# Poissons Ratio (z) = 0.04829 0.03777
#
# Static dielectric constant tensor:
#      x y z
#    x 1.878670 0.000000 0.000000 
#    y 0.000000 1.628230 0.000000 
#    z 0.000000 0.000000 1.723610 
# 
# From -- ./inp_files/15341.got.cif
#   From: 2010.05.17/outbox.cif.g08.bks.cpg/sg62_8_cif.got.tgz:15341.got - 2010.06.03 15:25:27.
