data_PCOD9462985
_publ_section_title
;
Structure prediction by ZEFSAII (Michael W. Deem and Ramdas Pophale) SiO2 
 PCOD9462985
Probable space group: P N M A
;
_chemical_formula_sum "Si O2"
_cell_formula_units_Z 64
_cell_length_a 20.642336
_cell_length_b 9.117342
_cell_length_c 16.934681
_cell_angle_alpha 90.000000
_cell_angle_beta 90.000000
_cell_angle_gamma 90.000000
_cell_volume 3187.161782
_symmetry_space_group_name_H-M "P N M A"
_symmetry_group_IT_number 62
_symmetry_cell_setting 'orthorhombic'
loop_
_space_group_symop_operation_xyz
x,y,z
1/2-x,-y,1/2+z
1/2+x,1/2-y,1/2-z
-x,1/2+y,-z
-x,-y,-z
1/2+x,y,1/2-z
1/2-x,1/2+y,1/2+z
x,1/2-y,z
loop_
_atom_site_type_symbol
_atom_site_label
_atom_site_fract_x
_atom_site_fract_y
_atom_site_fract_z
Si Si1 0.221114 0.582424 0.672723
Si Si2 0.889245 0.417607 0.462392
Si Si3 0.850899 0.074851 0.880526
Si Si4 0.872920 0.921357 0.213468
Si Si5 0.102207 0.423820 0.269157
Si Si6 0.482523 0.921706 0.152113
Si Si7 0.194246 0.424987 0.405544
Si Si8 0.655916 0.925939 0.561596
O O1 0.241881 0.750000 0.688873
O O2 0.166409 0.585843 0.604901
O O3 0.279961 0.486442 0.640902
O O4 0.186018 0.510834 0.747436
O O5 0.908682 0.250000 0.478974
O O6 0.947416 0.509691 0.424025
O O7 0.855107 0.492614 0.536625
O O8 0.852333 0.250000 0.872609
O O9 0.863562 0.037879 0.971997
O O10 0.896720 0.001240 0.815576
O O11 0.856614 0.750000 0.206781
O O12 0.932415 0.934781 0.274298
O O13 0.884739 0.990941 0.128064
O O14 0.094480 0.250000 0.260689
O O15 0.169243 0.452674 0.316679
O O16 0.045556 0.489471 0.322775
O O17 0.496186 0.750000 0.140553
O O18 0.189115 0.250000 0.419523
O O19 0.268214 0.466985 0.424644
O O20 0.651105 0.750000 0.572154
#
# Coordination Sequence:
#
# PCOD9462985 Si02
#       8
#     8   8   8   8   8   8   8   8
#     4  10  19  33  55  84 117 150 187 233 286 344
#     4  10  20  34  58  89 117 151 192 236 285 339
#     4  11  22  37  59  85 116 154 191 233 293 353
#     4  10  21  36  59  86 112 149 195 242 292 346
#     4  11  24  40  60  85 115 155 198 245 293 344
#     4  10  22  41  61  82 115 156 200 245 288 345
#     4  10  21  38  58  85 121 154 188 232 291 350
#     4  10  21  37  59  88 121 152 186 236 295 353
#
# _framework density 20.080562
#
# number of rings (size 3 to 8) (size 9 to 14) (size 15 to 20)
#    0.000    1.750    1.250    3.000    0.000    6.500 
#    0.000    0.625    0.000    0.000    0.000    0.000 
#    0.000    0.000    0.000    0.000    0.000    0.000 
#
# Total GULP energy -357770.263252 kJ/mol
# GULP energy per Si atom -5590.160363 kJ/mol
# Density = 2.003486 g / cm^3
# Si number density = 20.080562 Si / 1000 Ang^3
#
#
#
# Elastic Constant Matrix: (Units=GPa)
#
#
# Indices 1 2 3 4 5 6 
#
# 1 32.9284 15.1948 7.4087 0.0000 0.0000 0.0000
# 2 15.1948 70.5958 38.4845 0.0000 0.0000 0.0000
# 3 7.4087 38.4845 99.0714 0.0000 0.0000 0.0000
# 4 0.0000 0.0000 0.0000 31.5522 0.0000 0.0000
# 5 0.0000 0.0000 0.0000 0.0000 25.9057 0.0000
# 6 0.0000 0.0000 0.0000 0.0000 0.0000 28.7768
#
#
#
# Elastic Compliance Matrix: (Units=1/GPa)
#
#
# Indices 1 2 3 4 5 6 
#
# 1 0.033729 -0.007466 0.000378 0.000000 0.000000 0.000000
# 2 -0.007466 0.019623 -0.007064 0.000000 0.000000 0.000000
# 3 0.000378 -0.007064 0.012810 0.000000 0.000000 0.000000
# 4 0.000000 0.000000 0.000000 0.031694 0.000000 0.000000
# 5 0.000000 0.000000 0.000000 0.000000 0.038602 0.000000
# 6 0.000000 0.000000 0.000000 0.000000 0.000000 0.034750
#
#
# Mechanical properties :
#
#
# Convention : Reuss Voigt Hill
#
# Bulk Modulus (GPa) = 26.41505 36.08571 31.25038
# Shear Modulus (GPa) = 23.57041 26.68078 25.12559
#
# Velocity S-wave (km/s) = 3.42978 3.64907 3.54112
# Velocity P-wave (km/s) = 5.37286 5.98028 5.68469
#
# Compressibility (1/GPa) = 0.03785721
#
# Stress axis : x y z
#
# Youngs Moduli (GPa) = 29.64816 50.96048 78.06625
#
# Poissons Ratio (x) = 0.38045 -0.02949
# Poissons Ratio (y) = 0.22134 0.55149
# Poissons Ratio (z) = -0.01120 0.36000
#
# Static dielectric constant tensor:
#      x y z
#    x 1.712620 0.000000 0.000000 
#    y 0.000000 1.667380 0.000000 
#    z 0.000000 0.000000 1.713790 
# 
# From -- ./inp_files/20907.got.cif
#   From: 2010.05.17/outbox.cif.g08.bks.cpg/sg62_11_cif.got.tgz:20907.got - 2010.06.03 15:25:27.
