data_PCOD9462343
_publ_section_title
;
Structure prediction by ZEFSAII (Michael W. Deem and Ramdas Pophale) SiO2 
 PCOD9462343
Probable space group: P N M A
;
_chemical_formula_sum "Si O2"
_cell_formula_units_Z 64
_cell_length_a 31.519794
_cell_length_b 7.781333
_cell_length_c 14.943551
_cell_angle_alpha 90.000000
_cell_angle_beta 90.000000
_cell_angle_gamma 90.000000
_cell_volume 3665.145177
_symmetry_space_group_name_H-M "P N M A"
_symmetry_group_IT_number 62
_symmetry_cell_setting 'orthorhombic'
loop_
_space_group_symop_operation_xyz
x,y,z
1/2-x,-y,1/2+z
1/2+x,1/2-y,1/2-z
-x,1/2+y,-z
-x,-y,-z
1/2+x,y,1/2-z
1/2-x,1/2+y,1/2+z
x,1/2-y,z
loop_
_atom_site_type_symbol
_atom_site_label
_atom_site_fract_x
_atom_site_fract_y
_atom_site_fract_z
Si Si1 0.208296 0.956515 0.293095
Si Si2 0.227966 0.959840 0.488483
Si Si3 0.045648 0.541660 0.892979
Si Si4 0.873387 0.054032 0.202175
Si Si5 0.450038 0.954527 0.600994
Si Si6 0.861198 0.048396 0.846898
Si Si7 0.174870 0.447416 0.967201
Si Si8 0.294876 0.041708 0.186419
O O1 0.205735 0.750000 0.297567
O O2 0.207395 0.019726 0.395479
O O3 0.168792 0.016738 0.232889
O O4 0.253093 0.996852 0.244597
O O5 0.226338 0.750000 0.490199
O O6 0.277303 0.008151 0.481565
O O7 0.210430 0.018269 0.584131
O O8 0.046191 0.750000 0.889159
O O9 0.081016 0.475581 0.823572
O O10 0.997482 0.481979 0.876511
O O11 0.056747 0.494728 0.995536
O O12 0.881138 0.250000 0.232281
O O13 0.838544 0.976408 0.269134
O O14 0.849319 0.054717 0.106952
O O15 0.449626 0.750000 0.610886
O O16 0.411683 0.027315 0.659614
O O17 0.851838 0.250000 0.859249
O O18 0.847836 0.955248 0.937798
O O19 0.175927 0.250000 0.935118
O O20 0.296645 0.250000 0.186705
#
# Coordination Sequence:
#
# PCOD9462343 Si02
#       8
#     8   8   8   8   8   8   8   8
#     4  10  20  33  47  64  90 124 157 189 227 268
#     4   9  18  32  46  64  92 122 154 192 223 263
#     4   9  18  31  45  66  95 122 151 188 229 277
#     4  10  19  30  46  69  95 122 152 187 228 271
#     4  10  19  30  46  66  91 123 155 187 230 281
#     4  11  21  31  45  66  93 123 158 195 230 271
#     4  11  19  28  46  67  93 125 157 188 222 268
#     4  10  19  31  48  69  92 119 153 190 227 270
#
# _framework density 17.461791000000002
#
# number of rings (size 3 to 8) (size 9 to 14) (size 15 to 20)
#    0.000    2.000    3.750    1.125    0.000    1.000 
#    0.000    0.625    0.000    0.000    0.000    0.875 
#    0.000    0.000    0.000    0.000    0.000    0.000 
#
# Total GULP energy -356892.612547 kJ/mol
# GULP energy per Si atom -5576.447071 kJ/mol
# Density = 1.742205 g / cm^3
# Si number density = 17.461791 Si / 1000 Ang^3
#
#
#
# Elastic Constant Matrix: (Units=GPa)
#
#
# Indices 1 2 3 4 5 6 
#
# 1 126.0294 -2.3348 48.1610 0.0000 0.0000 0.0000
# 2 -2.3348 28.8726 -3.8434 0.0000 0.0000 0.0000
# 3 48.1610 -3.8434 97.7983 0.0000 0.0000 0.0000
# 4 0.0000 0.0000 0.0000 1.4037 0.0000 0.0000
# 5 0.0000 0.0000 0.0000 0.0000 27.4148 0.0000
# 6 0.0000 0.0000 0.0000 0.0000 0.0000 3.8771
#
#
#
# Elastic Compliance Matrix: (Units=1/GPa)
#
#
# Indices 1 2 3 4 5 6 
#
# 1 0.009775 0.000150 -0.004808 0.000000 0.000000 0.000000
# 2 0.000150 0.034819 0.001294 0.000000 0.000000 0.000000
# 3 -0.004808 0.001294 0.012644 0.000000 0.000000 0.000000
# 4 0.000000 0.000000 0.000000 0.712381 0.000000 0.000000
# 5 0.000000 0.000000 0.000000 0.000000 0.036477 0.000000
# 6 0.000000 0.000000 0.000000 0.000000 0.000000 0.257925
#
#
# Mechanical properties :
#
#
# Convention : Reuss Voigt Hill
#
# Bulk Modulus (GPa) = 19.79737 37.40734 28.60236
# Shear Modulus (GPa) = 4.59735 20.58696 12.59216
#
# Velocity S-wave (km/s) = 1.62435 3.43734 2.68829
# Velocity P-wave (km/s) = 3.85748 6.10104 5.10406
#
# Compressibility (1/GPa) = 0.05051175
#
# Stress axis : x y z
#
# Youngs Moduli (GPa) = 102.30556 28.71961 79.09192
#
# Poissons Ratio (x) = -0.00432 0.38024
# Poissons Ratio (y) = -0.01539 -0.10237
# Poissons Ratio (z) = 0.49185 -0.03717
#
# Static dielectric constant tensor:
#      x y z
#    x 1.632800 0.000000 0.000000 
#    y 0.000000 1.649200 0.000000 
#    z 0.000000 0.000000 1.584520 
# 
# From -- ./inp_files/21253.got.cif
#   From: 2010.05.17/outbox.cif.g08.bks.cpg/sg62_11_cif.got.tgz:21253.got - 2010.06.03 15:25:27.
