data_PCOD9462888
_publ_section_title
;
Structure prediction by ZEFSAII (Michael W. Deem and Ramdas Pophale) SiO2 
 PCOD9462888
Probable space group: P N M A
;
_chemical_formula_sum "Si O2"
_cell_formula_units_Z 64
_cell_length_a 14.837297
_cell_length_b 7.904571
_cell_length_c 26.053765
_cell_angle_alpha 90.000000
_cell_angle_beta 90.000000
_cell_angle_gamma 90.000000
_cell_volume 3055.649849
_symmetry_space_group_name_H-M "P N M A"
_symmetry_group_IT_number 62
_symmetry_cell_setting 'orthorhombic'
loop_
_space_group_symop_operation_xyz
x,y,z
1/2-x,-y,1/2+z
1/2+x,1/2-y,1/2-z
-x,1/2+y,-z
-x,-y,-z
1/2+x,y,1/2-z
1/2-x,1/2+y,1/2+z
x,1/2-y,z
loop_
_atom_site_type_symbol
_atom_site_label
_atom_site_fract_x
_atom_site_fract_y
_atom_site_fract_z
Si Si1 0.537585 0.052542 0.679439
Si Si2 0.241608 0.457310 0.836357
Si Si3 0.522544 0.546182 0.899656
Si Si4 0.164082 0.950378 0.439063
Si Si5 0.633008 0.444618 0.375508
Si Si6 0.939158 0.448439 0.288115
Si Si7 0.787587 0.457661 0.448883
Si Si8 0.265068 0.053633 0.723884
O O1 0.546550 0.250000 0.690124
O O2 0.636695 0.989417 0.663643
O O3 0.462502 0.027355 0.636548
O O4 0.510881 0.971477 0.734069
O O5 0.243953 0.250000 0.835960
O O6 0.291829 0.519954 0.886943
O O7 0.282995 0.510440 0.781635
O O8 0.517480 0.750000 0.902656
O O9 0.442700 0.475871 0.934316
O O10 0.511950 0.493598 0.840015
O O11 0.621487 0.493736 0.918671
O O12 0.182180 0.750000 0.439351
O O13 0.202780 0.016733 0.492607
O O14 0.615588 0.250000 0.388054
O O15 0.698805 0.517476 0.419058
O O16 0.688620 0.456629 0.322379
O O17 0.918783 0.250000 0.294890
O O18 0.843019 0.540802 0.282827
O O19 0.785762 0.250000 0.448096
O O20 0.293144 0.250000 0.720053
#
# Coordination Sequence:
#
# PCOD9462888 Si02
#       8
#     8   8   8   8   8   8   8   8
#     4  10  21  37  55  79 113 146 184 236 283 336
#     4   8  18  36  55  78 109 140 179 229 279 326
#     4  10  20  35  52  79 115 146 177 225 277 328
#     4  10  20  36  59  81 103 146 192 229 277 333
#     4  11  21  36  56  81 111 148 189 230 279 338
#     4  10  19  34  54  79 114 150 181 219 275 338
#     4   9  19  37  57  78 111 147 186 229 275 334
#     4  10  19  33  53  80 112 146 182 228 278 329
#
# _framework density 20.944807999999998
#
# number of rings (size 3 to 8) (size 9 to 14) (size 15 to 20)
#    0.000    2.250    1.250    2.625    1.750    1.000 
#    0.000    5.000    0.000    0.000    0.000    0.000 
#    0.000    0.000    0.000    0.000    0.000    0.000 
#
# Total GULP energy -357364.856544 kJ/mol
# GULP energy per Si atom -5583.825883 kJ/mol
# Density = 2.089714 g / cm^3
# Si number density = 20.944808 Si / 1000 Ang^3
#
#
#
# Elastic Constant Matrix: (Units=GPa)
#
#
# Indices 1 2 3 4 5 6 
#
# 1 28.3251 -5.3517 0.5678 0.0000 0.0000 0.0000
# 2 -5.3517 24.5374 5.3095 0.0000 0.0000 0.0000
# 3 0.5678 5.3095 85.2077 0.0000 0.0000 0.0000
# 4 0.0000 0.0000 0.0000 12.4658 0.0000 0.0000
# 5 0.0000 0.0000 0.0000 0.0000 30.5669 0.0000
# 6 0.0000 0.0000 0.0000 0.0000 0.0000 12.5003
#
#
#
# Elastic Compliance Matrix: (Units=1/GPa)
#
#
# Indices 1 2 3 4 5 6 
#
# 1 0.036870 0.008205 -0.000757 0.000000 0.000000 0.000000
# 2 0.008205 0.043137 -0.002743 0.000000 0.000000 0.000000
# 3 -0.000757 -0.002743 0.011912 0.000000 0.000000 0.000000
# 4 0.000000 0.000000 0.000000 0.080219 0.000000 0.000000
# 5 0.000000 0.000000 0.000000 0.000000 0.032715 0.000000
# 6 0.000000 0.000000 0.000000 0.000000 0.000000 0.079998
#
#
# Mechanical properties :
#
#
# Convention : Reuss Voigt Hill
#
# Bulk Modulus (GPa) = 9.86874 15.45794 12.66334
# Shear Modulus (GPa) = 16.16990 20.27626 18.22308
#
# Velocity S-wave (km/s) = 2.78155 3.11477 2.95287
# Velocity P-wave (km/s) = 3.87789 4.50911 4.20536
#
# Compressibility (1/GPa) = 0.10133002
#
# Stress axis : x y z
#
# Youngs Moduli (GPa) = 27.12249 23.18190 83.94916
#
# Poissons Ratio (x) = -0.19021 0.06355
# Poissons Ratio (y) = -0.22255 0.23024
# Poissons Ratio (z) = 0.02053 0.06358
#
# Static dielectric constant tensor:
#      x y z
#    x 1.745280 0.000000 0.000000 
#    y 0.000000 1.738710 0.000000 
#    z 0.000000 0.000000 1.767030 
# 
# From -- ./inp_files/29811.got.cif
#   From: 2010.05.17/outbox.cif.g08.bks.cpg/sg62_15_cif.got.tgz:29811.got - 2010.06.03 15:25:27.
