data_PCOD9462778
_publ_section_title
;
Structure prediction by ZEFSAII (Michael W. Deem and Ramdas Pophale) SiO2 
 PCOD9462778
Probable space group: P N M A
;
_chemical_formula_sum "Si O2"
_cell_formula_units_Z 64
_cell_length_a 11.555684
_cell_length_b 17.788093
_cell_length_c 16.504246
_cell_angle_alpha 90.000000
_cell_angle_beta 90.000000
_cell_angle_gamma 90.000000
_cell_volume 3392.506878
_symmetry_space_group_name_H-M "P N M A"
_symmetry_group_IT_number 62
_symmetry_cell_setting 'orthorhombic'
loop_
_space_group_symop_operation_xyz
x,y,z
1/2-x,-y,1/2+z
1/2+x,1/2-y,1/2-z
-x,1/2+y,-z
-x,-y,-z
1/2+x,y,1/2-z
1/2-x,1/2+y,1/2+z
x,1/2-y,z
loop_
_atom_site_type_symbol
_atom_site_label
_atom_site_fract_x
_atom_site_fract_y
_atom_site_fract_z
Si Si1 0.365253 0.393348 0.216530
Si Si2 0.768236 0.165475 0.621875
Si Si3 0.391480 0.562345 0.269670
Si Si4 0.129433 0.338513 0.301444
Si Si5 0.686114 0.333257 0.872008
Si Si6 0.421157 0.330827 0.727551
Si Si7 0.862958 0.417073 0.475891
Si Si8 0.636309 0.084601 0.026352
O O1 0.372486 0.474965 0.258958
O O2 0.245829 0.353938 0.247533
O O3 0.495909 0.357439 0.228442
O O4 0.349884 0.405673 0.119901
O O5 0.483649 0.250000 0.715323
O O6 0.690843 0.102915 0.665757
O O7 0.880869 0.166038 0.679332
O O8 0.797430 0.143081 0.530895
O O9 0.375842 0.603765 0.182603
O O10 0.516742 0.592056 0.294473
O O11 0.128281 0.250000 0.321674
O O12 0.148199 0.389412 0.381462
O O13 0.632382 0.250000 0.869417
O O14 0.808271 0.327490 0.827432
O O15 0.697441 0.360092 0.963554
O O16 0.219867 0.250000 0.873509
O O17 0.826364 0.499710 0.506609
O O18 0.999655 0.410535 0.493342
#
# Coordination Sequence:
#
# PCOD9462778 Si02
#       8
#     8   8   8   8   8   8   8   8
#     4  11  25  41  69  92 122 165 205 262 312 366
#     4  10  21  34  55  85 123 161 198 249 310 367
#     4  11  20  34  57  86 121 158 200 247 305 374
#     4  11  25  45  66  92 123 162 213 260 309 365
#     4  10  19  32  54  84 120 160 199 247 308 368
#     4   9  19  32  52  83 121 159 194 237 298 369
#     4  10  21  36  57  90 120 155 206 257 310 367
#     4  10  20  36  60  87 120 157 205 259 310 358
#
# _framework density 18.865106000000001
#
# number of rings (size 3 to 8) (size 9 to 14) (size 15 to 20)
#    0.000    1.750    1.250    4.125    7.000    4.000 
#    0.000    1.250    0.000    6.000    0.000    0.000 
#    0.000    0.000    0.000    0.000    0.000    0.000 
#
# Total GULP energy -356469.788567 kJ/mol
# GULP energy per Si atom -5569.840446 kJ/mol
# Density = 1.882217 g / cm^3
# Si number density = 18.865106 Si / 1000 Ang^3
#
#
#
# Elastic Constant Matrix: (Units=GPa)
#
#
# Indices 1 2 3 4 5 6 
#
# 1 75.7865 32.2835 36.3060 0.0000 0.0000 0.0000
# 2 32.2835 78.2080 16.5142 0.0000 0.0000 0.0000
# 3 36.3060 16.5142 73.2594 0.0000 0.0000 0.0000
# 4 0.0000 0.0000 0.0000 76.6429 0.0000 0.0000
# 5 0.0000 0.0000 0.0000 0.0000 7.9896 0.0000
# 6 0.0000 0.0000 0.0000 0.0000 0.0000 30.1104
#
#
#
# Elastic Compliance Matrix: (Units=1/GPa)
#
#
# Indices 1 2 3 4 5 6 
#
# 1 0.020001 -0.006471 -0.008454 0.000000 0.000000 0.000000
# 2 -0.006471 0.015519 -0.000291 0.000000 0.000000 0.000000
# 3 -0.008454 -0.000291 0.017905 0.000000 0.000000 0.000000
# 4 0.000000 0.000000 0.000000 0.013048 0.000000 0.000000
# 5 0.000000 0.000000 0.000000 0.000000 0.125162 0.000000
# 6 0.000000 0.000000 0.000000 0.000000 0.000000 0.033211
#
#
# Mechanical properties :
#
#
# Convention : Reuss Voigt Hill
#
# Bulk Modulus (GPa) = 43.49058 44.16237 43.82648
# Shear Modulus (GPa) = 19.01548 32.42524 25.72036
#
# Velocity S-wave (km/s) = 3.17830 4.15033 3.69641
# Velocity P-wave (km/s) = 6.04750 6.81376 6.44204
#
# Compressibility (1/GPa) = 0.02299348
#
# Stress axis : x y z
#
# Youngs Moduli (GPa) = 49.99664 64.43617 55.84966
#
# Poissons Ratio (x) = 0.41699 0.47213
# Poissons Ratio (y) = 0.32355 0.01627
# Poissons Ratio (z) = 0.42265 0.01877
#
# Static dielectric constant tensor:
#      x y z
#    x 1.730680 0.000000 0.000000 
#    y 0.000000 1.668220 0.000000 
#    z 0.000000 0.000000 1.641020 
# 
# From -- ./inp_files/18276.got.cif
#   From: 2010.05.17/outbox.cif.g08.bks.cpg/sg62_10_cif.got.tgz:18276.got - 2010.06.03 15:25:27.
