data_PCOD9462515
_publ_section_title
;
Structure prediction by ZEFSAII (Michael W. Deem and Ramdas Pophale) SiO2 
 PCOD9462515
Probable space group: P N M A
;
_chemical_formula_sum "Si O2"
_cell_formula_units_Z 48
_cell_length_a 13.194575
_cell_length_b 13.409188
_cell_length_c 9.790954
_cell_angle_alpha 90.000000
_cell_angle_beta 90.000000
_cell_angle_gamma 90.000000
_cell_volume 1732.299165
_symmetry_space_group_name_H-M "P N M A"
_symmetry_group_IT_number 62
_symmetry_cell_setting 'orthorhombic'
loop_
_space_group_symop_operation_xyz
x,y,z
1/2-x,-y,1/2+z
1/2+x,1/2-y,1/2-z
-x,1/2+y,-z
-x,-y,-z
1/2+x,y,1/2-z
1/2-x,1/2+y,1/2+z
x,1/2-y,z
loop_
_atom_site_type_symbol
_atom_site_label
_atom_site_fract_x
_atom_site_fract_y
_atom_site_fract_z
Si Si1 0.116183 0.362368 0.141650
Si Si2 0.290593 0.360927 0.778069
Si Si3 0.891943 0.907290 0.404604
Si Si4 0.063683 0.870268 0.022626
Si Si5 0.549552 0.638792 0.887454
Si Si6 0.749133 0.938049 0.638757
O O1 0.145473 0.250000 0.106650
O O2 0.212920 0.414226 0.209196
O O3 0.050406 0.404825 0.015262
O O4 0.035521 0.360536 0.266925
O O5 0.311384 0.250000 0.823777
O O6 0.175934 0.364069 0.716215
O O7 0.377284 0.390646 0.665119
O O8 0.280097 0.447721 0.886730
O O9 0.908339 0.025071 0.377889
O O10 0.817738 0.881209 0.530386
O O11 0.997141 0.864572 0.460858
O O12 0.059286 0.750000 0.015693
O O13 0.137992 0.906943 0.902877
O O14 0.599328 0.750000 0.873600
#
# Coordination Sequence:
#
# PCOD9462515 Si02
#       6
#     8   8   8   8   8   8
#     4   9  17  30  50  74  96 120 156 202 247 290
#     4  10  20  33  48  67  97 137 170 196 238 297
#     4   9  18  31  47  71  99 128 164 205 251 297
#     4   9  18  33  52  73  98 128 162 200 245 295
#     4   9  16  28  49  74  97 122 159 209 258 297
#     4  10  19  31  50  73  97 127 165 205 241 285
#
# _framework density 27.708839000000001
#
# number of rings (size 3 to 8) (size 9 to 14) (size 15 to 20)
#    0.000    2.667    0.000    2.000    0.000    5.333 
#    0.000    0.833    0.000    3.000    0.000    0.000 
#    0.000    0.000    0.000    0.000    0.000    0.000 
#
# Total GULP energy -268171.754524 kJ/mol
# GULP energy per Si atom -5586.911553 kJ/mol
# Density = 2.764577 g / cm^3
# Si number density = 27.708839 Si / 1000 Ang^3
#
#
#
# Elastic Constant Matrix: (Units=GPa)
#
#
# Indices 1 2 3 4 5 6 
#
# 1 86.7000 23.6895 15.7745 0.0000 0.0000 0.0000
# 2 23.6895 115.4830 5.4638 0.0000 0.0000 0.0000
# 3 15.7745 5.4638 62.9809 0.0000 0.0000 0.0000
# 4 0.0000 0.0000 0.0000 33.1709 0.0000 0.0000
# 5 0.0000 0.0000 0.0000 0.0000 34.7619 0.0000
# 6 0.0000 0.0000 0.0000 0.0000 0.0000 32.9032
#
#
#
# Elastic Compliance Matrix: (Units=1/GPa)
#
#
# Indices 1 2 3 4 5 6 
#
# 1 0.012752 -0.002475 -0.002979 0.000000 0.000000 0.000000
# 2 -0.002475 0.009175 -0.000176 0.000000 0.000000 0.000000
# 3 -0.002979 -0.000176 0.016639 0.000000 0.000000 0.000000
# 4 0.000000 0.000000 0.000000 0.030147 0.000000 0.000000
# 5 0.000000 0.000000 0.000000 0.000000 0.028767 0.000000
# 6 0.000000 0.000000 0.000000 0.000000 0.000000 0.030392
#
#
# Mechanical properties :
#
#
# Convention : Reuss Voigt Hill
#
# Bulk Modulus (GPa) = 36.62168 39.44662 38.03415
# Shear Modulus (GPa) = 33.73000 34.84961 34.28981
#
# Velocity S-wave (km/s) = 3.49277 3.55026 3.52163
# Velocity P-wave (km/s) = 5.43242 5.57430 5.50382
#
# Compressibility (1/GPa) = 0.02730623
#
# Stress axis : x y z
#
# Youngs Moduli (GPa) = 78.41695 108.98801 60.09859
#
# Poissons Ratio (x) = 0.26974 0.17905
# Poissons Ratio (y) = 0.19408 0.01058
# Poissons Ratio (z) = 0.23363 0.01919
#
# Static dielectric constant tensor:
#      x y z
#    x 2.222400 0.000000 0.000000 
#    y 0.000000 2.152510 0.000000 
#    z 0.000000 0.000000 2.180580 
# 
# From -- ./inp_files/13247.got.cif
#   From: 2010.05.17/outbox.cif.g08.bks.cpg/sg62_7_cif.got.tgz:13247.got - 2010.06.03 15:25:27.
