data_PCOD9462118
_publ_section_title
;
Structure prediction by ZEFSAII (Michael W. Deem and Ramdas Pophale) SiO2 
 PCOD9462118
Probable space group: P N M A
;
_chemical_formula_sum "Si O2"
_cell_formula_units_Z 64
_cell_length_a 8.144000
_cell_length_b 21.060870
_cell_length_c 22.000023
_cell_angle_alpha 90.000000
_cell_angle_beta 90.000000
_cell_angle_gamma 90.000000
_cell_volume 3773.437901
_symmetry_space_group_name_H-M "P N M A"
_symmetry_group_IT_number 62
_symmetry_cell_setting 'orthorhombic'
loop_
_space_group_symop_operation_xyz
x,y,z
1/2-x,-y,1/2+z
1/2+x,1/2-y,1/2-z
-x,1/2+y,-z
-x,-y,-z
1/2+x,y,1/2-z
1/2-x,1/2+y,1/2+z
x,1/2-y,z
loop_
_atom_site_type_symbol
_atom_site_label
_atom_site_fract_x
_atom_site_fract_y
_atom_site_fract_z
Si Si1 0.355586 0.354414 0.949094
Si Si2 0.076728 0.052552 0.087292
Si Si3 0.260565 0.544307 0.158286
Si Si4 0.230797 0.009349 0.958556
Si Si5 0.798097 0.885696 0.471563
Si Si6 0.470106 0.676093 0.526467
Si Si7 0.805790 0.319886 0.686101
Si Si8 0.469556 0.901595 0.259623
O O1 0.337824 0.430955 0.938546
O O2 0.536210 0.344962 0.976784
O O3 0.199280 0.331855 0.988257
O O4 0.347502 0.321868 0.884315
O O5 0.906970 0.012614 0.089671
O O6 0.207967 0.025012 0.134262
O O7 0.045268 0.127479 0.083332
O O8 0.142403 0.035171 0.019749
O O9 0.284450 0.586547 0.097207
O O10 0.409666 0.551751 0.205651
O O11 0.107194 0.570440 0.196831
O O12 0.316684 0.945417 0.982259
O O13 0.628428 0.850215 0.488808
O O14 0.492602 0.750000 0.540995
O O15 0.745060 0.250000 0.702473
O O16 0.678533 0.375942 0.699934
O O17 0.961992 0.339487 0.725502
#
# Coordination Sequence:
#
# PCOD9462118 Si02
#       8
#     8   8   8   8   8   8   8   8
#     4  11  19  31  50  74  95 130 165 202 242 287
#     4   8  15  30  52  70  97 127 155 202 252 301
#     4  10  18  34  50  72  94 122 166 209 254 283
#     4   8  15  28  49  73  98 120 158 199 246 296
#     4  10  19  33  50  74  98 133 161 199 248 295
#     4  10  21  34  49  74 104 132 162 196 241 304
#     4  11  21  33  44  62  91 129 168 198 236 280
#     4  10  21  33  48  65  91 125 166 215 244 275
#
# _framework density 16.960661000000002
#
# number of rings (size 3 to 8) (size 9 to 14) (size 15 to 20)
#    0.000    2.250    1.250    4.875    0.000    1.000 
#    0.000    0.625    0.000    0.000    0.000    0.875 
#    0.000    0.000    0.000    0.000    0.000    0.125 
#
# Total GULP energy -356414.120204 kJ/mol
# GULP energy per Si atom -5568.970628 kJ/mol
# Density = 1.692206 g / cm^3
# Si number density = 16.960661 Si / 1000 Ang^3
#
#
#
# Elastic Constant Matrix: (Units=GPa)
#
#
# Indices 1 2 3 4 5 6 
#
# 1 78.5928 18.9043 13.1305 0.0000 0.0000 0.0000
# 2 18.9043 88.4545 24.1718 0.0000 0.0000 0.0000
# 3 13.1305 24.1718 34.6582 0.0000 0.0000 0.0000
# 4 0.0000 0.0000 0.0000 10.2117 0.0000 0.0000
# 5 0.0000 0.0000 0.0000 0.0000 19.5862 0.0000
# 6 0.0000 0.0000 0.0000 0.0000 0.0000 15.5639
#
#
#
# Elastic Compliance Matrix: (Units=1/GPa)
#
#
# Indices 1 2 3 4 5 6 
#
# 1 0.013833 -0.001883 -0.003927 0.000000 0.000000 0.000000
# 2 -0.001883 0.014224 -0.009207 0.000000 0.000000 0.000000
# 3 -0.003927 -0.009207 0.036762 0.000000 0.000000 0.000000
# 4 0.000000 0.000000 0.000000 0.097927 0.000000 0.000000
# 5 0.000000 0.000000 0.000000 0.000000 0.051056 0.000000
# 6 0.000000 0.000000 0.000000 0.000000 0.000000 0.064251
#
#
# Mechanical properties :
#
#
# Convention : Reuss Voigt Hill
#
# Bulk Modulus (GPa) = 28.74845 34.90209 31.82527
# Shear Modulus (GPa) = 15.64056 18.77228 17.20642
#
# Velocity S-wave (km/s) = 3.04001 3.33049 3.18856
# Velocity P-wave (km/s) = 5.41379 5.95084 5.68866
#
# Compressibility (1/GPa) = 0.03478448
#
# Stress axis : x y z
#
# Youngs Moduli (GPa) = 72.29134 70.30595 27.20197
#
# Poissons Ratio (x) = 0.13239 0.10683
# Poissons Ratio (y) = 0.13613 0.25044
# Poissons Ratio (z) = 0.28391 0.64727
#
# Static dielectric constant tensor:
#      x y z
#    x 1.639510 0.000000 0.000000 
#    y 0.000000 1.602860 0.000000 
#    z 0.000000 0.000000 1.557300 
# 
# From -- ./inp_files/26291.got.cif
#   From: 2010.05.17/outbox.cif.g08.bks.cpg/sg62_14_cif.got.tgz:26291.got - 2010.06.03 15:25:27.
