data_PCOD9462609
_publ_section_title
;
Structure prediction by ZEFSAII (Michael W. Deem and Ramdas Pophale) SiO2 
 PCOD9462609
Probable space group: P N M A
;
_chemical_formula_sum "Si O2"
_cell_formula_units_Z 64
_cell_length_a 12.276887
_cell_length_b 8.620271
_cell_length_c 34.930736
_cell_angle_alpha 90.000000
_cell_angle_beta 90.000000
_cell_angle_gamma 90.000000
_cell_volume 3696.723039
_symmetry_space_group_name_H-M "P N M A"
_symmetry_group_IT_number 62
_symmetry_cell_setting 'orthorhombic'
loop_
_space_group_symop_operation_xyz
x,y,z
1/2-x,-y,1/2+z
1/2+x,1/2-y,1/2-z
-x,1/2+y,-z
-x,-y,-z
1/2+x,y,1/2-z
1/2-x,1/2+y,1/2+z
x,1/2-y,z
loop_
_atom_site_type_symbol
_atom_site_label
_atom_site_fract_x
_atom_site_fract_y
_atom_site_fract_z
Si Si1 0.041888 0.564838 0.833484
Si Si2 0.142751 0.937324 0.967088
Si Si3 0.804494 0.937629 0.229708
Si Si4 0.609484 0.563167 0.174826
Si Si5 0.891782 0.564684 0.951952
Si Si6 0.674570 0.564343 0.370713
Si Si7 0.637908 0.060610 0.814659
Si Si8 0.243384 0.563929 0.889587
O O1 0.030412 0.750000 0.831567
O O2 0.093195 0.499975 0.794468
O O3 0.132468 0.529036 0.866051
O O4 0.928743 0.490161 0.845786
O O5 0.144526 0.750000 0.969211
O O6 0.223812 0.986612 0.933217
O O7 0.019455 0.983361 0.954867
O O8 0.162848 0.005486 0.008958
O O9 0.807043 0.750000 0.228499
O O10 0.695051 0.989741 0.207560
O O11 0.813070 0.987030 0.273659
O O12 0.608364 0.750000 0.176054
O O13 0.486682 0.507675 0.181243
O O14 0.659548 0.511081 0.134367
O O15 0.889418 0.750000 0.950675
O O16 0.839988 0.499791 0.913374
O O17 0.674786 0.750000 0.372289
O O18 0.783839 0.511011 0.349116
O O19 0.636638 0.250000 0.814766
O O20 0.256528 0.750000 0.889092
#
# Coordination Sequence:
#
# PCOD9462609 Si02
#       8
#     8   8   8   8   8   8   8   8
#     4  10  19  33  50  74 106 135 166 211 259 306
#     4   9  17  31  50  75 105 138 168 204 256 310
#     4   9  18  33  55  77  97 130 172 215 260 308
#     4   9  18  33  52  75 101 130 171 218 256 301
#     4  10  19  32  49  75 110 139 167 211 259 308
#     4  11  21  33  52  76 104 143 178 210 256 311
#     4   9  20  35  53  76 102 134 176 220 259 300
#     4   9  17  32  52  73 103 135 165 205 256 307
#
# _framework density 17.312629000000001
#
# number of rings (size 3 to 8) (size 9 to 14) (size 15 to 20)
#    0.000    2.500    1.250    1.125    1.750    1.500 
#    0.000    3.125    0.000    0.750    0.000    0.000 
#    0.000    0.000    0.000    0.000    0.000    0.000 
#
# Total GULP energy -356945.509208 kJ/mol
# GULP energy per Si atom -5577.273581 kJ/mol
# Density = 1.727323 g / cm^3
# Si number density = 17.312629 Si / 1000 Ang^3
#
#
#
# Elastic Constant Matrix: (Units=GPa)
#
#
# Indices 1 2 3 4 5 6 
#
# 1 106.8414 18.7929 77.5509 0.0000 0.0000 0.0000
# 2 18.7929 14.7997 26.1936 0.0000 0.0000 0.0000
# 3 77.5509 26.1936 161.7480 0.0000 0.0000 0.0000
# 4 0.0000 0.0000 0.0000 25.3737 0.0000 0.0000
# 5 0.0000 0.0000 0.0000 0.0000 20.0975 0.0000
# 6 0.0000 0.0000 0.0000 0.0000 0.0000 12.3689
#
#
#
# Elastic Compliance Matrix: (Units=1/GPa)
#
#
# Indices 1 2 3 4 5 6 
#
# 1 0.015157 -0.008950 -0.005818 0.000000 0.000000 0.000000
# 2 -0.008950 0.100001 -0.011903 0.000000 0.000000 0.000000
# 3 -0.005818 -0.011903 0.010899 0.000000 0.000000 0.000000
# 4 0.000000 0.000000 0.000000 0.039411 0.000000 0.000000
# 5 0.000000 0.000000 0.000000 0.000000 0.049757 0.000000
# 6 0.000000 0.000000 0.000000 0.000000 0.000000 0.080848
#
#
# Mechanical properties :
#
#
# Convention : Reuss Voigt Hill
#
# Bulk Modulus (GPa) = 13.75218 58.71819 36.23518
# Shear Modulus (GPa) = 13.38141 22.29147 17.83644
#
# Velocity S-wave (km/s) = 2.78317 3.59219 3.21324
# Velocity P-wave (km/s) = 4.27654 7.15507 5.89423
#
# Compressibility (1/GPa) = 0.07271576
#
# Stress axis : x y z
#
# Youngs Moduli (GPa) = 65.97795 9.99991 91.74880
#
# Poissons Ratio (x) = 0.08950 0.53375
# Poissons Ratio (y) = 0.59049 1.09210
# Poissons Ratio (z) = 0.38383 0.11903
#
# Static dielectric constant tensor:
#      x y z
#    x 1.573850 0.000000 0.000000 
#    y 0.000000 1.587130 0.000000 
#    z 0.000000 0.000000 1.587350 
# 
# From -- ./inp_files/32616.got.cif
#   From: 2010.05.17/outbox.cif.g08.bks.cpg/sg62_17_cif.got.tgz:32616.got - 2010.06.03 15:25:27.
