data_PCOD9462921
_publ_section_title
;
Structure prediction by ZEFSAII (Michael W. Deem and Ramdas Pophale) SiO2 
 PCOD9462921
Probable space group: P N M A
;
_chemical_formula_sum "Si O2"
_cell_formula_units_Z 56
_cell_length_a 14.918422
_cell_length_b 8.946667
_cell_length_c 22.041545
_cell_angle_alpha 90.000000
_cell_angle_beta 90.000000
_cell_angle_gamma 90.000000
_cell_volume 2941.888401
_symmetry_space_group_name_H-M "P N M A"
_symmetry_group_IT_number 62
_symmetry_cell_setting 'orthorhombic'
loop_
_space_group_symop_operation_xyz
x,y,z
1/2-x,-y,1/2+z
1/2+x,1/2-y,1/2-z
-x,1/2+y,-z
-x,-y,-z
1/2+x,y,1/2-z
1/2-x,1/2+y,1/2+z
x,1/2-y,z
loop_
_atom_site_type_symbol
_atom_site_label
_atom_site_fract_x
_atom_site_fract_y
_atom_site_fract_z
Si Si1 0.678366 0.429333 0.773221
Si Si2 0.006355 0.569774 0.066957
Si Si3 0.322760 0.569439 0.365873
Si Si4 0.354910 0.423151 0.036903
Si Si5 0.478089 0.423367 0.155842
Si Si6 0.798832 0.069283 0.885791
Si Si7 0.854732 0.570974 0.586726
O O1 0.678860 0.250000 0.773337
O O2 0.688499 0.479068 0.704063
O O3 0.582896 0.484391 0.798490
O O4 0.755548 0.478106 0.821012
O O5 0.007156 0.750000 0.060971
O O6 0.098773 0.526389 0.100760
O O7 0.919214 0.528775 0.106438
O O8 0.000000 0.500000 0.000000
O O9 0.314695 0.750000 0.368700
O O10 0.243385 0.494317 0.403146
O O11 0.338629 0.250000 0.021710
O O12 0.425754 0.429029 0.091609
O O13 0.265013 0.498515 0.063148
O O14 0.386966 0.510094 0.977878
O O15 0.481138 0.250000 0.175152
O O16 0.577687 0.478126 0.140313
O O17 0.792660 0.250000 0.888966
O O18 0.854616 0.750000 0.586027
#
# Coordination Sequence:
#
# PCOD9462921 Si02
#       7
#     8   8   8   8   8   8   8
#     4   9  19  36  58  81 105 136 176 219 267 319
#     4  10  21  36  54  77 107 140 178 222 268 318
#     4  10  22  38  55  79 108 139 179 227 270 316
#     4  10  19  33  54  80 108 137 171 216 263 312
#     4   9  20  36  54  78 109 141 174 213 260 315
#     4   9  18  34  55  78 105 139 175 215 265 323
#     4  11  22  35  52  77 108 142 176 214 263 317
#
# _framework density 19.035394
#
# number of rings (size 3 to 8) (size 9 to 14) (size 15 to 20)
#    0.000    2.286    0.000    2.143    0.000    6.857 
#    0.000    2.857    0.000    0.000    0.000    0.000 
#    0.000    0.000    0.000    0.000    0.000    0.000 
#
# Total GULP energy -312522.224817 kJ/mol
# GULP energy per Si atom -5580.754015 kJ/mol
# Density = 1.899207 g / cm^3
# Si number density = 19.035394 Si / 1000 Ang^3
#
#
#
# Elastic Constant Matrix: (Units=GPa)
#
#
# Indices 1 2 3 4 5 6 
#
# 1 99.9435 17.6140 6.6097 0.0000 0.0000 0.0000
# 2 17.6140 13.1629 14.3973 0.0000 0.0000 0.0000
# 3 6.6097 14.3973 72.9985 0.0000 0.0000 0.0000
# 4 0.0000 0.0000 0.0000 21.3690 0.0000 0.0000
# 5 0.0000 0.0000 0.0000 0.0000 15.2761 0.0000
# 6 0.0000 0.0000 0.0000 0.0000 0.0000 24.2678
#
#
#
# Elastic Compliance Matrix: (Units=1/GPa)
#
#
# Indices 1 2 3 4 5 6 
#
# 1 0.013592 -0.021474 0.003005 0.000000 0.000000 0.000000
# 2 -0.021474 0.130796 -0.023852 0.000000 0.000000 0.000000
# 3 0.003005 -0.023852 0.018131 0.000000 0.000000 0.000000
# 4 0.000000 0.000000 0.000000 0.046797 0.000000 0.000000
# 5 0.000000 0.000000 0.000000 0.000000 0.065462 0.000000
# 6 0.000000 0.000000 0.000000 0.000000 0.000000 0.041207
#
#
# Mechanical properties :
#
#
# Convention : Reuss Voigt Hill
#
# Bulk Modulus (GPa) = 12.84103 29.26078 21.05091
# Shear Modulus (GPa) = 11.72100 22.01485 16.86792
#
# Velocity S-wave (km/s) = 2.48412 3.40446 2.98003
# Velocity P-wave (km/s) = 3.87147 5.55508 4.78786
#
# Compressibility (1/GPa) = 0.07787536
#
# Stress axis : x y z
#
# Youngs Moduli (GPa) = 73.57531 7.64552 55.15374
#
# Poissons Ratio (x) = 0.16418 -0.16571
# Poissons Ratio (y) = 1.57995 1.31553
# Poissons Ratio (z) = -0.22106 0.18236
#
# Static dielectric constant tensor:
#      x y z
#    x 1.669630 0.000000 0.000000 
#    y 0.000000 1.641580 0.000000 
#    z 0.000000 0.000000 1.665630 
# 
# From -- ./inp_files/27193.got.cif
#   From: 2010.05.17/outbox.cif.g08.bks.cpg/sg62_14_cif.got.tgz:27193.got - 2010.06.03 15:25:27.
