data_PCOD9462172
_publ_section_title
;
Structure prediction by ZEFSAII (Michael W. Deem and Ramdas Pophale) SiO2 
 PCOD9462172
Probable space group: P N M A
;
_chemical_formula_sum "Si O2"
_cell_formula_units_Z 48
_cell_length_a 8.447182
_cell_length_b 20.502330
_cell_length_c 12.657017
_cell_angle_alpha 90.000000
_cell_angle_beta 90.000000
_cell_angle_gamma 90.000000
_cell_volume 2192.029701
_symmetry_space_group_name_H-M "P N M A"
_symmetry_group_IT_number 62
_symmetry_cell_setting 'orthorhombic'
loop_
_space_group_symop_operation_xyz
x,y,z
1/2-x,-y,1/2+z
1/2+x,1/2-y,1/2-z
-x,1/2+y,-z
-x,-y,-z
1/2+x,y,1/2-z
1/2-x,1/2+y,1/2+z
x,1/2-y,z
loop_
_atom_site_type_symbol
_atom_site_label
_atom_site_fract_x
_atom_site_fract_y
_atom_site_fract_z
Si Si1 0.002432 0.637271 0.160582
Si Si2 0.532157 0.750000 0.168652
Si Si3 0.674226 0.250000 0.031680
Si Si4 0.845411 0.250000 0.331581
Si Si5 0.489152 0.950917 0.784772
Si Si6 0.270995 0.549067 0.201542
Si Si7 0.351705 0.750000 0.466362
Si Si8 0.290159 0.137945 0.339745
O O1 0.032537 0.686935 0.257473
O O2 0.870718 0.587797 0.208890
O O3 0.937245 0.683734 0.069209
O O4 0.165882 0.599768 0.135384
O O5 0.689711 0.750000 0.100436
O O6 0.384770 0.750000 0.088281
O O7 0.514380 0.250000 0.106602
O O8 0.777342 0.312648 0.063207
O O9 0.700789 0.250000 0.413515
O O10 0.821833 0.313395 0.258942
O O11 0.382407 0.895781 0.837438
O O12 0.579957 0.918167 0.684215
O O13 0.615540 0.994163 0.850358
O O14 0.362494 0.004530 0.752668
#
# Coordination Sequence:
#
# PCOD9462172 Si02
#       8
#     8   4   4   4   8   8   4   8
#     4  10  18  35  56  81 107 140 175 221 266 317
#     4  10  20  33  56  83 108 141 175 216 270 326
#     4  10  20  33  56  83 108 141 175 216 270 326
#     4  10  20  33  56  83 110 141 171 220 274 316
#     4   9  18  32  56  78 103 144 183 212 263 315
#     4   9  18  32  56  78 103 144 183 212 263 315
#     4  10  20  33  56  83 110 141 171 220 274 316
#     4  10  18  35  56  81 107 140 175 221 266 317
#
# _framework density 21.897513
#
# number of rings (size 3 to 8) (size 9 to 14) (size 15 to 20)
#    0.000    2.333    3.333    0.000    0.000    0.000 
#    0.000    3.333    0.000   40.000    0.000    0.000 
#    0.000    0.000    0.000    0.000    0.000    0.000 
#
# Total GULP energy -267606.838218 kJ/mol
# GULP energy per Si atom -5575.142463 kJ/mol
# Density = 2.184767 g / cm^3
# Si number density = 21.897513 Si / 1000 Ang^3
#
#
#
# Elastic Constant Matrix: (Units=GPa)
#
#
# Indices 1 2 3 4 5 6 
#
# 1 109.3369 56.3448 15.8132 0.0000 0.0000 0.0000
# 2 56.3448 131.7868 15.9002 0.0000 0.0000 0.0000
# 3 15.8132 15.9002 34.7512 0.0000 0.0000 0.0000
# 4 0.0000 0.0000 0.0000 4.9791 0.0000 0.0000
# 5 0.0000 0.0000 0.0000 0.0000 21.8311 0.0000
# 6 0.0000 0.0000 0.0000 0.0000 0.0000 42.5903
#
#
#
# Elastic Compliance Matrix: (Units=1/GPa)
#
#
# Indices 1 2 3 4 5 6 
#
# 1 0.012081 -0.004765 -0.003317 0.000000 0.000000 0.000000
# 2 -0.004765 0.009911 -0.002366 0.000000 0.000000 0.000000
# 3 -0.003317 -0.002366 0.031368 0.000000 0.000000 0.000000
# 4 0.000000 0.000000 0.000000 0.200839 0.000000 0.000000
# 5 0.000000 0.000000 0.000000 0.000000 0.045806 0.000000
# 6 0.000000 0.000000 0.000000 0.000000 0.000000 0.023480
#
#
# Mechanical properties :
#
#
# Convention : Reuss Voigt Hill
#
# Bulk Modulus (GPa) = 30.80434 50.22126 40.51280
# Shear Modulus (GPa) = 14.07643 26.40122 20.23883
#
# Velocity S-wave (km/s) = 2.53816 3.47605 3.04345
# Velocity P-wave (km/s) = 4.76317 6.25260 5.55800
#
# Compressibility (1/GPa) = 0.03246295
#
# Stress axis : x y z
#
# Youngs Moduli (GPa) = 82.77159 100.89986 31.87948
#
# Poissons Ratio (x) = 0.48080 0.10575
# Poissons Ratio (y) = 0.39442 0.07544
# Poissons Ratio (z) = 0.27458 0.23876
#
# Static dielectric constant tensor:
#      x y z
#    x 1.885270 0.000000 0.000000 
#    y 0.000000 1.869400 0.000000 
#    z 0.000000 0.000000 1.772490 
# 
# From -- ./inp_files/17115.got.cif
#   From: 2010.05.17/outbox.cif.g08.bks.cpg/sg62_9_cif.got.tgz:17115.got - 2010.06.03 15:25:27.
