data_PCOD9462503
_publ_section_title
;
Structure prediction by ZEFSAII (Michael W. Deem and Ramdas Pophale) SiO2 
 PCOD9462503
Probable space group: P N M A
;
_chemical_formula_sum "Si O2"
_cell_formula_units_Z 64
_cell_length_a 14.640723
_cell_length_b 8.535120
_cell_length_c 25.632064
_cell_angle_alpha 90.000000
_cell_angle_beta 90.000000
_cell_angle_gamma 90.000000
_cell_volume 3202.991117
_symmetry_space_group_name_H-M "P N M A"
_symmetry_group_IT_number 62
_symmetry_cell_setting 'orthorhombic'
loop_
_space_group_symop_operation_xyz
x,y,z
1/2-x,-y,1/2+z
1/2+x,1/2-y,1/2-z
-x,1/2+y,-z
-x,-y,-z
1/2+x,y,1/2-z
1/2-x,1/2+y,1/2+z
x,1/2-y,z
loop_
_atom_site_type_symbol
_atom_site_label
_atom_site_fract_x
_atom_site_fract_y
_atom_site_fract_z
Si Si1 0.145850 0.060018 0.603221
Si Si2 0.276796 0.069173 0.514367
Si Si3 0.470292 0.936120 0.942947
Si Si4 0.973486 0.071560 0.945258
Si Si5 0.986298 0.057813 0.830934
Si Si6 0.228068 0.935914 0.411346
Si Si7 0.218796 0.558675 0.196675
Si Si8 0.316420 0.941152 0.302340
O O1 0.143514 0.250000 0.603037
O O2 0.194153 0.008161 0.549305
O O3 0.210424 0.010755 0.651127
O O4 0.043978 0.995877 0.599466
O O5 0.259104 0.250000 0.499770
O O6 0.363493 0.069975 0.552394
O O7 0.290946 0.976297 0.461200
O O8 0.471684 0.750000 0.945895
O O9 0.369951 0.992152 0.925932
O O10 0.500000 0.000000 0.000000
O O11 0.006150 0.250000 0.945382
O O12 0.001715 0.000209 0.890331
O O13 0.000000 0.000000 0.000000
O O14 0.983507 0.250000 0.832511
O O15 0.886001 0.007298 0.812130
O O16 0.076839 0.012740 0.799375
O O17 0.217771 0.750000 0.407597
O O18 0.271327 0.992692 0.357009
O O19 0.217566 0.750000 0.195726
O O20 0.258742 0.508021 0.252329
O O21 0.315416 0.750000 0.302837
#
# Coordination Sequence:
#
# PCOD9462503 Si02
#       8
#     8   8   8   8   8   8   8   8
#     4  10  19  34  57  84 111 145 190 238 285 340
#     4  10  19  32  52  77 108 147 188 231 287 350
#     4  12  24  38  57  83 115 154 193 236 291 349
#     4  10  19  31  49  76 108 146 184 226 280 338
#     4   9  16  30  50  74 109 146 179 222 274 326
#     4  11  22  36  55  84 117 150 189 239 291 347
#     4   9  17  32  55  82 114 151 188 234 284 331
#     4   9  19  32  51  83 117 148 188 234 284 335
#
# _framework density 19.981324000000001
#
# number of rings (size 3 to 8) (size 9 to 14) (size 15 to 20)
#    0.000    2.000    2.500    2.250    0.000    2.500 
#    0.000    3.750    0.000    1.500    0.000    3.500 
#    0.000    0.000    0.000    0.000    0.000    0.000 
#
# Total GULP energy -357066.189060 kJ/mol
# GULP energy per Si atom -5579.159204 kJ/mol
# Density = 1.993585 g / cm^3
# Si number density = 19.981324 Si / 1000 Ang^3
#
#
#
# Elastic Constant Matrix: (Units=GPa)
#
#
# Indices 1 2 3 4 5 6 
#
# 1 109.7284 12.0668 56.9557 0.0000 0.0000 0.0000
# 2 12.0668 21.6491 18.9111 0.0000 0.0000 0.0000
# 3 56.9557 18.9111 125.4505 0.0000 0.0000 0.0000
# 4 0.0000 0.0000 0.0000 16.8020 0.0000 0.0000
# 5 0.0000 0.0000 0.0000 0.0000 31.3723 0.0000
# 6 0.0000 0.0000 0.0000 0.0000 0.0000 17.6915
#
#
#
# Elastic Compliance Matrix: (Units=1/GPa)
#
#
# Indices 1 2 3 4 5 6 
#
# 1 0.012016 -0.002225 -0.005120 0.000000 0.000000 0.000000
# 2 -0.002225 0.053608 -0.007071 0.000000 0.000000 0.000000
# 3 -0.005120 -0.007071 0.011362 0.000000 0.000000 0.000000
# 4 0.000000 0.000000 0.000000 0.059517 0.000000 0.000000
# 5 0.000000 0.000000 0.000000 0.000000 0.031875 0.000000
# 6 0.000000 0.000000 0.000000 0.000000 0.000000 0.056524
#
#
# Mechanical properties :
#
#
# Convention : Reuss Voigt Hill
#
# Bulk Modulus (GPa) = 20.76680 48.07725 34.42203
# Shear Modulus (GPa) = 18.53331 24.43279 21.48305
#
# Velocity S-wave (km/s) = 3.04884 3.50062 3.28252
# Velocity P-wave (km/s) = 4.77594 6.36023 5.62415
#
# Compressibility (1/GPa) = 0.04815378
#
# Stress axis : x y z
#
# Youngs Moduli (GPa) = 83.22540 18.65388 88.01560
#
# Poissons Ratio (x) = 0.04150 0.45062
# Poissons Ratio (y) = 0.18517 0.62236
# Poissons Ratio (z) = 0.42610 0.13190
#
# Static dielectric constant tensor:
#      x y z
#    x 1.745140 0.000000 0.000000 
#    y 0.000000 1.701680 0.000000 
#    z 0.000000 0.000000 1.706700 
# 
# From -- ./inp_files/29931.got.cif
#   From: 2010.05.17/outbox.cif.g08.bks.cpg/sg62_15_cif.got.tgz:29931.got - 2010.06.03 15:25:27.
