data_PCOD9462959
_publ_section_title
;
Structure prediction by ZEFSAII (Michael W. Deem and Ramdas Pophale) SiO2 
 PCOD9462959
Probable space group: P N M A
;
_chemical_formula_sum "Si O2"
_cell_formula_units_Z 48
_cell_length_a 10.528345
_cell_length_b 8.346631
_cell_length_c 30.272286
_cell_angle_alpha 90.000000
_cell_angle_beta 90.000000
_cell_angle_gamma 90.000000
_cell_volume 2660.213785
_symmetry_space_group_name_H-M "P N M A"
_symmetry_group_IT_number 62
_symmetry_cell_setting 'orthorhombic'
loop_
_space_group_symop_operation_xyz
x,y,z
1/2-x,-y,1/2+z
1/2+x,1/2-y,1/2-z
-x,1/2+y,-z
-x,-y,-z
1/2+x,y,1/2-z
1/2-x,1/2+y,1/2+z
x,1/2-y,z
loop_
_atom_site_type_symbol
_atom_site_label
_atom_site_fract_x
_atom_site_fract_y
_atom_site_fract_z
Si Si1 0.377418 0.443621 0.527055
Si Si2 0.723440 0.058015 0.215424
Si Si3 0.987016 0.056516 0.882739
Si Si4 0.009145 0.558050 0.217396
Si Si5 0.727463 0.443240 0.115498
Si Si6 0.374019 0.556378 0.976062
O O1 0.500000 0.500000 0.500000
O O2 0.376271 0.250000 0.526435
O O3 0.394285 0.496144 0.577956
O O4 0.249563 0.499757 0.503300
O O5 0.725388 0.250000 0.215262
O O6 0.695896 0.000641 0.165080
O O7 0.614773 0.001083 0.248576
O O8 0.865584 0.999573 0.227284
O O9 0.988703 0.250000 0.882395
O O10 0.958726 0.002469 0.832759
O O11 0.128359 0.996468 0.893801
O O12 0.008460 0.750000 0.217744
O O13 0.724615 0.250000 0.116064
O O14 0.640913 0.498522 0.074804
O O15 0.372584 0.750000 0.975820
O O16 0.500000 0.500000 0.000000
#
# Coordination Sequence:
#
# PCOD9462959 Si02
#       6
#     8   8   8   8   8   8
#     4  10  19  33  55  80 105 134 174 217 258 307
#     4  10  20  36  58  81 108 141 180 223 271 322
#     4   9  18  32  54  81 106 133 173 219 263 314
#     4  10  20  36  56  80 111 142 178 222 271 323
#     4   9  18  34  55  77 105 139 176 216 260 314
#     4  10  21  36  52  75 109 142 176 215 260 312
#
# _framework density 18.043662999999999
#
# number of rings (size 3 to 8) (size 9 to 14) (size 15 to 20)
#    0.000    2.333    1.667    1.000    0.000    2.667 
#    3.000    0.000    0.000    0.000    0.000    0.000 
#    0.000    0.000    0.000    0.000    0.000    0.000 
#
# Total GULP energy -267687.851617 kJ/mol
# GULP energy per Si atom -5576.830242 kJ/mol
# Density = 1.800259 g / cm^3
# Si number density = 18.043663 Si / 1000 Ang^3
#
#
#
# Elastic Constant Matrix: (Units=GPa)
#
#
# Indices 1 2 3 4 5 6 
#
# 1 135.1168 18.4841 104.2143 0.0000 0.0000 0.0000
# 2 18.4841 14.6790 23.5190 0.0000 0.0000 0.0000
# 3 104.2143 23.5190 158.3536 0.0000 0.0000 0.0000
# 4 0.0000 0.0000 0.0000 20.1570 0.0000 0.0000
# 5 0.0000 0.0000 0.0000 0.0000 38.0537 0.0000
# 6 0.0000 0.0000 0.0000 0.0000 0.0000 28.6596
#
#
#
# Elastic Compliance Matrix: (Units=1/GPa)
#
#
# Indices 1 2 3 4 5 6 
#
# 1 0.015215 -0.004089 -0.009406 0.000000 0.000000 0.000000
# 2 -0.004089 0.090497 -0.010750 0.000000 0.000000 0.000000
# 3 -0.009406 -0.010750 0.014102 0.000000 0.000000 0.000000
# 4 0.000000 0.000000 0.000000 0.049610 0.000000 0.000000
# 5 0.000000 0.000000 0.000000 0.000000 0.026279 0.000000
# 6 0.000000 0.000000 0.000000 0.000000 0.000000 0.034892
#
#
# Mechanical properties :
#
#
# Convention : Reuss Voigt Hill
#
# Bulk Modulus (GPa) = 14.02044 66.73158 40.37601
# Shear Modulus (GPa) = 16.50933 28.16953 22.33943
#
# Velocity S-wave (km/s) = 3.02812 3.95547 3.52245
# Velocity P-wave (km/s) = 4.47361 7.61083 6.24251
#
# Compressibility (1/GPa) = 0.07132443
#
# Stress axis : x y z
#
# Youngs Moduli (GPa) = 65.72445 11.05011 70.91314
#
# Poissons Ratio (x) = 0.04518 0.66700
# Poissons Ratio (y) = 0.26872 0.76232
# Poissons Ratio (z) = 0.61820 0.11879
#
# Static dielectric constant tensor:
#      x y z
#    x 1.578250 0.000000 0.000000 
#    y 0.000000 1.631860 0.000000 
#    z 0.000000 0.000000 1.661970 
# 
# From -- ./inp_files/31902.got.cif
#   From: 2010.05.17/outbox.cif.g08.bks.cpg/sg62_16_cif.got.tgz:31902.got - 2010.06.03 15:25:27.
