data_PCOD9462851
_publ_section_title
;
Structure prediction by ZEFSAII (Michael W. Deem and Ramdas Pophale) SiO2 
 PCOD9462851
Probable space group: P N M A
;
_chemical_formula_sum "Si O2"
_cell_formula_units_Z 56
_cell_length_a 22.468181
_cell_length_b 8.185413
_cell_length_c 15.146831
_cell_angle_alpha 90.000000
_cell_angle_beta 90.000000
_cell_angle_gamma 90.000000
_cell_volume 2785.673999
_symmetry_space_group_name_H-M "P N M A"
_symmetry_group_IT_number 62
_symmetry_cell_setting 'orthorhombic'
loop_
_space_group_symop_operation_xyz
x,y,z
1/2-x,-y,1/2+z
1/2+x,1/2-y,1/2-z
-x,1/2+y,-z
-x,-y,-z
1/2+x,y,1/2-z
1/2-x,1/2+y,1/2+z
x,1/2-y,z
loop_
_atom_site_type_symbol
_atom_site_label
_atom_site_fract_x
_atom_site_fract_y
_atom_site_fract_z
Si Si1 0.118881 0.946212 0.298997
Si Si2 0.855671 0.449597 0.343085
Si Si3 0.041906 0.940712 0.130496
Si Si4 0.860302 0.939493 0.991097
Si Si5 0.719506 0.447352 0.328206
Si Si6 0.568557 0.552009 0.012767
Si Si7 0.587808 0.941697 0.659949
O O1 0.120537 0.750000 0.303628
O O2 0.070312 0.991710 0.224433
O O3 0.097412 0.006345 0.394658
O O4 0.181861 0.001572 0.257919
O O5 0.854748 0.250000 0.344426
O O6 0.787358 0.503737 0.334462
O O7 0.890763 0.502958 0.430432
O O8 0.889892 0.499931 0.254776
O O9 0.055767 0.750000 0.115480
O O10 0.075478 0.041686 0.055602
O O11 0.972140 0.966999 0.133654
O O12 0.847071 0.750000 0.007351
O O13 0.815516 0.004340 0.916139
O O14 0.863548 0.030148 0.083860
O O15 0.718781 0.250000 0.329892
O O16 0.569238 0.750000 0.013941
O O17 0.500000 0.500000 0.000000
O O18 0.574161 0.750000 0.665316
#
# Coordination Sequence:
#
# PCOD9462851 Si02
#       7
#     8   8   8   8   8   8   8
#     4   9  19  34  55  81 107 137 171 217 269 309
#     4   9  20  37  55  76 105 140 175 216 262 311
#     4  10  19  33  52  77 109 137 167 208 255 308
#     4  10  20  34  54  78 103 134 172 212 254 305
#     4   9  19  37  57  76 101 137 179 214 255 317
#     4  10  20  36  57  81 110 142 179 221 268 319
#     4  11  21  33  51  75 104 137 171 208 255 305
#
# _framework density 20.102854000000001
#
# number of rings (size 3 to 8) (size 9 to 14) (size 15 to 20)
#    0.000    2.286    0.000    2.571    0.000    2.857 
#    0.000    4.286    0.000    0.000    0.000    0.000 
#    0.000    0.000    0.000    0.000    0.000    0.000 
#
# Total GULP energy -312608.156612 kJ/mol
# GULP energy per Si atom -5582.288511 kJ/mol
# Density = 2.005710 g / cm^3
# Si number density = 20.102854 Si / 1000 Ang^3
#
#
#
# Elastic Constant Matrix: (Units=GPa)
#
#
# Indices 1 2 3 4 5 6 
#
# 1 101.4640 -2.6916 40.9465 0.0000 0.0000 0.0000
# 2 -2.6916 13.3329 8.7383 0.0000 0.0000 0.0000
# 3 40.9465 8.7383 146.1948 0.0000 0.0000 0.0000
# 4 0.0000 0.0000 0.0000 20.0178 0.0000 0.0000
# 5 0.0000 0.0000 0.0000 0.0000 14.2025 0.0000
# 6 0.0000 0.0000 0.0000 0.0000 0.0000 16.1338
#
#
#
# Elastic Compliance Matrix: (Units=1/GPa)
#
#
# Indices 1 2 3 4 5 6 
#
# 1 0.011372 0.004562 -0.003458 0.000000 0.000000 0.000000
# 2 0.004562 0.079890 -0.006053 0.000000 0.000000 0.000000
# 3 -0.003458 -0.006053 0.008170 0.000000 0.000000 0.000000
# 4 0.000000 0.000000 0.000000 0.049955 0.000000 0.000000
# 5 0.000000 0.000000 0.000000 0.000000 0.070410 0.000000
# 6 0.000000 0.000000 0.000000 0.000000 0.000000 0.061982
#
#
# Mechanical properties :
#
#
# Convention : Reuss Voigt Hill
#
# Bulk Modulus (GPa) = 11.16876 39.44199 25.30537
# Shear Modulus (GPa) = 15.55099 24.33739 19.94419
#
# Velocity S-wave (km/s) = 2.78433 3.48320 3.15319
# Velocity P-wave (km/s) = 3.98805 5.98662 5.08646
#
# Compressibility (1/GPa) = 0.08953548
#
# Stress axis : x y z
#
# Youngs Moduli (GPa) = 87.93408 12.51717 122.39236
#
# Poissons Ratio (x) = -0.05710 0.42321
# Poissons Ratio (y) = -0.40115 0.74083
# Poissons Ratio (z) = 0.30406 0.07576
#
# Static dielectric constant tensor:
#      x y z
#    x 1.691780 0.000000 0.000000 
#    y 0.000000 1.727700 0.000000 
#    z 0.000000 0.000000 1.715570 
# 
# From -- ./inp_files/20363.got.cif
#   From: 2010.05.17/outbox.cif.g08.bks.cpg/sg62_11_cif.got.tgz:20363.got - 2010.06.03 15:25:27.
