data_PCOD9462158
_publ_section_title
;
Structure prediction by ZEFSAII (Michael W. Deem and Ramdas Pophale) SiO2 
 PCOD9462158
Probable space group: P N M A
;
_chemical_formula_sum "Si O2"
_cell_formula_units_Z 48
_cell_length_a 14.002855
_cell_length_b 13.325118
_cell_length_c 12.147447
_cell_angle_alpha 90.000000
_cell_angle_beta 90.000000
_cell_angle_gamma 90.000000
_cell_volume 2266.588433
_symmetry_space_group_name_H-M "P N M A"
_symmetry_group_IT_number 62
_symmetry_cell_setting 'orthorhombic'
loop_
_space_group_symop_operation_xyz
x,y,z
1/2-x,-y,1/2+z
1/2+x,1/2-y,1/2-z
-x,1/2+y,-z
-x,-y,-z
1/2+x,y,1/2-z
1/2-x,1/2+y,1/2+z
x,1/2-y,z
loop_
_atom_site_type_symbol
_atom_site_label
_atom_site_fract_x
_atom_site_fract_y
_atom_site_fract_z
Si Si1 0.620981 0.366749 0.845935
Si Si2 0.720865 0.508698 0.997697
Si Si3 0.248005 0.138328 0.306717
Si Si4 0.046295 0.546719 0.773755
Si Si5 0.617711 0.133880 0.411329
Si Si6 0.968197 0.365935 0.454983
O O1 0.640596 0.250000 0.822507
O O2 0.576612 0.431356 0.746099
O O3 0.499478 0.581215 0.842354
O O4 0.544458 0.371830 0.946709
O O5 0.715464 0.443289 0.106401
O O6 0.709520 0.431494 0.894349
O O7 0.819038 0.570315 0.995792
O O8 0.631289 0.583269 0.988922
O O9 0.238530 0.250000 0.355181
O O10 0.357832 0.112729 0.281642
O O11 0.187261 0.136361 0.195578
O O12 0.976608 0.575538 0.872376
O O13 0.598504 0.250000 0.442234
O O14 0.952328 0.250000 0.430016
#
# Coordination Sequence:
#
# PCOD9462158 Si02
#       6
#     8   8   8   8   8   8
#     4  10  20  36  58  85 115 150 196 250 304 343
#     4  11  21  35  57  86 122 153 193 242 294 348
#     4  11  22  38  60  86 116 156 200 242 293 351
#     4  11  21  37  59  84 117 155 197 245 286 347
#     4  11  22  38  62  89 118 155 199 243 293 350
#     4  10  18  34  60  87 114 147 197 251 297 338
#
# _framework density 21.177201
#
# number of rings (size 3 to 8) (size 9 to 14) (size 15 to 20)
#    0.000    1.333    3.333    6.500    0.000    3.333 
#    0.000    3.333    0.000    0.000    0.000    0.000 
#    0.000    0.000    0.000    0.000    0.000    0.000 
#
# Total GULP energy -268344.500220 kJ/mol
# GULP energy per Si atom -5590.510421 kJ/mol
# Density = 2.112900 g / cm^3
# Si number density = 21.177201 Si / 1000 Ang^3
#
#
#
# Elastic Constant Matrix: (Units=GPa)
#
#
# Indices 1 2 3 4 5 6 
#
# 1 51.5679 -5.1537 3.5281 0.0000 0.0000 0.0000
# 2 -5.1537 138.7136 18.7331 0.0000 0.0000 0.0000
# 3 3.5281 18.7331 28.3222 0.0000 0.0000 0.0000
# 4 0.0000 0.0000 0.0000 26.4779 0.0000 0.0000
# 5 0.0000 0.0000 0.0000 0.0000 22.6305 0.0000
# 6 0.0000 0.0000 0.0000 0.0000 0.0000 20.8678
#
#
#
# Elastic Compliance Matrix: (Units=1/GPa)
#
#
# Indices 1 2 3 4 5 6 
#
# 1 0.019730 0.001169 -0.003231 0.000000 0.000000 0.000000
# 2 0.001169 0.007986 -0.005428 0.000000 0.000000 0.000000
# 3 -0.003231 -0.005428 0.039300 0.000000 0.000000 0.000000
# 4 0.000000 0.000000 0.000000 0.037767 0.000000 0.000000
# 5 0.000000 0.000000 0.000000 0.000000 0.044188 0.000000
# 6 0.000000 0.000000 0.000000 0.000000 0.000000 0.047921
#
#
# Mechanical properties :
#
#
# Convention : Reuss Voigt Hill
#
# Bulk Modulus (GPa) = 19.21706 28.09097 23.65401
# Shear Modulus (GPa) = 21.81345 27.42834 24.62089
#
# Velocity S-wave (km/s) = 3.21291 3.60277 3.41341
# Velocity P-wave (km/s) = 4.78099 5.53174 5.17001
#
# Compressibility (1/GPa) = 0.05203711
#
# Stress axis : x y z
#
# Youngs Moduli (GPa) = 50.68465 125.22654 25.44499
#
# Poissons Ratio (x) = -0.14644 0.08222
# Poissons Ratio (y) = -0.05927 0.13810
# Poissons Ratio (z) = 0.16377 0.67967
#
# Static dielectric constant tensor:
#      x y z
#    x 1.792330 0.000000 0.000000 
#    y 0.000000 1.772930 0.000000 
#    z 0.000000 0.000000 1.791940 
# 
# From -- ./inp_files/18886.got.cif
#   From: 2010.05.17/outbox.cif.g08.bks.cpg/sg62_10_cif.got.tgz:18886.got - 2010.06.03 15:25:27.
