data_PCOD9462467
_publ_section_title
;
Structure prediction by ZEFSAII (Michael W. Deem and Ramdas Pophale) SiO2 
 PCOD9462467
Probable space group: P N M A
;
_chemical_formula_sum "Si O2"
_cell_formula_units_Z 56
_cell_length_a 11.134075
_cell_length_b 22.720968
_cell_length_c 12.026854
_cell_angle_alpha 90.000000
_cell_angle_beta 90.000000
_cell_angle_gamma 90.000000
_cell_volume 3042.516985
_symmetry_space_group_name_H-M "P N M A"
_symmetry_group_IT_number 62
_symmetry_cell_setting 'orthorhombic'
loop_
_space_group_symop_operation_xyz
x,y,z
1/2-x,-y,1/2+z
1/2+x,1/2-y,1/2-z
-x,1/2+y,-z
-x,-y,-z
1/2+x,y,1/2-z
1/2-x,1/2+y,1/2+z
x,1/2-y,z
loop_
_atom_site_type_symbol
_atom_site_label
_atom_site_fract_x
_atom_site_fract_y
_atom_site_fract_z
Si Si1 0.465782 0.636458 0.815191
Si Si2 0.269785 0.910175 0.477916
Si Si3 0.677668 0.437310 0.759813
Si Si4 0.364120 0.464473 0.570363
Si Si5 0.927266 0.040563 0.159400
Si Si6 0.754427 0.318737 0.329032
Si Si7 0.494824 0.931502 0.036120
O O1 0.494089 0.581605 0.735188
O O2 0.600654 0.667554 0.811647
O O3 0.344935 0.667775 0.768426
O O4 0.442468 0.608907 0.937121
O O5 0.328021 0.903198 0.356248
O O6 0.288840 0.860223 0.569328
O O7 0.130002 0.911276 0.451360
O O8 0.299795 0.974398 0.531029
O O9 0.794834 0.429813 0.835403
O O10 0.676429 0.507267 0.726605
O O11 0.572919 0.426807 0.847767
O O12 0.382527 0.430321 0.454462
O O13 0.488334 0.487277 0.619405
O O14 0.745882 0.250000 0.355104
O O15 0.500000 0.000000 0.000000
#
# Coordination Sequence:
#
# PCOD9462467 Si02
#       7
#     8   8   8   8   8   8   8
#     4  11  23  37  64  90 118 156 196 243 305 351
#     4  10  21  36  54  80 113 159 193 233 303 347
#     4  11  20  31  53  81 123 156 188 224 280 365
#     4  10  19  31  48  80 119 151 179 225 275 357
#     4  10  20  30  49  81 120 152 186 220 276 359
#     4  11  24  44  63  84 111 152 210 265 303 338
#     4  11  20  33  52  88 124 156 183 226 291 368
#
# _framework density 18.405812999999998
#
# number of rings (size 3 to 8) (size 9 to 14) (size 15 to 20)
#    0.000    1.429    4.286    2.143    2.000    0.000 
#    0.000    0.000    0.000    4.286    0.000    0.000 
#    0.000    0.000    0.000    0.000    0.000    0.000 
#
# Total GULP energy -311900.695283 kJ/mol
# GULP energy per Si atom -5569.655273 kJ/mol
# Density = 1.836392 g / cm^3
# Si number density = 18.405813 Si / 1000 Ang^3
#
#
#
# Elastic Constant Matrix: (Units=GPa)
#
#
# Indices 1 2 3 4 5 6 
#
# 1 64.9657 12.3415 39.9888 0.0000 0.0000 0.0000
# 2 12.3415 43.7501 31.4095 0.0000 0.0000 0.0000
# 3 39.9888 31.4095 132.4778 0.0000 0.0000 0.0000
# 4 0.0000 0.0000 0.0000 7.3589 0.0000 0.0000
# 5 0.0000 0.0000 0.0000 0.0000 40.3171 0.0000
# 6 0.0000 0.0000 0.0000 0.0000 0.0000 14.1938
#
#
#
# Elastic Compliance Matrix: (Units=1/GPa)
#
#
# Indices 1 2 3 4 5 6 
#
# 1 0.018986 -0.001496 -0.005376 0.000000 0.000000 0.000000
# 2 -0.001496 0.027664 -0.006107 0.000000 0.000000 0.000000
# 3 -0.005376 -0.006107 0.010619 0.000000 0.000000 0.000000
# 4 0.000000 0.000000 0.000000 0.135891 0.000000 0.000000
# 5 0.000000 0.000000 0.000000 0.000000 0.024803 0.000000
# 6 0.000000 0.000000 0.000000 0.000000 0.000000 0.070453
#
#
# Mechanical properties :
#
#
# Convention : Reuss Voigt Hill
#
# Bulk Modulus (GPa) = 31.93871 45.40813 38.67342
# Shear Modulus (GPa) = 15.39348 22.87087 19.13218
#
# Velocity S-wave (km/s) = 2.89509 3.52886 3.22757
# Velocity P-wave (km/s) = 5.34468 6.42868 5.91158
#
# Compressibility (1/GPa) = 0.03130997
#
# Stress axis : x y z
#
# Youngs Moduli (GPa) = 52.66958 36.14844 94.16823
#
# Poissons Ratio (x) = 0.05408 0.50628
# Poissons Ratio (y) = 0.07879 0.57511
# Poissons Ratio (z) = 0.28317 0.22077
#
# Static dielectric constant tensor:
#      x y z
#    x 1.738750 0.000000 0.000000 
#    y 0.000000 1.625160 0.000000 
#    z 0.000000 0.000000 1.698690 
# 
# From -- ./inp_files/12511.got.cif
#   From: 2010.05.17/outbox.cif.g08.bks.cpg/sg62_7_cif.got.tgz:12511.got - 2010.06.03 15:25:27.
