data_PCOD9462422
_publ_section_title
;
Structure prediction by ZEFSAII (Michael W. Deem and Ramdas Pophale) SiO2 
 PCOD9462422
Probable space group: P N M A
;
_chemical_formula_sum "Si O2"
_cell_formula_units_Z 56
_cell_length_a 15.403240
_cell_length_b 9.713079
_cell_length_c 21.084044
_cell_angle_alpha 90.000000
_cell_angle_beta 90.000000
_cell_angle_gamma 90.000000
_cell_volume 3154.444692
_symmetry_space_group_name_H-M "P N M A"
_symmetry_group_IT_number 62
_symmetry_cell_setting 'orthorhombic'
loop_
_space_group_symop_operation_xyz
x,y,z
1/2-x,-y,1/2+z
1/2+x,1/2-y,1/2-z
-x,1/2+y,-z
-x,-y,-z
1/2+x,y,1/2-z
1/2-x,1/2+y,1/2+z
x,1/2-y,z
loop_
_atom_site_type_symbol
_atom_site_label
_atom_site_fract_x
_atom_site_fract_y
_atom_site_fract_z
Si Si1 0.528759 0.406507 0.084566
Si Si2 0.540698 0.900217 0.449867
Si Si3 0.215935 0.596769 0.976243
Si Si4 0.995763 0.583639 0.194721
Si Si5 0.369711 0.410228 0.013622
Si Si6 0.322024 0.084660 0.328265
Si Si7 0.625473 0.090677 0.218740
O O1 0.542141 0.250000 0.059012
O O2 0.425351 0.428381 0.078087
O O3 0.573245 0.410803 0.152352
O O4 0.572298 0.522337 0.041658
O O5 0.499365 0.750000 0.457296
O O6 0.638605 0.892897 0.473909
O O7 0.527047 0.939510 0.377576
O O8 0.500000 0.000000 0.500000
O O9 0.255102 0.750000 0.968422
O O10 0.186686 0.557053 0.904555
O O11 0.281941 0.491796 0.006812
O O12 0.988610 0.750000 0.205619
O O13 0.902132 0.505371 0.199140
O O14 0.070361 0.512777 0.237518
O O15 0.355689 0.250000 0.003080
O O16 0.339207 0.250000 0.321562
O O17 0.227043 0.056940 0.296585
O O18 0.623091 0.250000 0.242516
#
# Coordination Sequence:
#
# PCOD9462422 Si02
#       7
#     8   8   8   8   8   8   8
#     4   9  18  35  55  79 113 150 191 235 279 337
#     4  10  21  37  59  85 114 147 183 233 291 345
#     4  10  19  35  58  82 113 149 187 229 280 345
#     4  11  24  40  59  88 122 150 186 245 303 348
#     4  10  19  30  52  85 116 145 184 237 288 333
#     4  10  20  38  65  87 107 151 202 237 280 345
#     4  10  21  40  63  83 112 158 206 241 278 346
#
# _framework density 17.75273
#
# number of rings (size 3 to 8) (size 9 to 14) (size 15 to 20)
#    0.000    2.000    2.857    0.857    0.000    3.429 
#    2.571    0.000    0.000    0.000    0.000    0.000 
#    0.000    0.000    0.000    0.000    0.000    0.000 
#
# Total GULP energy -311748.006513 kJ/mol
# GULP energy per Si atom -5566.928688 kJ/mol
# Density = 1.771232 g / cm^3
# Si number density = 17.752730 Si / 1000 Ang^3
#
#
#
# Elastic Constant Matrix: (Units=GPa)
#
#
# Indices 1 2 3 4 5 6 
#
# 1 119.6555 74.4375 49.4301 0.0000 0.0000 0.0000
# 2 74.4375 86.9179 41.5061 0.0000 0.0000 0.0000
# 3 49.4301 41.5061 55.9290 0.0000 0.0000 0.0000
# 4 0.0000 0.0000 0.0000 26.5414 0.0000 0.0000
# 5 0.0000 0.0000 0.0000 0.0000 28.4025 0.0000
# 6 0.0000 0.0000 0.0000 0.0000 0.0000 32.5894
#
#
#
# Elastic Compliance Matrix: (Units=1/GPa)
#
#
# Indices 1 2 3 4 5 6 
#
# 1 0.019775 -0.013305 -0.007604 0.000000 0.000000 0.000000
# 2 -0.013305 0.026772 -0.008109 0.000000 0.000000 0.000000
# 3 -0.007604 -0.008109 0.030618 0.000000 0.000000 0.000000
# 4 0.000000 0.000000 0.000000 0.037677 0.000000 0.000000
# 5 0.000000 0.000000 0.000000 0.000000 0.035208 0.000000
# 6 0.000000 0.000000 0.000000 0.000000 0.000000 0.030685
#
#
# Mechanical properties :
#
#
# Convention : Reuss Voigt Hill
#
# Bulk Modulus (GPa) = 52.27442 65.91665 59.09554
# Shear Modulus (GPa) = 20.39594 23.98192 22.18893
#
# Velocity S-wave (km/s) = 3.39321 3.67943 3.53921
# Velocity P-wave (km/s) = 6.69788 7.43384 7.07543
#
# Compressibility (1/GPa) = 0.01912982
#
# Stress axis : x y z
#
# Youngs Moduli (GPa) = 50.56813 37.35264 32.66062
#
# Poissons Ratio (x) = 0.49697 0.24834
# Poissons Ratio (y) = 0.67280 0.26485
# Poissons Ratio (z) = 0.38450 0.30290
#
# Static dielectric constant tensor:
#      x y z
#    x 1.602800 0.000000 0.000000 
#    y 0.000000 1.610230 0.000000 
#    z 0.000000 0.000000 1.603550 
# 
# From -- ./inp_files/27298.got.cif
#   From: 2010.05.17/outbox.cif.g08.bks.cpg/sg62_14_cif.got.tgz:27298.got - 2010.06.03 15:25:27.
