data_PCOD9462627
_publ_section_title
;
Structure prediction by ZEFSAII (Michael W. Deem and Ramdas Pophale) SiO2 
 PCOD9462627
Probable space group: P N M A
;
_chemical_formula_sum "Si O2"
_cell_formula_units_Z 64
_cell_length_a 23.571515
_cell_length_b 9.162498
_cell_length_c 17.652291
_cell_angle_alpha 90.000000
_cell_angle_beta 90.000000
_cell_angle_gamma 90.000000
_cell_volume 3812.435173
_symmetry_space_group_name_H-M "P N M A"
_symmetry_group_IT_number 62
_symmetry_cell_setting 'orthorhombic'
loop_
_space_group_symop_operation_xyz
x,y,z
1/2-x,-y,1/2+z
1/2+x,1/2-y,1/2-z
-x,1/2+y,-z
-x,-y,-z
1/2+x,y,1/2-z
1/2-x,1/2+y,1/2+z
x,1/2-y,z
loop_
_atom_site_type_symbol
_atom_site_label
_atom_site_fract_x
_atom_site_fract_y
_atom_site_fract_z
Si Si1 0.611305 0.576556 0.328338
Si Si2 0.114187 0.079198 0.322219
Si Si3 0.770577 0.421790 0.895345
Si Si4 0.942465 0.923206 0.975192
Si Si5 0.675257 0.422047 0.538049
Si Si6 0.782282 0.085232 0.618657
Si Si7 0.559898 0.423307 0.012856
Si Si8 0.834347 0.082933 0.447712
O O1 0.602573 0.750000 0.335550
O O2 0.591983 0.515082 0.247793
O O3 0.679346 0.548942 0.335604
O O4 0.580896 0.493457 0.397378
O O5 0.111635 0.250000 0.304221
O O6 0.080518 0.052555 0.400408
O O7 0.178738 0.029084 0.338687
O O8 0.758443 0.250000 0.896646
O O9 0.712069 0.510369 0.892656
O O10 0.800319 0.472101 0.973644
O O11 0.950562 0.750000 0.965524
O O12 0.892066 0.944107 0.037297
O O13 0.000000 0.000000 0.000000
O O14 0.791219 0.250000 0.648685
O O15 0.715175 0.444656 0.610918
O O16 0.684233 0.250000 0.516212
O O17 0.805301 0.084659 0.531654
O O18 0.556074 0.250000 0.000777
O O19 0.500000 0.500000 0.000000
O O20 0.608316 0.492072 0.959112
O O21 0.846052 0.250000 0.426939
#
# Coordination Sequence:
#
# PCOD9462627 Si02
#       8
#     8   8   8   8   8   8   8   8
#     4  10  20  33  50  72  98 130 165 203 251 303
#     4  10  20  32  48  72  99 127 160 202 251 300
#     4   9  16  26  43  68  94 118 149 190 235 284
#     4  10  19  32  50  73 101 132 170 213 252 296
#     4   8  15  27  44  66  92 122 153 188 233 282
#     4   8  14  26  44  66  91 119 150 185 230 283
#     4  10  20  33  50  73 100 131 170 212 251 295
#     4   9  16  27  45  68  94 123 153 189 235 283
#
# _framework density 16.787171000000001
#
# number of rings (size 3 to 8) (size 9 to 14) (size 15 to 20)
#    0.000    2.750    0.000    3.000    0.000    6.500 
#    0.000    0.000    0.000    1.500    0.000    5.250 
#    0.000    0.000    0.000    0.000    0.000    0.000 
#
# Total GULP energy -356364.523702 kJ/mol
# GULP energy per Si atom -5568.195683 kJ/mol
# Density = 1.674896 g / cm^3
# Si number density = 16.787171 Si / 1000 Ang^3
#
#
#
# Elastic Constant Matrix: (Units=GPa)
#
#
# Indices 1 2 3 4 5 6 
#
# 1 133.1517 72.1212 27.8413 0.0000 0.0000 0.0000
# 2 72.1212 103.2038 39.5631 0.0000 0.0000 0.0000
# 3 27.8413 39.5631 34.2542 0.0000 0.0000 0.0000
# 4 0.0000 0.0000 0.0000 20.4559 0.0000 0.0000
# 5 0.0000 0.0000 0.0000 0.0000 10.3691 0.0000
# 6 0.0000 0.0000 0.0000 0.0000 0.0000 32.1238
#
#
#
# Elastic Compliance Matrix: (Units=1/GPa)
#
#
# Indices 1 2 3 4 5 6 
#
# 1 0.012085 -0.008398 -0.000123 0.000000 0.000000 0.000000
# 2 -0.008398 0.023225 -0.019998 0.000000 0.000000 0.000000
# 3 -0.000123 -0.019998 0.052391 0.000000 0.000000 0.000000
# 4 0.000000 0.000000 0.000000 0.048886 0.000000 0.000000
# 5 0.000000 0.000000 0.000000 0.000000 0.096441 0.000000
# 6 0.000000 0.000000 0.000000 0.000000 0.000000 0.031130
#
#
# Mechanical properties :
#
#
# Convention : Reuss Voigt Hill
#
# Bulk Modulus (GPa) = 32.61339 61.07345 46.84342
# Shear Modulus (GPa) = 15.08684 21.32870 18.20777
#
# Velocity S-wave (km/s) = 3.00111 3.56832 3.29694
# Velocity P-wave (km/s) = 5.61058 7.31008 6.51597
#
# Compressibility (1/GPa) = 0.03066225
#
# Stress axis : x y z
#
# Youngs Moduli (GPa) = 82.74985 43.05774 19.08726
#
# Poissons Ratio (x) = 0.36160 0.00234
# Poissons Ratio (y) = 0.69493 0.38171
# Poissons Ratio (z) = 0.01015 0.86108
#
# Static dielectric constant tensor:
#      x y z
#    x 1.585060 0.000000 0.000000 
#    y 0.000000 1.560870 0.000000 
#    z 0.000000 0.000000 1.575570 
# 
# From -- ./inp_files/24921.got.cif
#   From: 2010.05.17/outbox.cif.g08.bks.cpg/sg62_13_cif.got.tgz:24921.got - 2010.06.03 15:25:27.
