data_PCOD9462151
_publ_section_title
;
Structure prediction by ZEFSAII (Michael W. Deem and Ramdas Pophale) SiO2 
 PCOD9462151
Probable space group: P N M A
;
_chemical_formula_sum "Si O2"
_cell_formula_units_Z 48
_cell_length_a 8.218809
_cell_length_b 14.061548
_cell_length_c 16.507595
_cell_angle_alpha 90.000000
_cell_angle_beta 90.000000
_cell_angle_gamma 90.000000
_cell_volume 1907.769173
_symmetry_space_group_name_H-M "P N M A"
_symmetry_group_IT_number 62
_symmetry_cell_setting 'orthorhombic'
loop_
_space_group_symop_operation_xyz
x,y,z
1/2-x,-y,1/2+z
1/2+x,1/2-y,1/2-z
-x,1/2+y,-z
-x,-y,-z
1/2+x,y,1/2-z
1/2-x,1/2+y,1/2+z
x,1/2-y,z
loop_
_atom_site_type_symbol
_atom_site_label
_atom_site_fract_x
_atom_site_fract_y
_atom_site_fract_z
Si Si1 0.252987 0.574581 0.149046
Si Si2 0.969018 0.398650 0.403063
Si Si3 0.273998 0.856071 0.453269
Si Si4 0.446959 0.250000 0.373858
Si Si5 0.077861 0.646183 0.286081
Si Si6 0.608899 0.250000 0.217793
Si Si7 0.668260 0.929925 0.527843
O O1 0.350335 0.479485 0.129122
O O2 0.118014 0.568558 0.218310
O O3 0.394340 0.639917 0.184489
O O4 0.183499 0.606970 0.063825
O O5 0.867488 0.355061 0.478021
O O6 0.018160 0.337016 0.325761
O O7 0.143321 0.429755 0.439447
O O8 0.351691 0.750000 0.457115
O O9 0.192027 0.863374 0.364556
O O10 0.369471 0.956260 0.466337
O O11 0.600019 0.250000 0.314353
O O12 0.428914 0.349712 0.421805
O O13 0.291986 0.250000 0.314005
O O14 0.102449 0.750000 0.248466
#
# Coordination Sequence:
#
# PCOD9462151 Si02
#       7
#     8   8   8   4   8   4   8
#     4  11  22  37  62  89 124 158 206 250 307 356
#     4  10  18  36  63  87 117 154 210 249 296 361
#     4  10  18  34  58  90 119 158 204 250 299 355
#     4  10  24  38  68  89 125 151 213 250 318 350
#     4  11  23  35  59  87 126 161 203 255 294 365
#     4  10  22  36  62  95 111 161 193 264 302 364
#     4  10  20  38  63  92 114 168 207 257 287 378
#
# _framework density 25.160277000000001
#
# number of rings (size 3 to 8) (size 9 to 14) (size 15 to 20)
#    0.000    1.667    4.167    1.500    4.667    0.000 
#    0.000    0.000    3.667    2.000    0.000    0.000 
#    0.000    0.000    0.000    0.000    0.000    0.000 
#
# Total GULP energy -268677.602659 kJ/mol
# GULP energy per Si atom -5597.450055 kJ/mol
# Density = 2.510301 g / cm^3
# Si number density = 25.160277 Si / 1000 Ang^3
#
#
#
# Elastic Constant Matrix: (Units=GPa)
#
#
# Indices 1 2 3 4 5 6 
#
# 1 67.0017 38.7091 51.5105 0.0000 0.0000 0.0000
# 2 38.7091 134.2891 65.3580 0.0000 0.0000 0.0000
# 3 51.5105 65.3580 140.3630 0.0000 0.0000 0.0000
# 4 0.0000 0.0000 0.0000 23.9537 0.0000 0.0000
# 5 0.0000 0.0000 0.0000 0.0000 32.5181 0.0000
# 6 0.0000 0.0000 0.0000 0.0000 0.0000 32.2234
#
#
#
# Elastic Compliance Matrix: (Units=1/GPa)
#
#
# Indices 1 2 3 4 5 6 
#
# 1 0.021734 -0.003081 -0.006541 0.000000 0.000000 0.000000
# 2 -0.003081 0.010066 -0.003556 0.000000 0.000000 0.000000
# 3 -0.006541 -0.003556 0.011181 0.000000 0.000000 0.000000
# 4 0.000000 0.000000 0.000000 0.041747 0.000000 0.000000
# 5 0.000000 0.000000 0.000000 0.000000 0.030752 0.000000
# 6 0.000000 0.000000 0.000000 0.000000 0.000000 0.031033
#
#
# Mechanical properties :
#
#
# Convention : Reuss Voigt Hill
#
# Bulk Modulus (GPa) = 60.15730 72.53434 66.34582
# Shear Modulus (GPa) = 28.02515 30.14412 29.08463
#
# Velocity S-wave (km/s) = 3.34108 3.46509 3.40365
# Velocity P-wave (km/s) = 6.23260 6.70079 6.47093
#
# Compressibility (1/GPa) = 0.01662309
#
# Stress axis : x y z
#
# Youngs Moduli (GPa) = 46.01084 99.34879 89.43965
#
# Poissons Ratio (x) = 0.30612 0.58504
# Poissons Ratio (y) = 0.14177 0.31806
# Poissons Ratio (z) = 0.30097 0.35329
#
# Static dielectric constant tensor:
#      x y z
#    x 2.045480 0.000000 0.000000 
#    y 0.000000 1.701450 0.000000 
#    z 0.000000 0.000000 1.967380 
# 
# From -- ./inp_files/18017.got.cif
#   From: 2010.05.17/outbox.cif.g08.bks.cpg/sg62_10_cif.got.tgz:18017.got - 2010.06.03 15:25:27.
