data_PCOD9462378
_publ_section_title
;
Structure prediction by ZEFSAII (Michael W. Deem and Ramdas Pophale) SiO2 
 PCOD9462378
Probable space group: P N M A
;
_chemical_formula_sum "Si O2"
_cell_formula_units_Z 56
_cell_length_a 20.863074
_cell_length_b 8.864590
_cell_length_c 17.845769
_cell_angle_alpha 90.000000
_cell_angle_beta 90.000000
_cell_angle_gamma 90.000000
_cell_volume 3300.442867
_symmetry_space_group_name_H-M "P N M A"
_symmetry_group_IT_number 62
_symmetry_cell_setting 'orthorhombic'
loop_
_space_group_symop_operation_xyz
x,y,z
1/2-x,-y,1/2+z
1/2+x,1/2-y,1/2-z
-x,1/2+y,-z
-x,-y,-z
1/2+x,y,1/2-z
1/2-x,1/2+y,1/2+z
x,1/2-y,z
loop_
_atom_site_type_symbol
_atom_site_label
_atom_site_fract_x
_atom_site_fract_y
_atom_site_fract_z
Si Si1 0.527916 0.931051 0.076834
Si Si2 0.105463 0.067700 0.634385
Si Si3 0.401188 0.077261 0.530710
Si Si4 0.123053 0.431916 0.797045
Si Si5 0.991063 0.077257 0.118064
Si Si6 0.791360 0.569165 0.061623
Si Si7 0.153704 0.431487 0.470208
O O1 0.532988 0.750000 0.071541
O O2 0.470687 0.968013 0.134368
O O3 0.597842 0.003094 0.083239
O O4 0.500000 0.000000 0.000000
O O5 0.109882 0.250000 0.632751
O O6 0.136106 0.015499 0.712277
O O7 0.136660 0.017329 0.555866
O O8 0.383979 0.250000 0.547546
O O9 0.448518 0.078349 0.458406
O O10 0.442738 0.003875 0.596858
O O11 0.339500 0.984530 0.503998
O O12 0.121127 0.250000 0.797756
O O13 0.053941 0.491706 0.823437
O O14 0.174695 0.477500 0.859938
O O15 0.001861 0.250000 0.140139
O O16 0.785764 0.750000 0.060590
O O17 0.722801 0.492953 0.051878
O O18 0.151946 0.250000 0.468278
#
# Coordination Sequence:
#
# PCOD9462378 Si02
#       7
#     8   8   8   8   8   8   8
#     4   9  16  29  50  75  98 120 154 198 244 288
#     4   8  16  31  52  74  95 123 162 204 242 291
#     4   9  16  27  44  65  91 124 161 196 233 281
#     4   9  17  31  50  71  96 127 165 203 244 295
#     4   9  16  26  42  67  95 121 154 198 241 279
#     4  10  19  30  48  73  99 129 165 206 248 292
#     4  10  19  32  51  73  99 130 166 204 243 295
#
# _framework density 16.967419
#
# number of rings (size 3 to 8) (size 9 to 14) (size 15 to 20)
#    0.000    2.857    0.000    3.000    0.000    4.000 
#    0.000    4.286    3.143    0.000    0.000    0.000 
#    0.000    0.000    0.000    0.000    0.000    0.000 
#
# Total GULP energy -311756.520984 kJ/mol
# GULP energy per Si atom -5567.080732 kJ/mol
# Density = 1.692880 g / cm^3
# Si number density = 16.967419 Si / 1000 Ang^3
#
#
#
# Elastic Constant Matrix: (Units=GPa)
#
#
# Indices 1 2 3 4 5 6 
#
# 1 117.8155 41.9296 40.2030 0.0000 0.0000 0.0000
# 2 41.9296 56.3237 18.1948 0.0000 0.0000 0.0000
# 3 40.2030 18.1948 67.6463 0.0000 0.0000 0.0000
# 4 0.0000 0.0000 0.0000 13.4570 0.0000 0.0000
# 5 0.0000 0.0000 0.0000 0.0000 14.2521 0.0000
# 6 0.0000 0.0000 0.0000 0.0000 0.0000 31.9855
#
#
#
# Elastic Compliance Matrix: (Units=1/GPa)
#
#
# Indices 1 2 3 4 5 6 
#
# 1 0.013316 -0.008057 -0.005747 0.000000 0.000000 0.000000
# 2 -0.008057 0.024318 -0.001753 0.000000 0.000000 0.000000
# 3 -0.005747 -0.001753 0.018670 0.000000 0.000000 0.000000
# 4 0.000000 0.000000 0.000000 0.074311 0.000000 0.000000
# 5 0.000000 0.000000 0.000000 0.000000 0.070165 0.000000
# 6 0.000000 0.000000 0.000000 0.000000 0.000000 0.031264
#
#
# Mechanical properties :
#
#
# Convention : Reuss Voigt Hill
#
# Bulk Modulus (GPa) = 39.69580 49.16002 44.42791
# Shear Modulus (GPa) = 18.41254 21.36948 19.89101
#
# Velocity S-wave (km/s) = 3.29777 3.55271 3.42761
# Velocity P-wave (km/s) = 6.16007 6.77238 6.47347
#
# Compressibility (1/GPa) = 0.02519158
#
# Stress axis : x y z
#
# Youngs Moduli (GPa) = 75.09643 41.12116 53.56266
#
# Poissons Ratio (x) = 0.33130 0.30782
# Poissons Ratio (y) = 0.60502 0.09388
# Poissons Ratio (z) = 0.43158 0.07208
#
# Static dielectric constant tensor:
#      x y z
#    x 1.586350 0.000000 0.000000 
#    y 0.000000 1.572600 0.000000 
#    z 0.000000 0.000000 1.602810 
# 
# From -- ./inp_files/24580.got.cif
#   From: 2010.05.17/outbox.cif.g08.bks.cpg/sg62_13_cif.got.tgz:24580.got - 2010.06.03 15:25:27.
