data_PCOD9462709
_publ_section_title
;
Structure prediction by ZEFSAII (Michael W. Deem and Ramdas Pophale) SiO2 
 PCOD9462709
Probable space group: P N M A
;
_chemical_formula_sum "Si O2"
_cell_formula_units_Z 56
_cell_length_a 16.330864
_cell_length_b 8.700780
_cell_length_c 20.158765
_cell_angle_alpha 90.000000
_cell_angle_beta 90.000000
_cell_angle_gamma 90.000000
_cell_volume 2864.384216
_symmetry_space_group_name_H-M "P N M A"
_symmetry_group_IT_number 62
_symmetry_cell_setting 'orthorhombic'
loop_
_space_group_symop_operation_xyz
x,y,z
1/2-x,-y,1/2+z
1/2+x,1/2-y,1/2-z
-x,1/2+y,-z
-x,-y,-z
1/2+x,y,1/2-z
1/2-x,1/2+y,1/2+z
x,1/2-y,z
loop_
_atom_site_type_symbol
_atom_site_label
_atom_site_fract_x
_atom_site_fract_y
_atom_site_fract_z
Si Si1 0.691721 0.070137 0.610058
Si Si2 0.909336 0.434290 0.988118
Si Si3 0.779108 0.066006 0.883562
Si Si4 0.324669 0.933503 0.241405
Si Si5 0.612736 0.927536 0.103268
Si Si6 0.128579 0.571026 0.540221
Si Si7 0.524060 0.575432 0.827655
O O1 0.665856 0.250000 0.606947
O O2 0.676653 0.005750 0.683812
O O3 0.789642 0.066361 0.604706
O O4 0.646762 0.984107 0.550498
O O5 0.914071 0.250000 0.985399
O O6 0.862633 0.487568 0.920026
O O7 0.000000 0.500000 0.000000
O O8 0.784978 0.250000 0.877656
O O9 0.743653 0.007980 0.812098
O O10 0.706536 0.023008 0.934528
O O11 0.312407 0.750000 0.245513
O O12 0.414607 0.970347 0.213674
O O13 0.585528 0.750000 0.108653
O O14 0.567657 0.017737 0.161451
O O15 0.593980 0.986788 0.029283
O O16 0.153880 0.750000 0.530239
O O17 0.063387 0.569312 0.598867
O O18 0.527499 0.750000 0.803368
#
# Coordination Sequence:
#
# PCOD9462709 Si02
#       7
#     8   8   8   8   8   8   8
#     4  10  21  39  62  84 111 149 194 243 295 345
#     4  11  23  39  61  88 118 152 196 247 296 349
#     4   9  18  34  57  83 109 143 188 235 284 340
#     4   9  19  38  60  81 109 147 191 239 290 347
#     4  10  19  32  52  80 111 143 183 227 279 339
#     4   9  17  30  51  78 109 142 176 220 270 326
#     4  10  20  32  50  79 113 147 182 222 275 338
#
# _framework density 19.550450999999999
#
# number of rings (size 3 to 8) (size 9 to 14) (size 15 to 20)
#    0.000    2.286    1.429    1.286    0.000    2.857 
#    2.571    0.000    0.000    0.000    0.000    0.000 
#    0.000    0.000    0.000    0.000    0.000    0.000 
#
# Total GULP energy -312023.391215 kJ/mol
# GULP energy per Si atom -5571.846272 kJ/mol
# Density = 1.950595 g / cm^3
# Si number density = 19.550451 Si / 1000 Ang^3
#
#
#
# Elastic Constant Matrix: (Units=GPa)
#
#
# Indices 1 2 3 4 5 6 
#
# 1 60.7047 5.7013 7.4036 0.0000 0.0000 0.0000
# 2 5.7013 9.3576 6.0078 0.0000 0.0000 0.0000
# 3 7.4036 6.0078 75.0741 0.0000 0.0000 0.0000
# 4 0.0000 0.0000 0.0000 19.1835 0.0000 0.0000
# 5 0.0000 0.0000 0.0000 0.0000 2.8017 0.0000
# 6 0.0000 0.0000 0.0000 0.0000 0.0000 20.4867
#
#
#
# Elastic Compliance Matrix: (Units=1/GPa)
#
#
# Indices 1 2 3 4 5 6 
#
# 1 0.017533 -0.010091 -0.000922 0.000000 0.000000 0.000000
# 2 -0.010091 0.118460 -0.008485 0.000000 0.000000 0.000000
# 3 -0.000922 -0.008485 0.014090 0.000000 0.000000 0.000000
# 4 0.000000 0.000000 0.000000 0.052128 0.000000 0.000000
# 5 0.000000 0.000000 0.000000 0.000000 0.356925 0.000000
# 6 0.000000 0.000000 0.000000 0.000000 0.000000 0.048812
#
#
# Mechanical properties :
#
#
# Convention : Reuss Voigt Hill
#
# Bulk Modulus (GPa) = 9.00174 20.37351 14.68762
# Shear Modulus (GPa) = 7.31024 16.89596 12.10310
#
# Velocity S-wave (km/s) = 1.93579 2.94296 2.49081
# Velocity P-wave (km/s) = 3.10012 4.68952 3.97507
#
# Compressibility (1/GPa) = 0.11108968
#
# Stress axis : x y z
#
# Youngs Moduli (GPa) = 57.03437 8.44165 70.97211
#
# Poissons Ratio (x) = 0.08518 0.06541
# Poissons Ratio (y) = 0.57552 0.60217
# Poissons Ratio (z) = 0.05256 0.07162
#
# Static dielectric constant tensor:
#      x y z
#    x 1.702080 0.000000 0.000000 
#    y 0.000000 1.692310 0.000000 
#    z 0.000000 0.000000 1.718090 
# 
# From -- ./inp_files/27084.got.cif
#   From: 2010.05.17/outbox.cif.g08.bks.cpg/sg62_14_cif.got.tgz:27084.got - 2010.06.03 15:25:27.
