data_PCOD9462244
_publ_section_title
;
Structure prediction by ZEFSAII (Michael W. Deem and Ramdas Pophale) SiO2 
 PCOD9462244
Probable space group: P N M A
;
_chemical_formula_sum "Si O2"
_cell_formula_units_Z 48
_cell_length_a 9.912990
_cell_length_b 14.914982
_cell_length_c 17.061233
_cell_angle_alpha 90.000000
_cell_angle_beta 90.000000
_cell_angle_gamma 90.000000
_cell_volume 2522.538572
_symmetry_space_group_name_H-M "P N M A"
_symmetry_group_IT_number 62
_symmetry_cell_setting 'orthorhombic'
loop_
_space_group_symop_operation_xyz
x,y,z
1/2-x,-y,1/2+z
1/2+x,1/2-y,1/2-z
-x,1/2+y,-z
-x,-y,-z
1/2+x,y,1/2-z
1/2-x,1/2+y,1/2+z
x,1/2-y,z
loop_
_atom_site_type_symbol
_atom_site_label
_atom_site_fract_x
_atom_site_fract_y
_atom_site_fract_z
Si Si1 0.112679 0.971109 0.859371
Si Si2 0.638207 0.150114 0.091381
Si Si3 0.617069 0.937204 0.823797
Si Si4 0.236477 0.352454 0.918705
Si Si5 0.533494 0.419692 0.939263
Si Si6 0.134952 0.146571 0.096415
O O1 0.246434 0.920145 0.888320
O O2 0.095288 0.954710 0.767148
O O3 0.987489 0.923198 0.901491
O O4 0.139538 0.075023 0.878330
O O5 0.678195 0.250000 0.114711
O O6 0.503980 0.120769 0.138255
O O7 0.609004 0.146931 0.998052
O O8 0.755254 0.884965 0.840275
O O9 0.616068 0.031776 0.870767
O O10 0.214203 0.250000 0.893442
O O11 0.393241 0.379605 0.908076
O O12 0.207396 0.357344 0.011912
O O13 0.500000 0.500000 0.000000
O O14 0.092093 0.250000 0.109849
#
# Coordination Sequence:
#
# PCOD9462244 Si02
#       6
#     8   8   8   8   8   8
#     4  12  24  38  59  93 129 160 193 252 308 361
#     4  11  21  38  65  92 120 159 206 247 295 365
#     4  11  22  38  62  87 128 161 198 243 309 363
#     4  11  22  42  66  86 117 163 211 251 300 357
#     4  10  18  38  64  89 110 155 209 249 289 352
#     4  11  23  38  61  92 124 161 199 245 306 365
#
# _framework density 19.028448999999998
#
# number of rings (size 3 to 8) (size 9 to 14) (size 15 to 20)
#    0.000    1.000    6.667    3.000    0.000    4.000 
#    0.000    1.667    0.000    1.000    0.000    0.000 
#    0.000    0.000    0.000    0.000    0.000    0.000 
#
# Total GULP energy -268036.451494 kJ/mol
# GULP energy per Si atom -5584.092739 kJ/mol
# Density = 1.898514 g / cm^3
# Si number density = 19.028449 Si / 1000 Ang^3
#
#
#
# Elastic Constant Matrix: (Units=GPa)
#
#
# Indices 1 2 3 4 5 6 
#
# 1 63.3670 24.8530 -16.8142 0.0000 0.0000 0.0000
# 2 24.8530 133.5236 4.0956 0.0000 0.0000 0.0000
# 3 -16.8142 4.0956 36.2361 0.0000 0.0000 0.0000
# 4 0.0000 0.0000 0.0000 8.1707 0.0000 0.0000
# 5 0.0000 0.0000 0.0000 0.0000 8.8156 0.0000
# 6 0.0000 0.0000 0.0000 0.0000 0.0000 21.2202
#
#
#
# Elastic Compliance Matrix: (Units=1/GPa)
#
#
# Indices 1 2 3 4 5 6 
#
# 1 0.019926 -0.004006 0.009699 0.000000 0.000000 0.000000
# 2 -0.004006 0.008321 -0.002800 0.000000 0.000000 0.000000
# 3 0.009699 -0.002800 0.032414 0.000000 0.000000 0.000000
# 4 0.000000 0.000000 0.000000 0.122388 0.000000 0.000000
# 5 0.000000 0.000000 0.000000 0.000000 0.113436 0.000000
# 6 0.000000 0.000000 0.000000 0.000000 0.000000 0.047125
#
#
# Mechanical properties :
#
#
# Convention : Reuss Voigt Hill
#
# Bulk Modulus (GPa) = 15.04969 28.59949 21.82459
# Shear Modulus (GPa) = 13.88995 22.37411 18.13203
#
# Velocity S-wave (km/s) = 2.70470 3.43275 3.09024
# Velocity P-wave (km/s) = 4.20477 5.54745 4.92211
#
# Compressibility (1/GPa) = 0.06644657
#
# Stress axis : x y z
#
# Youngs Moduli (GPa) = 50.18573 120.17936 30.85115
#
# Poissons Ratio (x) = 0.48148 -0.29922
# Poissons Ratio (y) = 0.20106 0.08637
# Poissons Ratio (z) = -0.48674 0.33644
#
# Static dielectric constant tensor:
#      x y z
#    x 1.663820 0.000000 0.000000 
#    y 0.000000 1.702470 0.000000 
#    z 0.000000 0.000000 1.659350 
# 
# From -- ./inp_files/22225.got.cif
#   From: 2010.05.17/outbox.cif.g08.bks.cpg/sg62_12_cif.got.tgz:22225.got - 2010.06.03 15:25:27.
