data_PCOD9462562
_publ_section_title
;
Structure prediction by ZEFSAII (Michael W. Deem and Ramdas Pophale) SiO2 
 PCOD9462562
Probable space group: P N M A
;
_chemical_formula_sum "Si O2"
_cell_formula_units_Z 64
_cell_length_a 11.519864
_cell_length_b 14.828448
_cell_length_c 16.027885
_cell_angle_alpha 90.000000
_cell_angle_beta 90.000000
_cell_angle_gamma 90.000000
_cell_volume 2737.910632
_symmetry_space_group_name_H-M "P N M A"
_symmetry_group_IT_number 62
_symmetry_cell_setting 'orthorhombic'
loop_
_space_group_symop_operation_xyz
x,y,z
1/2-x,-y,1/2+z
1/2+x,1/2-y,1/2-z
-x,1/2+y,-z
-x,-y,-z
1/2+x,y,1/2-z
1/2-x,1/2+y,1/2+z
x,1/2-y,z
loop_
_atom_site_type_symbol
_atom_site_label
_atom_site_fract_x
_atom_site_fract_y
_atom_site_fract_z
Si Si1 0.195899 0.997417 0.343951
Si Si2 0.535281 0.147195 0.146016
Si Si3 0.546932 0.899421 0.512926
Si Si4 0.750286 0.350781 0.896619
Si Si5 0.054838 0.649516 0.249951
Si Si6 0.910637 0.850654 0.842921
Si Si7 0.193300 0.534157 0.665984
Si Si8 0.360272 0.651890 0.385260
O O1 0.276790 0.026822 0.265097
O O2 0.134185 0.080705 0.388896
O O3 0.093176 0.933711 0.306581
O O4 0.273271 0.930011 0.397961
O O5 0.537298 0.250000 0.115570
O O6 0.566492 0.147150 0.244778
O O7 0.409503 0.101450 0.142585
O O8 0.671238 0.876477 0.476004
O O9 0.528171 0.872130 0.608006
O O10 0.453564 0.844790 0.458363
O O11 0.500000 0.000000 0.500000
O O12 0.700385 0.250000 0.904199
O O13 0.843565 0.348228 0.820222
O O14 0.671440 0.435440 0.872398
O O15 0.049802 0.750000 0.288107
O O16 0.935939 0.636030 0.198735
O O17 0.869420 0.750000 0.863889
O O18 0.814651 0.924140 0.867439
O O19 0.302746 0.750000 0.376821
#
# Coordination Sequence:
#
# PCOD9462562 Si02
#       8
#     8   8   8   8   8   8   8   8
#     4  10  19  31  52  74 109 143 186 228 282 326
#     4  10  22  37  54  78 111 147 189 236 277 327
#     4  11  20  33  57  85 120 150 181 225 280 330
#     4   9  17  31  50  78 113 144 177 222 273 331
#     4   8  15  28  46  72 106 142 175 213 267 328
#     4  10  20  35  56  83 112 148 189 230 277 331
#     4  10  19  33  54  78 108 147 190 228 280 333
#     4  10  20  33  53  82 115 147 180 225 278 339
#
# _framework density 23.375489000000002
#
# number of rings (size 3 to 8) (size 9 to 14) (size 15 to 20)
#    0.000    2.250    1.250    3.375    3.500    1.000 
#    0.000    1.250    0.000    1.500    0.000    0.000 
#    0.000    0.000    0.000    0.000    0.000    0.000 
#
# Total GULP energy -357699.570992 kJ/mol
# GULP energy per Si atom -5589.055797 kJ/mol
# Density = 2.332229 g / cm^3
# Si number density = 23.375489 Si / 1000 Ang^3
#
#
#
# Elastic Constant Matrix: (Units=GPa)
#
#
# Indices 1 2 3 4 5 6 
#
# 1 77.5273 51.2186 16.0135 0.0000 0.0000 0.0000
# 2 51.2186 184.0227 5.0827 0.0000 0.0000 0.0000
# 3 16.0135 5.0827 21.5414 0.0000 0.0000 0.0000
# 4 0.0000 0.0000 0.0000 17.9455 0.0000 0.0000
# 5 0.0000 0.0000 0.0000 0.0000 22.0525 0.0000
# 6 0.0000 0.0000 0.0000 0.0000 0.0000 37.4917
#
#
#
# Elastic Compliance Matrix: (Units=1/GPa)
#
#
# Indices 1 2 3 4 5 6 
#
# 1 0.018757 -0.004867 -0.012795 0.000000 0.000000 0.000000
# 2 -0.004867 0.006733 0.002030 0.000000 0.000000 0.000000
# 3 -0.012795 0.002030 0.055455 0.000000 0.000000 0.000000
# 4 0.000000 0.000000 0.000000 0.055724 0.000000 0.000000
# 5 0.000000 0.000000 0.000000 0.000000 0.045346 0.000000
# 6 0.000000 0.000000 0.000000 0.000000 0.000000 0.026673
#
#
# Mechanical properties :
#
#
# Convention : Reuss Voigt Hill
#
# Bulk Modulus (GPa) = 20.12915 47.52455 33.82685
# Shear Modulus (GPa) = 19.49214 29.54970 24.52092
#
# Velocity S-wave (km/s) = 2.89081 3.55932 3.24234
# Velocity P-wave (km/s) = 4.44661 6.10465 5.34037
#
# Compressibility (1/GPa) = 0.04967919
#
# Stress axis : x y z
#
# Youngs Moduli (GPa) = 53.31316 148.52806 18.03261
#
# Poissons Ratio (x) = 0.72292 0.23073
# Poissons Ratio (y) = 0.25949 -0.03660
# Poissons Ratio (z) = 0.68215 -0.30145
#
# Static dielectric constant tensor:
#      x y z
#    x 1.871070 0.000000 0.000000 
#    y 0.000000 1.934590 0.000000 
#    z 0.000000 0.000000 1.898560 
# 
# From -- ./inp_files/23229.got.cif
#   From: 2010.05.17/outbox.cif.g08.bks.cpg/sg62_12_cif.got.tgz:23229.got - 2010.06.03 15:25:27.
