data_PCOD9462367
_publ_section_title
;
Structure prediction by ZEFSAII (Michael W. Deem and Ramdas Pophale) SiO2 
 PCOD9462367
Probable space group: P N M A
;
_chemical_formula_sum "Si O2"
_cell_formula_units_Z 64
_cell_length_a 17.383434
_cell_length_b 9.556636
_cell_length_c 19.371117
_cell_angle_alpha 90.000000
_cell_angle_beta 90.000000
_cell_angle_gamma 90.000000
_cell_volume 3218.068482
_symmetry_space_group_name_H-M "P N M A"
_symmetry_group_IT_number 62
_symmetry_cell_setting 'orthorhombic'
loop_
_space_group_symop_operation_xyz
x,y,z
1/2-x,-y,1/2+z
1/2+x,1/2-y,1/2-z
-x,1/2+y,-z
-x,-y,-z
1/2+x,y,1/2-z
1/2-x,1/2+y,1/2+z
x,1/2-y,z
loop_
_atom_site_type_symbol
_atom_site_label
_atom_site_fract_x
_atom_site_fract_y
_atom_site_fract_z
Si Si1 0.834776 0.081769 0.311249
Si Si2 0.915400 0.097145 0.792397
Si Si3 0.363010 0.419874 0.921806
Si Si4 0.014814 0.088949 0.653092
Si Si5 0.735717 0.919647 0.953632
Si Si6 0.111292 0.092115 0.971631
Si Si7 0.259221 0.086736 0.792703
Si Si8 0.000243 0.905767 0.896881
O O1 0.838899 0.250000 0.305071
O O2 0.776563 0.043903 0.374243
O O3 0.805793 0.009409 0.241012
O O4 0.914576 0.014534 0.336442
O O5 0.921101 0.250000 0.827132
O O6 0.971117 0.096812 0.726332
O O7 0.831028 0.081509 0.760526
O O8 0.943643 0.978283 0.843064
O O9 0.365092 0.250000 0.918330
O O10 0.448372 0.463752 0.899289
O O11 0.297625 0.459267 0.865315
O O12 0.335053 0.462959 0.997354
O O13 0.038097 0.250000 0.635489
O O14 0.739254 0.750000 0.955097
O O15 0.813328 0.968271 0.991051
O O16 0.127864 0.250000 0.946690
O O17 0.075016 0.998783 0.911898
O O18 0.047554 0.102680 0.031846
O O19 0.235100 0.250000 0.798154
O O20 0.020928 0.750000 0.874546
#
# Coordination Sequence:
#
# PCOD9462367 Si02
#       8
#     8   8   8   8   8   8   8   8
#     4  11  22  34  52  81 113 139 165 206 261 315
#     4   9  18  33  53  74  97 130 172 214 257 306
#     4   8  16  34  58  78  98 132 179 223 256 295
#     4   9  19  36  55  75  99 130 172 216 255 301
#     4   9  18  33  53  76 102 135 175 216 260 309
#     4   9  18  32  48  69 100 138 176 209 250 310
#     4   9  18  34  56  79 102 134 178 221 256 297
#     4  10  19  30  47  73 105 137 169 210 259 311
#
# _framework density 19.887705
#
# number of rings (size 3 to 8) (size 9 to 14) (size 15 to 20)
#    0.000    2.750    0.000    3.000    0.000    4.000 
#    0.000    5.625    0.000    3.000    0.000    0.000 
#    0.000    0.000    0.000    0.000    0.000    0.000 
#
# Total GULP energy -356868.700835 kJ/mol
# GULP energy per Si atom -5576.073451 kJ/mol
# Density = 1.984244 g / cm^3
# Si number density = 19.887705 Si / 1000 Ang^3
#
#
#
# Elastic Constant Matrix: (Units=GPa)
#
#
# Indices 1 2 3 4 5 6 
#
# 1 58.5550 14.1530 -0.5893 0.0000 0.0000 0.0000
# 2 14.1530 55.1539 13.6842 0.0000 0.0000 0.0000
# 3 -0.5893 13.6842 37.5585 0.0000 0.0000 0.0000
# 4 0.0000 0.0000 0.0000 1.7453 0.0000 0.0000
# 5 0.0000 0.0000 0.0000 0.0000 -292.3037 0.0000
# 6 0.0000 0.0000 0.0000 0.0000 0.0000 9.5784
#
#
#
# Elastic Compliance Matrix: (Units=1/GPa)
#
#
# Indices 1 2 3 4 5 6 
#
# 1 0.018372 -0.005262 0.002205 0.000000 0.000000 0.000000
# 2 -0.005262 0.021440 -0.007894 0.000000 0.000000 0.000000
# 3 0.002205 -0.007894 0.029536 0.000000 0.000000 0.000000
# 4 0.000000 0.000000 0.000000 0.572979 0.000000 0.000000
# 5 0.000000 0.000000 0.000000 0.000000 -0.003421 0.000000
# 6 0.000000 0.000000 0.000000 0.000000 0.000000 0.104401
#
#
# Mechanical properties :
#
#
# Convention : Reuss Voigt Hill
#
# Bulk Modulus (GPa) = 21.07616 22.86259 21.96937
# Shear Modulus (GPa) = 6.40186 -47.92805 -20.76310
#
# Velocity S-wave (km/s) = 1.79610 -4.91443 -3.23463
# Velocity P-wave (km/s) = 3.86289 4.54768 1.69698
#
# Compressibility (1/GPa) = 0.04744698
#
# Stress axis : x y z
#
# Youngs Moduli (GPa) = 54.43101 46.64218 33.85711
#
# Poissons Ratio (x) = 0.24541 -0.07466
# Poissons Ratio (y) = 0.28639 0.26727
# Poissons Ratio (z) = -0.12003 0.36819
#
# Static dielectric constant tensor:
#      x y z
#    x 1.721960 0.000000 0.000000 
#    y 0.000000 1.684830 0.000000 
#    z 0.000000 0.000000 1.709150 
# 
# From -- ./inp_files/27635.got.cif
#   From: 2010.05.17/outbox.cif.g08.bks.cpg/sg62_14_cif.got.tgz:27635.got - 2010.06.03 15:25:27.
