data_PCOD9462099
_publ_section_title
;
Structure prediction by ZEFSAII (Michael W. Deem and Ramdas Pophale) SiO2 
 PCOD9462099
Probable space group: P N M A
;
_chemical_formula_sum "Si O2"
_cell_formula_units_Z 64
_cell_length_a 12.086738
_cell_length_b 7.534549
_cell_length_c 31.820462
_cell_angle_alpha 90.000000
_cell_angle_beta 90.000000
_cell_angle_gamma 90.000000
_cell_volume 2897.829643
_symmetry_space_group_name_H-M "P N M A"
_symmetry_group_IT_number 62
_symmetry_cell_setting 'orthorhombic'
loop_
_space_group_symop_operation_xyz
x,y,z
1/2-x,-y,1/2+z
1/2+x,1/2-y,1/2-z
-x,1/2+y,-z
-x,-y,-z
1/2+x,y,1/2-z
1/2-x,1/2+y,1/2+z
x,1/2-y,z
loop_
_atom_site_type_symbol
_atom_site_label
_atom_site_fract_x
_atom_site_fract_y
_atom_site_fract_z
Si Si1 0.766236 0.543342 0.042435
Si Si2 0.000165 0.535909 0.927568
Si Si3 0.908509 0.034614 0.374897
Si Si4 0.226797 0.046068 0.787927
Si Si5 0.335323 0.043128 0.872046
Si Si6 0.762377 0.954912 0.806774
Si Si7 0.996433 0.034412 0.168919
Si Si8 0.751557 0.967121 0.950668
O O1 0.733466 0.750000 0.042557
O O2 0.718515 0.464030 0.085624
O O3 0.899465 0.532437 0.044193
O O4 0.726404 0.469756 0.997849
O O5 0.001662 0.750000 0.929929
O O6 0.024930 0.484491 0.879397
O O7 0.876412 0.476955 0.938870
O O8 0.916542 0.250000 0.374822
O O9 0.839416 0.972875 0.334000
O O10 0.836788 0.980315 0.415532
O O11 0.033081 0.966929 0.375091
O O12 0.261895 0.250000 0.782472
O O13 0.292702 0.966238 0.827772
O O14 0.243992 0.960367 0.742776
O O15 0.099131 0.036434 0.801314
O O16 0.299941 0.250000 0.870586
O O17 0.769840 0.750000 0.820616
O O18 0.881981 0.030766 0.818367
O O19 0.992906 0.250000 0.171584
O O20 0.752900 0.750000 0.950752
#
# Coordination Sequence:
#
# PCOD9462099 Si02
#       8
#     8   8   8   8   8   8   8   8
#     4  10  20  36  57  81 115 153 185 222 276 336
#     4  10  18  33  58  87 116 142 179 230 279 327
#     4  10  21  39  61  83 108 145 191 236 279 329
#     4  11  24  40  58  83 118 152 187 228 278 339
#     4  10  23  40  54  78 116 153 185 227 277 329
#     4  10  22  40  61  86 113 144 188 237 285 331
#     4  10  20  37  62  87 114 145 183 234 283 330
#     4   9  18  35  59  85 112 145 184 230 282 329
#
# _framework density 22.085495000000002
#
# number of rings (size 3 to 8) (size 9 to 14) (size 15 to 20)
#    0.000    2.000    2.500    0.750    1.750    3.000 
#    0.000    1.250    0.000    0.000    0.000    0.000 
#    0.000    0.000    0.000    0.000    0.000    0.000 
#
# Total GULP energy -357593.582877 kJ/mol
# GULP energy per Si atom -5587.399732 kJ/mol
# Density = 2.203523 g / cm^3
# Si number density = 22.085495 Si / 1000 Ang^3
#
#
#
# Elastic Constant Matrix: (Units=GPa)
#
#
# Indices 1 2 3 4 5 6 
#
# 1 110.3140 -13.1137 38.8558 0.0000 0.0000 0.0000
# 2 -13.1137 53.9565 -2.6088 0.0000 0.0000 0.0000
# 3 38.8558 -2.6088 121.7442 0.0000 0.0000 0.0000
# 4 0.0000 0.0000 0.0000 1.3641 0.0000 0.0000
# 5 0.0000 0.0000 0.0000 0.0000 18.9825 0.0000
# 6 0.0000 0.0000 0.0000 0.0000 0.0000 24.6234
#
#
#
# Elastic Compliance Matrix: (Units=1/GPa)
#
#
# Indices 1 2 3 4 5 6 
#
# 1 0.010514 0.002396 -0.003304 0.000000 0.000000 0.000000
# 2 0.002396 0.019098 -0.000355 0.000000 0.000000 0.000000
# 3 -0.003304 -0.000355 0.009261 0.000000 0.000000 0.000000
# 4 0.000000 0.000000 0.000000 0.733061 0.000000 0.000000
# 5 0.000000 0.000000 0.000000 0.000000 0.052680 0.000000
# 6 0.000000 0.000000 0.000000 0.000000 0.000000 0.040612
#
#
# Mechanical properties :
#
#
# Convention : Reuss Voigt Hill
#
# Bulk Modulus (GPa) = 27.51407 36.92014 32.21711
# Shear Modulus (GPa) = 5.68266 26.51945 16.10106
#
# Velocity S-wave (km/s) = 1.60581 3.46896 2.70299
# Velocity P-wave (km/s) = 3.99039 5.72697 4.93565
#
# Compressibility (1/GPa) = 0.03634504
#
# Stress axis : x y z
#
# Youngs Moduli (GPa) = 95.11464 52.36020 107.98097
#
# Poissons Ratio (x) = -0.12543 0.35679
# Poissons Ratio (y) = -0.22785 0.03836
# Poissons Ratio (z) = 0.31428 0.01860
#
# Static dielectric constant tensor:
#      x y z
#    x 1.757760 0.000000 0.000000 
#    y 0.000000 1.851360 0.000000 
#    z 0.000000 0.000000 1.807690 
# 
# From -- ./inp_files/32575.got.cif
#   From: 2010.05.17/outbox.cif.g08.bks.cpg/sg62_17_cif.got.tgz:32575.got - 2010.06.03 15:25:27.
