data_PCOD9462981
_publ_section_title
;
Structure prediction by ZEFSAII (Michael W. Deem and Ramdas Pophale) SiO2 
 PCOD9462981
Probable space group: P N M A
;
_chemical_formula_sum "Si O2"
_cell_formula_units_Z 56
_cell_length_a 22.882327
_cell_length_b 8.401956
_cell_length_c 14.889541
_cell_angle_alpha 90.000000
_cell_angle_beta 90.000000
_cell_angle_gamma 90.000000
_cell_volume 2862.608130
_symmetry_space_group_name_H-M "P N M A"
_symmetry_group_IT_number 62
_symmetry_cell_setting 'orthorhombic'
loop_
_space_group_symop_operation_xyz
x,y,z
1/2-x,-y,1/2+z
1/2+x,1/2-y,1/2-z
-x,1/2+y,-z
-x,-y,-z
1/2+x,y,1/2-z
1/2-x,1/2+y,1/2+z
x,1/2-y,z
loop_
_atom_site_type_symbol
_atom_site_label
_atom_site_fract_x
_atom_site_fract_y
_atom_site_fract_z
Si Si1 0.218895 0.942393 0.102660
Si Si2 0.890710 0.444952 0.782568
Si Si3 0.224230 0.558152 0.897212
Si Si4 0.645032 0.938985 0.091700
Si Si5 0.501682 0.439978 0.601737
Si Si6 0.387792 0.060375 0.288147
Si Si7 0.352187 0.939701 0.105133
O O1 0.220766 0.750000 0.110391
O O2 0.169300 0.000308 0.170073
O O3 0.285068 0.000171 0.117657
O O4 0.203446 0.977190 0.999037
O O5 0.889880 0.250000 0.783383
O O6 0.891315 0.493737 0.678522
O O7 0.945793 0.498058 0.841012
O O8 0.231915 0.750000 0.890850
O O9 0.287200 0.478603 0.886271
O O10 0.174689 0.504740 0.828190
O O11 0.638823 0.750000 0.081925
O O12 0.630514 0.017299 0.996372
O O13 0.500000 0.500000 0.500000
O O14 0.498737 0.250000 0.599477
O O15 0.560186 0.491245 0.652698
O O16 0.389013 0.250000 0.296635
O O17 0.390653 0.011703 0.184324
O O18 0.352049 0.750000 0.114066
#
# Coordination Sequence:
#
# PCOD9462981 Si02
#       7
#     8   8   8   8   8   8   8
#     4   8  14  28  51  78 108 141 173 209 262 324
#     4   9  18  33  54  78 107 144 181 220 269 323
#     4   9  18  32  52  80 114 147 177 218 275 331
#     4  10  19  33  55  83 112 143 182 225 271 327
#     4  11  23  40  60  83 111 144 183 225 273 330
#     4  11  22  37  57  81 110 146 188 233 279 326
#     4  10  20  35  55  81 113 147 182 224 277 333
#
# _framework density 19.562580000000001
#
# number of rings (size 3 to 8) (size 9 to 14) (size 15 to 20)
#    0.000    2.286    0.000    4.286    0.000    4.571 
#    0.000    3.571    0.000    5.143    0.000    0.000 
#    0.000    0.000    0.000    0.000    0.000    0.000 
#
# Total GULP energy -312638.063561 kJ/mol
# GULP energy per Si atom -5582.822564 kJ/mol
# Density = 1.951805 g / cm^3
# Si number density = 19.562580 Si / 1000 Ang^3
#
#
#
# Elastic Constant Matrix: (Units=GPa)
#
#
# Indices 1 2 3 4 5 6 
#
# 1 47.9132 12.2770 67.2003 0.0000 0.0000 0.0000
# 2 12.2770 24.5282 14.7423 0.0000 0.0000 0.0000
# 3 67.2003 14.7423 154.7499 0.0000 0.0000 0.0000
# 4 0.0000 0.0000 0.0000 25.8927 0.0000 0.0000
# 5 0.0000 0.0000 0.0000 0.0000 34.8341 0.0000
# 6 0.0000 0.0000 0.0000 0.0000 0.0000 20.0789
#
#
#
# Elastic Compliance Matrix: (Units=1/GPa)
#
#
# Indices 1 2 3 4 5 6 
#
# 1 0.058009 -0.014739 -0.023786 0.000000 0.000000 0.000000
# 2 -0.014739 0.046990 0.001924 0.000000 0.000000 0.000000
# 3 -0.023786 0.001924 0.016608 0.000000 0.000000 0.000000
# 4 0.000000 0.000000 0.000000 0.038621 0.000000 0.000000
# 5 0.000000 0.000000 0.000000 0.000000 0.028708 0.000000
# 6 0.000000 0.000000 0.000000 0.000000 0.000000 0.049804
#
#
# Mechanical properties :
#
#
# Convention : Reuss Voigt Hill
#
# Bulk Modulus (GPa) = 20.65908 46.18117 33.42012
# Shear Modulus (GPa) = 15.24031 25.02590 20.13311
#
# Velocity S-wave (km/s) = 2.79418 3.58057 3.21154
# Velocity P-wave (km/s) = 4.58185 6.38374 5.55633
#
# Compressibility (1/GPa) = 0.04840486
#
# Stress axis : x y z
#
# Youngs Moduli (GPa) = 17.23864 21.28099 60.21160
#
# Poissons Ratio (x) = 0.31365 1.43222
# Poissons Ratio (y) = 0.25407 -0.11583
# Poissons Ratio (z) = 0.41005 -0.04094
#
# Static dielectric constant tensor:
#      x y z
#    x 1.675750 0.000000 0.000000 
#    y 0.000000 1.668190 0.000000 
#    z 0.000000 0.000000 1.688250 
# 
# From -- ./inp_files/20231.got.cif
#   From: 2010.05.17/outbox.cif.g08.bks.cpg/sg62_11_cif.got.tgz:20231.got - 2010.06.03 15:25:27.
