data_PCOD9462501
_publ_section_title
;
Structure prediction by ZEFSAII (Michael W. Deem and Ramdas Pophale) SiO2 
 PCOD9462501
Probable space group: P N M A
;
_chemical_formula_sum "Si O2"
_cell_formula_units_Z 64
_cell_length_a 24.629661
_cell_length_b 7.869585
_cell_length_c 15.893763
_cell_angle_alpha 90.000000
_cell_angle_beta 90.000000
_cell_angle_gamma 90.000000
_cell_volume 3080.611963
_symmetry_space_group_name_H-M "P N M A"
_symmetry_group_IT_number 62
_symmetry_cell_setting 'orthorhombic'
loop_
_space_group_symop_operation_xyz
x,y,z
1/2-x,-y,1/2+z
1/2+x,1/2-y,1/2-z
-x,1/2+y,-z
-x,-y,-z
1/2+x,y,1/2-z
1/2-x,1/2+y,1/2+z
x,1/2-y,z
loop_
_atom_site_type_symbol
_atom_site_label
_atom_site_fract_x
_atom_site_fract_y
_atom_site_fract_z
Si Si1 0.430101 0.953328 0.359103
Si Si2 0.188405 0.045685 0.803655
Si Si3 0.457593 0.951539 0.891345
Si Si4 0.954840 0.455917 0.794072
Si Si5 0.695124 0.448706 0.879156
Si Si6 0.224185 0.544763 0.981009
Si Si7 0.078305 0.947547 0.568892
Si Si8 0.604773 0.545010 0.461687
O O1 0.429533 0.750000 0.348903
O O2 0.372530 0.020323 0.324502
O O3 0.483697 0.017634 0.312629
O O4 0.431249 0.990657 0.458571
O O5 0.184232 0.250000 0.797243
O O6 0.207217 0.978521 0.713245
O O7 0.225591 0.008058 0.883813
O O8 0.458378 0.750000 0.907338
O O9 0.520224 0.014627 0.898130
O O10 0.436943 0.986405 0.797990
O O11 0.424827 0.033577 0.967894
O O12 0.955081 0.250000 0.794389
O O13 0.918158 0.513776 0.872360
O O14 0.710021 0.250000 0.875985
O O15 0.630991 0.462254 0.895086
O O16 0.728557 0.520566 0.957860
O O17 0.224441 0.750000 0.980591
O O18 0.165967 0.487030 0.018052
O O19 0.082421 0.750000 0.591624
O O20 0.605116 0.750000 0.460253
#
# Coordination Sequence:
#
# PCOD9462501 Si02
#       8
#     8   8   8   8   8   8   8   8
#     4   9  17  29  48  73 102 136 178 224 267 314
#     4   9  18  33  53  77 103 137 180 224 272 320
#     4  10  21  36  54  78 110 141 170 210 264 321
#     4  10  19  31  49  76 108 142 179 216 260 319
#     4  10  20  36  58  80 106 142 181 223 272 322
#     4   9  19  36  54  75 107 142 177 223 271 315
#     4  10  21  37  57  80 105 136 174 218 263 314
#     4   9  18  32  49  71 104 142 178 218 265 316
#
# _framework density 20.775092000000001
#
# number of rings (size 3 to 8) (size 9 to 14) (size 15 to 20)
#    0.000    2.500    0.000    1.875    0.000    4.500 
#    2.250    2.500    0.000    0.000    0.000    0.000 
#    0.000    0.000    0.000    0.000    0.000    0.000 
#
# Total GULP energy -357224.063887 kJ/mol
# GULP energy per Si atom -5581.625998 kJ/mol
# Density = 2.072781 g / cm^3
# Si number density = 20.775092 Si / 1000 Ang^3
#
#
#
# Elastic Constant Matrix: (Units=GPa)
#
#
# Indices 1 2 3 4 5 6 
#
# 1 28.9067 3.0557 35.5676 0.0000 0.0000 0.0000
# 2 3.0557 19.2314 -3.5238 0.0000 0.0000 0.0000
# 3 35.5676 -3.5238 156.2924 0.0000 0.0000 0.0000
# 4 0.0000 0.0000 0.0000 18.1656 0.0000 0.0000
# 5 0.0000 0.0000 0.0000 0.0000 17.4573 0.0000
# 6 0.0000 0.0000 0.0000 0.0000 0.0000 13.8866
#
#
#
# Elastic Compliance Matrix: (Units=1/GPa)
#
#
# Indices 1 2 3 4 5 6 
#
# 1 0.049911 -0.010053 -0.011585 0.000000 0.000000 0.000000
# 2 -0.010053 0.054239 0.003511 0.000000 0.000000 0.000000
# 3 -0.011585 0.003511 0.009114 0.000000 0.000000 0.000000
# 4 0.000000 0.000000 0.000000 0.055049 0.000000 0.000000
# 5 0.000000 0.000000 0.000000 0.000000 0.057283 0.000000
# 6 0.000000 0.000000 0.000000 0.000000 0.000000 0.072012
#
#
# Mechanical properties :
#
#
# Convention : Reuss Voigt Hill
#
# Bulk Modulus (GPa) = 12.98547 30.51438 21.74992
# Shear Modulus (GPa) = 13.90695 21.19064 17.54879
#
# Velocity S-wave (km/s) = 2.59009 3.19721 2.90953
# Velocity P-wave (km/s) = 3.89985 5.32442 4.66681
#
# Compressibility (1/GPa) = 0.07700916
#
# Stress axis : x y z
#
# Youngs Moduli (GPa) = 20.03551 18.43692 109.72331
#
# Poissons Ratio (x) = 0.18535 1.27115
# Poissons Ratio (y) = 0.20142 -0.38520
# Poissons Ratio (z) = 0.23211 -0.06473
#
# Static dielectric constant tensor:
#      x y z
#    x 1.735640 0.000000 0.000000 
#    y 0.000000 1.752970 0.000000 
#    z 0.000000 0.000000 1.755360 
# 
# From -- ./inp_files/20831.got.cif
#   From: 2010.05.17/outbox.cif.g08.bks.cpg/sg62_11_cif.got.tgz:20831.got - 2010.06.03 15:25:27.
