data_PCOD9462185
_publ_section_title
;
Structure prediction by ZEFSAII (Michael W. Deem and Ramdas Pophale) SiO2 
 PCOD9462185
Probable space group: P N M A
;
_chemical_formula_sum "Si O2"
_cell_formula_units_Z 48
_cell_length_a 14.767344
_cell_length_b 7.951142
_cell_length_c 20.418179
_cell_angle_alpha 90.000000
_cell_angle_beta 90.000000
_cell_angle_gamma 90.000000
_cell_volume 2397.446410
_symmetry_space_group_name_H-M "P N M A"
_symmetry_group_IT_number 62
_symmetry_cell_setting 'orthorhombic'
loop_
_space_group_symop_operation_xyz
x,y,z
1/2-x,-y,1/2+z
1/2+x,1/2-y,1/2-z
-x,1/2+y,-z
-x,-y,-z
1/2+x,y,1/2-z
1/2-x,1/2+y,1/2+z
x,1/2-y,z
loop_
_atom_site_type_symbol
_atom_site_label
_atom_site_fract_x
_atom_site_fract_y
_atom_site_fract_z
Si Si1 0.216561 0.056480 0.446950
Si Si2 0.270405 0.544655 0.702631
Si Si3 0.646229 0.945443 0.917134
Si Si4 0.042145 0.942226 0.376167
Si Si5 0.660758 0.955707 0.668210
Si Si6 0.027687 0.046463 0.226335
O O1 0.236669 0.250000 0.463380
O O2 0.295498 0.987963 0.399921
O O3 0.196712 0.962188 0.514123
O O4 0.124510 0.049860 0.404227
O O5 0.270723 0.750000 0.701665
O O6 0.209390 0.489204 0.641672
O O7 0.224287 0.492892 0.770892
O O8 0.374531 0.489227 0.700508
O O9 0.626235 0.750000 0.903525
O O10 0.549649 0.036190 0.917333
O O11 0.072397 0.750000 0.379001
O O12 0.019262 0.990793 0.301664
O O13 0.662308 0.750000 0.667010
O O14 0.558938 0.010123 0.684707
O O15 0.026906 0.250000 0.226212
#
# Coordination Sequence:
#
# PCOD9462185 Si02
#       6
#     8   8   8   8   8   8
#     4  11  22  38  57  81 113 148 186 226 275 331
#     4   9  17  32  58  85 107 142 186 228 269 320
#     4  11  22  38  57  81 113 148 186 226 275 331
#     4  12  23  35  54  85 116 145 179 227 287 330
#     4   9  17  32  58  85 107 142 186 228 269 320
#     4  10  18  35  60  85 111 143 189 229 266 324
#
# _framework density 20.021304000000001
#
# number of rings (size 3 to 8) (size 9 to 14) (size 15 to 20)
#    0.000    1.667    3.333    3.000    0.000    0.000 
#    0.000    5.833    0.000    0.000    0.000    0.000 
#    0.000    0.000    0.000    0.000    0.000    0.000 
#
# Total GULP energy -268185.661425 kJ/mol
# GULP energy per Si atom -5587.201280 kJ/mol
# Density = 1.997574 g / cm^3
# Si number density = 20.021304 Si / 1000 Ang^3
#
#
#
# Elastic Constant Matrix: (Units=GPa)
#
#
# Indices 1 2 3 4 5 6 
#
# 1 82.3614 -0.6862 -8.8546 0.0000 0.0000 0.0000
# 2 -0.6862 29.0204 -5.5924 0.0000 0.0000 0.0000
# 3 -8.8546 -5.5924 38.4731 0.0000 0.0000 0.0000
# 4 0.0000 0.0000 0.0000 15.7691 0.0000 0.0000
# 5 0.0000 0.0000 0.0000 0.0000 28.4770 0.0000
# 6 0.0000 0.0000 0.0000 0.0000 0.0000 4.1424
#
#
#
# Elastic Compliance Matrix: (Units=1/GPa)
#
#
# Indices 1 2 3 4 5 6 
#
# 1 0.012471 0.000872 0.002997 0.000000 0.000000 0.000000
# 2 0.000872 0.035513 0.005363 0.000000 0.000000 0.000000
# 3 0.002997 0.005363 0.027461 0.000000 0.000000 0.000000
# 4 0.000000 0.000000 0.000000 0.063415 0.000000 0.000000
# 5 0.000000 0.000000 0.000000 0.000000 0.035116 0.000000
# 6 0.000000 0.000000 0.000000 0.000000 0.000000 0.241405
#
#
# Mechanical properties :
#
#
# Convention : Reuss Voigt Hill
#
# Bulk Modulus (GPa) = 10.64852 13.28761 11.96807
# Shear Modulus (GPa) = 11.67626 20.67693 16.17659
#
# Velocity S-wave (km/s) = 2.41756 3.21712 2.84556
# Velocity P-wave (km/s) = 3.62256 4.52228 4.09719
#
# Compressibility (1/GPa) = 0.09390976
#
# Stress axis : x y z
#
# Youngs Moduli (GPa) = 80.18546 28.15903 36.41467
#
# Poissons Ratio (x) = -0.02457 -0.10914
# Poissons Ratio (y) = -0.06996 -0.19529
# Poissons Ratio (z) = -0.24032 -0.15101
#
# Static dielectric constant tensor:
#      x y z
#    x 1.701040 0.000000 0.000000 
#    y 0.000000 1.709700 0.000000 
#    z 0.000000 0.000000 1.683300 
# 
# From -- ./inp_files/23710.got.cif
#   From: 2010.05.17/outbox.cif.g08.bks.cpg/sg62_12_cif.got.tgz:23710.got - 2010.06.03 15:25:27.
