data_PCOD9462371
_publ_section_title
;
Structure prediction by ZEFSAII (Michael W. Deem and Ramdas Pophale) SiO2 
 PCOD9462371
Probable space group: P N M A
;
_chemical_formula_sum "Si O2"
_cell_formula_units_Z 64
_cell_length_a 22.972376
_cell_length_b 24.148568
_cell_length_c 5.141944
_cell_angle_alpha 90.000000
_cell_angle_beta 90.000000
_cell_angle_gamma 90.000000
_cell_volume 2852.493352
_symmetry_space_group_name_H-M "P N M A"
_symmetry_group_IT_number 62
_symmetry_cell_setting 'orthorhombic'
loop_
_space_group_symop_operation_xyz
x,y,z
1/2-x,-y,1/2+z
1/2+x,1/2-y,1/2-z
-x,1/2+y,-z
-x,-y,-z
1/2+x,y,1/2-z
1/2-x,1/2+y,1/2+z
x,1/2-y,z
loop_
_atom_site_type_symbol
_atom_site_label
_atom_site_fract_x
_atom_site_fract_y
_atom_site_fract_z
Si Si1 0.784836 0.515362 0.993580
Si Si2 0.549389 0.691289 0.931171
Si Si3 0.670887 0.689180 0.193307
Si Si4 0.100297 0.184520 0.035503
Si Si5 0.239983 0.626121 0.679234
Si Si6 0.365664 0.082313 0.466864
Si Si7 0.981690 0.367287 0.936727
Si Si8 0.321280 0.686052 0.040940
O O1 0.739098 0.489158 0.786831
O O2 0.783971 0.579457 0.920865
O O3 0.842061 0.478066 0.954854
O O4 0.521208 0.750000 0.001138
O O5 0.542436 0.681021 0.627191
O O6 0.617079 0.693863 0.994046
O O7 0.524786 0.645779 0.130958
O O8 0.674177 0.750000 0.324009
O O9 0.652930 0.634939 0.356231
O O10 0.727232 0.675186 0.021200
O O11 0.081316 0.250000 0.006694
O O12 0.147072 0.174323 0.809917
O O13 0.049368 0.139146 0.003681
O O14 0.130307 0.179727 0.314592
O O15 0.267251 0.649616 0.943394
O O16 0.176869 0.596271 0.721683
O O17 0.436015 0.085091 0.472962
O O18 0.303270 0.750000 0.039498
#
# Coordination Sequence:
#
# PCOD9462371 Si02
#       8
#     8   8   8   8   8   8   8   8
#     4  10  21  37  61  82 117 155 194 238 286 350
#     4  10  19  30  47  78 111 144 176 215 279 344
#     4  10  20  32  50  83 124 151 178 227 290 358
#     4  10  21  38  55  77 109 155 199 232 281 345
#     4  11  21  38  58  83 117 155 200 236 292 346
#     4  10  22  37  56  91 119 148 194 239 301 351
#     4  11  20  34  57  78 112 145 187 241 285 338
#     4  10  23  38  56  80 113 154 199 238 277 340
#
# _framework density 22.436513000000001
#
# number of rings (size 3 to 8) (size 9 to 14) (size 15 to 20)
#    0.000    1.750    2.500    2.250    1.750    3.000 
#    0.000    0.000    0.000    1.500    0.000    0.000 
#    0.000    0.000    0.000    0.000    0.000    0.000 
#
# Total GULP energy -356794.842695 kJ/mol
# GULP energy per Si atom -5574.919417 kJ/mol
# Density = 2.238545 g / cm^3
# Si number density = 22.436513 Si / 1000 Ang^3
#
#
#
# Elastic Constant Matrix: (Units=GPa)
#
#
# Indices 1 2 3 4 5 6 
#
# 1 85.5825 -5.2558 8.1047 0.0000 0.0000 0.0000
# 2 -5.2558 48.7632 4.8134 0.0000 0.0000 0.0000
# 3 8.1047 4.8134 53.2202 0.0000 0.0000 0.0000
# 4 0.0000 0.0000 0.0000 17.7550 0.0000 0.0000
# 5 0.0000 0.0000 0.0000 0.0000 36.3080 0.0000
# 6 0.0000 0.0000 0.0000 0.0000 0.0000 23.7252
#
#
#
# Elastic Compliance Matrix: (Units=1/GPa)
#
#
# Indices 1 2 3 4 5 6 
#
# 1 0.011961 0.001482 -0.001956 0.000000 0.000000 0.000000
# 2 0.001482 0.020876 -0.002114 0.000000 0.000000 0.000000
# 3 -0.001956 -0.002114 0.019279 0.000000 0.000000 0.000000
# 4 0.000000 0.000000 0.000000 0.056322 0.000000 0.000000
# 5 0.000000 0.000000 0.000000 0.000000 0.027542 0.000000
# 6 0.000000 0.000000 0.000000 0.000000 0.000000 0.042149
#
#
# Mechanical properties :
#
#
# Convention : Reuss Voigt Hill
#
# Bulk Modulus (GPa) = 21.30328 22.54339 21.92333
# Shear Modulus (GPa) = 25.13192 27.55121 26.34157
#
# Velocity S-wave (km/s) = 3.35047 3.50803 3.43016
# Velocity P-wave (km/s) = 4.94804 5.14566 5.04782
#
# Compressibility (1/GPa) = 0.04694112
#
# Stress axis : x y z
#
# Youngs Moduli (GPa) = 83.60611 47.90268 51.87036
#
# Poissons Ratio (x) = -0.07100 0.10143
# Poissons Ratio (y) = -0.12392 0.10964
# Poissons Ratio (z) = 0.16349 0.10126
#
# Static dielectric constant tensor:
#      x y z
#    x 1.913910 0.000000 0.000000 
#    y 0.000000 1.854790 0.000000 
#    z 0.000000 0.000000 1.866660 
# 
# From -- ./inp_files/2415.got.cif
#   From: 2010.05.17/outbox.cif.g08.bks.cpg/sg62_2_cif.got.tgz:2415.got - 2010.06.03 15:25:27.
