data_PCOD9462174
_publ_section_title
;
Structure prediction by ZEFSAII (Michael W. Deem and Ramdas Pophale) SiO2 
 PCOD9462174
Probable space group: P N M A
;
_chemical_formula_sum "Si O2"
_cell_formula_units_Z 64
_cell_length_a 5.606974
_cell_length_b 32.178745
_cell_length_c 18.101972
_cell_angle_alpha 90.000000
_cell_angle_beta 90.000000
_cell_angle_gamma 90.000000
_cell_volume 3266.055296
_symmetry_space_group_name_H-M "P N M A"
_symmetry_group_IT_number 62
_symmetry_cell_setting 'orthorhombic'
loop_
_space_group_symop_operation_xyz
x,y,z
1/2-x,-y,1/2+z
1/2+x,1/2-y,1/2-z
-x,1/2+y,-z
-x,-y,-z
1/2+x,y,1/2-z
1/2-x,1/2+y,1/2+z
x,1/2-y,z
loop_
_atom_site_type_symbol
_atom_site_label
_atom_site_fract_x
_atom_site_fract_y
_atom_site_fract_z
Si Si1 0.223940 0.922296 0.792117
Si Si2 0.388654 0.584065 0.419414
Si Si3 0.062720 0.622862 0.213892
Si Si4 0.372821 0.381230 0.447771
Si Si5 0.095323 0.203851 0.014007
Si Si6 0.829249 0.296900 0.854011
Si Si7 0.222910 0.021753 0.794266
Si Si8 0.481705 0.343598 0.945793
O O1 0.478832 0.912416 0.753135
O O2 0.203414 0.899082 0.869977
O O3 0.222358 0.972015 0.804536
O O4 0.596103 0.601520 0.366048
O O5 0.479719 0.584621 0.503741
O O6 0.291445 0.544573 0.374381
O O7 0.204693 0.622209 0.419689
O O8 0.299647 0.610934 0.257973
O O9 0.044400 0.672348 0.202041
O O10 0.512126 0.337035 0.441751
O O11 0.154881 0.367961 0.499604
O O12 0.061438 0.250000 0.045620
O O13 0.366314 0.193667 0.993188
O O14 0.963423 0.203121 0.933815
O O15 0.801340 0.250000 0.828946
O O16 0.589168 0.321086 0.874843
O O17 0.473920 0.031003 0.751106
#
# Coordination Sequence:
#
# PCOD9462174 Si02
#       8
#     8   8   8   8   8   8   8   8
#     4  10  24  46  69  96 129 163 202 245 319 401
#     4  11  22  37  59  90 123 159 218 264 302 363
#     4  12  24  36  52  76 114 162 205 253 309 350
#     4  10  22  37  66  93 122 163 206 263 314 366
#     4   9  18  34  59  88 120 157 208 259 308 368
#     4  10  20  35  51  74 112 161 213 262 306 358
#     4  10  23  42  64  91 129 175 210 253 311 372
#     4  10  18  35  57  88 118 158 209 264 312 358
#
# _framework density 19.595506
#
# number of rings (size 3 to 8) (size 9 to 14) (size 15 to 20)
#    0.000    1.750    3.750    1.875    5.250    1.500 
#    0.000    0.625    0.000    0.750    0.000    0.000 
#    0.000    0.000    0.000    0.000    0.000    0.000 
#
# Total GULP energy -356658.489965 kJ/mol
# GULP energy per Si atom -5572.788906 kJ/mol
# Density = 1.955091 g / cm^3
# Si number density = 19.595506 Si / 1000 Ang^3
#
#
#
# Elastic Constant Matrix: (Units=GPa)
#
#
# Indices 1 2 3 4 5 6 
#
# 1 68.3415 15.5676 15.2885 0.0000 0.0000 0.0000
# 2 15.5676 62.5173 30.9400 0.0000 0.0000 0.0000
# 3 15.2885 30.9400 69.0888 0.0000 0.0000 0.0000
# 4 0.0000 0.0000 0.0000 28.5214 0.0000 0.0000
# 5 0.0000 0.0000 0.0000 0.0000 18.0118 0.0000
# 6 0.0000 0.0000 0.0000 0.0000 0.0000 17.5298
#
#
#
# Elastic Compliance Matrix: (Units=1/GPa)
#
#
# Indices 1 2 3 4 5 6 
#
# 1 0.015774 -0.002827 -0.002225 0.000000 0.000000 0.000000
# 2 -0.002827 0.021057 -0.008804 0.000000 0.000000 0.000000
# 3 -0.002225 -0.008804 0.018909 0.000000 0.000000 0.000000
# 4 0.000000 0.000000 0.000000 0.035061 0.000000 0.000000
# 5 0.000000 0.000000 0.000000 0.000000 0.055519 0.000000
# 6 0.000000 0.000000 0.000000 0.000000 0.000000 0.057046
#
#
# Mechanical properties :
#
#
# Convention : Reuss Voigt Hill
#
# Bulk Modulus (GPa) = 35.67819 35.94888 35.81353
# Shear Modulus (GPa) = 20.79689 22.02271 21.40980
#
# Velocity S-wave (km/s) = 3.26131 3.35605 3.30902
# Velocity P-wave (km/s) = 5.69459 5.77951 5.73721
#
# Compressibility (1/GPa) = 0.02802833
#
# Stress axis : x y z
#
# Youngs Moduli (GPa) = 63.39543 47.49067 52.88427
#
# Poissons Ratio (x) = 0.13425 0.11765
# Poissons Ratio (y) = 0.17922 0.46561
# Poissons Ratio (z) = 0.14103 0.41812
#
# Static dielectric constant tensor:
#      x y z
#    x 1.793390 0.000000 0.000000 
#    y 0.000000 1.712970 0.000000 
#    z 0.000000 0.000000 1.666960 
# 
# From -- ./inp_files/21684.got.cif
#   From: 2010.05.17/outbox.cif.g08.bks.cpg/sg62_11_cif.got.tgz:21684.got - 2010.06.03 15:25:27.
