data_PCOD9462301
_publ_section_title
;
Structure prediction by ZEFSAII (Michael W. Deem and Ramdas Pophale) SiO2 
 PCOD9462301
Probable space group: P N M A
;
_chemical_formula_sum "Si O2"
_cell_formula_units_Z 56
_cell_length_a 29.923789
_cell_length_b 8.923977
_cell_length_c 14.017204
_cell_angle_alpha 90.000000
_cell_angle_beta 90.000000
_cell_angle_gamma 90.000000
_cell_volume 3743.143010
_symmetry_space_group_name_H-M "P N M A"
_symmetry_group_IT_number 62
_symmetry_cell_setting 'orthorhombic'
loop_
_space_group_symop_operation_xyz
x,y,z
1/2-x,-y,1/2+z
1/2+x,1/2-y,1/2-z
-x,1/2+y,-z
-x,-y,-z
1/2+x,y,1/2-z
1/2-x,1/2+y,1/2+z
x,1/2-y,z
loop_
_atom_site_type_symbol
_atom_site_label
_atom_site_fract_x
_atom_site_fract_y
_atom_site_fract_z
Si Si1 0.319882 0.570675 0.289672
Si Si2 0.094062 0.929621 0.887260
Si Si3 0.273157 0.069502 0.112243
Si Si4 0.227082 0.929960 0.392702
Si Si5 0.002521 0.070174 0.894375
Si Si6 0.680682 0.071472 0.284284
Si Si7 0.096705 0.570760 0.112812
O O1 0.324934 0.750000 0.288968
O O2 0.364037 0.493938 0.330336
O O3 0.306434 0.510385 0.185494
O O4 0.277243 0.532665 0.356916
O O5 0.091942 0.750000 0.881063
O O6 0.047342 0.000097 0.851332
O O7 0.099415 0.969411 0.000027
O O8 0.278274 0.250000 0.119871
O O9 0.222841 0.032694 0.147304
O O10 0.279257 0.025468 0.002377
O O11 0.222703 0.750000 0.386463
O O12 0.193182 0.004430 0.318566
O O13 0.006521 0.250000 0.900375
O O14 0.953653 0.035038 0.851681
O O15 0.000000 0.000000 0.000000
O O16 0.678247 0.250000 0.278352
O O17 0.635468 0.007755 0.328454
O O18 0.102327 0.750000 0.118763
#
# Coordination Sequence:
#
# PCOD9462301 Si02
#       7
#     8   8   8   8   8   8   8
#     4  10  19  30  46  68  91 118 151 186 224 266
#     4  10  19  30  45  66  92 122 152 184 222 266
#     4   9  18  32  46  63  89 120 152 186 221 260
#     4   9  18  32  47  63  89 122 153 185 223 264
#     4   9  17  29  44  64  90 119 150 184 222 266
#     4  10  19  29  45  68  91 116 150 187 222 262
#     4   9  18  30  44  64  91 121 150 180 219 264
#
# _framework density 14.960689
#
# number of rings (size 3 to 8) (size 9 to 14) (size 15 to 20)
#    0.000    2.571    0.000    3.429    0.000    6.286 
#    0.000    0.000    0.000    0.000    0.000    1.000 
#    0.000    0.000    0.000    0.000    0.000    0.000 
#
# Total GULP energy -312127.594295 kJ/mol
# GULP energy per Si atom -5573.707041 kJ/mol
# Density = 1.492664 g / cm^3
# Si number density = 14.960689 Si / 1000 Ang^3
#
#
#
# Elastic Constant Matrix: (Units=GPa)
#
#
# Indices 1 2 3 4 5 6 
#
# 1 148.2316 58.1230 69.0316 0.0000 0.0000 0.0000
# 2 58.1230 44.7528 41.6227 0.0000 0.0000 0.0000
# 3 69.0316 41.6227 103.9172 0.0000 0.0000 0.0000
# 4 0.0000 0.0000 0.0000 22.0888 0.0000 0.0000
# 5 0.0000 0.0000 0.0000 0.0000 24.4107 0.0000
# 6 0.0000 0.0000 0.0000 0.0000 0.0000 28.1209
#
#
#
# Elastic Compliance Matrix: (Units=1/GPa)
#
#
# Indices 1 2 3 4 5 6 
#
# 1 0.014429 -0.015658 -0.003313 0.000000 0.000000 0.000000
# 2 -0.015658 0.052602 -0.010668 0.000000 0.000000 0.000000
# 3 -0.003313 -0.010668 0.016097 0.000000 0.000000 0.000000
# 4 0.000000 0.000000 0.000000 0.045272 0.000000 0.000000
# 5 0.000000 0.000000 0.000000 0.000000 0.040966 0.000000
# 6 0.000000 0.000000 0.000000 0.000000 0.000000 0.035561
#
#
# Mechanical properties :
#
#
# Convention : Reuss Voigt Hill
#
# Bulk Modulus (GPa) = 41.92869 70.49515 56.21192
# Shear Modulus (GPa) = 18.37190 23.46569 20.91880
#
# Velocity S-wave (km/s) = 3.50810 3.96471 3.74338
# Velocity P-wave (km/s) = 6.67052 8.25719 7.50590
#
# Compressibility (1/GPa) = 0.02385002
#
# Stress axis : x y z
#
# Youngs Moduli (GPa) = 69.30533 19.01055 62.12338
#
# Poissons Ratio (x) = 0.29767 0.20584
# Poissons Ratio (y) = 1.08518 0.66272
# Poissons Ratio (z) = 0.22964 0.20280
#
# Static dielectric constant tensor:
#      x y z
#    x 1.501870 0.000000 0.000000 
#    y 0.000000 1.494300 0.000000 
#    z 0.000000 0.000000 1.476270 
# 
# From -- ./inp_files/21170.got.cif
#   From: 2010.05.17/outbox.cif.g08.bks.cpg/sg62_11_cif.got.tgz:21170.got - 2010.06.03 15:25:27.
