data_PCOD9462950
_publ_section_title
;
Structure prediction by ZEFSAII (Michael W. Deem and Ramdas Pophale) SiO2 
 PCOD9462950
Probable space group: P N M A
;
_chemical_formula_sum "Si O2"
_cell_formula_units_Z 48
_cell_length_a 18.105806
_cell_length_b 7.406040
_cell_length_c 15.084689
_cell_angle_alpha 90.000000
_cell_angle_beta 90.000000
_cell_angle_gamma 90.000000
_cell_volume 2022.740997
_symmetry_space_group_name_H-M "P N M A"
_symmetry_group_IT_number 62
_symmetry_cell_setting 'orthorhombic'
loop_
_space_group_symop_operation_xyz
x,y,z
1/2-x,-y,1/2+z
1/2+x,1/2-y,1/2-z
-x,1/2+y,-z
-x,-y,-z
1/2+x,y,1/2-z
1/2-x,1/2+y,1/2+z
x,1/2-y,z
loop_
_atom_site_type_symbol
_atom_site_label
_atom_site_fract_x
_atom_site_fract_y
_atom_site_fract_z
Si Si1 0.716026 0.466661 0.118365
Si Si2 0.612521 0.456202 0.621474
Si Si3 0.791473 0.038818 0.418359
Si Si4 0.570924 0.546380 0.813609
Si Si5 0.122513 0.470817 0.072909
Si Si6 0.418951 0.970984 0.763266
O O1 0.722596 0.250000 0.122791
O O2 0.798151 0.542528 0.127004
O O3 0.658070 0.525306 0.192503
O O4 0.687387 0.519559 0.021148
O O5 0.586871 0.250000 0.626874
O O6 0.584685 0.554876 0.708289
O O7 0.594980 0.531702 0.523624
O O8 0.784549 0.250000 0.393069
O O9 0.857102 0.960726 0.358617
O O10 0.707665 0.967979 0.413012
O O11 0.566150 0.750000 0.850432
O O12 0.489431 0.464303 0.819011
O O13 0.123484 0.250000 0.068222
O O14 0.078691 0.525010 0.160323
O O15 0.420682 0.750000 0.764578
#
# Coordination Sequence:
#
# PCOD9462950 Si02
#       6
#     8   8   8   8   8   8
#     4  10  19  33  55  79 101 132 176 219 257 305
#     4  10  20  34  53  77 104 135 172 216 263 306
#     4   9  18  33  52  74 102 136 171 212 263 308
#     4  10  20  34  53  76 104 139 174 209 256 314
#     4   8  15  30  50  70  97 132 166 204 252 302
#     4   9  18  32  51  76 104 136 173 210 255 314
#
# _framework density 23.730174999999999
#
# number of rings (size 3 to 8) (size 9 to 14) (size 15 to 20)
#    0.000    2.667    0.000    3.000    0.000    4.667 
#    0.000    1.667    0.000    7.000    0.000    0.000 
#    0.000    0.000    0.000    0.000    0.000    0.000 
#
# Total GULP energy -268090.438291 kJ/mol
# GULP energy per Si atom -5585.217464 kJ/mol
# Density = 2.367616 g / cm^3
# Si number density = 23.730175 Si / 1000 Ang^3
#
#
#
# Elastic Constant Matrix: (Units=GPa)
#
#
# Indices 1 2 3 4 5 6 
#
# 1 36.4096 -0.9355 16.3151 0.0000 0.0000 0.0000
# 2 -0.9355 82.0132 -18.9465 0.0000 0.0000 0.0000
# 3 16.3151 -18.9465 50.2361 0.0000 0.0000 0.0000
# 4 0.0000 0.0000 0.0000 48.0485 0.0000 0.0000
# 5 0.0000 0.0000 0.0000 0.0000 -226.4669 0.0000
# 6 0.0000 0.0000 0.0000 0.0000 0.0000 -0.1428
#
#
#
# Elastic Compliance Matrix: (Units=1/GPa)
#
#
# Indices 1 2 3 4 5 6 
#
# 1 0.032523 -0.002267 -0.011417 0.000000 0.000000 0.000000
# 2 -0.002267 0.013515 0.005833 0.000000 0.000000 0.000000
# 3 -0.011417 0.005833 0.025814 0.000000 0.000000 0.000000
# 4 0.000000 0.000000 0.000000 0.020812 0.000000 0.000000
# 5 0.000000 0.000000 0.000000 0.000000 -0.004416 0.000000
# 6 0.000000 0.000000 0.000000 0.000000 0.000000 -7.002420
#
#
# Mechanical properties :
#
#
# Convention : Reuss Voigt Hill
#
# Bulk Modulus (GPa) = 17.80923 17.94722 17.87823
# Shear Modulus (GPa) = -0.72677 -24.23053 -12.47865
#
# Velocity S-wave (km/s) = -0.55401 -3.19891 -2.29564
# Velocity P-wave (km/s) = 2.66682 2.46263 0.72366
#
# Compressibility (1/GPa) = 0.05615065
#
# Stress axis : x y z
#
# Youngs Moduli (GPa) = 30.74738 73.99246 38.73865
#
# Poissons Ratio (x) = 0.16771 0.44229
# Poissons Ratio (y) = 0.06969 -0.22597
# Poissons Ratio (z) = 0.35105 -0.43162
#
# Static dielectric constant tensor:
#      x y z
#    x 1.902200 0.000000 0.000000 
#    y 0.000000 1.852850 0.000000 
#    z 0.000000 0.000000 1.865930 
# 
# From -- ./inp_files/19558.got.cif
#   From: 2010.05.17/outbox.cif.g08.bks.cpg/sg62_10_cif.got.tgz:19558.got - 2010.06.03 15:25:27.
