data_PCOD9462207
_publ_section_title
;
Structure prediction by ZEFSAII (Michael W. Deem and Ramdas Pophale) SiO2 
 PCOD9462207
Probable space group: P N M A
;
_chemical_formula_sum "Si O2"
_cell_formula_units_Z 56
_cell_length_a 13.224051
_cell_length_b 13.829451
_cell_length_c 17.517718
_cell_angle_alpha 90.000000
_cell_angle_beta 90.000000
_cell_angle_gamma 90.000000
_cell_volume 3203.664185
_symmetry_space_group_name_H-M "P N M A"
_symmetry_group_IT_number 62
_symmetry_cell_setting 'orthorhombic'
loop_
_space_group_symop_operation_xyz
x,y,z
1/2-x,-y,1/2+z
1/2+x,1/2-y,1/2-z
-x,1/2+y,-z
-x,-y,-z
1/2+x,y,1/2-z
1/2-x,1/2+y,1/2+z
x,1/2-y,z
loop_
_atom_site_type_symbol
_atom_site_label
_atom_site_fract_x
_atom_site_fract_y
_atom_site_fract_z
Si Si1 0.656876 0.048595 0.010088
Si Si2 0.402231 0.641342 0.277060
Si Si3 0.063732 0.863342 0.747087
Si Si4 0.095290 0.521569 0.231438
Si Si5 0.721286 0.980611 0.657239
Si Si6 0.943510 0.134465 0.434881
Si Si7 0.756003 0.360473 0.862849
O O1 0.696994 0.106200 0.937277
O O2 0.626010 0.939858 0.983144
O O3 0.743639 0.048235 0.073803
O O4 0.557446 0.101331 0.043987
O O5 0.413174 0.750000 0.303901
O O6 0.508517 0.599083 0.249278
O O7 0.354419 0.571624 0.340451
O O8 0.323778 0.637813 0.206976
O O9 0.050193 0.750000 0.756979
O O10 0.161458 0.901139 0.792881
O O11 0.073684 0.882915 0.655956
O O12 0.967002 0.922751 0.777465
O O13 0.176279 0.508456 0.298246
O O14 0.156198 0.564348 0.159714
O O15 0.929804 0.250000 0.449438
O O16 0.793588 0.250000 0.869574
#
# Coordination Sequence:
#
# PCOD9462207 Si02
#       7
#     8   8   8   8   8   8   8
#     4  11  21  36  56  83 118 151 182 239 290 345
#     4   9  19  35  55  80 109 146 190 233 276 334
#     4  10  21  38  58  84 113 148 196 238 278 339
#     4  10  18  36  57  79 108 147 188 234 281 329
#     4  10  21  34  57  82 113 147 188 235 282 335
#     4  10  21  36  57  84 115 152 190 236 292 340
#     4  10  21  35  56  84 114 147 189 232 285 346
#
# _framework density 17.479983000000001
#
# number of rings (size 3 to 8) (size 9 to 14) (size 15 to 20)
#    0.000    2.000    1.429    3.429    2.000    2.857 
#    0.000    3.571    0.000    1.714    0.000    0.000 
#    0.000    0.000    0.000    0.000    0.000    0.000 
#
# Total GULP energy -312266.725562 kJ/mol
# GULP energy per Si atom -5576.191528 kJ/mol
# Density = 1.744020 g / cm^3
# Si number density = 17.479983 Si / 1000 Ang^3
#
#
#
# Elastic Constant Matrix: (Units=GPa)
#
#
# Indices 1 2 3 4 5 6 
#
# 1 62.3663 17.5775 8.0572 0.0000 0.0000 0.0000
# 2 17.5775 78.8375 20.7651 0.0000 0.0000 0.0000
# 3 8.0572 20.7651 59.9338 0.0000 0.0000 0.0000
# 4 0.0000 0.0000 0.0000 20.6255 0.0000 0.0000
# 5 0.0000 0.0000 0.0000 0.0000 29.3882 0.0000
# 6 0.0000 0.0000 0.0000 0.0000 0.0000 16.1261
#
#
#
# Elastic Compliance Matrix: (Units=1/GPa)
#
#
# Indices 1 2 3 4 5 6 
#
# 1 0.017173 -0.003544 -0.001081 0.000000 0.000000 0.000000
# 2 -0.003544 0.014690 -0.004613 0.000000 0.000000 0.000000
# 3 -0.001081 -0.004613 0.018429 0.000000 0.000000 0.000000
# 4 0.000000 0.000000 0.000000 0.048484 0.000000 0.000000
# 5 0.000000 0.000000 0.000000 0.000000 0.034027 0.000000
# 6 0.000000 0.000000 0.000000 0.000000 0.000000 0.062011
#
#
# Mechanical properties :
#
#
# Convention : Reuss Voigt Hill
#
# Bulk Modulus (GPa) = 31.43146 32.65969 32.04558
# Shear Modulus (GPa) = 22.33200 23.54381 22.93790
#
# Velocity S-wave (km/s) = 3.57820 3.67400 3.62641
# Velocity P-wave (km/s) = 5.92383 6.05989 5.99225
#
# Compressibility (1/GPa) = 0.03181526
#
# Stress axis : x y z
#
# Youngs Moduli (GPa) = 58.23156 68.07567 54.26351
#
# Poissons Ratio (x) = 0.24127 0.05864
# Poissons Ratio (y) = 0.20638 0.25032
# Poissons Ratio (z) = 0.06293 0.31403
#
# Static dielectric constant tensor:
#      x y z
#    x 1.587390 0.000000 0.000000 
#    y 0.000000 1.616700 0.000000 
#    z 0.000000 0.000000 1.572470 
# 
# From -- ./inp_files/18073.got.cif
#   From: 2010.05.17/outbox.cif.g08.bks.cpg/sg62_10_cif.got.tgz:18073.got - 2010.06.03 15:25:27.
