data_PCOD9462144
_publ_section_title
;
Structure prediction by ZEFSAII (Michael W. Deem and Ramdas Pophale) SiO2 
 PCOD9462144
Probable space group: P N M A
;
_chemical_formula_sum "Si O2"
_cell_formula_units_Z 48
_cell_length_a 16.452206
_cell_length_b 14.679266
_cell_length_c 9.626463
_cell_angle_alpha 90.000000
_cell_angle_beta 90.000000
_cell_angle_gamma 90.000000
_cell_volume 2324.851540
_symmetry_space_group_name_H-M "P N M A"
_symmetry_group_IT_number 62
_symmetry_cell_setting 'orthorhombic'
loop_
_space_group_symop_operation_xyz
x,y,z
1/2-x,-y,1/2+z
1/2+x,1/2-y,1/2-z
-x,1/2+y,-z
-x,-y,-z
1/2+x,y,1/2-z
1/2-x,1/2+y,1/2+z
x,1/2-y,z
loop_
_atom_site_type_symbol
_atom_site_label
_atom_site_fract_x
_atom_site_fract_y
_atom_site_fract_z
Si Si1 0.721837 0.441028 0.432220
Si Si2 0.344652 0.750000 0.531998
Si Si3 0.815789 0.057581 0.704239
Si Si4 0.924743 0.455957 0.085427
Si Si5 0.710236 0.750000 0.198318
Si Si6 0.031249 0.750000 0.323277
Si Si7 0.998281 0.544865 0.348490
Si Si8 0.961427 0.250000 0.008807
O O1 0.684968 0.342696 0.400474
O O2 0.738229 0.486190 0.285623
O O3 0.793853 0.433725 0.542557
O O4 0.654502 0.501595 0.512595
O O5 0.294327 0.750000 0.386732
O O6 0.440862 0.750000 0.523816
O O7 0.795007 0.154381 0.773979
O O8 0.910488 0.035546 0.714176
O O9 0.938372 0.494541 0.241378
O O10 0.000000 0.500000 0.000000
O O11 0.928979 0.345825 0.071469
O O12 0.623386 0.750000 0.113074
O O13 0.986719 0.654957 0.357124
O O14 0.048840 0.750000 0.157939
O O15 0.000000 0.500000 0.500000
#
# Coordination Sequence:
#
# PCOD9462144 Si02
#       8
#     8   4   8   8   4   4   8   4
#     4  11  22  38  61  87 121 158 203 244 304 355
#     4  10  18  34  57  86 111 155 196 240 292 363
#     4  10  21  39  59  86 116 159 194 247 297 360
#     4  12  21  39  63  90 115 157 203 251 296 356
#     4   8  18  34  58  79 111 150 200 229 290 361
#     4  10  18  37  59  83 117 164 194 244 309 360
#     4  11  23  38  61  89 125 158 202 254 303 357
#     4  12  20  35  68  90 117 151 212 251 297 362
#
# _framework density 20.646481000000001
#
# number of rings (size 3 to 8) (size 9 to 14) (size 15 to 20)
#    0.000    1.333    5.000    1.000    2.333    0.667 
#    0.000    2.500    0.000    0.000    0.000    0.000 
#    0.000    0.000    0.000    0.000    0.000    0.000 
#
# Total GULP energy -267711.284675 kJ/mol
# GULP energy per Si atom -5577.318431 kJ/mol
# Density = 2.059949 g / cm^3
# Si number density = 20.646481 Si / 1000 Ang^3
#
#
#
# Elastic Constant Matrix: (Units=GPa)
#
#
# Indices 1 2 3 4 5 6 
#
# 1 40.2358 15.3567 -10.2589 0.0000 0.0000 0.0000
# 2 15.3567 195.1741 48.1496 0.0000 0.0000 0.0000
# 3 -10.2589 48.1496 84.0051 0.0000 0.0000 0.0000
# 4 0.0000 0.0000 0.0000 28.4433 0.0000 0.0000
# 5 0.0000 0.0000 0.0000 0.0000 19.2696 0.0000
# 6 0.0000 0.0000 0.0000 0.0000 0.0000 59.4500
#
#
#
# Elastic Compliance Matrix: (Units=1/GPa)
#
#
# Indices 1 2 3 4 5 6 
#
# 1 0.027555 -0.003492 0.005367 0.000000 0.000000 0.000000
# 2 -0.003492 0.006410 -0.004100 0.000000 0.000000 0.000000
# 3 0.005367 -0.004100 0.014910 0.000000 0.000000 0.000000
# 4 0.000000 0.000000 0.000000 0.035158 0.000000 0.000000
# 5 0.000000 0.000000 0.000000 0.000000 0.051895 0.000000
# 6 0.000000 0.000000 0.000000 0.000000 0.000000 0.016821
#
#
# Mechanical properties :
#
#
# Convention : Reuss Voigt Hill
#
# Bulk Modulus (GPa) = 22.51116 47.32333 34.91725
# Shear Modulus (GPa) = 29.06854 39.17709 34.12281
#
# Velocity S-wave (km/s) = 3.75629 4.36078 4.06977
# Velocity P-wave (km/s) = 5.45342 6.95167 6.24762
#
# Compressibility (1/GPa) = 0.04442240
#
# Stress axis : x y z
#
# Youngs Moduli (GPa) = 36.29160 156.00666 67.07041
#
# Poissons Ratio (x) = 0.54477 -0.35994
# Poissons Ratio (y) = 0.12673 0.27502
# Poissons Ratio (z) = -0.19476 0.63970
#
# Static dielectric constant tensor:
#      x y z
#    x 1.758190 0.000000 0.000000 
#    y 0.000000 1.772490 0.000000 
#    z 0.000000 0.000000 1.754420 
# 
# From -- ./inp_files/7742.got.cif
#   From: 2010.05.17/outbox.cif.g08.bks.cpg/sg62_4_cif.got.tgz:7742.got - 2010.06.03 15:25:27.
