data_PCOD9462534
_publ_section_title
;
Structure prediction by ZEFSAII (Michael W. Deem and Ramdas Pophale) SiO2 
 PCOD9462534
Probable space group: P N M A
;
_chemical_formula_sum "Si O2"
_cell_formula_units_Z 64
_cell_length_a 22.822759
_cell_length_b 9.626536
_cell_length_c 13.970970
_cell_angle_alpha 90.000000
_cell_angle_beta 90.000000
_cell_angle_gamma 90.000000
_cell_volume 3069.479546
_symmetry_space_group_name_H-M "P N M A"
_symmetry_group_IT_number 62
_symmetry_cell_setting 'orthorhombic'
loop_
_space_group_symop_operation_xyz
x,y,z
1/2-x,-y,1/2+z
1/2+x,1/2-y,1/2-z
-x,1/2+y,-z
-x,-y,-z
1/2+x,y,1/2-z
1/2-x,1/2+y,1/2+z
x,1/2-y,z
loop_
_atom_site_type_symbol
_atom_site_label
_atom_site_fract_x
_atom_site_fract_y
_atom_site_fract_z
Si Si1 0.655039 0.590627 0.122189
Si Si2 0.546824 0.888854 0.987305
Si Si3 0.213744 0.086871 0.547756
Si Si4 0.676954 0.907542 0.566581
Si Si5 0.444007 0.084995 0.538396
Si Si6 0.838236 0.584702 0.242255
Si Si7 0.947090 0.094513 0.273552
Si Si8 0.415948 0.916999 0.729595
O O1 0.676413 0.750000 0.145289
O O2 0.636002 0.490344 0.209532
O O3 0.593230 0.610484 0.069387
O O4 0.689437 0.508589 0.038477
O O5 0.509908 0.750000 0.989193
O O6 0.574191 0.898133 0.883311
O O7 0.500000 0.000000 0.000000
O O8 0.196770 0.250000 0.533140
O O9 0.283228 0.076136 0.528288
O O10 0.191883 0.050423 0.654807
O O11 0.687161 0.750000 0.601414
O O12 0.609720 0.921564 0.535663
O O13 0.693008 0.011802 0.652141
O O14 0.456729 0.250000 0.555313
O O15 0.500000 0.000000 0.500000
O O16 0.422204 0.003377 0.632014
O O17 0.838178 0.750000 0.232975
O O18 0.904526 0.524064 0.234975
O O19 0.938171 0.250000 0.230879
O O20 0.017048 0.069018 0.272049
O O21 0.406191 0.750000 0.719030
#
# Coordination Sequence:
#
# PCOD9462534 Si02
#       8
#     8   8   8   8   8   8   8   8
#     4  11  22  36  57  89 126 164 206 252 304 365
#     4  10  19  31  50  79 118 162 205 250 300 355
#     4  10  23  43  64  89 123 163 205 253 308 366
#     4  10  24  46  68  89 121 162 202 249 308 369
#     4  11  24  44  68  94 124 161 207 262 320 380
#     4  11  23  38  63  95 123 156 206 262 311 366
#     4  10  20  35  55  84 123 167 210 251 303 365
#     4  11  23  38  60  91 129 171 212 258 312 372
#
# _framework density 20.850441
#
# number of rings (size 3 to 8) (size 9 to 14) (size 15 to 20)
#    0.000    1.500    2.500    2.250    0.000    8.000 
#    0.000    1.250    0.000    0.000    0.000    0.000 
#    0.000    0.000    0.000    0.000    0.000    0.000 
#
# Total GULP energy -356465.574777 kJ/mol
# GULP energy per Si atom -5569.774606 kJ/mol
# Density = 2.080298 g / cm^3
# Si number density = 20.850441 Si / 1000 Ang^3
#
#
#
# Elastic Constant Matrix: (Units=GPa)
#
#
# Indices 1 2 3 4 5 6 
#
# 1 58.4979 43.5349 16.3829 0.0000 0.0000 0.0000
# 2 43.5349 143.0674 68.3424 0.0000 0.0000 0.0000
# 3 16.3829 68.3424 96.1338 0.0000 0.0000 0.0000
# 4 0.0000 0.0000 0.0000 34.3619 0.0000 0.0000
# 5 0.0000 0.0000 0.0000 0.0000 27.0660 0.0000
# 6 0.0000 0.0000 0.0000 0.0000 0.0000 20.7638
#
#
#
# Elastic Compliance Matrix: (Units=1/GPa)
#
#
# Indices 1 2 3 4 5 6 
#
# 1 0.022250 -0.007510 0.001547 0.000000 0.000000 0.000000
# 2 -0.007510 0.013119 -0.008046 0.000000 0.000000 0.000000
# 3 0.001547 -0.008046 0.015859 0.000000 0.000000 0.000000
# 4 0.000000 0.000000 0.000000 0.029102 0.000000 0.000000
# 5 0.000000 0.000000 0.000000 0.000000 0.036947 0.000000
# 6 0.000000 0.000000 0.000000 0.000000 0.000000 0.048161
#
#
# Mechanical properties :
#
#
# Convention : Reuss Voigt Hill
#
# Bulk Modulus (GPa) = 43.08619 61.57994 52.33306
# Shear Modulus (GPa) = 24.85195 27.73427 26.29311
#
# Velocity S-wave (km/s) = 3.45616 3.65108 3.55496
# Velocity P-wave (km/s) = 6.05276 6.88274 6.48105
#
# Compressibility (1/GPa) = 0.02320929
#
# Stress axis : x y z
#
# Youngs Moduli (GPa) = 44.94355 76.22815 63.05653
#
# Poissons Ratio (x) = 0.57244 -0.09753
# Poissons Ratio (y) = 0.33750 0.50737
# Poissons Ratio (z) = -0.06952 0.61336
#
# Static dielectric constant tensor:
#      x y z
#    x 1.781350 0.000000 0.000000 
#    y 0.000000 1.760380 0.000000 
#    z 0.000000 0.000000 1.817660 
# 
# From -- ./inp_files/20919.got.cif
#   From: 2010.05.17/outbox.cif.g08.bks.cpg/sg62_11_cif.got.tgz:20919.got - 2010.06.03 15:25:27.
