data_PCOD9462516
_publ_section_title
;
Structure prediction by ZEFSAII (Michael W. Deem and Ramdas Pophale) SiO2 
 PCOD9462516
Probable space group: P N M A
;
_chemical_formula_sum "Si O2"
_cell_formula_units_Z 64
_cell_length_a 19.643174
_cell_length_b 9.631056
_cell_length_c 17.421233
_cell_angle_alpha 90.000000
_cell_angle_beta 90.000000
_cell_angle_gamma 90.000000
_cell_volume 3295.827408
_symmetry_space_group_name_H-M "P N M A"
_symmetry_group_IT_number 62
_symmetry_cell_setting 'orthorhombic'
loop_
_space_group_symop_operation_xyz
x,y,z
1/2-x,-y,1/2+z
1/2+x,1/2-y,1/2-z
-x,1/2+y,-z
-x,-y,-z
1/2+x,y,1/2-z
1/2-x,1/2+y,1/2+z
x,1/2-y,z
loop_
_atom_site_type_symbol
_atom_site_label
_atom_site_fract_x
_atom_site_fract_y
_atom_site_fract_z
Si Si1 0.459760 0.084552 0.765140
Si Si2 0.835098 0.914453 0.678767
Si Si3 0.537738 0.094682 0.608884
Si Si4 0.672293 0.413233 0.001322
Si Si5 0.788880 0.589343 0.927860
Si Si6 0.293004 0.410574 0.231636
Si Si7 0.902393 0.094326 0.991901
Si Si8 0.092293 0.414622 0.651870
O O1 0.445514 0.250000 0.764766
O O2 0.501860 0.053130 0.687888
O O3 0.513803 0.050985 0.832348
O O4 0.390790 0.000005 0.774284
O O5 0.840473 0.750000 0.696637
O O6 0.849599 0.934095 0.588714
O O7 0.757452 0.955036 0.699996
O O8 0.567399 0.250000 0.617803
O O9 0.475941 0.105464 0.548005
O O10 0.589159 0.984186 0.572857
O O11 0.691789 0.250000 0.993107
O O12 0.734623 0.514217 0.982732
O O13 0.616584 0.441756 0.935145
O O14 0.800476 0.750000 0.947570
O O15 0.756104 0.583839 0.843374
O O16 0.856590 0.500075 0.937042
O O17 0.313876 0.250000 0.242996
O O18 0.357504 0.503569 0.209389
O O19 0.874767 0.250000 0.000433
O O20 0.100049 0.250000 0.666512
#
# Coordination Sequence:
#
# PCOD9462516 Si02
#       8
#     8   8   8   8   8   8   8   8
#     4  10  21  36  54  78 107 139 177 219 262 311
#     4  10  21  36  55  80 108 137 172 216 262 309
#     4   9  19  34  49  70 102 136 172 212 254 306
#     4   9  19  36  54  74 102 134 171 214 259 307
#     4  10  19  32  52  75 100 131 167 209 256 308
#     4   9  19  35  54  77 104 135 173 215 259 309
#     4  10  19  31  50  74 101 135 170 208 257 311
#     4   9  19  36  56  77 104 139 176 215 261 311
#
# _framework density 19.418493000000002
#
# number of rings (size 3 to 8) (size 9 to 14) (size 15 to 20)
#    0.000    2.500    0.000    1.500    0.000    4.500 
#    0.000    2.500    0.000    0.000    0.000    0.000 
#    0.000    0.000    0.000    0.000    0.000    0.000 
#
# Total GULP energy -356974.244171 kJ/mol
# GULP energy per Si atom -5577.722565 kJ/mol
# Density = 1.937430 g / cm^3
# Si number density = 19.418493 Si / 1000 Ang^3
#
#
#
# Elastic Constant Matrix: (Units=GPa)
#
#
# Indices 1 2 3 4 5 6 
#
# 1 32.1561 12.9542 -3.9572 0.0000 0.0000 0.0000
# 2 12.9542 54.8934 13.1525 0.0000 0.0000 0.0000
# 3 -3.9572 13.1525 53.4892 0.0000 0.0000 0.0000
# 4 0.0000 0.0000 0.0000 21.1587 0.0000 0.0000
# 5 0.0000 0.0000 0.0000 0.0000 4.7449 0.0000
# 6 0.0000 0.0000 0.0000 0.0000 0.0000 26.5426
#
#
#
# Elastic Compliance Matrix: (Units=1/GPa)
#
#
# Indices 1 2 3 4 5 6 
#
# 1 0.035576 -0.009591 0.004990 0.000000 0.000000 0.000000
# 2 -0.009591 0.021943 -0.006105 0.000000 0.000000 0.000000
# 3 0.004990 -0.006105 0.020566 0.000000 0.000000 0.000000
# 4 0.000000 0.000000 0.000000 0.047262 0.000000 0.000000
# 5 0.000000 0.000000 0.000000 0.000000 0.210751 0.000000
# 6 0.000000 0.000000 0.000000 0.000000 0.000000 0.037675
#
#
# Mechanical properties :
#
#
# Convention : Reuss Voigt Hill
#
# Bulk Modulus (GPa) = 17.64504 20.53751 19.09127
# Shear Modulus (GPa) = 12.07505 18.38188 15.22846
#
# Velocity S-wave (km/s) = 2.49636 3.08005 2.80344
# Velocity P-wave (km/s) = 4.17319 4.82164 4.50909
#
# Compressibility (1/GPa) = 0.05667316
#
# Stress axis : x y z
#
# Youngs Moduli (GPa) = 28.10862 45.57188 48.62451
#
# Poissons Ratio (x) = 0.43709 -0.24265
# Poissons Ratio (y) = 0.26960 0.29686
# Poissons Ratio (z) = -0.14027 0.27823
#
# Static dielectric constant tensor:
#      x y z
#    x 1.670510 0.000000 0.000000 
#    y 0.000000 1.673740 0.000000 
#    z 0.000000 0.000000 1.702380 
# 
# From -- ./inp_files/24728.got.cif
#   From: 2010.05.17/outbox.cif.g08.bks.cpg/sg62_13_cif.got.tgz:24728.got - 2010.06.03 15:25:27.
