data_PCOD9462488
_publ_section_title
;
Structure prediction by ZEFSAII (Michael W. Deem and Ramdas Pophale) SiO2 
 PCOD9462488
Probable space group: P N M A
;
_chemical_formula_sum "Si O2"
_cell_formula_units_Z 48
_cell_length_a 13.978950
_cell_length_b 8.946065
_cell_length_c 24.274697
_cell_angle_alpha 90.000000
_cell_angle_beta 90.000000
_cell_angle_gamma 90.000000
_cell_volume 3035.710960
_symmetry_space_group_name_H-M "P N M A"
_symmetry_group_IT_number 62
_symmetry_cell_setting 'orthorhombic'
loop_
_space_group_symop_operation_xyz
x,y,z
1/2-x,-y,1/2+z
1/2+x,1/2-y,1/2-z
-x,1/2+y,-z
-x,-y,-z
1/2+x,y,1/2-z
1/2-x,1/2+y,1/2+z
x,1/2-y,z
loop_
_atom_site_type_symbol
_atom_site_label
_atom_site_fract_x
_atom_site_fract_y
_atom_site_fract_z
Si Si1 0.600054 0.928292 0.275752
Si Si2 0.612128 0.071664 0.061098
Si Si3 0.607368 0.571403 0.723505
Si Si4 0.215662 0.928657 0.335430
Si Si5 0.887777 0.429428 0.443922
Si Si6 0.776451 0.070706 0.333996
O O1 0.591872 0.750000 0.280292
O O2 0.643681 0.964093 0.215289
O O3 0.497570 0.003934 0.282651
O O4 0.678024 0.989890 0.318785
O O5 0.623441 0.250000 0.063571
O O6 0.499120 0.036648 0.069046
O O7 0.673105 0.994750 0.108733
O O8 0.637962 0.010787 0.000621
O O9 0.605035 0.750000 0.717313
O O10 0.683228 0.500716 0.681260
O O11 0.649172 0.537018 0.784537
O O12 0.224673 0.750000 0.338835
O O13 0.881091 0.250000 0.451625
O O14 0.822175 0.472274 0.392292
O O15 0.761549 0.250000 0.333771
#
# Coordination Sequence:
#
# PCOD9462488 Si02
#       6
#     8   8   8   8   8   8
#     4  10  20  32  48  72 100 128 159 197 241 286
#     4  10  19  31  49  73  99 128 163 200 240 286
#     4  10  19  32  51  73  98 128 162 199 238 284
#     4  10  20  33  49  71 100 131 162 198 240 285
#     4   9  18  32  49  71  99 129 161 198 240 285
#     4   9  18  32  50  71  96 128 163 197 235 282
#
# _framework density 15.811783
#
# number of rings (size 3 to 8) (size 9 to 14) (size 15 to 20)
#    0.000    2.333    0.000    3.000    0.000    5.333 
#    0.000    0.000    0.000    1.000    0.000    0.000 
#    0.000    0.000    0.000    0.000    0.000    0.000 
#
# Total GULP energy -267862.720080 kJ/mol
# GULP energy per Si atom -5580.473335 kJ/mol
# Density = 1.577579 g / cm^3
# Si number density = 15.811783 Si / 1000 Ang^3
#
#
#
# Elastic Constant Matrix: (Units=GPa)
#
#
# Indices 1 2 3 4 5 6 
#
# 1 144.3624 66.8627 90.0853 0.0000 0.0000 0.0000
# 2 66.8627 56.5042 61.7040 0.0000 0.0000 0.0000
# 3 90.0853 61.7040 134.2994 0.0000 0.0000 0.0000
# 4 0.0000 0.0000 0.0000 26.8379 0.0000 0.0000
# 5 0.0000 0.0000 0.0000 0.0000 24.2491 0.0000
# 6 0.0000 0.0000 0.0000 0.0000 0.0000 27.3410
#
#
#
# Elastic Compliance Matrix: (Units=1/GPa)
#
#
# Indices 1 2 3 4 5 6 
#
# 1 0.016424 -0.014859 -0.004189 0.000000 0.000000 0.000000
# 2 -0.014859 0.048963 -0.012529 0.000000 0.000000 0.000000
# 3 -0.004189 -0.012529 0.016013 0.000000 0.000000 0.000000
# 4 0.000000 0.000000 0.000000 0.037261 0.000000 0.000000
# 5 0.000000 0.000000 0.000000 0.000000 0.041239 0.000000
# 6 0.000000 0.000000 0.000000 0.000000 0.000000 0.036575
#
#
# Mechanical properties :
#
#
# Convention : Reuss Voigt Hill
#
# Bulk Modulus (GPa) = 54.81250 85.82999 70.32125
# Shear Modulus (GPa) = 18.81752 23.45321 21.13536
#
# Velocity S-wave (km/s) = 3.45352 3.85551 3.66004
# Velocity P-wave (km/s) = 7.11641 8.61511 7.90137
#
# Compressibility (1/GPa) = 0.01824401
#
# Stress axis : x y z
#
# Youngs Moduli (GPa) = 60.88801 20.42361 62.45118
#
# Poissons Ratio (x) = 0.30348 0.26163
# Poissons Ratio (y) = 0.90476 0.78243
# Poissons Ratio (z) = 0.25508 0.25588
#
# Static dielectric constant tensor:
#      x y z
#    x 1.500220 0.000000 0.000000 
#    y 0.000000 1.522200 0.000000 
#    z 0.000000 0.000000 1.507640 
# 
# From -- ./inp_files/26848.got.cif
#   From: 2010.05.17/outbox.cif.g08.bks.cpg/sg62_14_cif.got.tgz:26848.got - 2010.06.03 15:25:27.
