data_PCOD9462145
_publ_section_title
;
Structure prediction by ZEFSAII (Michael W. Deem and Ramdas Pophale) SiO2 
 PCOD9462145
Probable space group: P N M A
;
_chemical_formula_sum "Si O2"
_cell_formula_units_Z 40
_cell_length_a 19.501237
_cell_length_b 12.428327
_cell_length_c 7.889100
_cell_angle_alpha 90.000000
_cell_angle_beta 90.000000
_cell_angle_gamma 90.000000
_cell_volume 1912.063419
_symmetry_space_group_name_H-M "P N M A"
_symmetry_group_IT_number 62
_symmetry_cell_setting 'orthorhombic'
loop_
_space_group_symop_operation_xyz
x,y,z
1/2-x,-y,1/2+z
1/2+x,1/2-y,1/2-z
-x,1/2+y,-z
-x,-y,-z
1/2+x,y,1/2-z
1/2-x,1/2+y,1/2+z
x,1/2-y,z
loop_
_atom_site_type_symbol
_atom_site_label
_atom_site_fract_x
_atom_site_fract_y
_atom_site_fract_z
Si Si1 0.899570 0.469495 0.352613
Si Si2 0.041650 0.556956 0.295157
Si Si3 0.871719 0.627238 0.829329
Si Si4 0.863918 0.414769 0.002594
Si Si5 0.792210 0.868086 0.489144
O O1 0.925679 0.413183 0.524781
O O2 0.887001 0.393737 0.192723
O O3 0.831458 0.536160 0.396356
O O4 0.960366 0.553384 0.303741
O O5 0.064291 0.431363 0.263749
O O6 0.079143 0.614336 0.138289
O O7 0.883628 0.750000 0.875661
O O8 0.811560 0.621472 0.688693
O O9 0.857238 0.545171 0.981233
O O10 0.788915 0.371785 0.964266
O O11 0.818218 0.750000 0.436088
#
# Coordination Sequence:
#
# PCOD9462145 Si02
#       5
#     8   8   8   8   8
#     4  10  18  34  58  79 102 146 180 223 277 320
#     4   8  19  34  55  82 108 134 185 226 271 326
#     4   8  17  33  53  78 108 139 177 222 271 325
#     4  10  19  33  58  78 106 147 180 224 269 327
#     4  10  20  35  52  79 113 145 181 227 271 320
#
# _framework density 20.919809000000001
#
# number of rings (size 3 to 8) (size 9 to 14) (size 15 to 20)
#    1.200    1.600    0.000    1.800    0.000    0.800 
#    0.000    2.000    0.000    3.600    0.000    0.000 
#    0.000    0.000    0.000    0.000    0.000    0.000 
#
# Total GULP energy -222710.438449 kJ/mol
# GULP energy per Si atom -5567.760961 kJ/mol
# Density = 2.087219 g / cm^3
# Si number density = 20.919809 Si / 1000 Ang^3
#
#
#
# Elastic Constant Matrix: (Units=GPa)
#
#
# Indices 1 2 3 4 5 6 
#
# 1 84.2821 -13.5105 31.3024 0.0000 0.0000 0.0000
# 2 -13.5105 54.5742 8.9353 0.0000 0.0000 0.0000
# 3 31.3024 8.9353 87.9229 0.0000 0.0000 0.0000
# 4 0.0000 0.0000 0.0000 0.6471 0.0000 0.0000
# 5 0.0000 0.0000 0.0000 0.0000 20.2689 0.0000
# 6 0.0000 0.0000 0.0000 0.0000 0.0000 8.9979
#
#
#
# Elastic Compliance Matrix: (Units=1/GPa)
#
#
# Indices 1 2 3 4 5 6 
#
# 1 0.014718 0.004578 -0.005705 0.000000 0.000000 0.000000
# 2 0.004578 0.020057 -0.003668 0.000000 0.000000 0.000000
# 3 -0.005705 -0.003668 0.013777 0.000000 0.000000 0.000000
# 4 0.000000 0.000000 0.000000 1.545322 0.000000 0.000000
# 5 0.000000 0.000000 0.000000 0.000000 0.049337 0.000000
# 6 0.000000 0.000000 0.000000 0.000000 0.000000 0.111137
#
#
# Mechanical properties :
#
#
# Convention : Reuss Voigt Hill
#
# Bulk Modulus (GPa) = 25.66637 31.13708 28.40173
# Shear Modulus (GPa) = 2.81385 19.31959 11.06672
#
# Velocity S-wave (km/s) = 1.16103 3.04222 2.30251
# Velocity P-wave (km/s) = 3.75405 5.22077 4.54694
#
# Compressibility (1/GPa) = 0.03896148
#
# Stress axis : x y z
#
# Youngs Moduli (GPa) = 67.94628 49.85675 72.58236
#
# Poissons Ratio (x) = -0.22822 0.41408
# Poissons Ratio (y) = -0.31103 0.26624
# Poissons Ratio (z) = 0.38763 0.18288
#
# Static dielectric constant tensor:
#      x y z
#    x 1.737580 0.000000 0.000000 
#    y 0.000000 1.966920 0.000000 
#    z 0.000000 0.000000 1.788750 
# 
# From -- ./inp_files/7755.got.cif
#   From: 2010.05.17/outbox.cif.g08.bks.cpg/sg62_4_cif.got.tgz:7755.got - 2010.06.03 15:25:27.
