data_PCOD9462955
_publ_section_title
;
Structure prediction by ZEFSAII (Michael W. Deem and Ramdas Pophale) SiO2 
 PCOD9462955
Probable space group: P N M A
;
_chemical_formula_sum "Si O2"
_cell_formula_units_Z 64
_cell_length_a 23.891490
_cell_length_b 17.112199
_cell_length_c 9.625665
_cell_angle_alpha 90.000000
_cell_angle_beta 90.000000
_cell_angle_gamma 90.000000
_cell_volume 3935.317715
_symmetry_space_group_name_H-M "P N M A"
_symmetry_group_IT_number 62
_symmetry_cell_setting 'orthorhombic'
loop_
_space_group_symop_operation_xyz
x,y,z
1/2-x,-y,1/2+z
1/2+x,1/2-y,1/2-z
-x,1/2+y,-z
-x,-y,-z
1/2+x,y,1/2-z
1/2-x,1/2+y,1/2+z
x,1/2-y,z
loop_
_atom_site_type_symbol
_atom_site_label
_atom_site_fract_x
_atom_site_fract_y
_atom_site_fract_z
Si Si1 0.754761 0.432142 0.606903
Si Si2 0.537661 0.839624 0.021298
Si Si3 0.933933 0.058110 0.264188
Si Si4 0.641215 0.657450 0.231365
Si Si5 0.562723 0.841798 0.485224
Si Si6 0.536786 0.119641 0.722348
Si Si7 0.810141 0.001702 0.333598
Si Si8 0.164585 0.160751 0.766251
O O1 0.805322 0.393353 0.693040
O O2 0.727881 0.502718 0.695418
O O3 0.778112 0.460917 0.461571
O O4 0.704832 0.367887 0.607970
O O5 0.538898 0.750000 0.972092
O O6 0.593657 0.853451 0.113197
O O7 0.487489 0.850037 0.131002
O O8 0.536657 0.897998 0.892269
O O9 0.960566 0.973947 0.233188
O O10 0.869539 0.042188 0.307435
O O11 0.936093 0.109062 0.125110
O O12 0.654896 0.750000 0.233977
O O13 0.612464 0.636446 0.377819
O O14 0.567963 0.750000 0.515735
O O15 0.505819 0.855023 0.397826
O O16 0.599298 0.150967 0.698670
O O17 0.821907 0.907665 0.346621
O O18 0.176385 0.250000 0.727061
#
# Coordination Sequence:
#
# PCOD9462955 Si02
#       8
#     8   8   8   8   8   8   8   8
#     4  10  19  36  54  78 110 142 181 227 270 318
#     4  10  19  33  55  79 109 141 177 227 273 318
#     4  11  20  35  52  85 110 139 181 227 275 314
#     4   9  18  32  55  79 105 143 184 218 264 328
#     4  10  21  35  55  83 112 143 179 224 276 324
#     4  10  20  36  56  78 110 143 184 217 267 336
#     4   9  22  33  55  79 110 139 181 226 270 317
#     4   9  19  34  60  80 105 146 187 218 261 328
#
# _framework density 16.262982000000001
#
# number of rings (size 3 to 8) (size 9 to 14) (size 15 to 20)
#    0.750    1.500    1.250    3.375    1.750    0.000 
#    0.000    0.000    0.000    1.500    0.000    0.000 
#    0.000    0.000    0.000    0.000    0.000    0.000 
#
# Total GULP energy -356389.937001 kJ/mol
# GULP energy per Si atom -5568.592766 kJ/mol
# Density = 1.622597 g / cm^3
# Si number density = 16.262982 Si / 1000 Ang^3
#
#
#
# Elastic Constant Matrix: (Units=GPa)
#
#
# Indices 1 2 3 4 5 6 
#
# 1 56.6482 7.4826 6.8634 0.0000 0.0000 0.0000
# 2 7.4826 67.8806 24.2394 0.0000 0.0000 0.0000
# 3 6.8634 24.2394 61.2426 0.0000 0.0000 0.0000
# 4 0.0000 0.0000 0.0000 19.2816 0.0000 0.0000
# 5 0.0000 0.0000 0.0000 0.0000 12.1375 0.0000
# 6 0.0000 0.0000 0.0000 0.0000 0.0000 12.8038
#
#
#
# Elastic Compliance Matrix: (Units=1/GPa)
#
#
# Indices 1 2 3 4 5 6 
#
# 1 0.018021 -0.001474 -0.001436 0.000000 0.000000 0.000000
# 2 -0.001474 0.017277 -0.006673 0.000000 0.000000 0.000000
# 3 -0.001436 -0.006673 0.019131 0.000000 0.000000 0.000000
# 4 0.000000 0.000000 0.000000 0.051863 0.000000 0.000000
# 5 0.000000 0.000000 0.000000 0.000000 0.082389 0.000000
# 6 0.000000 0.000000 0.000000 0.000000 0.000000 0.078102
#
#
# Mechanical properties :
#
#
# Convention : Reuss Voigt Hill
#
# Bulk Modulus (GPa) = 28.35822 29.21578 28.78700
# Shear Modulus (GPa) = 16.79524 18.65699 17.72611
#
# Velocity S-wave (km/s) = 3.21710 3.39072 3.30505
# Velocity P-wave (km/s) = 5.59238 5.77346 5.68364
#
# Compressibility (1/GPa) = 0.03526314
#
# Stress axis : x y z
#
# Youngs Moduli (GPa) = 55.48931 57.88033 52.27230
#
# Poissons Ratio (x) = 0.08529 0.07508
# Poissons Ratio (y) = 0.08177 0.34881
# Poissons Ratio (z) = 0.07970 0.38623
#
# Static dielectric constant tensor:
#      x y z
#    x 1.549790 0.000000 0.000000 
#    y 0.000000 1.547130 0.000000 
#    z 0.000000 0.000000 1.516360 
# 
# From -- ./inp_files/8923.got.cif
#   From: 2010.05.17/outbox.cif.g08.bks.cpg/sg62_5_cif.got.tgz:8923.got - 2010.06.03 15:25:27.
