data_PCOD9462716
_publ_section_title
;
Structure prediction by ZEFSAII (Michael W. Deem and Ramdas Pophale) SiO2 
 PCOD9462716
Probable space group: P N M A
;
_chemical_formula_sum "Si O2"
_cell_formula_units_Z 56
_cell_length_a 13.637975
_cell_length_b 9.083870
_cell_length_c 24.557700
_cell_angle_alpha 90.000000
_cell_angle_beta 90.000000
_cell_angle_gamma 90.000000
_cell_volume 3042.345202
_symmetry_space_group_name_H-M "P N M A"
_symmetry_group_IT_number 62
_symmetry_cell_setting 'orthorhombic'
loop_
_space_group_symop_operation_xyz
x,y,z
1/2-x,-y,1/2+z
1/2+x,1/2-y,1/2-z
-x,1/2+y,-z
-x,-y,-z
1/2+x,y,1/2-z
1/2-x,1/2+y,1/2+z
x,1/2-y,z
loop_
_atom_site_type_symbol
_atom_site_label
_atom_site_fract_x
_atom_site_fract_y
_atom_site_fract_z
Si Si1 0.276337 0.926683 0.946919
Si Si2 0.378783 0.574876 0.631923
Si Si3 0.951581 0.427421 0.052845
Si Si4 0.188187 0.923925 0.558546
Si Si5 0.085409 0.926278 0.668713
Si Si6 0.764830 0.074677 0.772104
Si Si7 0.358030 0.573470 0.830010
O O1 0.279836 0.750000 0.950816
O O2 0.161834 0.970663 0.942668
O O3 0.331106 0.969455 0.891623
O O4 0.320137 0.992723 0.001999
O O5 0.377761 0.750000 0.644565
O O6 0.482578 0.534393 0.605430
O O7 0.295165 0.549923 0.585850
O O8 0.344966 0.485970 0.684585
O O9 0.956672 0.250000 0.047259
O O10 0.000000 0.500000 0.000000
O O11 0.179224 0.750000 0.548614
O O12 0.112046 0.965216 0.606125
O O13 0.103121 0.750000 0.673893
O O14 0.972507 0.956280 0.680675
O O15 0.161434 0.010537 0.706890
O O16 0.763623 0.250000 0.772200
O O17 0.792394 0.010153 0.713602
O O18 0.342497 0.750000 0.824862
#
# Coordination Sequence:
#
# PCOD9462716 Si02
#       7
#     8   8   8   8   8   8   8
#     4  10  21  34  53  83 115 146 187 235 281 330
#     4   9  18  34  55  79 111 156 197 226 271 342
#     4  10  19  32  52  81 116 150 185 226 275 333
#     4   9  17  32  54  80 109 145 189 229 273 330
#     4   9  20  40  63  81 107 151 194 228 273 342
#     4  11  23  38  59  87 115 142 185 244 293 336
#     4  10  22  41  60  81 113 153 193 233 279 340
#
# _framework density 18.406853000000002
#
# number of rings (size 3 to 8) (size 9 to 14) (size 15 to 20)
#    0.000    2.286    1.429    2.143    0.000    5.714 
#    0.000    2.857    0.000    0.000    0.000    0.000 
#    0.000    0.000    0.000    0.000    0.000    0.000 
#
# Total GULP energy -312610.677330 kJ/mol
# GULP energy per Si atom -5582.333524 kJ/mol
# Density = 1.836496 g / cm^3
# Si number density = 18.406853 Si / 1000 Ang^3
#
#
#
# Elastic Constant Matrix: (Units=GPa)
#
#
# Indices 1 2 3 4 5 6 
#
# 1 67.6642 37.8732 40.2402 0.0000 0.0000 0.0000
# 2 37.8732 41.4189 54.4388 0.0000 0.0000 0.0000
# 3 40.2402 54.4388 123.5128 0.0000 0.0000 0.0000
# 4 0.0000 0.0000 0.0000 35.6620 0.0000 0.0000
# 5 0.0000 0.0000 0.0000 0.0000 19.7214 0.0000
# 6 0.0000 0.0000 0.0000 0.0000 0.0000 11.9748
#
#
#
# Elastic Compliance Matrix: (Units=1/GPa)
#
#
# Indices 1 2 3 4 5 6 
#
# 1 0.031967 -0.036943 0.005868 0.000000 0.000000 0.000000
# 2 -0.036943 0.100083 -0.032076 0.000000 0.000000 0.000000
# 3 0.005868 -0.032076 0.020322 0.000000 0.000000 0.000000
# 4 0.000000 0.000000 0.000000 0.028041 0.000000 0.000000
# 5 0.000000 0.000000 0.000000 0.000000 0.050706 0.000000
# 6 0.000000 0.000000 0.000000 0.000000 0.000000 0.083509
#
#
# Mechanical properties :
#
#
# Convention : Reuss Voigt Hill
#
# Bulk Modulus (GPa) = 38.35804 55.30003 46.82903
# Shear Modulus (GPa) = 11.12049 20.14122 15.63085
#
# Velocity S-wave (km/s) = 2.46061 3.31149 2.91724
# Velocity P-wave (km/s) = 5.38118 6.68803 6.06988
#
# Compressibility (1/GPa) = 0.02607016
#
# Stress axis : x y z
#
# Youngs Moduli (GPa) = 31.28238 9.99171 49.20724
#
# Poissons Ratio (x) = 0.36912 -0.28875
# Poissons Ratio (y) = 1.15566 1.57838
# Poissons Ratio (z) = -0.18356 0.32049
#
# Static dielectric constant tensor:
#      x y z
#    x 1.635150 0.000000 0.000000 
#    y 0.000000 1.613200 0.000000 
#    z 0.000000 0.000000 1.614780 
# 
# From -- ./inp_files/27228.got.cif
#   From: 2010.05.17/outbox.cif.g08.bks.cpg/sg62_14_cif.got.tgz:27228.got - 2010.06.03 15:25:27.
