data_PCOD9462703
_publ_section_title
;
Structure prediction by ZEFSAII (Michael W. Deem and Ramdas Pophale) SiO2 
 PCOD9462703
Probable space group: P N M A
;
_chemical_formula_sum "Si O2"
_cell_formula_units_Z 40
_cell_length_a 24.164649
_cell_length_b 7.513968
_cell_length_c 8.009900
_cell_angle_alpha 90.000000
_cell_angle_beta 90.000000
_cell_angle_gamma 90.000000
_cell_volume 1454.376761
_symmetry_space_group_name_H-M "P N M A"
_symmetry_group_IT_number 62
_symmetry_cell_setting 'orthorhombic'
loop_
_space_group_symop_operation_xyz
x,y,z
1/2-x,-y,1/2+z
1/2+x,1/2-y,1/2-z
-x,1/2+y,-z
-x,-y,-z
1/2+x,y,1/2-z
1/2-x,1/2+y,1/2+z
x,1/2-y,z
loop_
_atom_site_type_symbol
_atom_site_label
_atom_site_fract_x
_atom_site_fract_y
_atom_site_fract_z
Si Si1 0.837684 0.456977 0.423817
Si Si2 0.632591 0.464271 0.455117
Si Si3 0.436815 0.040257 0.877574
Si Si4 0.262646 0.044458 0.367608
Si Si5 0.465325 0.962531 0.330761
O O1 0.846898 0.250000 0.384703
O O2 0.896639 0.537426 0.479292
O O3 0.800286 0.539950 0.278016
O O4 0.795196 0.462887 0.579695
O O5 0.633840 0.250000 0.454009
O O6 0.600514 0.522866 0.290041
O O7 0.694328 0.533516 0.477966
O O8 0.595284 0.526592 0.614347
O O9 0.443103 0.250000 0.907674
O O10 0.496647 0.965197 0.820530
O O11 0.251482 0.250000 0.324307
O O12 0.462806 0.750000 0.311614
O O13 0.500000 0.000000 0.500000
#
# Coordination Sequence:
#
# PCOD9462703 Si02
#       5
#     8   8   8   8   8
#     4  10  22  38  55  76 101 131 169 212 256 306
#     4  10  19  32  52  79 108 136 171 211 249 295
#     4   9  17  33  56  79 105 137 171 208 253 300
#     4  11  23  37  53  74 101 133 169 210 257 306
#     4   8  15  28  49  76 104 135 169 205 245 293
#
# _framework density 27.503191000000001
#
# number of rings (size 3 to 8) (size 9 to 14) (size 15 to 20)
#    0.000    2.400    0.000    2.400    0.000    6.400 
#    0.000    1.000    0.000    0.000    0.000    0.000 
#    0.000    0.000    0.000    0.000    0.000    0.000 
#
# Total GULP energy -223866.306119 kJ/mol
# GULP energy per Si atom -5596.657653 kJ/mol
# Density = 2.744059 g / cm^3
# Si number density = 27.503191 Si / 1000 Ang^3
#
#
#
# Elastic Constant Matrix: (Units=GPa)
#
#
# Indices 1 2 3 4 5 6 
#
# 1 200.7695 13.8891 20.7694 0.0000 0.0000 0.0000
# 2 13.8891 124.5889 16.6545 0.0000 0.0000 0.0000
# 3 20.7694 16.6545 102.6294 0.0000 0.0000 0.0000
# 4 0.0000 0.0000 0.0000 20.5498 0.0000 0.0000
# 5 0.0000 0.0000 0.0000 0.0000 62.2409 0.0000
# 6 0.0000 0.0000 0.0000 0.0000 0.0000 13.1582
#
#
#
# Elastic Compliance Matrix: (Units=1/GPa)
#
#
# Indices 1 2 3 4 5 6 
#
# 1 0.005111 -0.000441 -0.000963 0.000000 0.000000 0.000000
# 2 -0.000441 0.008242 -0.001248 0.000000 0.000000 0.000000
# 3 -0.000963 -0.001248 0.010141 0.000000 0.000000 0.000000
# 4 0.000000 0.000000 0.000000 0.048662 0.000000 0.000000
# 5 0.000000 0.000000 0.000000 0.000000 0.016067 0.000000
# 6 0.000000 0.000000 0.000000 0.000000 0.000000 0.075998
#
#
# Mechanical properties :
#
#
# Convention : Reuss Voigt Hill
#
# Bulk Modulus (GPa) = 54.97421 58.95708 56.96565
# Shear Modulus (GPa) = 28.47550 44.30143 36.38847
#
# Velocity S-wave (km/s) = 3.22118 4.01780 3.64134
# Velocity P-wave (km/s) = 5.81948 6.55794 6.19972
#
# Compressibility (1/GPa) = 0.01819035
#
# Stress axis : x y z
#
# Youngs Moduli (GPa) = 195.65864 121.32332 98.60768
#
# Poissons Ratio (x) = 0.05351 0.09493
# Poissons Ratio (y) = 0.08630 0.12309
# Poissons Ratio (z) = 0.18837 0.15145
#
# Static dielectric constant tensor:
#      x y z
#    x 2.125160 0.000000 0.000000 
#    y 0.000000 -2.355720 0.000000 
#    z 0.000000 0.000000 2.320170 
# 
# From -- ./inp_files/9088.got.cif
#   From: 2010.05.17/outbox.cif.g08.bks.cpg/sg62_5_cif.got.tgz:9088.got - 2010.06.03 15:25:27.
