data_PCOD9462256
_publ_section_title
;
Structure prediction by ZEFSAII (Michael W. Deem and Ramdas Pophale) SiO2 
 PCOD9462256
Probable space group: P N M A
;
_chemical_formula_sum "Si O2"
_cell_formula_units_Z 48
_cell_length_a 14.374006
_cell_length_b 17.243445
_cell_length_c 9.680923
_cell_angle_alpha 90.000000
_cell_angle_beta 90.000000
_cell_angle_gamma 90.000000
_cell_volume 2399.488229
_symmetry_space_group_name_H-M "P N M A"
_symmetry_group_IT_number 62
_symmetry_cell_setting 'orthorhombic'
loop_
_space_group_symop_operation_xyz
x,y,z
1/2-x,-y,1/2+z
1/2+x,1/2-y,1/2-z
-x,1/2+y,-z
-x,-y,-z
1/2+x,y,1/2-z
1/2-x,1/2+y,1/2+z
x,1/2-y,z
loop_
_atom_site_type_symbol
_atom_site_label
_atom_site_fract_x
_atom_site_fract_y
_atom_site_fract_z
Si Si1 0.406368 0.054088 0.508534
Si Si2 0.443084 0.839669 0.834774
Si Si3 0.837720 0.894798 0.926479
Si Si4 0.145682 0.596887 0.699551
Si Si5 0.079644 0.053912 0.566640
Si Si6 0.963329 0.841868 0.172567
O O1 0.366145 0.085737 0.364408
O O2 0.443321 0.124940 0.599996
O O3 0.500000 0.000000 0.500000
O O4 0.339000 0.988675 0.570480
O O5 0.424718 0.750000 0.858431
O O6 0.414081 0.864439 0.681780
O O7 0.552918 0.857880 0.849125
O O8 0.386041 0.893688 0.940401
O O9 0.739008 0.867488 0.865237
O O10 0.874813 0.864452 0.074390
O O11 0.141914 0.509480 0.640873
O O12 0.044890 0.112605 0.683792
O O13 0.000000 0.000000 0.500000
O O14 0.966321 0.750000 0.189534
#
# Coordination Sequence:
#
# PCOD9462256 Si02
#       6
#     8   8   8   8   8   8
#     4  10  18  40  64  93 118 166 225 271 318 384
#     4  11  23  40  61  94 133 166 207 269 336 389
#     4  11  23  38  67  96 126 172 228 267 318 397
#     4  11  22  39  66  92 126 169 220 269 320 385
#     4  10  21  39  64  92 120 167 215 264 317 386
#     4  11  21  40  67  94 129 170 214 272 334 392
#
# _framework density 20.004266000000001
#
# number of rings (size 3 to 8) (size 9 to 14) (size 15 to 20)
#    0.000    1.333    6.667    2.000    2.333    1.333 
#    0.000    0.000    0.000    2.000    0.000    0.000 
#    0.000    0.000    0.000    0.000    0.000    0.000 
#
# Total GULP energy -267528.069877 kJ/mol
# GULP energy per Si atom -5573.501456 kJ/mol
# Density = 1.995874 g / cm^3
# Si number density = 20.004266 Si / 1000 Ang^3
#
#
#
# Elastic Constant Matrix: (Units=GPa)
#
#
# Indices 1 2 3 4 5 6 
#
# 1 45.7103 -0.3239 16.3291 0.0000 0.0000 0.0000
# 2 -0.3239 122.9580 28.9828 0.0000 0.0000 0.0000
# 3 16.3291 28.9828 67.2173 0.0000 0.0000 0.0000
# 4 0.0000 0.0000 0.0000 4.4647 0.0000 0.0000
# 5 0.0000 0.0000 0.0000 0.0000 7.2914 0.0000
# 6 0.0000 0.0000 0.0000 0.0000 0.0000 11.3577
#
#
#
# Elastic Compliance Matrix: (Units=1/GPa)
#
#
# Indices 1 2 3 4 5 6 
#
# 1 0.024241 0.001616 -0.006586 0.000000 0.000000 0.000000
# 2 0.001616 0.009161 -0.004343 0.000000 0.000000 0.000000
# 3 -0.006586 -0.004343 0.018349 0.000000 0.000000 0.000000
# 4 0.000000 0.000000 0.000000 0.223978 0.000000 0.000000
# 5 0.000000 0.000000 0.000000 0.000000 0.137148 0.000000
# 6 0.000000 0.000000 0.000000 0.000000 0.000000 0.088046
#
#
# Mechanical properties :
#
#
# Convention : Reuss Voigt Hill
#
# Bulk Modulus (GPa) = 30.18690 36.20685 33.19688
# Shear Modulus (GPa) = 9.42348 17.34926 13.38637
#
# Velocity S-wave (km/s) = 2.17278 2.94815 2.58965
# Velocity P-wave (km/s) = 4.62792 5.45231 5.05694
#
# Compressibility (1/GPa) = 0.03312695
#
# Stress axis : x y z
#
# Youngs Moduli (GPa) = 41.25238 109.16182 54.49761
#
# Poissons Ratio (x) = -0.17643 0.35891
# Poissons Ratio (y) = -0.06667 0.23666
# Poissons Ratio (z) = 0.27168 0.47404
#
# Static dielectric constant tensor:
#      x y z
#    x 1.767510 0.000000 0.000000 
#    y 0.000000 1.669230 0.000000 
#    z 0.000000 0.000000 1.752520 
# 
# From -- ./inp_files/6489.got.cif
#   From: 2010.05.17/outbox.cif.g08.bks.cpg/sg62_4_cif.got.tgz:6489.got - 2010.06.03 15:25:27.
