data_PCOD9462733
_publ_section_title
;
Structure prediction by ZEFSAII (Michael W. Deem and Ramdas Pophale) SiO2 
 PCOD9462733
Probable space group: P N M A
;
_chemical_formula_sum "Si O2"
_cell_formula_units_Z 48
_cell_length_a 18.530884
_cell_length_b 8.417859
_cell_length_c 17.100613
_cell_angle_alpha 90.000000
_cell_angle_beta 90.000000
_cell_angle_gamma 90.000000
_cell_volume 2667.530926
_symmetry_space_group_name_H-M "P N M A"
_symmetry_group_IT_number 62
_symmetry_cell_setting 'orthorhombic'
loop_
_space_group_symop_operation_xyz
x,y,z
1/2-x,-y,1/2+z
1/2+x,1/2-y,1/2-z
-x,1/2+y,-z
-x,-y,-z
1/2+x,y,1/2-z
1/2-x,1/2+y,1/2+z
x,1/2-y,z
loop_
_atom_site_type_symbol
_atom_site_label
_atom_site_fract_x
_atom_site_fract_y
_atom_site_fract_z
Si Si1 0.445068 0.440010 0.760616
Si Si2 0.980916 0.059441 0.413914
Si Si3 0.171437 0.442153 0.143636
Si Si4 0.418231 0.557972 0.493243
Si Si5 0.404505 0.941555 0.319251
Si Si6 0.333418 0.059225 0.166175
O O1 0.442050 0.250000 0.762264
O O2 0.463441 0.501372 0.847273
O O3 0.373612 0.504819 0.719402
O O4 0.514195 0.488068 0.707074
O O5 0.980687 0.250000 0.413628
O O6 0.901234 0.002000 0.385930
O O7 0.000000 0.000000 0.500000
O O8 0.172071 0.250000 0.142469
O O9 0.254018 0.499142 0.143810
O O10 0.128990 0.498381 0.066346
O O11 0.500000 0.500000 0.500000
O O12 0.418513 0.750000 0.494433
O O13 0.390140 0.507646 0.407893
O O14 0.400729 0.750000 0.315283
O O15 0.351693 0.012494 0.254877
O O16 0.332878 0.250000 0.160026
#
# Coordination Sequence:
#
# PCOD9462733 Si02
#       6
#     8   8   8   8   8   8
#     4  10  19  33  55  80 106 138 179 221 265 322
#     4  10  20  37  59  81 107 142 186 230 271 322
#     4  10  20  35  54  78 111 143 176 221 274 324
#     4  10  19  32  53  80 109 140 176 218 264 319
#     4   9  18  33  52  77 105 137 178 216 257 315
#     4   9  20  37  55  76 107 144 179 219 271 323
#
# _framework density 17.994167000000001
#
# number of rings (size 3 to 8) (size 9 to 14) (size 15 to 20)
#    0.000    2.333    1.667    1.000    0.000    2.667 
#    3.000    0.000    0.000    0.000    0.000    0.000 
#    0.000    0.000    0.000    0.000    0.000    0.000 
#
# Total GULP energy -267754.640675 kJ/mol
# GULP energy per Si atom -5578.221681 kJ/mol
# Density = 1.795321 g / cm^3
# Si number density = 17.994167 Si / 1000 Ang^3
#
#
#
# Elastic Constant Matrix: (Units=GPa)
#
#
# Indices 1 2 3 4 5 6 
#
# 1 129.3953 15.7258 88.0141 0.0000 0.0000 0.0000
# 2 15.7258 11.0508 18.9500 0.0000 0.0000 0.0000
# 3 88.0141 18.9500 169.7856 0.0000 0.0000 0.0000
# 4 0.0000 0.0000 0.0000 27.8239 0.0000 0.0000
# 5 0.0000 0.0000 0.0000 0.0000 22.8001 0.0000
# 6 0.0000 0.0000 0.0000 0.0000 0.0000 20.0619
#
#
#
# Elastic Compliance Matrix: (Units=1/GPa)
#
#
# Indices 1 2 3 4 5 6 
#
# 1 0.012520 -0.008270 -0.005567 0.000000 0.000000 0.000000
# 2 -0.008270 0.117372 -0.008813 0.000000 0.000000 0.000000
# 3 -0.005567 -0.008813 0.009759 0.000000 0.000000 0.000000
# 4 0.000000 0.000000 0.000000 0.035940 0.000000 0.000000
# 5 0.000000 0.000000 0.000000 0.000000 0.043859 0.000000
# 6 0.000000 0.000000 0.000000 0.000000 0.000000 0.049846
#
#
# Mechanical properties :
#
#
# Convention : Reuss Voigt Hill
#
# Bulk Modulus (GPa) = 10.59868 61.73460 36.16664
# Shear Modulus (GPa) = 14.44885 26.63998 20.54442
#
# Velocity S-wave (km/s) = 2.83675 3.85187 3.38261
# Velocity P-wave (km/s) = 4.07829 7.35970 5.94969
#
# Compressibility (1/GPa) = 0.09435140
#
# Stress axis : x y z
#
# Youngs Moduli (GPa) = 79.87142 8.51989 102.46580
#
# Poissons Ratio (x) = 0.07046 0.57045
# Poissons Ratio (y) = 0.66054 0.90303
# Poissons Ratio (z) = 0.44466 0.07509
#
# Static dielectric constant tensor:
#      x y z
#    x 1.610350 0.000000 0.000000 
#    y 0.000000 1.616780 0.000000 
#    z 0.000000 0.000000 1.606430 
# 
# From -- ./inp_files/24215.got.cif
#   From: 2010.05.17/outbox.cif.g08.bks.cpg/sg62_13_cif.got.tgz:24215.got - 2010.06.03 15:25:27.
