data_PCOD9462299
_publ_section_title
;
Structure prediction by ZEFSAII (Michael W. Deem and Ramdas Pophale) SiO2 
 PCOD9462299
Probable space group: P N M A
;
_chemical_formula_sum "Si O2"
_cell_formula_units_Z 48
_cell_length_a 8.038824
_cell_length_b 16.457957
_cell_length_c 11.756417
_cell_angle_alpha 90.000000
_cell_angle_beta 90.000000
_cell_angle_gamma 90.000000
_cell_volume 1555.404768
_symmetry_space_group_name_H-M "P N M A"
_symmetry_group_IT_number 62
_symmetry_cell_setting 'orthorhombic'
loop_
_space_group_symop_operation_xyz
x,y,z
1/2-x,-y,1/2+z
1/2+x,1/2-y,1/2-z
-x,1/2+y,-z
-x,-y,-z
1/2+x,y,1/2-z
1/2-x,1/2+y,1/2+z
x,1/2-y,z
loop_
_atom_site_type_symbol
_atom_site_label
_atom_site_fract_x
_atom_site_fract_y
_atom_site_fract_z
Si Si1 0.381494 0.915442 0.380710
Si Si2 0.096148 0.421838 0.133177
Si Si3 0.483560 0.250000 0.380451
Si Si4 0.585436 0.750000 0.149816
Si Si5 0.370816 0.250000 0.094503
Si Si6 0.614747 0.080357 0.868300
Si Si7 0.595966 0.088303 0.120630
Si Si8 0.590328 0.750000 0.385598
O O1 0.309456 0.914946 0.510412
O O2 0.293988 0.919222 0.255811
O O3 0.483837 0.831998 0.379550
O O4 0.501428 0.993096 0.375931
O O5 0.970727 0.345805 0.141081
O O6 0.184008 0.415841 0.255829
O O7 0.688589 0.250000 0.349998
O O8 0.349946 0.250000 0.486781
O O9 0.486233 0.665408 0.138771
O O10 0.685836 0.750000 0.267235
O O11 0.688111 0.750000 0.035775
O O12 0.483218 0.170615 0.117924
O O13 0.510045 0.996515 0.873807
O O14 0.686852 0.084749 0.997236
#
# Coordination Sequence:
#
# PCOD9462299 Si02
#       8
#     8   8   4   4   4   8   8   4
#     4   8  14  25  45  70  90 110 152 197 225 261
#     4   9  16  27  45  68  90 122 160 190 221 273
#     4  10  19  29  44  71 101 124 152 198 249 285
#     4   8  14  27  48  71  90 118 160 198 228 279
#     4  10  19  29  44  71 101 124 152 198 249 285
#     4   8  14  25  45  70  90 110 152 197 225 261
#     4   9  16  27  45  68  90 122 160 190 221 273
#     4   8  14  27  48  71  90 118 160 198 228 279
#
# _framework density 30.860136000000001
#
# number of rings (size 3 to 8) (size 9 to 14) (size 15 to 20)
#    0.000    3.333    0.000    0.500    0.000    0.000 
#    0.000    0.000    0.000   72.000    0.000   53.667 
#    0.000    0.000    0.000    0.000    0.000    0.000 
#
# Total GULP energy -267550.367442 kJ/mol
# GULP energy per Si atom -5573.965988 kJ/mol
# Density = 3.078990 g / cm^3
# Si number density = 30.860136 Si / 1000 Ang^3
#
#
#
# Elastic Constant Matrix: (Units=GPa)
#
#
# Indices 1 2 3 4 5 6 
#
# 1 66.6499 94.9791 53.0797 0.0000 0.0000 0.0000
# 2 94.9791 342.0562 15.1405 0.0000 0.0000 0.0000
# 3 53.0797 15.1405 333.6121 0.0000 0.0000 0.0000
# 4 0.0000 0.0000 0.0000 20.5469 0.0000 0.0000
# 5 0.0000 0.0000 0.0000 0.0000 0.3238 0.0000
# 6 0.0000 0.0000 0.0000 0.0000 0.0000 83.5666
#
#
#
# Elastic Compliance Matrix: (Units=1/GPa)
#
#
# Indices 1 2 3 4 5 6 
#
# 1 0.030210 -0.008192 -0.004435 0.000000 0.000000 0.000000
# 2 -0.008192 0.005151 0.001070 0.000000 0.000000 0.000000
# 3 -0.004435 0.001070 0.003655 0.000000 0.000000 0.000000
# 4 0.000000 0.000000 0.000000 0.048669 0.000000 0.000000
# 5 0.000000 0.000000 0.000000 0.000000 3.087920 0.000000
# 6 0.000000 0.000000 0.000000 0.000000 0.000000 0.011967
#
#
# Mechanical properties :
#
#
# Convention : Reuss Voigt Hill
#
# Bulk Modulus (GPa) = 62.89035 118.74632 90.81833
# Shear Modulus (GPa) = 1.55473 59.49541 30.52507
#
# Velocity S-wave (km/s) = 0.71056 4.39555 3.14848
# Velocity P-wave (km/s) = 4.59310 8.02020 6.53530
#
# Compressibility (1/GPa) = 0.01590069
#
# Stress axis : x y z
#
# Youngs Moduli (GPa) = 33.10208 194.14304 273.63196
#
# Poissons Ratio (x) = 1.59043 1.21349
# Poissons Ratio (y) = 0.27117 -0.29269
# Poissons Ratio (z) = 0.14680 -0.20766
#
# Static dielectric constant tensor:
#      x y z
#    x 2.357780 0.000000 0.000000 
#    y 0.000000 2.309040 0.000000 
#    z 0.000000 0.000000 2.483490 
# 
# From -- ./inp_files/13347.got.cif
#   From: 2010.05.17/outbox.cif.g08.bks.cpg/sg62_7_cif.got.tgz:13347.got - 2010.06.03 15:25:27.
