data_PCOD9462686
_publ_section_title
;
Structure prediction by ZEFSAII (Michael W. Deem and Ramdas Pophale) SiO2 
 PCOD9462686
Probable space group: P N M A
;
_chemical_formula_sum "Si O2"
_cell_formula_units_Z 48
_cell_length_a 11.092355
_cell_length_b 13.674521
_cell_length_c 17.676523
_cell_angle_alpha 90.000000
_cell_angle_beta 90.000000
_cell_angle_gamma 90.000000
_cell_volume 2681.221699
_symmetry_space_group_name_H-M "P N M A"
_symmetry_group_IT_number 62
_symmetry_cell_setting 'orthorhombic'
loop_
_space_group_symop_operation_xyz
x,y,z
1/2-x,-y,1/2+z
1/2+x,1/2-y,1/2-z
-x,1/2+y,-z
-x,-y,-z
1/2+x,y,1/2-z
1/2-x,1/2+y,1/2+z
x,1/2-y,z
loop_
_atom_site_type_symbol
_atom_site_label
_atom_site_fract_x
_atom_site_fract_y
_atom_site_fract_z
Si Si1 0.509208 0.860175 0.387839
Si Si2 0.879848 0.359455 0.719101
Si Si3 0.871663 0.863260 0.598901
Si Si4 0.926398 0.494910 0.338476
Si Si5 0.267680 0.862877 0.068149
Si Si6 0.826532 0.498719 0.178462
O O1 0.458045 0.750000 0.399915
O O2 0.571586 0.859498 0.304686
O O3 0.623542 0.873961 0.442584
O O4 0.414966 0.948823 0.381814
O O5 0.869523 0.250000 0.691745
O O6 0.976642 0.418545 0.671243
O O7 0.753310 0.412600 0.711593
O O8 0.871760 0.750000 0.621574
O O9 0.000922 0.912113 0.616465
O O10 0.838154 0.868985 0.510621
O O11 0.766458 0.921952 0.643131
O O12 0.816174 0.548545 0.380236
O O13 0.894305 0.459702 0.253376
O O14 0.284598 0.750000 0.098491
#
# Coordination Sequence:
#
# PCOD9462686 Si02
#       6
#     8   8   8   8   8   8
#     4   9  17  28  49  78 106 132 155 196 256 313
#     4   9  16  27  47  80 110 129 159 203 256 310
#     4  10  23  38  52  72 100 140 181 217 254 295
#     4  10  19  33  55  77 100 135 176 217 253 298
#     4  10  19  34  55  80 109 134 162 205 265 322
#     4  10  19  32  52  76 103 135 172 210 251 302
#
# _framework density 17.902286
#
# number of rings (size 3 to 8) (size 9 to 14) (size 15 to 20)
#    0.000    2.333    1.667    1.500    0.000    2.667 
#    0.000    0.000    0.000    1.000    0.000    0.000 
#    0.000    0.000    0.000    0.000    0.000    0.000 
#
# Total GULP energy -267365.935153 kJ/mol
# GULP energy per Si atom -5570.123649 kJ/mol
# Density = 1.786154 g / cm^3
# Si number density = 17.902286 Si / 1000 Ang^3
#
#
#
# Elastic Constant Matrix: (Units=GPa)
#
#
# Indices 1 2 3 4 5 6 
#
# 1 50.1761 24.5585 -2.1746 0.0000 0.0000 0.0000
# 2 24.5585 84.3394 15.5728 0.0000 0.0000 0.0000
# 3 -2.1746 15.5728 22.7859 0.0000 0.0000 0.0000
# 4 0.0000 0.0000 0.0000 13.0351 0.0000 0.0000
# 5 0.0000 0.0000 0.0000 0.0000 11.6905 0.0000
# 6 0.0000 0.0000 0.0000 0.0000 0.0000 21.6802
#
#
#
# Elastic Compliance Matrix: (Units=1/GPa)
#
#
# Indices 1 2 3 4 5 6 
#
# 1 0.024531 -0.008670 0.008266 0.000000 0.000000 0.000000
# 2 -0.008670 0.016633 -0.012195 0.000000 0.000000 0.000000
# 3 0.008266 -0.012195 0.053010 0.000000 0.000000 0.000000
# 4 0.000000 0.000000 0.000000 0.076716 0.000000 0.000000
# 5 0.000000 0.000000 0.000000 0.000000 0.085539 0.000000
# 6 0.000000 0.000000 0.000000 0.000000 0.000000 0.046125
#
#
# Mechanical properties :
#
#
# Convention : Reuss Voigt Hill
#
# Bulk Modulus (GPa) = 14.49737 25.91276 20.20507
# Shear Modulus (GPa) = 14.25540 17.23748 15.74644
#
# Velocity S-wave (km/s) = 2.82492 3.10637 2.96898
# Velocity P-wave (km/s) = 4.33081 5.23183 4.80250
#
# Compressibility (1/GPa) = 0.06897801
#
# Stress axis : x y z
#
# Youngs Moduli (GPa) = 40.76425 60.12124 18.86424
#
# Poissons Ratio (x) = 0.52122 -0.15594
# Poissons Ratio (y) = 0.35341 0.23005
# Poissons Ratio (z) = -0.33697 0.73318
#
# Static dielectric constant tensor:
#      x y z
#    x 1.639940 0.000000 0.000000 
#    y 0.000000 1.608090 0.000000 
#    z 0.000000 0.000000 1.640100 
# 
# From -- ./inp_files/22997.got.cif
#   From: 2010.05.17/outbox.cif.g08.bks.cpg/sg62_12_cif.got.tgz:22997.got - 2010.06.03 15:25:27.
