data_PCOD9462164
_publ_section_title
;
Structure prediction by ZEFSAII (Michael W. Deem and Ramdas Pophale) SiO2 
 PCOD9462164
Probable space group: P N M A
;
_chemical_formula_sum "Si O2"
_cell_formula_units_Z 52
_cell_length_a 25.085196
_cell_length_b 12.288454
_cell_length_c 7.661520
_cell_angle_alpha 90.000000
_cell_angle_beta 90.000000
_cell_angle_gamma 90.000000
_cell_volume 2361.726955
_symmetry_space_group_name_H-M "P N M A"
_symmetry_group_IT_number 62
_symmetry_cell_setting 'orthorhombic'
loop_
_space_group_symop_operation_xyz
x,y,z
1/2-x,-y,1/2+z
1/2+x,1/2-y,1/2-z
-x,1/2+y,-z
-x,-y,-z
1/2+x,y,1/2-z
1/2-x,1/2+y,1/2+z
x,1/2-y,z
loop_
_atom_site_type_symbol
_atom_site_label
_atom_site_fract_x
_atom_site_fract_y
_atom_site_fract_z
Si Si1 0.909594 0.624597 0.751613
Si Si2 0.389250 0.623791 0.172088
Si Si3 0.423033 0.250000 0.242596
Si Si4 0.367741 0.250000 0.588196
Si Si5 0.983051 0.027170 0.303562
Si Si6 0.303151 0.250000 0.252071
Si Si7 0.823812 0.037667 0.780060
Si Si8 0.711950 0.983788 0.883223
O O1 0.917121 0.750000 0.801590
O O2 0.899803 0.622873 0.539605
O O3 0.857577 0.568401 0.831067
O O4 0.961734 0.552760 0.793819
O O5 0.383393 0.750000 0.223144
O O6 0.440858 0.564361 0.254585
O O7 0.336073 0.552049 0.205893
O O8 0.416356 0.250000 0.453061
O O9 0.452149 0.358740 0.188818
O O10 0.362922 0.250000 0.169571
O O11 0.317182 0.250000 0.455788
O O12 0.362046 0.359418 0.694872
O O13 0.000000 0.000000 0.500000
O O14 0.278152 0.364329 0.198538
O O15 0.807059 0.032135 0.579617
O O16 0.768117 0.044770 0.880221
#
# Coordination Sequence:
#
# PCOD9462164 Si02
#       8
#     8   8   4   4   8   4   8   8
#     4   9  19  35  57  87 123 161 207 265 323 381
#     4   9  18  33  54  90 126 161 204 264 323 380
#     4  10  20  38  67  86 126 169 221 252 340 378
#     4  10  23  43  62  83 128 173 216 266 322 394
#     4  10  18  34  62  95 123 166 212 267 318 403
#     4  10  21  39  65  89 120 174 213 266 330 390
#     4  11  24  40  61  96 126 172 222 274 333 398
#     4  11  22  38  63  92 129 165 221 274 333 404
#
# _framework density 22.017786000000001
#
# number of rings (size 3 to 8) (size 9 to 14) (size 15 to 20)
#    0.462    1.538    2.308    1.385    3.231    0.000 
#    1.385    0.769    0.000    0.923    0.000    0.000 
#    0.000    0.000    0.000    0.000    0.000    0.000 
#
# Total GULP energy -290279.791881 kJ/mol
# GULP energy per Si atom -5582.303690 kJ/mol
# Density = 2.196767 g / cm^3
# Si number density = 22.017786 Si / 1000 Ang^3
#
#
#
# Elastic Constant Matrix: (Units=GPa)
#
#
# Indices 1 2 3 4 5 6 
#
# 1 107.4295 46.5871 5.8872 0.0000 0.0000 0.0000
# 2 46.5871 126.7818 15.1299 0.0000 0.0000 0.0000
# 3 5.8872 15.1299 38.4753 0.0000 0.0000 0.0000
# 4 0.0000 0.0000 0.0000 20.1155 0.0000 0.0000
# 5 0.0000 0.0000 0.0000 0.0000 22.0775 0.0000
# 6 0.0000 0.0000 0.0000 0.0000 0.0000 39.1031
#
#
#
# Elastic Compliance Matrix: (Units=1/GPa)
#
#
# Indices 1 2 3 4 5 6 
#
# 1 0.011073 -0.004057 -0.000099 0.000000 0.000000 0.000000
# 2 -0.004057 0.009762 -0.003218 0.000000 0.000000 0.000000
# 3 -0.000099 -0.003218 0.027271 0.000000 0.000000 0.000000
# 4 0.000000 0.000000 0.000000 0.049713 0.000000 0.000000
# 5 0.000000 0.000000 0.000000 0.000000 0.045295 0.000000
# 6 0.000000 0.000000 0.000000 0.000000 0.000000 0.025573
#
#
# Mechanical properties :
#
#
# Convention : Reuss Voigt Hill
#
# Bulk Modulus (GPa) = 29.97727 45.32164 37.64946
# Shear Modulus (GPa) = 25.69949 29.93138 27.81544
#
# Velocity S-wave (km/s) = 3.42016 3.69103 3.55817
# Velocity P-wave (km/s) = 5.40752 6.22846 5.83245
#
# Compressibility (1/GPa) = 0.03335861
#
# Stress axis : x y z
#
# Youngs Moduli (GPa) = 90.30769 102.43324 36.66850
#
# Poissons Ratio (x) = 0.41559 0.00363
# Poissons Ratio (y) = 0.36639 0.11801
# Poissons Ratio (z) = 0.00893 0.32965
#
# Static dielectric constant tensor:
#      x y z
#    x 1.791790 0.000000 0.000000 
#    y 0.000000 1.779350 0.000000 
#    z 0.000000 0.000000 1.843650 
# 
# From -- ./inp_files/9871.got.cif
#   From: 2010.05.17/outbox.cif.g08.bks.cpg/sg62_5_cif.got.tgz:9871.got - 2010.06.03 15:25:27.
