data_PCOD9462930
_publ_section_title
;
Structure prediction by ZEFSAII (Michael W. Deem and Ramdas Pophale) SiO2 
 PCOD9462930
Probable space group: P N M A
;
_chemical_formula_sum "Si O2"
_cell_formula_units_Z 64
_cell_length_a 15.778283
_cell_length_b 8.708661
_cell_length_c 24.446327
_cell_angle_alpha 90.000000
_cell_angle_beta 90.000000
_cell_angle_gamma 90.000000
_cell_volume 3359.114002
_symmetry_space_group_name_H-M "P N M A"
_symmetry_group_IT_number 62
_symmetry_cell_setting 'orthorhombic'
loop_
_space_group_symop_operation_xyz
x,y,z
1/2-x,-y,1/2+z
1/2+x,1/2-y,1/2-z
-x,1/2+y,-z
-x,-y,-z
1/2+x,y,1/2-z
1/2-x,1/2+y,1/2+z
x,1/2-y,z
loop_
_atom_site_type_symbol
_atom_site_label
_atom_site_fract_x
_atom_site_fract_y
_atom_site_fract_z
Si Si1 0.690425 0.065729 0.808242
Si Si2 0.621051 0.068307 0.542602
Si Si3 0.120483 0.934905 0.193792
Si Si4 0.038041 0.436002 0.397071
Si Si5 0.795465 0.933484 0.540487
Si Si6 0.483468 0.433995 0.224261
Si Si7 0.066852 0.934130 0.072738
Si Si8 0.646915 0.934379 0.927158
O O1 0.685907 0.250000 0.810334
O O2 0.784391 0.021850 0.788028
O O3 0.611302 0.001988 0.773901
O O4 0.679771 0.000701 0.869767
O O5 0.633809 0.250000 0.544880
O O6 0.533679 0.030756 0.573697
O O7 0.705067 0.985651 0.563341
O O8 0.604939 0.017536 0.479892
O O9 0.112516 0.750000 0.197480
O O10 0.109065 0.976322 0.129967
O O11 0.046605 0.009871 0.229101
O O12 0.041256 0.250000 0.396843
O O13 0.124687 0.491261 0.424071
O O14 0.022463 0.484238 0.334510
O O15 0.952897 0.478665 0.429857
O O16 0.798387 0.750000 0.537833
O O17 0.805915 0.999389 0.479482
O O18 0.477441 0.250000 0.224214
O O19 0.076061 0.750000 0.064547
O O20 0.653330 0.750000 0.925995
#
# Coordination Sequence:
#
# PCOD9462930 Si02
#       8
#     8   8   8   8   8   8   8   8
#     4  10  20  36  59  85 113 146 186 228 283 341
#     4  10  20  34  53  80 112 143 178 223 273 324
#     4  10  21  38  60  84 109 144 187 231 279 334
#     4   8  18  35  52  73 106 144 179 224 274 322
#     4  11  20  32  51  76 109 148 184 217 270 335
#     4  10  21  39  59  81 112 146 186 237 284 325
#     4   9  19  37  58  79 109 143 178 225 276 329
#     4  10  19  33  54  81 111 140 184 234 275 321
#
# _framework density 19.052641999999999
#
# number of rings (size 3 to 8) (size 9 to 14) (size 15 to 20)
#    0.000    2.250    0.000    3.750    0.000    3.000 
#    2.250    6.875    0.000    0.000    0.000    0.000 
#    0.000    0.000    0.000    0.000    0.000    0.000 
#
# Total GULP energy -357292.469380 kJ/mol
# GULP energy per Si atom -5582.694834 kJ/mol
# Density = 1.900928 g / cm^3
# Si number density = 19.052642 Si / 1000 Ang^3
#
#
#
# Elastic Constant Matrix: (Units=GPa)
#
#
# Indices 1 2 3 4 5 6 
#
# 1 144.7225 43.0855 31.1841 0.0000 0.0000 0.0000
# 2 43.0855 45.2161 13.4342 0.0000 0.0000 0.0000
# 3 31.1841 13.4342 21.3299 0.0000 0.0000 0.0000
# 4 0.0000 0.0000 0.0000 21.3973 0.0000 0.0000
# 5 0.0000 0.0000 0.0000 0.0000 18.0622 0.0000
# 6 0.0000 0.0000 0.0000 0.0000 0.0000 29.3691
#
#
#
# Elastic Compliance Matrix: (Units=1/GPa)
#
#
# Indices 1 2 3 4 5 6 
#
# 1 0.011880 -0.007578 -0.012595 0.000000 0.000000 0.000000
# 2 -0.007578 0.032041 -0.009102 0.000000 0.000000 0.000000
# 3 -0.012595 -0.009102 0.071029 0.000000 0.000000 0.000000
# 4 0.000000 0.000000 0.000000 0.046735 0.000000 0.000000
# 5 0.000000 0.000000 0.000000 0.000000 0.055364 0.000000
# 6 0.000000 0.000000 0.000000 0.000000 0.000000 0.034049
#
#
# Mechanical properties :
#
#
# Convention : Reuss Voigt Hill
#
# Bulk Modulus (GPa) = 17.73044 42.96401 30.34723
# Shear Modulus (GPa) = 15.22309 22.00335 18.61322
#
# Velocity S-wave (km/s) = 2.82973 3.40203 3.12899
# Velocity P-wave (km/s) = 4.47244 6.16691 5.38672
#
# Compressibility (1/GPa) = 0.05640019
#
# Stress axis : x y z
#
# Youngs Moduli (GPa) = 84.17704 31.21003 14.07872
#
# Poissons Ratio (x) = 0.23650 0.17733
# Poissons Ratio (y) = 0.63787 0.12814
# Poissons Ratio (z) = 1.06023 0.28407
#
# Static dielectric constant tensor:
#      x y z
#    x 1.690240 0.000000 0.000000 
#    y 0.000000 1.639480 0.000000 
#    z 0.000000 0.000000 1.632310 
# 
# From -- ./inp_files/29946.got.cif
#   From: 2010.05.17/outbox.cif.g08.bks.cpg/sg62_15_cif.got.tgz:29946.got - 2010.06.03 15:25:27.
