data_PCOD9462466
_publ_section_title
;
Structure prediction by ZEFSAII (Michael W. Deem and Ramdas Pophale) SiO2 
 PCOD9462466
Probable space group: P N M A
;
_chemical_formula_sum "Si O2"
_cell_formula_units_Z 56
_cell_length_a 9.058658
_cell_length_b 11.417286
_cell_length_c 24.060987
_cell_angle_alpha 90.000000
_cell_angle_beta 90.000000
_cell_angle_gamma 90.000000
_cell_volume 2488.514538
_symmetry_space_group_name_H-M "P N M A"
_symmetry_group_IT_number 62
_symmetry_cell_setting 'orthorhombic'
loop_
_space_group_symop_operation_xyz
x,y,z
1/2-x,-y,1/2+z
1/2+x,1/2-y,1/2-z
-x,1/2+y,-z
-x,-y,-z
1/2+x,y,1/2-z
1/2-x,1/2+y,1/2+z
x,1/2-y,z
loop_
_atom_site_type_symbol
_atom_site_label
_atom_site_fract_x
_atom_site_fract_y
_atom_site_fract_z
Si Si1 0.811511 0.118108 0.328903
Si Si2 0.801369 0.122913 0.664435
Si Si3 0.876151 0.885500 0.727529
Si Si4 0.550365 0.053884 0.912917
Si Si5 0.019791 0.377250 0.050585
Si Si6 0.168870 0.124224 0.471930
Si Si7 0.964822 0.878189 0.076686
O O1 0.817203 0.250000 0.350343
O O2 0.950672 0.107361 0.286248
O O3 0.666446 0.101715 0.291902
O O4 0.844959 0.029294 0.377478
O O5 0.786324 0.250000 0.694881
O O6 0.955320 0.126662 0.630891
O O7 0.668811 0.118660 0.619908
O O8 0.804721 0.998773 0.696985
O O9 0.829605 0.750000 0.711468
O O10 0.636798 0.115195 0.962591
O O11 0.424208 0.974807 0.942082
O O12 0.054555 0.250000 0.075796
O O13 0.050627 0.499048 0.081064
O O14 0.842186 0.380098 0.040976
O O15 0.086937 0.379110 0.988257
O O16 0.113337 0.250000 0.451368
O O17 0.039866 0.750000 0.083721
#
# Coordination Sequence:
#
# PCOD9462466 Si02
#       7
#     8   8   8   8   8   8   8
#     4   9  18  36  58  79 103 134 176 221 267 313
#     4  10  19  33  52  77 104 137 173 213 260 316
#     4   9  19  36  59  81 103 134 172 220 267 318
#     4  10  19  32  51  76 103 141 169 213 260 313
#     4   9  17  30  47  68  98 135 174 212 248 295
#     4  10  19  31  48  75 105 138 177 212 250 309
#     4   9  17  30  47  68  99 135 169 209 254 298
#
# _framework density 22.503387
#
# number of rings (size 3 to 8) (size 9 to 14) (size 15 to 20)
#    0.000    2.571    1.429    0.857    0.000    1.143 
#    2.571    4.286    0.000    0.000    0.000    0.000 
#    0.000    0.000    0.000    0.000    0.000    0.000 
#
# Total GULP energy -312293.926454 kJ/mol
# GULP energy per Si atom -5576.677258 kJ/mol
# Density = 2.245217 g / cm^3
# Si number density = 22.503387 Si / 1000 Ang^3
#
#
#
# Elastic Constant Matrix: (Units=GPa)
#
#
# Indices 1 2 3 4 5 6 
#
# 1 53.8888 12.7542 22.2221 0.0000 0.0000 0.0000
# 2 12.7542 188.7558 31.6702 0.0000 0.0000 0.0000
# 3 22.2221 31.6702 46.1353 0.0000 0.0000 0.0000
# 4 0.0000 0.0000 0.0000 97.0293 0.0000 0.0000
# 5 0.0000 0.0000 0.0000 0.0000 39.6376 0.0000
# 6 0.0000 0.0000 0.0000 0.0000 0.0000 94.9450
#
#
#
# Elastic Compliance Matrix: (Units=1/GPa)
#
#
# Indices 1 2 3 4 5 6 
#
# 1 0.023176 0.000347 -0.011402 0.000000 0.000000 0.000000
# 2 0.000347 0.005993 -0.004281 0.000000 0.000000 0.000000
# 3 -0.011402 -0.004281 0.030106 0.000000 0.000000 0.000000
# 4 0.000000 0.000000 0.000000 0.010306 0.000000 0.000000
# 5 0.000000 0.000000 0.000000 0.000000 0.025229 0.000000
# 6 0.000000 0.000000 0.000000 0.000000 0.000000 0.010532
#
#
# Mechanical properties :
#
#
# Convention : Reuss Voigt Hill
#
# Bulk Modulus (GPa) = 34.96027 46.89697 40.92862
# Shear Modulus (GPa) = 34.35306 61.13128 47.74217
#
# Velocity S-wave (km/s) = 3.91138 5.21770 4.61103
# Velocity P-wave (km/s) = 5.99731 7.56203 6.82467
#
# Compressibility (1/GPa) = 0.02860390
#
# Stress axis : x y z
#
# Youngs Moduli (GPa) = 43.14762 166.87063 33.21613
#
# Poissons Ratio (x) = -0.05790 0.37872
# Poissons Ratio (y) = -0.01497 0.14219
# Poissons Ratio (z) = 0.49195 0.71435
#
# Static dielectric constant tensor:
#      x y z
#    x 1.804160 0.000000 0.000000 
#    y 0.000000 1.957780 0.000000 
#    z 0.000000 0.000000 1.812540 
# 
# From -- ./inp_files/26592.got.cif
#   From: 2010.05.17/outbox.cif.g08.bks.cpg/sg62_14_cif.got.tgz:26592.got - 2010.06.03 15:25:27.
