data_PCOD9462434
_publ_section_title
;
Structure prediction by ZEFSAII (Michael W. Deem and Ramdas Pophale) SiO2 
 PCOD9462434
Probable space group: P N M A
;
_chemical_formula_sum "Si O2"
_cell_formula_units_Z 64
_cell_length_a 24.676189
_cell_length_b 28.486291
_cell_length_c 5.017572
_cell_angle_alpha 90.000000
_cell_angle_beta 90.000000
_cell_angle_gamma 90.000000
_cell_volume 3527.017444
_symmetry_space_group_name_H-M "P N M A"
_symmetry_group_IT_number 62
_symmetry_cell_setting 'orthorhombic'
loop_
_space_group_symop_operation_xyz
x,y,z
1/2-x,-y,1/2+z
1/2+x,1/2-y,1/2-z
-x,1/2+y,-z
-x,-y,-z
1/2+x,y,1/2-z
1/2-x,1/2+y,1/2+z
x,1/2-y,z
loop_
_atom_site_type_symbol
_atom_site_label
_atom_site_fract_x
_atom_site_fract_y
_atom_site_fract_z
Si Si1 0.267200 0.439492 0.529031
Si Si2 0.058996 0.694795 0.238814
Si Si3 0.195805 0.456273 0.024126
Si Si4 0.092150 0.572712 0.785421
Si Si5 0.858761 0.386178 0.710506
Si Si6 0.549069 0.024888 0.844920
Si Si7 0.005243 0.849720 0.727427
Si Si8 0.422005 0.918851 0.645069
O O1 0.240269 0.438050 0.238581
O O2 0.304121 0.486841 0.558001
O O3 0.302010 0.396040 0.643438
O O4 0.217967 0.447501 0.730540
O O5 0.067756 0.750000 0.258408
O O6 0.114364 0.665314 0.290073
O O7 0.014441 0.677367 0.453092
O O8 0.035951 0.679967 0.952206
O O9 0.139132 0.429645 0.056810
O O10 0.101187 0.584581 0.093742
O O11 0.138054 0.593293 0.587509
O O12 0.038981 0.601571 0.695909
O O13 0.913021 0.481863 0.262685
O O14 0.574549 0.058409 0.063942
O O15 0.540234 0.054343 0.574716
O O16 0.500000 0.000000 0.000000
O O17 0.946119 0.866640 0.820018
#
# Coordination Sequence:
#
# PCOD9462434 Si02
#       8
#     8   8   8   8   8   8   8   8
#     4  10  19  35  50  73 102 141 186 226 266 291
#     4  10  21  38  58  83 105 133 170 218 285 351
#     4  10  21  33  52  71 104 146 188 223 249 307
#     4  10  19  31  46  74 104 142 175 209 256 311
#     4  10  20  33  55  75 104 136 176 226 270 324
#     4  12  22  30  48  70 110 151 183 218 248 296
#     4  10  21  34  53  75 110 137 171 213 262 328
#     4  12  23  35  49  76 109 149 188 218 260 302
#
# _framework density 18.145641999999999
#
# number of rings (size 3 to 8) (size 9 to 14) (size 15 to 20)
#    0.000    1.500    1.250    5.250    3.500    2.000 
#    0.000    0.000    0.000    0.000    0.000    5.250 
#    0.000    0.000    0.000    0.000    0.000    0.000 
#
# Total GULP energy -357133.943990 kJ/mol
# GULP energy per Si atom -5580.217875 kJ/mol
# Density = 1.810434 g / cm^3
# Si number density = 18.145642 Si / 1000 Ang^3
#
#
#
# Elastic Constant Matrix: (Units=GPa)
#
#
# Indices 1 2 3 4 5 6 
#
# 1 65.9885 21.1814 -6.8600 0.0000 0.0000 0.0000
# 2 21.1814 84.5936 11.6186 0.0000 0.0000 0.0000
# 3 -6.8600 11.6186 83.1760 0.0000 0.0000 0.0000
# 4 0.0000 0.0000 0.0000 16.8711 0.0000 0.0000
# 5 0.0000 0.0000 0.0000 0.0000 25.1481 0.0000
# 6 0.0000 0.0000 0.0000 0.0000 0.0000 13.1873
#
#
#
# Elastic Compliance Matrix: (Units=1/GPa)
#
#
# Indices 1 2 3 4 5 6 
#
# 1 0.016802 -0.004484 0.002012 0.000000 0.000000 0.000000
# 2 -0.004484 0.013249 -0.002220 0.000000 0.000000 0.000000
# 3 0.002012 -0.002220 0.012499 0.000000 0.000000 0.000000
# 4 0.000000 0.000000 0.000000 0.059273 0.000000 0.000000
# 5 0.000000 0.000000 0.000000 0.000000 0.039764 0.000000
# 6 0.000000 0.000000 0.000000 0.000000 0.000000 0.075831
#
#
# Mechanical properties :
#
#
# Convention : Reuss Voigt Hill
#
# Bulk Modulus (GPa) = 30.15107 31.73754 30.94430
# Shear Modulus (GPa) = 21.02098 24.89583 22.95841
#
# Velocity S-wave (km/s) = 3.40731 3.70807 3.56087
# Velocity P-wave (km/s) = 5.66850 5.98844 5.83067
#
# Compressibility (1/GPa) = 0.03316632
#
# Stress axis : x y z
#
# Youngs Moduli (GPa) = 59.51508 75.47836 80.00757
#
# Poissons Ratio (x) = 0.33841 -0.16098
# Poissons Ratio (y) = 0.26684 0.17765
# Poissons Ratio (z) = -0.11975 0.16760
#
# Static dielectric constant tensor:
#      x y z
#    x 1.711890 0.000000 0.000000 
#    y 0.000000 1.596710 0.000000 
#    z 0.000000 0.000000 1.628910 
# 
# From -- ./inp_files/2899.got.cif
#   From: 2010.05.17/outbox.cif.g08.bks.cpg/sg62_2_cif.got.tgz:2899.got - 2010.06.03 15:25:27.
