data_PCOD9462766
_publ_section_title
;
Structure prediction by ZEFSAII (Michael W. Deem and Ramdas Pophale) SiO2 
 PCOD9462766
Probable space group: P N M A
;
_chemical_formula_sum "Si O2"
_cell_formula_units_Z 48
_cell_length_a 21.790898
_cell_length_b 10.322326
_cell_length_c 11.840862
_cell_angle_alpha 90.000000
_cell_angle_beta 90.000000
_cell_angle_gamma 90.000000
_cell_volume 2663.397687
_symmetry_space_group_name_H-M "P N M A"
_symmetry_group_IT_number 62
_symmetry_cell_setting 'orthorhombic'
loop_
_space_group_symop_operation_xyz
x,y,z
1/2-x,-y,1/2+z
1/2+x,1/2-y,1/2-z
-x,1/2+y,-z
-x,-y,-z
1/2+x,y,1/2-z
1/2-x,1/2+y,1/2+z
x,1/2-y,z
loop_
_atom_site_type_symbol
_atom_site_label
_atom_site_fract_x
_atom_site_fract_y
_atom_site_fract_z
Si Si1 0.586307 0.894545 0.455186
Si Si2 0.637724 0.400991 0.756701
Si Si3 0.030482 0.102283 0.415818
Si Si4 0.660969 0.404954 0.017354
Si Si5 0.018510 0.529291 0.820687
Si Si6 0.203605 0.592492 0.914349
O O1 0.585436 0.750000 0.409095
O O2 0.553173 0.896426 0.578348
O O3 0.656290 0.931802 0.482045
O O4 0.544994 0.981820 0.375138
O O5 0.655760 0.250000 0.741962
O O6 0.644155 0.437349 0.888267
O O7 0.567580 0.418838 0.714575
O O8 0.677893 0.503551 0.686224
O O9 0.028307 0.250000 0.461359
O O10 0.102115 0.062431 0.406738
O O11 0.997545 0.100117 0.295112
O O12 0.000000 0.000000 0.500000
O O13 0.666671 0.250000 0.020387
O O14 0.727608 0.450899 0.055820
O O15 0.201107 0.750000 0.892319
#
# Coordination Sequence:
#
# PCOD9462766 Si02
#       6
#     8   8   8   8   8   8
#     4   9  18  32  52  78 107 142 185 229 276 325
#     4  10  19  34  56  78 108 146 184 229 282 336
#     4  11  22  37  57  83 112 146 186 230 281 339
#     4   9  19  36  55  77 109 147 180 220 284 339
#     4  10  19  32  54  82 109 145 185 234 279 329
#     4   9  19  36  55  77 108 147 186 228 278 334
#
# _framework density 18.022093000000002
#
# number of rings (size 3 to 8) (size 9 to 14) (size 15 to 20)
#    0.000    2.333    1.667    1.000    0.000    2.667 
#    0.000    2.500    0.000    0.000    0.000    0.000 
#    0.000    0.000    0.000    0.000    0.000    0.000 
#
# Total GULP energy -267221.770246 kJ/mol
# GULP energy per Si atom -5567.120213 kJ/mol
# Density = 1.798107 g / cm^3
# Si number density = 18.022093 Si / 1000 Ang^3
#
#
#
# Elastic Constant Matrix: (Units=GPa)
#
#
# Indices 1 2 3 4 5 6 
#
# 1 111.9869 26.3135 19.9027 0.0000 0.0000 0.0000
# 2 26.3135 57.4479 19.5367 0.0000 0.0000 0.0000
# 3 19.9027 19.5367 56.4618 0.0000 0.0000 0.0000
# 4 0.0000 0.0000 0.0000 17.7080 0.0000 0.0000
# 5 0.0000 0.0000 0.0000 0.0000 23.2450 0.0000
# 6 0.0000 0.0000 0.0000 0.0000 0.0000 22.2430
#
#
#
# Elastic Compliance Matrix: (Units=1/GPa)
#
#
# Indices 1 2 3 4 5 6 
#
# 1 0.010254 -0.003930 -0.002255 0.000000 0.000000 0.000000
# 2 -0.003930 0.021235 -0.005962 0.000000 0.000000 0.000000
# 3 -0.002255 -0.005962 0.020569 0.000000 0.000000 0.000000
# 4 0.000000 0.000000 0.000000 0.056472 0.000000 0.000000
# 5 0.000000 0.000000 0.000000 0.000000 0.043020 0.000000
# 6 0.000000 0.000000 0.000000 0.000000 0.000000 0.044958
#
#
# Mechanical properties :
#
#
# Convention : Reuss Voigt Hill
#
# Bulk Modulus (GPa) = 36.01815 39.71139 37.86477
# Shear Modulus (GPa) = 21.73390 23.31544 22.52467
#
# Velocity S-wave (km/s) = 3.47646 3.60073 3.53914
# Velocity P-wave (km/s) = 6.01193 6.27452 6.14463
#
# Compressibility (1/GPa) = 0.02776378
#
# Stress axis : x y z
#
# Youngs Moduli (GPa) = 97.52559 47.09253 48.61706
#
# Poissons Ratio (x) = 0.18507 0.10961
# Poissons Ratio (y) = 0.38326 0.28987
# Poissons Ratio (z) = 0.21988 0.28078
#
# Static dielectric constant tensor:
#      x y z
#    x 1.649380 0.000000 0.000000 
#    y 0.000000 1.617380 0.000000 
#    z 0.000000 0.000000 1.610850 
# 
# From -- ./inp_files/14105.got.cif
#   From: 2010.05.17/outbox.cif.g08.bks.cpg/sg62_8_cif.got.tgz:14105.got - 2010.06.03 15:25:27.
