data_PCOD9462549
_publ_section_title
;
Structure prediction by ZEFSAII (Michael W. Deem and Ramdas Pophale) SiO2 
 PCOD9462549
Probable space group: P N M A
;
_chemical_formula_sum "Si O2"
_cell_formula_units_Z 64
_cell_length_a 28.334213
_cell_length_b 9.474990
_cell_length_c 11.950828
_cell_angle_alpha 90.000000
_cell_angle_beta 90.000000
_cell_angle_gamma 90.000000
_cell_volume 3208.395589
_symmetry_space_group_name_H-M "P N M A"
_symmetry_group_IT_number 62
_symmetry_cell_setting 'orthorhombic'
loop_
_space_group_symop_operation_xyz
x,y,z
1/2-x,-y,1/2+z
1/2+x,1/2-y,1/2-z
-x,1/2+y,-z
-x,-y,-z
1/2+x,y,1/2-z
1/2-x,1/2+y,1/2+z
x,1/2-y,z
loop_
_atom_site_type_symbol
_atom_site_label
_atom_site_fract_x
_atom_site_fract_y
_atom_site_fract_z
Si Si1 0.324950 0.914376 0.780040
Si Si2 0.923808 0.413556 0.421432
Si Si3 0.850466 0.911069 0.289512
Si Si4 0.571243 0.084558 0.134670
Si Si5 0.579741 0.411198 0.572921
Si Si6 0.344852 0.417034 0.559116
Si Si7 0.778678 0.415073 0.153597
Si Si8 0.008081 0.587080 0.795576
O O1 0.324161 0.750000 0.742638
O O2 0.373093 0.933407 0.847934
O O3 0.277144 0.939670 0.848717
O O4 0.327424 0.015175 0.673572
O O5 0.913442 0.250000 0.443029
O O6 0.877534 0.498449 0.382148
O O7 0.943692 0.488369 0.531432
O O8 0.959815 0.420061 0.317103
O O9 0.842461 0.750000 0.325464
O O10 0.885870 0.908592 0.182208
O O11 0.803603 0.987232 0.245814
O O12 0.561128 0.250000 0.111129
O O13 0.543472 0.049690 0.248924
O O14 0.572805 0.250000 0.535915
O O15 0.608175 0.503477 0.483450
O O16 0.531957 0.485164 0.614740
O O17 0.353155 0.250000 0.568616
O O18 0.305136 0.439994 0.463462
O O19 0.786951 0.250000 0.182248
O O20 0.009113 0.750000 0.834018
#
# Coordination Sequence:
#
# PCOD9462549 Si02
#       8
#     8   8   8   8   8   8   8   8
#     4  10  22  39  56  77 108 142 176 216 261 310
#     4  10  19  31  51  79 110 142 177 221 270 318
#     4   9  17  30  51  79 107 135 172 216 261 314
#     4  10  21  36  52  73 107 148 184 221 268 320
#     4   9  17  31  54  81 105 133 173 220 267 316
#     4  10  20  36  58  81 107 139 175 217 266 317
#     4   9  19  36  56  78 105 137 173 215 261 309
#     4   9  18  33  53  78 108 142 180 222 268 318
#
# _framework density 19.947664
#
# number of rings (size 3 to 8) (size 9 to 14) (size 15 to 20)
#    0.000    2.500    0.000    1.875    0.000    6.500 
#    0.000    1.875    0.000    0.000    0.000    0.000 
#    0.000    0.000    0.000    0.000    0.000    0.000 
#
# Total GULP energy -357403.920135 kJ/mol
# GULP energy per Si atom -5584.436252 kJ/mol
# Density = 1.990226 g / cm^3
# Si number density = 19.947664 Si / 1000 Ang^3
#
#
#
# Elastic Constant Matrix: (Units=GPa)
#
#
# Indices 1 2 3 4 5 6 
#
# 1 84.3464 45.1882 20.7925 0.0000 0.0000 0.0000
# 2 45.1882 101.5747 51.7158 0.0000 0.0000 0.0000
# 3 20.7925 51.7158 56.5365 0.0000 0.0000 0.0000
# 4 0.0000 0.0000 0.0000 22.9833 0.0000 0.0000
# 5 0.0000 0.0000 0.0000 0.0000 15.2709 0.0000
# 6 0.0000 0.0000 0.0000 0.0000 0.0000 23.3765
#
#
#
# Elastic Compliance Matrix: (Units=1/GPa)
#
#
# Indices 1 2 3 4 5 6 
#
# 1 0.015605 -0.007525 0.001144 0.000000 0.000000 0.000000
# 2 -0.007525 0.022055 -0.017407 0.000000 0.000000 0.000000
# 3 0.001144 -0.017407 0.033190 0.000000 0.000000 0.000000
# 4 0.000000 0.000000 0.000000 0.043510 0.000000 0.000000
# 5 0.000000 0.000000 0.000000 0.000000 0.065484 0.000000
# 6 0.000000 0.000000 0.000000 0.000000 0.000000 0.042778
#
#
# Mechanical properties :
#
#
# Convention : Reuss Voigt Hill
#
# Bulk Modulus (GPa) = 42.96572 53.09451 48.03012
# Shear Modulus (GPa) = 17.98837 20.64354 19.31596
#
# Velocity S-wave (km/s) = 3.00622 3.22045 3.11518
# Velocity P-wave (km/s) = 5.79964 6.36421 6.08847
#
# Compressibility (1/GPa) = 0.02327437
#
# Stress axis : x y z
#
# Youngs Moduli (GPa) = 64.08084 45.34024 30.12955
#
# Poissons Ratio (x) = 0.34118 -0.03447
# Poissons Ratio (y) = 0.48221 0.52448
# Poissons Ratio (z) = -0.07332 0.78926
#
# Static dielectric constant tensor:
#      x y z
#    x 1.716380 0.000000 0.000000 
#    y 0.000000 1.672410 0.000000 
#    z 0.000000 0.000000 1.684950 
# 
# From -- ./inp_files/15835.got.cif
#   From: 2010.05.17/outbox.cif.g08.bks.cpg/sg62_8_cif.got.tgz:15835.got - 2010.06.03 15:25:27.
