data_PCOD9462217
_publ_section_title
;
Structure prediction by ZEFSAII (Michael W. Deem and Ramdas Pophale) SiO2 
 PCOD9462217
Probable space group: P N M A
;
_chemical_formula_sum "Si O2"
_cell_formula_units_Z 52
_cell_length_a 7.236108
_cell_length_b 21.204815
_cell_length_c 13.174035
_cell_angle_alpha 90.000000
_cell_angle_beta 90.000000
_cell_angle_gamma 90.000000
_cell_volume 2021.428297
_symmetry_space_group_name_H-M "P N M A"
_symmetry_group_IT_number 62
_symmetry_cell_setting 'orthorhombic'
loop_
_space_group_symop_operation_xyz
x,y,z
1/2-x,-y,1/2+z
1/2+x,1/2-y,1/2-z
-x,1/2+y,-z
-x,-y,-z
1/2+x,y,1/2-z
1/2-x,1/2+y,1/2+z
x,1/2-y,z
loop_
_atom_site_type_symbol
_atom_site_label
_atom_site_fract_x
_atom_site_fract_y
_atom_site_fract_z
Si Si1 0.415098 0.558762 0.837828
Si Si2 0.435613 0.250000 0.662819
Si Si3 0.861980 0.383593 0.007529
Si Si4 0.581155 0.077400 0.847452
Si Si5 0.756762 0.750000 0.578067
Si Si6 0.741199 0.347378 0.681680
Si Si7 0.798338 0.883311 0.865179
Si Si8 0.083184 0.250000 0.227882
O O1 0.237151 0.583492 0.896255
O O2 0.481192 0.488686 0.860684
O O3 0.372993 0.568007 0.719576
O O4 0.583498 0.602848 0.874518
O O5 0.587226 0.304950 0.629187
O O6 0.310652 0.195792 0.723406
O O7 0.789361 0.310536 0.010626
O O8 0.077402 0.389346 0.034466
O O9 0.764850 0.417592 0.914243
O O10 0.428091 0.131092 0.873626
O O11 0.644340 0.092095 0.732705
O O12 0.614283 0.750000 0.671677
O O13 0.935660 0.750000 0.649088
O O14 0.832599 0.814941 0.815168
#
# Coordination Sequence:
#
# PCOD9462217 Si02
#       8
#     8   4   8   8   4   8   8   4
#     4  12  22  41  64  91 128 178 214 252 331 396
#     4   8  16  35  64  91 106 163 212 259 312 390
#     4  11  25  41  62  98 128 168 213 282 316 384
#     4  11  24  42  61  94 130 166 218 270 321 391
#     4  10  20  35  64  89 124 163 205 264 328 373
#     4   9  19  38  65  86 122 166 209 265 336 378
#     4  11  22  39  68  93 127 176 217 262 334 390
#     4  10  18  36  60  92 124 158 215 257 318 393
#
# _framework density 25.724385999999999
#
# number of rings (size 3 to 8) (size 9 to 14) (size 15 to 20)
#    0.000    1.538    3.077    2.308    0.000    4.308 
#    5.538    0.000    0.000    0.000    0.000    0.000 
#    0.000    0.000    0.000    0.000    0.000    0.000 
#
# Total GULP energy -290206.000064 kJ/mol
# GULP energy per Si atom -5580.884617 kJ/mol
# Density = 2.566584 g / cm^3
# Si number density = 25.724386 Si / 1000 Ang^3
#
#
#
# Elastic Constant Matrix: (Units=GPa)
#
#
# Indices 1 2 3 4 5 6 
#
# 1 98.8110 -18.1389 19.8423 0.0000 0.0000 0.0000
# 2 -18.1389 57.5514 -3.3635 0.0000 0.0000 0.0000
# 3 19.8423 -3.3635 67.4173 0.0000 0.0000 0.0000
# 4 0.0000 0.0000 0.0000 -1.9529 0.0000 0.0000
# 5 0.0000 0.0000 0.0000 0.0000 36.6180 0.0000
# 6 0.0000 0.0000 0.0000 0.0000 0.0000 139.3271
#
#
#
# Elastic Compliance Matrix: (Units=1/GPa)
#
#
# Indices 1 2 3 4 5 6 
#
# 1 0.011384 0.003402 -0.003181 0.000000 0.000000 0.000000
# 2 0.003402 0.018443 -0.000081 0.000000 0.000000 0.000000
# 3 -0.003181 -0.000081 0.015765 0.000000 0.000000 0.000000
# 4 0.000000 0.000000 0.000000 -0.512072 0.000000 0.000000
# 5 0.000000 0.000000 0.000000 0.000000 0.027309 0.000000
# 6 0.000000 0.000000 0.000000 0.000000 0.000000 0.007177
#
#
# Mechanical properties :
#
#
# Convention : Reuss Voigt Hill
#
# Bulk Modulus (GPa) = 21.79968 24.49548 23.14758
# Shear Modulus (GPa) = -11.99090 49.82776 18.91843
#
# Velocity S-wave (km/s) = -2.16135 4.40589 2.71482
# Velocity P-wave (km/s) = 1.50472 5.95193 4.34106
#
# Compressibility (1/GPa) = 0.04587222
#
# Stress axis : x y z
#
# Youngs Moduli (GPa) = 87.84600 54.22033 63.43129
#
# Poissons Ratio (x) = -0.18446 0.20176
# Poissons Ratio (y) = -0.29885 0.00514
# Poissons Ratio (z) = 0.27941 0.00440
#
# Static dielectric constant tensor:
#      x y z
#    x 2.152220 0.000000 0.000000 
#    y 0.000000 2.026170 0.000000 
#    z 0.000000 0.000000 2.188760 
# 
# From -- ./inp_files/17179.got.cif
#   From: 2010.05.17/outbox.cif.g08.bks.cpg/sg62_9_cif.got.tgz:17179.got - 2010.06.03 15:25:27.
