data_PCOD9462541
_publ_section_title
;
Structure prediction by ZEFSAII (Michael W. Deem and Ramdas Pophale) SiO2 
 PCOD9462541
Probable space group: P N M A
;
_chemical_formula_sum "Si O2"
_cell_formula_units_Z 48
_cell_length_a 16.393859
_cell_length_b 21.023973
_cell_length_c 5.536423
_cell_angle_alpha 90.000000
_cell_angle_beta 90.000000
_cell_angle_gamma 90.000000
_cell_volume 1908.205968
_symmetry_space_group_name_H-M "P N M A"
_symmetry_group_IT_number 62
_symmetry_cell_setting 'orthorhombic'
loop_
_space_group_symop_operation_xyz
x,y,z
1/2-x,-y,1/2+z
1/2+x,1/2-y,1/2-z
-x,1/2+y,-z
-x,-y,-z
1/2+x,y,1/2-z
1/2-x,1/2+y,1/2+z
x,1/2-y,z
loop_
_atom_site_type_symbol
_atom_site_label
_atom_site_fract_x
_atom_site_fract_y
_atom_site_fract_z
Si Si1 0.837169 0.173720 0.233138
Si Si2 0.930296 0.325505 0.736195
Si Si3 0.892024 0.640737 0.391869
Si Si4 0.661173 0.139501 0.391401
Si Si5 0.598772 0.504869 0.974860
Si Si6 0.901799 0.495736 0.974163
O O1 0.820923 0.250000 0.219282
O O2 0.888176 0.163679 0.478123
O O3 0.750531 0.141630 0.280227
O O4 0.882370 0.158160 0.981574
O O5 0.947091 0.250000 0.752675
O O6 0.017199 0.359241 0.715530
O O7 0.890393 0.669044 0.665080
O O8 0.869737 0.567296 0.446865
O O9 0.841091 0.668587 0.164595
O O10 0.629368 0.068074 0.444977
O O11 0.626016 0.535192 0.224491
O O12 0.500000 0.500000 0.000000
O O13 0.624818 0.535199 0.724147
O O14 0.000000 0.500000 0.000000
#
# Coordination Sequence:
#
# PCOD9462541 Si02
#       6
#     8   8   8   8   8   8
#     4  10  21  36  51  70 103 143 175 211 266 319
#     4  10  21  36  51  70 103 143 175 211 266 319
#     4  10  19  31  51  78 100 128 173 220 257 302
#     4  10  19  31  51  78 100 128 173 220 257 302
#     4   8  14  25  42  68  96 120 150 198 247 292
#     4   8  14  25  42  68  96 120 150 198 247 292
#
# _framework density 25.154516999999998
#
# number of rings (size 3 to 8) (size 9 to 14) (size 15 to 20)
#    0.000    2.667    0.000    2.000    0.000    1.333 
#    0.000    0.000    0.000    0.000    0.000   74.667 
#    0.000    0.000    0.000    0.000    0.000    0.000 
#
# Total GULP energy -267917.316139 kJ/mol
# GULP energy per Si atom -5581.610753 kJ/mol
# Density = 2.509726 g / cm^3
# Si number density = 25.154517 Si / 1000 Ang^3
#
#
#
# Elastic Constant Matrix: (Units=GPa)
#
#
# Indices 1 2 3 4 5 6 
#
# 1 83.3425 16.1774 37.3524 0.0000 0.0000 0.0000
# 2 16.1774 88.3150 48.8068 0.0000 0.0000 0.0000
# 3 37.3524 48.8068 313.0134 0.0000 0.0000 0.0000
# 4 0.0000 0.0000 0.0000 32.0325 0.0000 0.0000
# 5 0.0000 0.0000 0.0000 0.0000 34.0104 0.0000
# 6 0.0000 0.0000 0.0000 0.0000 0.0000 -22.0641
#
#
#
# Elastic Compliance Matrix: (Units=1/GPa)
#
#
# Indices 1 2 3 4 5 6 
#
# 1 0.012894 -0.001654 -0.001281 0.000000 0.000000 0.000000
# 2 -0.001654 0.012603 -0.001768 0.000000 0.000000 0.000000
# 3 -0.001281 -0.001768 0.003623 0.000000 0.000000 0.000000
# 4 0.000000 0.000000 0.000000 0.031218 0.000000 0.000000
# 5 0.000000 0.000000 0.000000 0.000000 0.029403 0.000000
# 6 0.000000 0.000000 0.000000 0.000000 0.000000 -0.045322
#
#
# Mechanical properties :
#
#
# Convention : Reuss Voigt Hill
#
# Bulk Modulus (GPa) = 50.72305 76.59379 63.65842
# Shear Modulus (GPa) = 82.78787 34.28471 58.53629
#
# Velocity S-wave (km/s) = 5.74310 3.69584 4.82920
# Velocity P-wave (km/s) = 8.01161 6.98052 7.51378
#
# Compressibility (1/GPa) = 0.01971490
#
# Stress axis : x y z
#
# Youngs Moduli (GPa) = 77.55697 79.34598 275.99765
#
# Poissons Ratio (x) = 0.13124 0.35348
# Poissons Ratio (y) = 0.12829 0.48789
# Poissons Ratio (z) = 0.09933 0.14026
#
# Static dielectric constant tensor:
#      x y z
#    x 1.947650 0.000000 0.000000 
#    y 0.000000 2.419470 0.000000 
#    z 0.000000 0.000000 2.157430 
# 
# From -- ./inp_files/1232.got.cif
#   From: 2010.05.17/outbox.cif.g08.bks.cpg/sg62_1_cif.got.tgz:1232.got - 2010.06.03 15:25:27.
