data_PCOD9462023
_publ_section_title
;
Structure prediction by ZEFSAII (Michael W. Deem and Ramdas Pophale) SiO2 
 PCOD9462023
Probable space group: P N M A
;
_chemical_formula_sum "Si O2"
_cell_formula_units_Z 64
_cell_length_a 32.306060
_cell_length_b 7.381295
_cell_length_c 11.962913
_cell_angle_alpha 90.000000
_cell_angle_beta 90.000000
_cell_angle_gamma 90.000000
_cell_volume 2852.682923
_symmetry_space_group_name_H-M "P N M A"
_symmetry_group_IT_number 62
_symmetry_cell_setting 'orthorhombic'
loop_
_space_group_symop_operation_xyz
x,y,z
1/2-x,-y,1/2+z
1/2+x,1/2-y,1/2-z
-x,1/2+y,-z
-x,-y,-z
1/2+x,y,1/2-z
1/2-x,1/2+y,1/2+z
x,1/2-y,z
loop_
_atom_site_type_symbol
_atom_site_label
_atom_site_fract_x
_atom_site_fract_y
_atom_site_fract_z
Si Si1 0.460689 0.958360 0.250689
Si Si2 0.949175 0.471760 0.738362
Si Si3 0.700623 0.971503 0.230898
Si Si4 0.571473 0.530967 0.986312
Si Si5 0.793142 0.541251 0.261611
Si Si6 0.872075 0.030698 0.891244
Si Si7 0.124118 0.460643 0.848502
Si Si8 0.333597 0.031161 0.010019
O O1 0.461749 0.750000 0.289413
O O2 0.505733 0.035452 0.278204
O O3 0.418748 0.040903 0.301340
O O4 0.455602 0.962314 0.116493
O O5 0.949375 0.250000 0.737679
O O6 0.941823 0.527285 0.609957
O O7 0.911331 0.527649 0.816908
O O8 0.700932 0.750000 0.233699
O O9 0.747701 0.036514 0.241160
O O10 0.670064 0.028739 0.330179
O O11 0.681008 0.025213 0.112551
O O12 0.569931 0.750000 0.983394
O O13 0.619162 0.474590 0.968060
O O14 0.790464 0.750000 0.223103
O O15 0.833297 0.459229 0.200343
O O16 0.803915 0.535584 0.392381
O O17 0.872253 0.250000 0.892056
O O18 0.875240 0.969337 0.018315
O O19 0.124087 0.250000 0.811534
O O20 0.333036 0.250000 0.012403
#
# Coordination Sequence:
#
# PCOD9462023 Si02
#       8
#     8   8   8   8   8   8   8   8
#     4  10  20  35  54  76 107 143 173 206 260 320
#     4   9  18  34  56  79 103 136 175 216 262 308
#     4   9  19  36  57  79 105 139 175 216 264 308
#     4  10  18  32  55  82 108 131 168 219 262 304
#     4  10  21  37  55  77 109 144 173 208 262 318
#     4  10  20  37  58  77 100 136 182 222 256 302
#     4  10  22  37  51  74 109 142 171 210 262 314
#     4  10  19  34  58  82 105 134 173 219 262 304
#
# _framework density 22.435020000000002
#
# number of rings (size 3 to 8) (size 9 to 14) (size 15 to 20)
#    0.000    2.250    2.500    0.375    1.750    1.500 
#    0.000    2.500    0.000    0.000    0.000    0.000 
#    0.000    0.000    0.000    0.000    0.000    0.000 
#
# Total GULP energy -357665.282692 kJ/mol
# GULP energy per Si atom -5588.520042 kJ/mol
# Density = 2.238396 g / cm^3
# Si number density = 22.435020 Si / 1000 Ang^3
#
#
#
# Elastic Constant Matrix: (Units=GPa)
#
#
# Indices 1 2 3 4 5 6 
#
# 1 167.2944 8.8587 34.2066 0.0000 0.0000 0.0000
# 2 8.8587 79.4089 -13.4532 0.0000 0.0000 0.0000
# 3 34.2066 -13.4532 94.0590 0.0000 0.0000 0.0000
# 4 0.0000 0.0000 0.0000 23.2779 0.0000 0.0000
# 5 0.0000 0.0000 0.0000 0.0000 22.3785 0.0000
# 6 0.0000 0.0000 0.0000 0.0000 0.0000 -10.2097
#
#
#
# Elastic Compliance Matrix: (Units=1/GPa)
#
#
# Indices 1 2 3 4 5 6 
#
# 1 0.006561 -0.001164 -0.002553 0.000000 0.000000 0.000000
# 2 -0.001164 0.013112 0.002299 0.000000 0.000000 0.000000
# 3 -0.002553 0.002299 0.011889 0.000000 0.000000 0.000000
# 4 0.000000 0.000000 0.000000 0.042959 0.000000 0.000000
# 5 0.000000 0.000000 0.000000 0.000000 0.044686 0.000000
# 6 0.000000 0.000000 0.000000 0.000000 0.000000 -0.097946
#
#
# Mechanical properties :
#
#
# Convention : Reuss Voigt Hill
#
# Bulk Modulus (GPa) = 34.81163 44.44296 39.62729
# Shear Modulus (GPa) = 148.48657 27.83268 88.15963
#
# Velocity S-wave (km/s) = 8.14425 3.52602 6.27542
# Velocity P-wave (km/s) = 10.19749 6.03571 8.37910
#
# Compressibility (1/GPa) = 0.02872603
#
# Stress axis : x y z
#
# Youngs Moduli (GPa) = 152.41401 76.26363 84.11314
#
# Poissons Ratio (x) = 0.08880 0.21471
# Poissons Ratio (y) = 0.17747 -0.19337
# Poissons Ratio (z) = 0.38906 -0.17532
#
# Static dielectric constant tensor:
#      x y z
#    x 1.831630 0.000000 0.000000 
#    y 0.000000 1.842520 0.000000 
#    z 0.000000 0.000000 1.749080 
# 
# From -- ./inp_files/15829.got.cif
#   From: 2010.05.17/outbox.cif.g08.bks.cpg/sg62_8_cif.got.tgz:15829.got - 2010.06.03 15:25:27.
