data_PCOD9462755
_publ_section_title
;
Structure prediction by ZEFSAII (Michael W. Deem and Ramdas Pophale) SiO2 
 PCOD9462755
Probable space group: P N M A
;
_chemical_formula_sum "Si O2"
_cell_formula_units_Z 64
_cell_length_a 20.173203
_cell_length_b 8.105634
_cell_length_c 19.780920
_cell_angle_alpha 90.000000
_cell_angle_beta 90.000000
_cell_angle_gamma 90.000000
_cell_volume 3234.508786
_symmetry_space_group_name_H-M "P N M A"
_symmetry_group_IT_number 62
_symmetry_cell_setting 'orthorhombic'
loop_
_space_group_symop_operation_xyz
x,y,z
1/2-x,-y,1/2+z
1/2+x,1/2-y,1/2-z
-x,1/2+y,-z
-x,-y,-z
1/2+x,y,1/2-z
1/2-x,1/2+y,1/2+z
x,1/2-y,z
loop_
_atom_site_type_symbol
_atom_site_label
_atom_site_fract_x
_atom_site_fract_y
_atom_site_fract_z
Si Si1 0.620222 0.950559 0.722907
Si Si2 0.107711 0.057797 0.491306
Si Si3 0.019528 0.436502 0.253383
Si Si4 0.746346 0.936975 0.965204
Si Si5 0.734069 0.059320 0.815234
Si Si6 0.837267 0.557760 0.709097
Si Si7 0.725496 0.551281 0.609798
Si Si8 0.499761 0.438571 0.890769
O O1 0.618517 0.750000 0.725583
O O2 0.544262 0.010680 0.715307
O O3 0.666205 0.000950 0.659596
O O4 0.660335 0.011556 0.789335
O O5 0.126658 0.250000 0.480665
O O6 0.056955 0.051508 0.553805
O O7 0.170636 0.952527 0.510539
O O8 0.067790 0.988412 0.428007
O O9 0.029780 0.250000 0.227605
O O10 0.092437 0.514820 0.265089
O O11 0.990910 0.438448 0.329460
O O12 0.765349 0.750000 0.950820
O O13 0.747613 0.033450 0.894443
O O14 0.783698 0.999627 0.032299
O O15 0.744490 0.250000 0.798192
O O16 0.785254 0.954562 0.770540
O O17 0.851746 0.750000 0.693653
O O18 0.794500 0.491222 0.645250
O O19 0.728233 0.750000 0.611990
O O20 0.497252 0.250000 0.866085
#
# Coordination Sequence:
#
# PCOD9462755 Si02
#       8
#     8   8   8   8   8   8   8   8
#     4   9  19  36  57  81 109 141 176 215 262 316
#     4  10  20  33  47  67  99 136 171 208 252 303
#     4  10  19  32  54  79 103 135 171 209 259 314
#     4  12  23  34  52  76 102 134 175 220 264 313
#     4  11  22  36  55  78 106 141 179 219 263 311
#     4   9  19  36  56  79 108 139 172 214 262 312
#     4   9  18  34  54  77 108 142 175 214 260 310
#     4  10  20  31  45  69 101 136 171 206 246 298
#
# _framework density 19.786622000000001
#
# number of rings (size 3 to 8) (size 9 to 14) (size 15 to 20)
#    0.000    2.000    0.000    5.250    0.000    7.500 
#    0.000    0.000    0.000    0.750    0.000    0.000 
#    0.000    0.000    0.000    0.000    0.000    0.000 
#
# Total GULP energy -356881.453295 kJ/mol
# GULP energy per Si atom -5576.272708 kJ/mol
# Density = 1.974159 g / cm^3
# Si number density = 19.786622 Si / 1000 Ang^3
#
#
#
# Elastic Constant Matrix: (Units=GPa)
#
#
# Indices 1 2 3 4 5 6 
#
# 1 68.8214 -7.3025 -4.9520 0.0000 0.0000 0.0000
# 2 -7.3025 34.6590 -8.7729 0.0000 0.0000 0.0000
# 3 -4.9520 -8.7729 63.8074 0.0000 0.0000 0.0000
# 4 0.0000 0.0000 0.0000 24.2938 0.0000 0.0000
# 5 0.0000 0.0000 0.0000 0.0000 20.4515 0.0000
# 6 0.0000 0.0000 0.0000 0.0000 0.0000 9.5314
#
#
#
# Elastic Compliance Matrix: (Units=1/GPa)
#
#
# Indices 1 2 3 4 5 6 
#
# 1 0.015030 0.003587 0.001660 0.000000 0.000000 0.000000
# 2 0.003587 0.030749 0.004506 0.000000 0.000000 0.000000
# 3 0.001660 0.004506 0.016420 0.000000 0.000000 0.000000
# 4 0.000000 0.000000 0.000000 0.041163 0.000000 0.000000
# 5 0.000000 0.000000 0.000000 0.000000 0.048896 0.000000
# 6 0.000000 0.000000 0.000000 0.000000 0.000000 0.104916
#
#
# Mechanical properties :
#
#
# Convention : Reuss Voigt Hill
#
# Bulk Modulus (GPa) = 12.23917 13.91479 13.07698
# Shear Modulus (GPa) = 18.87472 23.40969 21.14221
#
# Velocity S-wave (km/s) = 3.09190 3.44336 3.27235
# Velocity P-wave (km/s) = 4.35264 4.78087 4.57177
#
# Compressibility (1/GPa) = 0.08170490
#
# Stress axis : x y z
#
# Youngs Moduli (GPa) = 66.53190 32.52154 60.89953
#
# Poissons Ratio (x) = -0.11665 -0.10107
# Poissons Ratio (y) = -0.23864 -0.27441
# Poissons Ratio (z) = -0.11042 -0.14654
#
# Static dielectric constant tensor:
#      x y z
#    x 1.742480 0.000000 0.000000 
#    y 0.000000 1.722270 0.000000 
#    z 0.000000 0.000000 1.707200 
# 
# From -- ./inp_files/24749.got.cif
#   From: 2010.05.17/outbox.cif.g08.bks.cpg/sg62_13_cif.got.tgz:24749.got - 2010.06.03 15:25:27.
