data_PCOD9462897
_publ_section_title
;
Structure prediction by ZEFSAII (Michael W. Deem and Ramdas Pophale) SiO2 
 PCOD9462897
Probable space group: P N M A
;
_chemical_formula_sum "Si O2"
_cell_formula_units_Z 64
_cell_length_a 29.674615
_cell_length_b 9.120835
_cell_length_c 11.700166
_cell_angle_alpha 90.000000
_cell_angle_beta 90.000000
_cell_angle_gamma 90.000000
_cell_volume 3166.734954
_symmetry_space_group_name_H-M "P N M A"
_symmetry_group_IT_number 62
_symmetry_cell_setting 'orthorhombic'
loop_
_space_group_symop_operation_xyz
x,y,z
1/2-x,-y,1/2+z
1/2+x,1/2-y,1/2-z
-x,1/2+y,-z
-x,-y,-z
1/2+x,y,1/2-z
1/2-x,1/2+y,1/2+z
x,1/2-y,z
loop_
_atom_site_type_symbol
_atom_site_label
_atom_site_fract_x
_atom_site_fract_y
_atom_site_fract_z
Si Si1 0.429584 0.921081 0.055361
Si Si2 0.324057 0.921386 0.540218
Si Si3 0.666290 0.420291 0.195751
Si Si4 0.726176 0.573005 0.007442
Si Si5 0.105138 0.925625 0.896841
Si Si6 0.153016 0.925701 0.662044
Si Si7 0.939063 0.575487 0.698831
Si Si8 0.479716 0.578559 0.297400
O O1 0.416143 0.750000 0.048834
O O2 0.459432 0.937641 0.168614
O O3 0.385346 0.017213 0.076017
O O4 0.451820 0.956284 0.933796
O O5 0.331660 0.750000 0.510204
O O6 0.315984 0.928082 0.675421
O O7 0.277750 0.977420 0.484025
O O8 0.367592 0.012187 0.503625
O O9 0.667868 0.250000 0.157913
O O10 0.695736 0.515251 0.110254
O O11 0.613675 0.462455 0.203442
O O12 0.727368 0.750000 0.007776
O O13 0.700810 0.526400 0.889940
O O14 0.101805 0.750000 0.898525
O O15 0.136226 0.972893 0.787298
O O16 0.055943 0.994953 0.877366
O O17 0.152659 0.750000 0.663297
O O18 0.943889 0.750000 0.718479
O O19 0.970977 0.491120 0.786458
O O20 0.481362 0.750000 0.326051
#
# Coordination Sequence:
#
# PCOD9462897 Si02
#       8
#     8   8   8   8   8   8   8   8
#     4   9  17  30  49  78 115 149 186 229 280 339
#     4  10  23  41  60  83 115 152 191 239 290 340
#     4  10  22  40  62  85 116 154 193 239 290 343
#     4  10  21  37  58  85 116 147 185 234 286 344
#     4  10  21  38  60  84 114 152 196 241 284 340
#     4   9  18  32  53  82 113 147 183 227 282 335
#     4  10  19  33  53  81 114 150 193 239 286 343
#     4  10  20  33  54  83 116 154 191 236 292 348
#
# _framework density 20.210090000000001
#
# number of rings (size 3 to 8) (size 9 to 14) (size 15 to 20)
#    0.000    2.250    1.250    1.125    1.750    3.000 
#    0.000    0.625    0.000    0.000    0.000    0.000 
#    0.000    0.000    0.000    0.000    0.000    0.000 
#
# Total GULP energy -357147.501295 kJ/mol
# GULP energy per Si atom -5580.429708 kJ/mol
# Density = 2.016409 g / cm^3
# Si number density = 20.210090 Si / 1000 Ang^3
#
#
#
# Elastic Constant Matrix: (Units=GPa)
#
#
# Indices 1 2 3 4 5 6 
#
# 1 71.3245 23.8790 -4.1041 0.0000 0.0000 0.0000
# 2 23.8790 20.5349 0.9484 0.0000 0.0000 0.0000
# 3 -4.1041 0.9484 13.9146 0.0000 0.0000 0.0000
# 4 0.0000 0.0000 0.0000 16.1533 0.0000 0.0000
# 5 0.0000 0.0000 0.0000 0.0000 18.7633 0.0000
# 6 0.0000 0.0000 0.0000 0.0000 0.0000 24.5698
#
#
#
# Elastic Compliance Matrix: (Units=1/GPa)
#
#
# Indices 1 2 3 4 5 6 
#
# 1 0.024037 -0.028368 0.009023 0.000000 0.000000 0.000000
# 2 -0.028368 0.082331 -0.013979 0.000000 0.000000 0.000000
# 3 0.009023 -0.013979 0.075481 0.000000 0.000000 0.000000
# 4 0.000000 0.000000 0.000000 0.061907 0.000000 0.000000
# 5 0.000000 0.000000 0.000000 0.000000 0.053296 0.000000
# 6 0.000000 0.000000 0.000000 0.000000 0.000000 0.040700
#
#
# Mechanical properties :
#
#
# Convention : Reuss Voigt Hill
#
# Bulk Modulus (GPa) = 8.68040 16.35784 12.51912
# Shear Modulus (GPa) = 11.29175 17.56731 14.42953
#
# Velocity S-wave (km/s) = 2.36629 2.95148 2.67493
# Velocity P-wave (km/s) = 3.43077 4.44144 3.96841
#
# Compressibility (1/GPa) = 0.11520202
#
# Stress axis : x y z
#
# Youngs Moduli (GPa) = 41.60230 12.14606 13.24830
#
# Poissons Ratio (x) = 0.34456 -0.11954
# Poissons Ratio (y) = 1.18019 0.18520
# Poissons Ratio (z) = -0.37539 0.16979
#
# Static dielectric constant tensor:
#      x y z
#    x 1.724050 0.000000 0.000000 
#    y 0.000000 1.674580 0.000000 
#    z 0.000000 0.000000 1.739460 
# 
# From -- ./inp_files/15882.got.cif
#   From: 2010.05.17/outbox.cif.g08.bks.cpg/sg62_8_cif.got.tgz:15882.got - 2010.06.03 15:25:27.
