data_PCOD9462565
_publ_section_title
;
Structure prediction by ZEFSAII (Michael W. Deem and Ramdas Pophale) SiO2 
 PCOD9462565
Probable space group: P N M A
;
_chemical_formula_sum "Si O2"
_cell_formula_units_Z 64
_cell_length_a 28.047680
_cell_length_b 9.669833
_cell_length_c 13.221722
_cell_angle_alpha 90.000000
_cell_angle_beta 90.000000
_cell_angle_gamma 90.000000
_cell_volume 3585.947600
_symmetry_space_group_name_H-M "P N M A"
_symmetry_group_IT_number 62
_symmetry_cell_setting 'orthorhombic'
loop_
_space_group_symop_operation_xyz
x,y,z
1/2-x,-y,1/2+z
1/2+x,1/2-y,1/2-z
-x,1/2+y,-z
-x,-y,-z
1/2+x,y,1/2-z
1/2-x,1/2+y,1/2+z
x,1/2-y,z
loop_
_atom_site_type_symbol
_atom_site_label
_atom_site_fract_x
_atom_site_fract_y
_atom_site_fract_z
Si Si1 0.807471 0.416125 0.337182
Si Si2 0.716760 0.911148 0.270631
Si Si3 0.883157 0.408827 0.859550
Si Si4 0.592468 0.581748 0.750791
Si Si5 0.084309 0.407510 0.322923
Si Si6 0.017746 0.593020 0.589945
Si Si7 0.842069 0.085610 0.564477
Si Si8 0.455013 0.086180 0.458384
O O1 0.801697 0.250000 0.330537
O O2 0.760502 0.492660 0.299406
O O3 0.852793 0.457388 0.267837
O O4 0.820221 0.447609 0.454775
O O5 0.731064 0.750000 0.271343
O O6 0.673681 0.928308 0.351650
O O7 0.693705 0.939696 0.159600
O O8 0.891572 0.250000 0.824211
O O9 0.904574 0.516508 0.781074
O O10 0.910344 0.424371 0.964695
O O11 0.591152 0.750000 0.749509
O O12 0.562686 0.537732 0.848922
O O13 0.564976 0.536929 0.649967
O O14 0.102245 0.250000 0.324790
O O15 0.027765 0.403084 0.336404
O O16 0.111256 0.496202 0.409000
O O17 0.027867 0.750000 0.556000
O O18 0.000000 0.500000 0.500000
O O19 0.853244 0.250000 0.564934
O O20 0.467765 0.250000 0.451613
O O21 0.500000 0.000000 0.500000
#
# Coordination Sequence:
#
# PCOD9462565 Si02
#       8
#     8   8   8   8   8   8   8   8
#     4  10  20  35  56  78 101 137 181 219 261 316
#     4   9  19  35  53  76 106 138 174 220 269 316
#     4   9  19  35  54  75 103 142 178 209 261 326
#     4   9  19  35  53  75 105 138 173 214 261 315
#     4  10  19  31  52  80 103 127 169 219 255 291
#     4  10  20  33  50  73 101 133 167 206 253 305
#     4   9  19  36  55  75 104 140 172 207 263 325
#     4  10  20  36  57  80 109 145 181 218 266 324
#
# _framework density 17.847443999999999
#
# number of rings (size 3 to 8) (size 9 to 14) (size 15 to 20)
#    0.000    2.500    0.000    2.625    0.000    7.000 
#    0.000    3.125    0.000    0.000    0.000    0.000 
#    0.000    0.000    0.000    0.000    0.000    0.000 
#
# Total GULP energy -356802.731301 kJ/mol
# GULP energy per Si atom -5575.042677 kJ/mol
# Density = 1.780682 g / cm^3
# Si number density = 17.847444 Si / 1000 Ang^3
#
#
#
# Elastic Constant Matrix: (Units=GPa)
#
#
# Indices 1 2 3 4 5 6 
#
# 1 101.8377 37.7823 34.7531 0.0000 0.0000 0.0000
# 2 37.7823 46.1849 26.5410 0.0000 0.0000 0.0000
# 3 34.7531 26.5410 72.5287 0.0000 0.0000 0.0000
# 4 0.0000 0.0000 0.0000 21.4461 0.0000 0.0000
# 5 0.0000 0.0000 0.0000 0.0000 24.4615 0.0000
# 6 0.0000 0.0000 0.0000 0.0000 0.0000 31.5386
#
#
#
# Elastic Compliance Matrix: (Units=1/GPa)
#
#
# Indices 1 2 3 4 5 6 
#
# 1 0.014714 -0.010112 -0.003350 0.000000 0.000000 0.000000
# 2 -0.010112 0.034367 -0.007731 0.000000 0.000000 0.000000
# 3 -0.003350 -0.007731 0.018222 0.000000 0.000000 0.000000
# 4 0.000000 0.000000 0.000000 0.046629 0.000000 0.000000
# 5 0.000000 0.000000 0.000000 0.000000 0.040880 0.000000
# 6 0.000000 0.000000 0.000000 0.000000 0.000000 0.031707
#
#
# Mechanical properties :
#
#
# Convention : Reuss Voigt Hill
#
# Bulk Modulus (GPa) = 40.13301 46.52267 43.32784
# Shear Modulus (GPa) = 21.07817 23.58758 22.33287
#
# Velocity S-wave (km/s) = 3.44032 3.63936 3.54124
# Velocity P-wave (km/s) = 6.19004 6.61690 6.40703
#
# Compressibility (1/GPa) = 0.02491714
#
# Stress axis : x y z
#
# Youngs Moduli (GPa) = 67.96019 29.09748 54.87877
#
# Poissons Ratio (x) = 0.29424 0.18386
# Poissons Ratio (y) = 0.68722 0.42426
# Poissons Ratio (z) = 0.22768 0.22495
#
# Static dielectric constant tensor:
#      x y z
#    x 1.603680 0.000000 0.000000 
#    y 0.000000 1.603190 0.000000 
#    z 0.000000 0.000000 1.628560 
# 
# From -- ./inp_files/15895.got.cif
#   From: 2010.05.17/outbox.cif.g08.bks.cpg/sg62_8_cif.got.tgz:15895.got - 2010.06.03 15:25:27.
