data_PCOD9462178
_publ_section_title
;
Structure prediction by ZEFSAII (Michael W. Deem and Ramdas Pophale) SiO2 
 PCOD9462178
Probable space group: P N M A
;
_chemical_formula_sum "Si O2"
_cell_formula_units_Z 48
_cell_length_a 17.625130
_cell_length_b 11.508369
_cell_length_c 11.051788
_cell_angle_alpha 90.000000
_cell_angle_beta 90.000000
_cell_angle_gamma 90.000000
_cell_volume 2241.705993
_symmetry_space_group_name_H-M "P N M A"
_symmetry_group_IT_number 62
_symmetry_cell_setting 'orthorhombic'
loop_
_space_group_symop_operation_xyz
x,y,z
1/2-x,-y,1/2+z
1/2+x,1/2-y,1/2-z
-x,1/2+y,-z
-x,-y,-z
1/2+x,y,1/2-z
1/2-x,1/2+y,1/2+z
x,1/2-y,z
loop_
_atom_site_type_symbol
_atom_site_label
_atom_site_fract_x
_atom_site_fract_y
_atom_site_fract_z
Si Si1 0.247333 0.378622 0.148402
Si Si2 0.473164 0.887265 0.839671
Si Si3 0.539638 0.622761 0.585768
Si Si4 0.116932 0.980723 0.521476
Si Si5 0.304855 0.620962 0.219982
Si Si6 0.383856 0.588479 0.471909
O O1 0.261537 0.250000 0.203591
O O2 0.309418 0.400079 0.040644
O O3 0.256420 0.499676 0.222203
O O4 0.166008 0.376121 0.085241
O O5 0.454488 0.750000 0.834234
O O6 0.502836 0.927232 0.708527
O O7 0.544734 0.909955 0.928209
O O8 0.405162 0.963970 0.893652
O O9 0.565600 0.750000 0.618362
O O10 0.470676 0.625274 0.491354
O O11 0.609018 0.549910 0.537096
O O12 0.135870 0.088078 0.612737
O O13 0.270693 0.750000 0.197598
O O14 0.347640 0.627239 0.347302
#
# Coordination Sequence:
#
# PCOD9462178 Si02
#       6
#     8   8   8   8   8   8
#     4  10  22  39  59  84 117 160 202 242 294 356
#     4  10  18  35  58  88 121 153 199 247 292 356
#     4  10  21  37  60  89 121 160 200 244 299 362
#     4   9  20  34  59  86 117 157 197 245 293 346
#     4  10  21  38  60  88 119 152 194 247 301 351
#     4  11  22  39  62  87 122 159 199 247 305 358
#
# _framework density 21.412264
#
# number of rings (size 3 to 8) (size 9 to 14) (size 15 to 20)
#    1.000    1.000    1.667    2.500    0.000    2.667 
#    0.000    0.000    0.000    0.000    0.000    0.000 
#    0.000    0.000    0.000    0.000    0.000    0.000 
#
# Total GULP energy -267220.177461 kJ/mol
# GULP energy per Si atom -5567.087030 kJ/mol
# Density = 2.136353 g / cm^3
# Si number density = 21.412264 Si / 1000 Ang^3
#
#
#
# Elastic Constant Matrix: (Units=GPa)
#
#
# Indices 1 2 3 4 5 6 
#
# 1 46.7848 27.5757 -7.1358 0.0000 0.0000 0.0000
# 2 27.5757 146.7897 33.5461 0.0000 0.0000 0.0000
# 3 -7.1358 33.5461 51.4561 0.0000 0.0000 0.0000
# 4 0.0000 0.0000 0.0000 -1.1817 0.0000 0.0000
# 5 0.0000 0.0000 0.0000 0.0000 22.1549 0.0000
# 6 0.0000 0.0000 0.0000 0.0000 0.0000 22.1035
#
#
#
# Elastic Compliance Matrix: (Units=1/GPa)
#
#
# Indices 1 2 3 4 5 6 
#
# 1 0.026680 -0.006883 0.008187 0.000000 0.000000 0.000000
# 2 -0.006883 0.009781 -0.007331 0.000000 0.000000 0.000000
# 3 0.008187 -0.007331 0.025349 0.000000 0.000000 0.000000
# 4 0.000000 0.000000 0.000000 -0.846252 0.000000 0.000000
# 5 0.000000 0.000000 0.000000 0.000000 0.045137 0.000000
# 6 0.000000 0.000000 0.000000 0.000000 0.000000 0.045242
#
#
# Mechanical properties :
#
#
# Convention : Reuss Voigt Hill
#
# Bulk Modulus (GPa) = 20.09799 39.22252 29.66025
# Shear Modulus (GPa) = -7.51400 21.35165 6.91883
#
# Velocity S-wave (km/s) = -1.87532 3.16122 1.79952
# Velocity P-wave (km/s) = 2.17198 5.62868 4.26612
#
# Compressibility (1/GPa) = 0.04975621
#
# Stress axis : x y z
#
# Youngs Moduli (GPa) = 37.48080 102.23982 39.44956
#
# Poissons Ratio (x) = 0.70374 -0.32299
# Poissons Ratio (y) = 0.25799 0.28921
# Poissons Ratio (z) = -0.30687 0.74953
#
# Static dielectric constant tensor:
#      x y z
#    x 1.785000 0.000000 0.000000 
#    y 0.000000 1.929010 0.000000 
#    z 0.000000 0.000000 1.761220 
# 
# From -- ./inp_files/14137.got.cif
#   From: 2010.05.17/outbox.cif.g08.bks.cpg/sg62_8_cif.got.tgz:14137.got - 2010.06.03 15:25:27.
