data_PCOD9462012
_publ_section_title
;
Structure prediction by ZEFSAII (Michael W. Deem and Ramdas Pophale) SiO2 
 PCOD9462012
Probable space group: P N M A
;
_chemical_formula_sum "Si O2"
_cell_formula_units_Z 64
_cell_length_a 12.181869
_cell_length_b 8.817556
_cell_length_c 34.593504
_cell_angle_alpha 90.000000
_cell_angle_beta 90.000000
_cell_angle_gamma 90.000000
_cell_volume 3715.837435
_symmetry_space_group_name_H-M "P N M A"
_symmetry_group_IT_number 62
_symmetry_cell_setting 'orthorhombic'
loop_
_space_group_symop_operation_xyz
x,y,z
1/2-x,-y,1/2+z
1/2+x,1/2-y,1/2-z
-x,1/2+y,-z
-x,-y,-z
1/2+x,y,1/2-z
1/2-x,1/2+y,1/2+z
x,1/2-y,z
loop_
_atom_site_type_symbol
_atom_site_label
_atom_site_fract_x
_atom_site_fract_y
_atom_site_fract_z
Si Si1 0.614637 0.067090 0.173286
Si Si2 0.193775 0.567417 0.768859
Si Si3 0.639372 0.566784 0.817013
Si Si4 0.042590 0.068427 0.831617
Si Si5 0.888323 0.931341 0.952389
Si Si6 0.317444 0.431961 0.628418
Si Si7 0.738398 0.430928 0.608844
Si Si8 0.355649 0.431154 0.466087
O O1 0.621540 0.250000 0.170499
O O2 0.697030 0.018813 0.207877
O O3 0.489013 0.026136 0.180995
O O4 0.661791 0.995585 0.134059
O O5 0.190852 0.750000 0.769125
O O6 0.187407 0.517599 0.724563
O O7 0.089998 0.508342 0.793281
O O8 0.647554 0.750000 0.819515
O O9 0.709022 0.493385 0.851129
O O10 0.043152 0.250000 0.826472
O O11 0.129593 0.032195 0.865691
O O12 0.922433 0.020218 0.845428
O O13 0.878767 0.750000 0.951627
O O14 0.018480 0.970369 0.954085
O O15 0.836173 0.002207 0.914199
O O16 0.837818 0.996414 0.991913
O O17 0.317032 0.250000 0.626560
O O18 0.745801 0.250000 0.605528
O O19 0.722743 0.504731 0.567099
O O20 0.347601 0.250000 0.468423
#
# Coordination Sequence:
#
# PCOD9462012 Si02
#       8
#     8   8   8   8   8   8   8   8
#     4   9  19  36  53  76 107 138 179 227 271 319
#     4   9  19  34  56  79 102 135 177 226 272 318
#     4  10  22  37  55  78 105 141 183 228 274 324
#     4   9  19  33  50  75 107 139 174 218 267 317
#     4  10  20  33  52  79 113 147 180 219 265 322
#     4  11  22  36  53  77 111 147 180 222 271 325
#     4  10  18  32  54  78 107 141 178 219 264 318
#     4  10  19  31  52  82 113 145 177 217 268 319
#
# _framework density 17.223572999999998
#
# number of rings (size 3 to 8) (size 9 to 14) (size 15 to 20)
#    0.000    2.250    1.250    1.500    1.750    3.500 
#    0.000    0.000    0.000    0.750    0.000    0.000 
#    0.000    0.000    0.000    0.000    0.000    0.000 
#
# Total GULP energy -357185.575942 kJ/mol
# GULP energy per Si atom -5581.024624 kJ/mol
# Density = 1.718437 g / cm^3
# Si number density = 17.223573 Si / 1000 Ang^3
#
#
#
# Elastic Constant Matrix: (Units=GPa)
#
#
# Indices 1 2 3 4 5 6 
#
# 1 92.6559 31.9404 65.6652 0.0000 0.0000 0.0000
# 2 31.9404 26.1487 44.2844 0.0000 0.0000 0.0000
# 3 65.6652 44.2844 154.7318 0.0000 0.0000 0.0000
# 4 0.0000 0.0000 0.0000 27.6395 0.0000 0.0000
# 5 0.0000 0.0000 0.0000 0.0000 21.8996 0.0000
# 6 0.0000 0.0000 0.0000 0.0000 0.0000 23.1359
#
#
#
# Elastic Compliance Matrix: (Units=1/GPa)
#
#
# Indices 1 2 3 4 5 6 
#
# 1 0.019245 -0.018777 -0.002793 0.000000 0.000000 0.000000
# 2 -0.018777 0.092536 -0.018515 0.000000 0.000000 0.000000
# 3 -0.002793 -0.018515 0.012947 0.000000 0.000000 0.000000
# 4 0.000000 0.000000 0.000000 0.036180 0.000000 0.000000
# 5 0.000000 0.000000 0.000000 0.000000 0.045663 0.000000
# 6 0.000000 0.000000 0.000000 0.000000 0.000000 0.043223
#
#
# Mechanical properties :
#
#
# Convention : Reuss Voigt Hill
#
# Bulk Modulus (GPa) = 22.44328 61.92403 42.18366
# Shear Modulus (GPa) = 14.50045 23.31143 18.90594
#
# Velocity S-wave (km/s) = 2.90469 3.68293 3.31672
# Velocity P-wave (km/s) = 4.93036 7.35639 6.26199
#
# Compressibility (1/GPa) = 0.04455676
#
# Stress axis : x y z
#
# Youngs Moduli (GPa) = 51.96134 10.80665 77.23710
#
# Poissons Ratio (x) = 0.20292 0.21573
# Poissons Ratio (y) = 0.97570 1.43004
# Poissons Ratio (z) = 0.14513 0.20008
#
# Static dielectric constant tensor:
#      x y z
#    x 1.569460 0.000000 0.000000 
#    y 0.000000 1.573330 0.000000 
#    z 0.000000 0.000000 1.567740 
# 
# From -- ./inp_files/32577.got.cif
#   From: 2010.05.17/outbox.cif.g08.bks.cpg/sg62_17_cif.got.tgz:32577.got - 2010.06.03 15:25:27.
