data_PCOD9462786
_publ_section_title
;
Structure prediction by ZEFSAII (Michael W. Deem and Ramdas Pophale) SiO2 
 PCOD9462786
Probable space group: P N M A
;
_chemical_formula_sum "Si O2"
_cell_formula_units_Z 56
_cell_length_a 12.350498
_cell_length_b 19.764173
_cell_length_c 10.630074
_cell_angle_alpha 90.000000
_cell_angle_beta 90.000000
_cell_angle_gamma 90.000000
_cell_volume 2594.773203
_symmetry_space_group_name_H-M "P N M A"
_symmetry_group_IT_number 62
_symmetry_cell_setting 'orthorhombic'
loop_
_space_group_symop_operation_xyz
x,y,z
1/2-x,-y,1/2+z
1/2+x,1/2-y,1/2-z
-x,1/2+y,-z
-x,-y,-z
1/2+x,y,1/2-z
1/2-x,1/2+y,1/2+z
x,1/2-y,z
loop_
_atom_site_type_symbol
_atom_site_label
_atom_site_fract_x
_atom_site_fract_y
_atom_site_fract_z
Si Si1 0.926726 0.178827 0.865197
Si Si2 0.905356 0.577850 0.039105
Si Si3 0.921326 0.477118 0.629020
Si Si4 0.942200 0.440280 0.177432
Si Si5 0.112242 0.096630 0.535942
Si Si6 0.718983 0.673249 0.617993
Si Si7 0.257748 0.115018 0.780035
O O1 0.987810 0.250000 0.859857
O O2 0.842169 0.172897 0.752626
O O3 0.004300 0.115178 0.875512
O O4 0.854022 0.176992 0.990928
O O5 0.898984 0.500160 0.084873
O O6 0.796860 0.614472 0.083925
O O7 0.952148 0.586339 0.899793
O O8 0.865176 0.522858 0.523473
O O9 0.830274 0.452596 0.724223
O O10 0.009844 0.523447 0.700135
O O11 0.985457 0.413249 0.569265
O O12 0.849414 0.383631 0.194658
O O13 0.163958 0.147165 0.432372
O O14 0.172144 0.111133 0.667026
O O15 0.724671 0.750000 0.669652
#
# Coordination Sequence:
#
# PCOD9462786 Si02
#       7
#     8   8   8   8   8   8   8
#     4   9  18  32  50  77 113 150 195 243 295 363
#     4  10  19  32  55  81 113 148 195 249 299 345
#     4  11  22  35  54  87 120 148 194 252 303 350
#     4  10  19  35  56  86 110 150 195 252 293 354
#     4  10  22  36  54  85 119 151 191 248 302 355
#     4   9  19  37  60  82 111 155 199 240 301 368
#     4  11  19  33  53  80 114 153 193 239 294 364
#
# _framework density 21.581847
#
# number of rings (size 3 to 8) (size 9 to 14) (size 15 to 20)
#    0.000    2.000    2.857    0.857    4.000    0.571 
#    0.000    4.286    0.000    0.000    0.000    4.000 
#    0.000    0.000    0.000    0.000    0.000    0.000 
#
# Total GULP energy -311758.827353 kJ/mol
# GULP energy per Si atom -5567.121917 kJ/mol
# Density = 2.153273 g / cm^3
# Si number density = 21.581847 Si / 1000 Ang^3
#
#
#
# Elastic Constant Matrix: (Units=GPa)
#
#
# Indices 1 2 3 4 5 6 
#
# 1 44.8824 21.8920 -0.4601 0.0000 0.0000 0.0000
# 2 21.8920 82.9939 -2.2270 0.0000 0.0000 0.0000
# 3 -0.4601 -2.2270 34.9945 0.0000 0.0000 0.0000
# 4 0.0000 0.0000 0.0000 10.4938 0.0000 0.0000
# 5 0.0000 0.0000 0.0000 0.0000 19.7144 0.0000
# 6 0.0000 0.0000 0.0000 0.0000 0.0000 23.2893
#
#
#
# Elastic Compliance Matrix: (Units=1/GPa)
#
#
# Indices 1 2 3 4 5 6 
#
# 1 0.025571 -0.006748 -0.000093 0.000000 0.000000 0.000000
# 2 -0.006748 0.013850 0.000793 0.000000 0.000000 0.000000
# 3 -0.000093 0.000793 0.028625 0.000000 0.000000 0.000000
# 4 0.000000 0.000000 0.000000 0.095294 0.000000 0.000000
# 5 0.000000 0.000000 0.000000 0.000000 0.050724 0.000000
# 6 0.000000 0.000000 0.000000 0.000000 0.000000 0.042938
#
#
# Mechanical properties :
#
#
# Convention : Reuss Voigt Hill
#
# Bulk Modulus (GPa) = 17.87311 22.36453 20.11882
# Shear Modulus (GPa) = 17.37626 20.27723 18.82675
#
# Velocity S-wave (km/s) = 2.84057 3.06853 2.95675
# Velocity P-wave (km/s) = 4.36554 4.78954 4.58245
#
# Compressibility (1/GPa) = 0.05594997
#
# Stress axis : x y z
#
# Youngs Moduli (GPa) = 39.10723 72.20112 34.93431
#
# Poissons Ratio (x) = 0.48718 0.00326
# Poissons Ratio (y) = 0.26388 -0.02769
# Poissons Ratio (z) = 0.00365 -0.05723
#
# Static dielectric constant tensor:
#      x y z
#    x 1.838560 0.000000 0.000000 
#    y 0.000000 1.834280 0.000000 
#    z 0.000000 0.000000 1.816310 
# 
# From -- ./inp_files/12399.got.cif
#   From: 2010.05.17/outbox.cif.g08.bks.cpg/sg62_7_cif.got.tgz:12399.got - 2010.06.03 15:25:27.
