data_PCOD9462882
_publ_section_title
;
Structure prediction by ZEFSAII (Michael W. Deem and Ramdas Pophale) SiO2 
 PCOD9462882
Probable space group: P N M A
;
_chemical_formula_sum "Si O2"
_cell_formula_units_Z 64
_cell_length_a 25.842491
_cell_length_b 8.973506
_cell_length_c 14.768770
_cell_angle_alpha 90.000000
_cell_angle_beta 90.000000
_cell_angle_gamma 90.000000
_cell_volume 3424.844504
_symmetry_space_group_name_H-M "P N M A"
_symmetry_group_IT_number 62
_symmetry_cell_setting 'orthorhombic'
loop_
_space_group_symop_operation_xyz
x,y,z
1/2-x,-y,1/2+z
1/2+x,1/2-y,1/2-z
-x,1/2+y,-z
-x,-y,-z
1/2+x,y,1/2-z
1/2-x,1/2+y,1/2+z
x,1/2-y,z
loop_
_atom_site_type_symbol
_atom_site_label
_atom_site_fract_x
_atom_site_fract_y
_atom_site_fract_z
Si Si1 0.165138 0.929106 0.257606
Si Si2 0.279943 0.076906 0.457738
Si Si3 0.896769 0.070087 0.032767
Si Si4 0.630968 0.427915 0.861098
Si Si5 0.772602 0.423409 0.260946
Si Si6 0.052586 0.069843 0.790962
Si Si7 0.673153 0.926171 0.029683
Si Si8 0.060974 0.568917 0.156887
O O1 0.170534 0.750000 0.246565
O O2 0.162699 0.961185 0.365048
O O3 0.112287 0.978705 0.210209
O O4 0.216535 0.006662 0.219730
O O5 0.271525 0.250000 0.482990
O O6 0.337071 0.030798 0.488774
O O7 0.280376 0.067773 0.347998
O O8 0.231496 0.981685 0.490708
O O9 0.897978 0.250000 0.043205
O O10 0.915670 0.995288 0.124595
O O11 0.932332 0.025956 0.948011
O O12 0.632966 0.250000 0.865097
O O13 0.681357 0.488561 0.808553
O O14 0.581249 0.473244 0.801672
O O15 0.634399 0.494480 0.961128
O O16 0.774548 0.250000 0.286833
O O17 0.053682 0.250000 0.796568
O O18 0.993238 0.019187 0.800996
O O19 0.670133 0.750000 0.017862
O O20 0.061088 0.750000 0.159281
#
# Coordination Sequence:
#
# PCOD9462882 Si02
#       8
#     8   8   8   8   8   8   8   8
#     4   9  19  37  58  80 109 145 183 225 278 334
#     4   9  18  32  51  79 113 146 175 212 269 332
#     4  10  19  33  55  82 113 148 180 216 271 331
#     4  11  22  35  54  78 108 148 188 227 276 327
#     4  10  19  33  53  79 112 143 177 224 270 323
#     4  10  21  37  56  80 110 145 188 231 268 319
#     4  10  21  35  54  80 110 143 183 233 279 326
#     4   9  19  36  58  81 107 144 186 226 272 329
#
# _framework density 18.686979999999998
#
# number of rings (size 3 to 8) (size 9 to 14) (size 15 to 20)
#    0.000    2.250    1.250    1.500    1.750    2.000 
#    0.000    1.875    0.000    0.000    0.000    0.000 
#    0.000    0.000    0.000    0.000    0.000    0.000 
#
# Total GULP energy -357351.204134 kJ/mol
# GULP energy per Si atom -5583.612565 kJ/mol
# Density = 1.864445 g / cm^3
# Si number density = 18.686980 Si / 1000 Ang^3
#
#
#
# Elastic Constant Matrix: (Units=GPa)
#
#
# Indices 1 2 3 4 5 6 
#
# 1 70.3985 8.0147 6.1484 0.0000 0.0000 0.0000
# 2 8.0147 19.6211 12.0583 0.0000 0.0000 0.0000
# 3 6.1484 12.0583 25.1401 0.0000 0.0000 0.0000
# 4 0.0000 0.0000 0.0000 23.5836 0.0000 0.0000
# 5 0.0000 0.0000 0.0000 0.0000 28.3151 0.0000
# 6 0.0000 0.0000 0.0000 0.0000 0.0000 16.9886
#
#
#
# Elastic Compliance Matrix: (Units=1/GPa)
#
#
# Indices 1 2 3 4 5 6 
#
# 1 0.014916 -0.005461 -0.001029 0.000000 0.000000 0.000000
# 2 -0.005461 0.074267 -0.034286 0.000000 0.000000 0.000000
# 3 -0.001029 -0.034286 0.056474 0.000000 0.000000 0.000000
# 4 0.000000 0.000000 0.000000 0.042402 0.000000 0.000000
# 5 0.000000 0.000000 0.000000 0.000000 0.035317 0.000000
# 6 0.000000 0.000000 0.000000 0.000000 0.000000 0.058863
#
#
# Mechanical properties :
#
#
# Convention : Reuss Voigt Hill
#
# Bulk Modulus (GPa) = 15.59923 18.62251 17.11087
# Shear Modulus (GPa) = 12.98163 19.70670 16.34416
#
# Velocity S-wave (km/s) = 2.63855 3.25093 2.96062
# Velocity P-wave (km/s) = 4.20100 4.90699 4.56766
#
# Compressibility (1/GPa) = 0.06410572
#
# Stress axis : x y z
#
# Youngs Moduli (GPa) = 67.04043 13.46491 17.70729
#
# Poissons Ratio (x) = 0.07353 0.01822
# Poissons Ratio (y) = 0.36608 0.60712
# Poissons Ratio (z) = 0.06897 0.46166
#
# Static dielectric constant tensor:
#      x y z
#    x 1.635670 0.000000 0.000000 
#    y 0.000000 1.622200 0.000000 
#    z 0.000000 0.000000 1.662890 
# 
# From -- ./inp_files/20769.got.cif
#   From: 2010.05.17/outbox.cif.g08.bks.cpg/sg62_11_cif.got.tgz:20769.got - 2010.06.03 15:25:27.
