data_PCOD9462347
_publ_section_title
;
Structure prediction by ZEFSAII (Michael W. Deem and Ramdas Pophale) SiO2 
 PCOD9462347
Probable space group: P N M A
;
_chemical_formula_sum "Si O2"
_cell_formula_units_Z 56
_cell_length_a 19.187280
_cell_length_b 7.524245
_cell_length_c 19.961046
_cell_angle_alpha 90.000000
_cell_angle_beta 90.000000
_cell_angle_gamma 90.000000
_cell_volume 2881.772131
_symmetry_space_group_name_H-M "P N M A"
_symmetry_group_IT_number 62
_symmetry_cell_setting 'orthorhombic'
loop_
_space_group_symop_operation_xyz
x,y,z
1/2-x,-y,1/2+z
1/2+x,1/2-y,1/2-z
-x,1/2+y,-z
-x,-y,-z
1/2+x,y,1/2-z
1/2-x,1/2+y,1/2+z
x,1/2-y,z
loop_
_atom_site_type_symbol
_atom_site_label
_atom_site_fract_x
_atom_site_fract_y
_atom_site_fract_z
Si Si1 0.508202 0.968387 0.195051
Si Si2 0.731416 0.531284 0.396744
Si Si3 0.122381 0.546806 0.206817
Si Si4 0.220362 0.455731 0.462201
Si Si5 0.936866 0.461269 0.550316
Si Si6 0.849246 0.535706 0.291965
Si Si7 0.238196 0.040959 0.313539
O O1 0.509562 0.750000 0.195080
O O2 0.554536 0.031581 0.257630
O O3 0.542617 0.024688 0.124792
O O4 0.428181 0.025482 0.199360
O O5 0.730873 0.750000 0.396306
O O6 0.662396 0.469512 0.357364
O O7 0.742070 0.468774 0.472388
O O8 0.797964 0.477137 0.351818
O O9 0.104982 0.750000 0.189388
O O10 0.181131 0.547063 0.265206
O O11 0.242240 0.250000 0.458541
O O12 0.136992 0.461778 0.472603
O O13 0.235441 0.532527 0.388738
O O14 0.927524 0.250000 0.553513
O O15 0.000000 0.500000 0.500000
O O16 0.850205 0.750000 0.293443
O O17 0.812035 0.480505 0.223126
O O18 0.220231 0.250000 0.315553
#
# Coordination Sequence:
#
# PCOD9462347 Si02
#       7
#     8   8   8   8   8   8   8
#     4   9  17  30  50  72  92 120 161 203 236 275
#     4   8  15  28  48  68  90 122 158 195 231 277
#     4   9  16  31  52  70  89 119 164 204 235 274
#     4  10  19  32  48  69  97 128 160 193 239 288
#     4  11  21  32  47  70 101 130 158 192 237 291
#     4   9  17  31  50  68  90 121 159 199 233 274
#     4  10  19  30  46  69  97 125 156 195 239 291
#
# _framework density 19.432487999999999
#
# number of rings (size 3 to 8) (size 9 to 14) (size 15 to 20)
#    0.000    2.571    1.429    2.571    0.000    2.857 
#    0.000    7.857    0.000    0.857    0.000    0.000 
#    0.000    0.000    0.000    0.000    0.000    0.143 
#
# Total GULP energy -312418.944101 kJ/mol
# GULP energy per Si atom -5578.909716 kJ/mol
# Density = 1.938826 g / cm^3
# Si number density = 19.432488 Si / 1000 Ang^3
#
#
#
# Elastic Constant Matrix: (Units=GPa)
#
#
# Indices 1 2 3 4 5 6 
#
# 1 18.7829 -5.1457 -10.5019 0.0000 0.0000 0.0000
# 2 -5.1457 54.0982 -4.1196 0.0000 0.0000 0.0000
# 3 -10.5019 -4.1196 88.3242 0.0000 0.0000 0.0000
# 4 0.0000 0.0000 0.0000 10.5481 0.0000 0.0000
# 5 0.0000 0.0000 0.0000 0.0000 31.0727 0.0000
# 6 0.0000 0.0000 0.0000 0.0000 0.0000 6.8062
#
#
#
# Elastic Compliance Matrix: (Units=1/GPa)
#
#
# Indices 1 2 3 4 5 6 
#
# 1 0.059014 0.006170 0.007305 0.000000 0.000000 0.000000
# 2 0.006170 0.019196 0.001629 0.000000 0.000000 0.000000
# 3 0.007305 0.001629 0.012266 0.000000 0.000000 0.000000
# 4 0.000000 0.000000 0.000000 0.094804 0.000000 0.000000
# 5 0.000000 0.000000 0.000000 0.000000 0.032183 0.000000
# 6 0.000000 0.000000 0.000000 0.000000 0.000000 0.146924
#
#
# Mechanical properties :
#
#
# Convention : Reuss Voigt Hill
#
# Bulk Modulus (GPa) = 8.28619 13.51899 10.90259
# Shear Modulus (GPa) = 13.35441 21.75025 17.55233
#
# Velocity S-wave (km/s) = 2.62433 3.34918 3.00867
# Velocity P-wave (km/s) = 3.66827 4.68274 4.20620
#
# Compressibility (1/GPa) = 0.12068270
#
# Stress axis : x y z
#
# Youngs Moduli (GPa) = 16.94507 52.09482 81.52322
#
# Poissons Ratio (x) = -0.32140 -0.59550
# Poissons Ratio (y) = -0.10454 -0.13279
# Poissons Ratio (z) = -0.12378 -0.08486
#
# Static dielectric constant tensor:
#      x y z
#    x 1.659810 0.000000 0.000000 
#    y 0.000000 1.740050 0.000000 
#    z 0.000000 0.000000 1.691500 
# 
# From -- ./inp_files/24630.got.cif
#   From: 2010.05.17/outbox.cif.g08.bks.cpg/sg62_13_cif.got.tgz:24630.got - 2010.06.03 15:25:27.
