data_PCOD9462292
_publ_section_title
;
Structure prediction by ZEFSAII (Michael W. Deem and Ramdas Pophale) SiO2 
 PCOD9462292
Probable space group: P N M A
;
_chemical_formula_sum "Si O2"
_cell_formula_units_Z 48
_cell_length_a 14.249271
_cell_length_b 7.546665
_cell_length_c 24.680938
_cell_angle_alpha 90.000000
_cell_angle_beta 90.000000
_cell_angle_gamma 90.000000
_cell_volume 2654.051704
_symmetry_space_group_name_H-M "P N M A"
_symmetry_group_IT_number 62
_symmetry_cell_setting 'orthorhombic'
loop_
_space_group_symop_operation_xyz
x,y,z
1/2-x,-y,1/2+z
1/2+x,1/2-y,1/2-z
-x,1/2+y,-z
-x,-y,-z
1/2+x,y,1/2-z
1/2-x,1/2+y,1/2+z
x,1/2-y,z
loop_
_atom_site_type_symbol
_atom_site_label
_atom_site_fract_x
_atom_site_fract_y
_atom_site_fract_z
Si Si1 0.410125 0.955269 0.785218
Si Si2 0.614340 0.536406 0.556189
Si Si3 0.307756 0.039540 0.675076
Si Si4 0.776916 0.467529 0.161045
Si Si5 0.104352 0.538708 0.064517
Si Si6 0.383089 0.463413 0.231024
O O1 0.420222 0.750000 0.801365
O O2 0.327447 0.030067 0.823056
O O3 0.514287 0.033734 0.784144
O O4 0.368011 0.960961 0.724482
O O5 0.620919 0.750000 0.554783
O O6 0.683306 0.473750 0.603403
O O7 0.506817 0.492543 0.570827
O O8 0.631704 0.469064 0.495107
O O9 0.324427 0.250000 0.676615
O O10 0.340778 0.969746 0.616849
O O11 0.199071 0.006718 0.688781
O O12 0.775788 0.250000 0.161605
O O13 0.845848 0.523475 0.210028
O O14 0.119755 0.750000 0.063064
O O15 0.389616 0.250000 0.234500
#
# Coordination Sequence:
#
# PCOD9462292 Si02
#       6
#     8   8   8   8   8   8
#     4   9  17  30  47  66  86 109 143 183 216 251
#     4   9  16  28  46  64  84 112 142 174 214 254
#     4  10  19  29  42  63  91 118 142 171 211 260
#     4   8  14  25  43  65  83 103 136 174 211 248
#     4   9  18  29  41  62  89 114 141 172 208 254
#     4   9  17  29  45  64  85 110 142 178 212 250
#
# _framework density 18.085557000000001
#
# number of rings (size 3 to 8) (size 9 to 14) (size 15 to 20)
#    0.000    3.000    0.000    2.500    0.000    3.333 
#    0.000    5.000    0.000    1.000    0.000    0.000 
#    0.000    0.000    0.000    0.000    0.000    0.167 
#
# Total GULP energy -267549.882870 kJ/mol
# GULP energy per Si atom -5573.955893 kJ/mol
# Density = 1.804439 g / cm^3
# Si number density = 18.085557 Si / 1000 Ang^3
#
#
#
# Elastic Constant Matrix: (Units=GPa)
#
#
# Indices 1 2 3 4 5 6 
#
# 1 123.5437 -12.0740 86.9514 0.0000 0.0000 0.0000
# 2 -12.0740 40.1740 -6.9451 0.0000 0.0000 0.0000
# 3 86.9514 -6.9451 143.5210 0.0000 0.0000 0.0000
# 4 0.0000 0.0000 0.0000 9.5286 0.0000 0.0000
# 5 0.0000 0.0000 0.0000 0.0000 22.3267 0.0000
# 6 0.0000 0.0000 0.0000 0.0000 0.0000 4.6935
#
#
#
# Elastic Compliance Matrix: (Units=1/GPa)
#
#
# Indices 1 2 3 4 5 6 
#
# 1 0.014428 0.002849 -0.008603 0.000000 0.000000 0.000000
# 2 0.002849 0.025664 -0.000484 0.000000 0.000000 0.000000
# 3 -0.008603 -0.000484 0.012156 0.000000 0.000000 0.000000
# 4 0.000000 0.000000 0.000000 0.104947 0.000000 0.000000
# 5 0.000000 0.000000 0.000000 0.000000 0.044789 0.000000
# 6 0.000000 0.000000 0.000000 0.000000 0.000000 0.213060
#
#
# Mechanical properties :
#
#
# Convention : Reuss Voigt Hill
#
# Bulk Modulus (GPa) = 25.14348 49.23371 37.18859
# Shear Modulus (GPa) = 11.34358 23.26354 17.30356
#
# Velocity S-wave (km/s) = 2.50715 3.59040 3.09651
# Velocity P-wave (km/s) = 4.72374 6.66856 5.77856
#
# Compressibility (1/GPa) = 0.03977174
#
# Stress axis : x y z
#
# Youngs Moduli (GPa) = 69.31136 38.96469 82.26184
#
# Poissons Ratio (x) = -0.11101 0.70770
# Poissons Ratio (y) = -0.19746 0.03982
# Poissons Ratio (z) = 0.59629 0.01886
#
# Static dielectric constant tensor:
#      x y z
#    x 1.611780 0.000000 0.000000 
#    y 0.000000 1.657980 0.000000 
#    z 0.000000 0.000000 1.623540 
# 
# From -- ./inp_files/26849.got.cif
#   From: 2010.05.17/outbox.cif.g08.bks.cpg/sg62_14_cif.got.tgz:26849.got - 2010.06.03 15:25:27.
