data_PCOD9462389
_publ_section_title
;
Structure prediction by ZEFSAII (Michael W. Deem and Ramdas Pophale) SiO2 
 PCOD9462389
Probable space group: P N M A
;
_chemical_formula_sum "Si O2"
_cell_formula_units_Z 64
_cell_length_a 17.924614
_cell_length_b 7.708299
_cell_length_c 20.308550
_cell_angle_alpha 90.000000
_cell_angle_beta 90.000000
_cell_angle_gamma 90.000000
_cell_volume 2805.997508
_symmetry_space_group_name_H-M "P N M A"
_symmetry_group_IT_number 62
_symmetry_cell_setting 'orthorhombic'
loop_
_space_group_symop_operation_xyz
x,y,z
1/2-x,-y,1/2+z
1/2+x,1/2-y,1/2-z
-x,1/2+y,-z
-x,-y,-z
1/2+x,y,1/2-z
1/2-x,1/2+y,1/2+z
x,1/2-y,z
loop_
_atom_site_type_symbol
_atom_site_label
_atom_site_fract_x
_atom_site_fract_y
_atom_site_fract_z
Si Si1 0.485325 0.951299 0.586168
Si Si2 0.638647 0.455972 0.076104
Si Si3 0.732195 0.540199 0.203480
Si Si4 0.270349 0.536618 0.043923
Si Si5 0.589256 0.553849 0.283711
Si Si6 0.875885 0.445308 0.025419
Si Si7 0.330684 0.959199 0.180404
Si Si8 0.999221 0.543121 0.660495
O O1 0.487705 0.750000 0.565730
O O2 0.570807 0.019295 0.582661
O O3 0.446709 0.958413 0.655837
O O4 0.433310 0.052903 0.535679
O O5 0.631828 0.250000 0.069969
O O6 0.704761 0.486048 0.130492
O O7 0.559159 0.519332 0.104398
O O8 0.662346 0.519511 0.004024
O O9 0.733403 0.750000 0.200655
O O10 0.663896 0.482759 0.250649
O O11 0.804108 0.481784 0.246471
O O12 0.267251 0.750000 0.045352
O O13 0.197318 0.471475 0.005224
O O14 0.277813 0.482173 0.119683
O O15 0.605914 0.750000 0.305441
O O16 0.529276 0.550328 0.225845
O O17 0.854648 0.250000 0.045590
O O18 0.327533 0.750000 0.182426
O O19 0.413219 0.009761 0.156912
O O20 0.987857 0.750000 0.667913
#
# Coordination Sequence:
#
# PCOD9462389 Si02
#       8
#     8   8   8   8   8   8   8   8
#     4  10  19  30  48  77 110 139 170 213 263 315
#     4   9  19  36  57  79 105 140 177 218 271 322
#     4   9  19  35  55  79 105 136 176 220 264 315
#     4   9  18  35  57  77 100 136 182 224 263 315
#     4  10  19  34  56  77 101 137 177 215 262 318
#     4   9  18  33  51  72 102 140 177 211 256 318
#     4  10  20  35  56  80 105 137 178 219 260 313
#     4  10  21  36  52  76 108 136 171 219 269 319
#
# _framework density 22.808288000000001
#
# number of rings (size 3 to 8) (size 9 to 14) (size 15 to 20)
#    0.000    2.500    0.000    1.875    0.000    5.500 
#    0.000    4.375    0.000    0.000    0.000    0.000 
#    0.000    0.000    0.000    0.000    0.000    0.000 
#
# Total GULP energy -356713.583340 kJ/mol
# GULP energy per Si atom -5573.649740 kJ/mol
# Density = 2.275638 g / cm^3
# Si number density = 22.808288 Si / 1000 Ang^3
#
#
#
# Elastic Constant Matrix: (Units=GPa)
#
#
# Indices 1 2 3 4 5 6 
#
# 1 61.0301 -7.5871 -5.8777 0.0000 0.0000 0.0000
# 2 -7.5871 43.9037 -9.8425 0.0000 0.0000 0.0000
# 3 -5.8777 -9.8425 35.2785 0.0000 0.0000 0.0000
# 4 0.0000 0.0000 0.0000 -11.1425 0.0000 0.0000
# 5 0.0000 0.0000 0.0000 0.0000 -6.9228 0.0000
# 6 0.0000 0.0000 0.0000 0.0000 0.0000 6.5658
#
#
#
# Elastic Compliance Matrix: (Units=1/GPa)
#
#
# Indices 1 2 3 4 5 6 
#
# 1 0.017247 0.003866 0.003952 0.000000 0.000000 0.000000
# 2 0.003866 0.025164 0.007665 0.000000 0.000000 0.000000
# 3 0.003952 0.007665 0.031143 0.000000 0.000000 0.000000
# 4 0.000000 0.000000 0.000000 -0.089746 0.000000 0.000000
# 5 0.000000 0.000000 0.000000 0.000000 -0.144450 0.000000
# 6 0.000000 0.000000 0.000000 0.000000 0.000000 0.152305
#
#
# Mechanical properties :
#
#
# Convention : Reuss Voigt Hill
#
# Bulk Modulus (GPa) = 9.56761 10.39975 9.98368
# Shear Modulus (GPa) = -1119.60432 8.60140 -555.50146
#
# Velocity S-wave (km/s) = -22.17976 1.94406 -15.62310
# Velocity P-wave (km/s) = 25.52878 3.09979 17.91800
#
# Compressibility (1/GPa) = 0.10451936
#
# Stress axis : x y z
#
# Youngs Moduli (GPa) = 57.98225 39.73998 32.11025
#
# Poissons Ratio (x) = -0.15365 -0.12690
# Poissons Ratio (y) = -0.22419 -0.24611
# Poissons Ratio (z) = -0.22915 -0.30459
#
# Static dielectric constant tensor:
#      x y z
#    x 1.913090 0.000000 0.000000 
#    y 0.000000 1.912770 0.000000 
#    z 0.000000 0.000000 1.861020 
# 
# From -- ./inp_files/27765.got.cif
#   From: 2010.05.17/outbox.cif.g08.bks.cpg/sg62_14_cif.got.tgz:27765.got - 2010.06.03 15:25:27.
