data_PCOD9462898
_publ_section_title
;
Structure prediction by ZEFSAII (Michael W. Deem and Ramdas Pophale) SiO2 
 PCOD9462898
Probable space group: P N M A
;
_chemical_formula_sum "Si O2"
_cell_formula_units_Z 64
_cell_length_a 15.363988
_cell_length_b 11.206296
_cell_length_c 19.893151
_cell_angle_alpha 90.000000
_cell_angle_beta 90.000000
_cell_angle_gamma 90.000000
_cell_volume 3425.071390
_symmetry_space_group_name_H-M "P N M A"
_symmetry_group_IT_number 62
_symmetry_cell_setting 'orthorhombic'
loop_
_space_group_symop_operation_xyz
x,y,z
1/2-x,-y,1/2+z
1/2+x,1/2-y,1/2-z
-x,1/2+y,-z
-x,-y,-z
1/2+x,y,1/2-z
1/2-x,1/2+y,1/2+z
x,1/2-y,z
loop_
_atom_site_type_symbol
_atom_site_label
_atom_site_fract_x
_atom_site_fract_y
_atom_site_fract_z
Si Si1 0.482379 0.608997 0.791748
Si Si2 0.809566 0.881735 0.453127
Si Si3 0.831183 0.605063 0.608405
Si Si4 0.830454 0.999372 0.310462
Si Si5 0.779738 0.613570 0.176160
Si Si6 0.422901 0.879180 0.432818
Si Si7 0.384516 0.447294 0.551896
Si Si8 0.149821 0.387981 0.176946
O O1 0.497207 0.750000 0.781791
O O2 0.427512 0.595700 0.860336
O O3 0.574989 0.546204 0.790523
O O4 0.415004 0.565314 0.734620
O O5 0.847643 0.750000 0.445530
O O6 0.830633 0.922931 0.528895
O O7 0.704658 0.876203 0.450626
O O8 0.835601 0.956792 0.387772
O O9 0.805525 0.750000 0.617037
O O10 0.774256 0.501287 0.646399
O O11 0.751351 0.093779 0.306476
O O12 0.798312 0.903352 0.255283
O O13 0.744233 0.750000 0.164453
O O14 0.871551 0.608493 0.136549
O O15 0.396420 0.750000 0.462110
O O16 0.526862 0.881805 0.428986
O O17 0.397019 0.987254 0.480936
O O18 0.370359 0.545992 0.608494
O O19 0.131759 0.250000 0.169669
#
# Coordination Sequence:
#
# PCOD9462898 Si02
#       8
#     8   8   8   8   8   8   8   8
#     4  10  21  38  61  89 120 154 206 261 308 359
#     4  10  21  38  59  83 116 160 205 249 299 361
#     4  10  21  41  64  88 120 161 207 256 302 358
#     4  11  22  37  61  87 120 158 201 246 310 368
#     4  11  22  39  59  88 125 161 199 249 309 370
#     4  10  20  33  52  80 117 153 196 247 298 358
#     4  10  19  33  53  81 115 154 197 241 301 358
#     4  10  20  35  56  84 118 151 195 251 302 356
#
# _framework density 18.685741
#
# number of rings (size 3 to 8) (size 9 to 14) (size 15 to 20)
#    0.000    1.750    2.500    2.250    0.000    1.000 
#    0.000    2.500    0.000    0.000    0.000    0.000 
#    0.000    0.000    0.000    0.000    0.000    0.000 
#
# Total GULP energy -356338.315550 kJ/mol
# GULP energy per Si atom -5567.786180 kJ/mol
# Density = 1.864321 g / cm^3
# Si number density = 18.685741 Si / 1000 Ang^3
#
#
#
# Elastic Constant Matrix: (Units=GPa)
#
#
# Indices 1 2 3 4 5 6 
#
# 1 74.8578 21.6837 21.7262 0.0000 0.0000 0.0000
# 2 21.6837 78.2713 28.6671 0.0000 0.0000 0.0000
# 3 21.7262 28.6671 94.2389 0.0000 0.0000 0.0000
# 4 0.0000 0.0000 0.0000 27.0787 0.0000 0.0000
# 5 0.0000 0.0000 0.0000 0.0000 23.2161 0.0000
# 6 0.0000 0.0000 0.0000 0.0000 0.0000 10.7915
#
#
#
# Elastic Compliance Matrix: (Units=1/GPa)
#
#
# Indices 1 2 3 4 5 6 
#
# 1 0.015019 -0.003255 -0.002472 0.000000 0.000000 0.000000
# 2 -0.003255 0.015084 -0.003838 0.000000 0.000000 0.000000
# 3 -0.002472 -0.003838 0.012349 0.000000 0.000000 0.000000
# 4 0.000000 0.000000 0.000000 0.036929 0.000000 0.000000
# 5 0.000000 0.000000 0.000000 0.000000 0.043074 0.000000
# 6 0.000000 0.000000 0.000000 0.000000 0.000000 0.092666
#
#
# Mechanical properties :
#
#
# Convention : Reuss Voigt Hill
#
# Bulk Modulus (GPa) = 42.88075 43.50244 43.19159
# Shear Modulus (GPa) = 20.65905 23.90332 22.28118
#
# Velocity S-wave (km/s) = 3.32867 3.58051 3.45688
# Velocity P-wave (km/s) = 6.14586 6.35807 6.25286
#
# Compressibility (1/GPa) = 0.02332049
#
# Stress axis : x y z
#
# Youngs Moduli (GPa) = 66.58160 66.29743 80.97968
#
# Poissons Ratio (x) = 0.21582 0.20021
# Poissons Ratio (y) = 0.21674 0.31079
# Poissons Ratio (z) = 0.16461 0.25444
#
# Static dielectric constant tensor:
#      x y z
#    x 1.625050 0.000000 0.000000 
#    y 0.000000 1.655580 0.000000 
#    z 0.000000 0.000000 1.658950 
# 
# From -- ./inp_files/24020.got.cif
#   From: 2010.05.17/outbox.cif.g08.bks.cpg/sg62_13_cif.got.tgz:24020.got - 2010.06.03 15:25:27.
