data_PCOD9462699
_publ_section_title
;
Structure prediction by ZEFSAII (Michael W. Deem and Ramdas Pophale) SiO2 
 PCOD9462699
Probable space group: P N M A
;
_chemical_formula_sum "Si O2"
_cell_formula_units_Z 64
_cell_length_a 15.873909
_cell_length_b 7.922167
_cell_length_c 24.694132
_cell_angle_alpha 90.000000
_cell_angle_beta 90.000000
_cell_angle_gamma 90.000000
_cell_volume 3105.429289
_symmetry_space_group_name_H-M "P N M A"
_symmetry_group_IT_number 62
_symmetry_cell_setting 'orthorhombic'
loop_
_space_group_symop_operation_xyz
x,y,z
1/2-x,-y,1/2+z
1/2+x,1/2-y,1/2-z
-x,1/2+y,-z
-x,-y,-z
1/2+x,y,1/2-z
1/2-x,1/2+y,1/2+z
x,1/2-y,z
loop_
_atom_site_type_symbol
_atom_site_label
_atom_site_fract_x
_atom_site_fract_y
_atom_site_fract_z
Si Si1 0.696215 0.044887 0.814446
Si Si2 0.607092 0.052372 0.540717
Si Si3 0.119808 0.947663 0.195514
Si Si4 0.039392 0.454926 0.394524
Si Si5 0.791319 0.946905 0.548569
Si Si6 0.480852 0.549023 0.224308
Si Si7 0.066425 0.054523 0.079459
Si Si8 0.640348 0.951348 0.934571
O O1 0.696576 0.250000 0.813021
O O2 0.786808 0.981345 0.794625
O O3 0.614612 0.982503 0.781342
O O4 0.682028 0.994254 0.876970
O O5 0.584506 0.250000 0.539957
O O6 0.600702 0.989770 0.478370
O O7 0.702026 0.031430 0.560345
O O8 0.534629 0.961680 0.574730
O O9 0.124055 0.750000 0.210135
O O10 0.042896 0.022649 0.230060
O O11 0.100057 0.962113 0.132052
O O12 0.039384 0.250000 0.393720
O O13 0.127479 0.514430 0.419199
O O14 0.023290 0.518935 0.334036
O O15 0.957480 0.506644 0.429520
O O16 0.782323 0.750000 0.561345
O O17 0.813670 0.967137 0.485296
O O18 0.472427 0.750000 0.233437
O O19 0.091341 0.250000 0.084359
O O20 0.643209 0.750000 0.942102
#
# Coordination Sequence:
#
# PCOD9462699 Si02
#       8
#     8   8   8   8   8   8   8   8
#     4   9  18  34  55  77 105 140 178 224 276 321
#     4  10  21  37  56  80 110 143 178 219 266 320
#     4  10  20  35  56  81 107 140 182 226 272 321
#     4   9  20  36  52  73 107 144 178 224 274 322
#     4  11  21  33  51  78 111 145 179 217 269 329
#     4   9  19  36  55  77 106 141 183 230 273 320
#     4  10  21  37  57  80 108 140 176 220 269 320
#     4  10  19  32  52  78 107 139 182 226 266 319
#
# _framework density 20.609067
#
# number of rings (size 3 to 8) (size 9 to 14) (size 15 to 20)
#    0.000    2.250    0.000    2.625    0.000    6.000 
#    2.250    0.000    0.000    0.000    0.000    0.000 
#    0.000    0.000    0.000    0.000    0.000    0.000 
#
# Total GULP energy -357319.065889 kJ/mol
# GULP energy per Si atom -5583.110405 kJ/mol
# Density = 2.056216 g / cm^3
# Si number density = 20.609067 Si / 1000 Ang^3
#
#
#
# Elastic Constant Matrix: (Units=GPa)
#
#
# Indices 1 2 3 4 5 6 
#
# 1 147.6183 -1.8684 44.9125 0.0000 0.0000 0.0000
# 2 -1.8684 19.7481 -4.9463 0.0000 0.0000 0.0000
# 3 44.9125 -4.9463 33.5251 0.0000 0.0000 0.0000
# 4 0.0000 0.0000 0.0000 18.9364 0.0000 0.0000
# 5 0.0000 0.0000 0.0000 0.0000 16.7173 0.0000
# 6 0.0000 0.0000 0.0000 0.0000 0.0000 16.3819
#
#
#
# Elastic Compliance Matrix: (Units=1/GPa)
#
#
# Indices 1 2 3 4 5 6 
#
# 1 0.011593 -0.002900 -0.015958 0.000000 0.000000 0.000000
# 2 -0.002900 0.053306 0.011750 0.000000 0.000000 0.000000
# 3 -0.015958 0.011750 0.052941 0.000000 0.000000 0.000000
# 4 0.000000 0.000000 0.000000 0.052808 0.000000 0.000000
# 5 0.000000 0.000000 0.000000 0.000000 0.059818 0.000000
# 6 0.000000 0.000000 0.000000 0.000000 0.000000 0.061043
#
#
# Mechanical properties :
#
#
# Convention : Reuss Voigt Hill
#
# Bulk Modulus (GPa) = 9.65036 30.78745 20.21891
# Shear Modulus (GPa) = 14.69431 21.26004 17.97717
#
# Velocity S-wave (km/s) = 2.67311 3.21532 2.95667
# Velocity P-wave (km/s) = 3.77095 5.36242 4.63550
#
# Compressibility (1/GPa) = 0.10362305
#
# Stress axis : x y z
#
# Youngs Moduli (GPa) = 86.26027 18.75950 18.88895
#
# Poissons Ratio (x) = 0.05441 0.30144
# Poissons Ratio (y) = 0.25017 -0.22195
# Poissons Ratio (z) = 1.37658 -0.22043
#
# Static dielectric constant tensor:
#      x y z
#    x 1.772660 0.000000 0.000000 
#    y 0.000000 1.736450 0.000000 
#    z 0.000000 0.000000 1.693880 
# 
# From -- ./inp_files/29866.got.cif
#   From: 2010.05.17/outbox.cif.g08.bks.cpg/sg62_15_cif.got.tgz:29866.got - 2010.06.03 15:25:27.
