data_PCOD9462375
_publ_section_title
;
Structure prediction by ZEFSAII (Michael W. Deem and Ramdas Pophale) SiO2 
 PCOD9462375
Probable space group: P N M A
;
_chemical_formula_sum "Si O2"
_cell_formula_units_Z 64
_cell_length_a 19.761844
_cell_length_b 7.795775
_cell_length_c 20.004508
_cell_angle_alpha 90.000000
_cell_angle_beta 90.000000
_cell_angle_gamma 90.000000
_cell_volume 3081.872286
_symmetry_space_group_name_H-M "P N M A"
_symmetry_group_IT_number 62
_symmetry_cell_setting 'orthorhombic'
loop_
_space_group_symop_operation_xyz
x,y,z
1/2-x,-y,1/2+z
1/2+x,1/2-y,1/2-z
-x,1/2+y,-z
-x,-y,-z
1/2+x,y,1/2-z
1/2-x,1/2+y,1/2+z
x,1/2-y,z
loop_
_atom_site_type_symbol
_atom_site_label
_atom_site_fract_x
_atom_site_fract_y
_atom_site_fract_z
Si Si1 0.957172 0.547830 0.091366
Si Si2 0.863381 0.050753 0.607706
Si Si3 0.150329 0.961158 0.537765
Si Si4 0.771948 0.552016 0.874326
Si Si5 0.987311 0.043225 0.235007
Si Si6 0.641321 0.047993 0.256114
Si Si7 0.603732 0.949876 0.459275
Si Si8 0.481169 0.457808 0.115185
O O1 0.956520 0.750000 0.078117
O O2 0.947744 0.516735 0.169724
O O3 0.032828 0.483391 0.071980
O O4 0.905367 0.466924 0.038887
O O5 0.845593 0.250000 0.612598
O O6 0.835619 0.980345 0.537780
O O7 0.842877 0.968850 0.677946
O O8 0.944821 0.032589 0.602319
O O9 0.151374 0.750000 0.536405
O O10 0.206362 0.023488 0.589986
O O11 0.076192 0.011809 0.563501
O O12 0.754012 0.750000 0.859511
O O13 0.803441 0.473847 0.806824
O O14 0.832982 0.545390 0.927753
O O15 0.988757 0.250000 0.232982
O O16 0.065384 0.977843 0.231769
O O17 0.961082 0.995114 0.308536
O O18 0.636604 0.250000 0.271747
O O19 0.610598 0.750000 0.441532
O O20 0.487522 0.250000 0.112939
#
# Coordination Sequence:
#
# PCOD9462375 Si02
#       8
#     8   8   8   8   8   8   8   8
#     4  10  19  30  48  73 103 137 171 212 257 306
#     4  10  19  32  54  81 106 132 169 218 265 306
#     4   9  19  35  55  78 104 138 175 214 262 313
#     4  10  19  35  56  74 100 139 180 213 254 314
#     4   9  16  28  48  74 102 131 168 216 259 298
#     4   9  18  32  52  76 101 135 172 209 252 308
#     4  10  20  32  48  73 103 135 171 214 259 303
#     4   9  18  34  54  77 105 137 175 217 262 312
#
# _framework density 20.766597999999998
#
# number of rings (size 3 to 8) (size 9 to 14) (size 15 to 20)
#    0.000    2.500    1.250    2.250    0.000    3.500 
#    0.000    3.750    0.000    1.500    0.000    0.000 
#    0.000    0.000    0.000    0.000    0.000    0.000 
#
# Total GULP energy -357041.178662 kJ/mol
# GULP energy per Si atom -5578.768417 kJ/mol
# Density = 2.071933 g / cm^3
# Si number density = 20.766598 Si / 1000 Ang^3
#
#
#
# Elastic Constant Matrix: (Units=GPa)
#
#
# Indices 1 2 3 4 5 6 
#
# 1 31.5604 -5.6226 19.4002 0.0000 0.0000 0.0000
# 2 -5.6226 25.7806 -6.2185 0.0000 0.0000 0.0000
# 3 19.4002 -6.2185 132.3341 0.0000 0.0000 0.0000
# 4 0.0000 0.0000 0.0000 21.6201 0.0000 0.0000
# 5 0.0000 0.0000 0.0000 0.0000 28.4531 0.0000
# 6 0.0000 0.0000 0.0000 0.0000 0.0000 8.5979
#
#
#
# Elastic Compliance Matrix: (Units=1/GPa)
#
#
# Indices 1 2 3 4 5 6 
#
# 1 0.035912 0.006638 -0.004953 0.000000 0.000000 0.000000
# 2 0.006638 0.040460 0.000928 0.000000 0.000000 0.000000
# 3 -0.004953 0.000928 0.008326 0.000000 0.000000 0.000000
# 4 0.000000 0.000000 0.000000 0.046253 0.000000 0.000000
# 5 0.000000 0.000000 0.000000 0.000000 0.035146 0.000000
# 6 0.000000 0.000000 0.000000 0.000000 0.000000 0.116307
#
#
# Mechanical properties :
#
#
# Convention : Reuss Voigt Hill
#
# Bulk Modulus (GPa) = 11.12041 22.75483 16.93762
# Shear Modulus (GPa) = 16.27848 23.87529 20.07689
#
# Velocity S-wave (km/s) = 2.80282 3.39440 3.11269
# Velocity P-wave (km/s) = 3.98007 5.13262 4.59264
#
# Compressibility (1/GPa) = 0.08992475
#
# Stress axis : x y z
#
# Youngs Moduli (GPa) = 27.84565 24.71556 120.10088
#
# Poissons Ratio (x) = -0.16405 0.59484
# Poissons Ratio (y) = -0.18483 -0.11148
# Poissons Ratio (z) = 0.13792 -0.02294
#
# Static dielectric constant tensor:
#      x y z
#    x 1.719730 0.000000 0.000000 
#    y 0.000000 1.776790 0.000000 
#    z 0.000000 0.000000 1.771600 
# 
# From -- ./inp_files/24702.got.cif
#   From: 2010.05.17/outbox.cif.g08.bks.cpg/sg62_13_cif.got.tgz:24702.got - 2010.06.03 15:25:27.
