data_PCOD9462215
_publ_section_title
;
Structure prediction by ZEFSAII (Michael W. Deem and Ramdas Pophale) SiO2 
 PCOD9462215
Probable space group: P N M A
;
_chemical_formula_sum "Si O2"
_cell_formula_units_Z 64
_cell_length_a 9.593602
_cell_length_b 16.357274
_cell_length_c 22.054523
_cell_angle_alpha 90.000000
_cell_angle_beta 90.000000
_cell_angle_gamma 90.000000
_cell_volume 3460.909916
_symmetry_space_group_name_H-M "P N M A"
_symmetry_group_IT_number 62
_symmetry_cell_setting 'orthorhombic'
loop_
_space_group_symop_operation_xyz
x,y,z
1/2-x,-y,1/2+z
1/2+x,1/2-y,1/2-z
-x,1/2+y,-z
-x,-y,-z
1/2+x,y,1/2-z
1/2-x,1/2+y,1/2+z
x,1/2-y,z
loop_
_atom_site_type_symbol
_atom_site_label
_atom_site_fract_x
_atom_site_fract_y
_atom_site_fract_z
Si Si1 0.222386 0.009654 0.607742
Si Si2 0.939154 0.444135 0.673776
Si Si3 0.660862 0.001810 0.520374
Si Si4 0.293487 0.432548 0.352114
Si Si5 0.965653 0.156879 0.228538
Si Si6 0.705325 0.155573 0.605039
Si Si7 0.513294 0.570472 0.315647
Si Si8 0.240383 0.848604 0.669795
O O1 0.246912 0.023674 0.536832
O O2 0.232736 0.910843 0.614364
O O3 0.347300 0.049241 0.647298
O O4 0.080346 0.043764 0.636107
O O5 0.851874 0.529128 0.668492
O O6 0.839681 0.377018 0.642051
O O7 0.961606 0.420705 0.744056
O O8 0.689338 0.091505 0.549391
O O9 0.500000 0.000000 0.500000
O O10 0.689414 0.940906 0.576309
O O11 0.347644 0.349141 0.323918
O O12 0.408143 0.494175 0.323441
O O13 0.991037 0.250000 0.245226
O O14 0.885868 0.122967 0.286813
O O15 0.115261 0.129953 0.204152
O O16 0.716534 0.250000 0.587729
O O17 0.572270 0.141329 0.649643
O O18 0.237505 0.750000 0.658625
#
# Coordination Sequence:
#
# PCOD9462215 Si02
#       8
#     8   8   8   8   8   8   8   8
#     4  12  20  34  63  85 114 153 197 241 277 344
#     4  10  22  35  59  89 116 148 192 240 296 349
#     4  10  19  39  61  82 110 146 197 241 272 339
#     4  10  20  34  53  80 115 151 193 238 282 339
#     4  10  19  33  50  76 116 152 184 233 290 338
#     4  10  23  41  60  85 121 156 188 241 301 346
#     4  10  18  36  60  86 112 146 198 238 292 347
#     4  10  21  32  50  83 116 148 186 232 289 338
#
# _framework density 18.492246000000002
#
# number of rings (size 3 to 8) (size 9 to 14) (size 15 to 20)
#    0.000    2.000    3.750    3.000    1.750    3.000 
#    0.000    1.250    0.000    1.500    0.000    0.000 
#    0.000    0.000    0.000    0.000    0.000    0.000 
#
# Total GULP energy -356588.691127 kJ/mol
# GULP energy per Si atom -5571.698299 kJ/mol
# Density = 1.845016 g / cm^3
# Si number density = 18.492246 Si / 1000 Ang^3
#
#
#
# Elastic Constant Matrix: (Units=GPa)
#
#
# Indices 1 2 3 4 5 6 
#
# 1 115.2894 19.1027 27.7752 0.0000 0.0000 0.0000
# 2 19.1027 40.9308 15.9728 0.0000 0.0000 0.0000
# 3 27.7752 15.9728 105.4688 0.0000 0.0000 0.0000
# 4 0.0000 0.0000 0.0000 17.3584 0.0000 0.0000
# 5 0.0000 0.0000 0.0000 0.0000 27.2915 0.0000
# 6 0.0000 0.0000 0.0000 0.0000 0.0000 17.5436
#
#
#
# Elastic Compliance Matrix: (Units=1/GPa)
#
#
# Indices 1 2 3 4 5 6 
#
# 1 0.009783 -0.003784 -0.002003 0.000000 0.000000 0.000000
# 2 -0.003784 0.027430 -0.003158 0.000000 0.000000 0.000000
# 3 -0.002003 -0.003158 0.010487 0.000000 0.000000 0.000000
# 4 0.000000 0.000000 0.000000 0.057609 0.000000 0.000000
# 5 0.000000 0.000000 0.000000 0.000000 0.036641 0.000000
# 6 0.000000 0.000000 0.000000 0.000000 0.000000 0.057001
#
#
# Mechanical properties :
#
#
# Convention : Reuss Voigt Hill
#
# Bulk Modulus (GPa) = 33.54549 43.04337 38.29443
# Shear Modulus (GPa) = 22.04791 25.69460 23.87125
#
# Velocity S-wave (km/s) = 3.45669 3.73162 3.59678
# Velocity P-wave (km/s) = 5.84048 6.47253 6.16461
#
# Compressibility (1/GPa) = 0.02981027
#
# Stress axis : x y z
#
# Youngs Moduli (GPa) = 102.21296 36.45664 95.35375
#
# Poissons Ratio (x) = 0.13796 0.19103
# Poissons Ratio (y) = 0.38680 0.30108
# Poissons Ratio (z) = 0.20477 0.11511
#
# Static dielectric constant tensor:
#      x y z
#    x 1.663100 0.000000 0.000000 
#    y 0.000000 1.692030 0.000000 
#    z 0.000000 0.000000 1.651950 
# 
# From -- ./inp_files/26190.got.cif
#   From: 2010.05.17/outbox.cif.g08.bks.cpg/sg62_14_cif.got.tgz:26190.got - 2010.06.03 15:25:27.
