data_PCOD9462538
_publ_section_title
;
Structure prediction by ZEFSAII (Michael W. Deem and Ramdas Pophale) SiO2 
 PCOD9462538
Probable space group: P N M A
;
_chemical_formula_sum "Si O2"
_cell_formula_units_Z 48
_cell_length_a 32.251922
_cell_length_b 8.880961
_cell_length_c 9.627855
_cell_angle_alpha 90.000000
_cell_angle_beta 90.000000
_cell_angle_gamma 90.000000
_cell_volume 2757.687844
_symmetry_space_group_name_H-M "P N M A"
_symmetry_group_IT_number 62
_symmetry_cell_setting 'orthorhombic'
loop_
_space_group_symop_operation_xyz
x,y,z
1/2-x,-y,1/2+z
1/2+x,1/2-y,1/2-z
-x,1/2+y,-z
-x,-y,-z
1/2+x,y,1/2-z
1/2-x,1/2+y,1/2+z
x,1/2-y,z
loop_
_atom_site_type_symbol
_atom_site_label
_atom_site_fract_x
_atom_site_fract_y
_atom_site_fract_z
Si Si1 0.712258 0.070401 0.109816
Si Si2 0.879513 0.076199 0.924261
Si Si3 0.964670 0.929421 0.903982
Si Si4 0.464370 0.432198 0.904282
Si Si5 0.211591 0.932096 0.084468
Si Si6 0.872438 0.076979 0.587144
O O1 0.712739 0.250000 0.121511
O O2 0.716615 0.999700 0.262480
O O3 0.667784 0.018615 0.049882
O O4 0.750540 0.022650 0.013407
O O5 0.886922 0.250000 0.965845
O O6 0.834037 0.025010 0.973326
O O7 0.875619 0.074935 0.755801
O O8 0.919125 0.976556 0.959717
O O9 0.968367 0.750000 0.896987
O O10 0.968384 0.000624 0.750240
O O11 0.000000 0.000000 0.000000
O O12 0.466292 0.250000 0.897896
O O13 0.418158 0.472766 0.959908
O O14 0.500000 0.500000 0.000000
O O15 0.210982 0.750000 0.096217
O O16 0.865741 0.250000 0.544857
#
# Coordination Sequence:
#
# PCOD9462538 Si02
#       6
#     8   8   8   8   8   8
#     4  10  19  31  51  76  98 128 169 205 241 291
#     4   8  15  31  51  69  95 131 167 203 245 294
#     4  11  21  34  53  77 103 132 168 209 252 299
#     4  10  20  35  54  77 103 133 169 207 251 300
#     4   9  19  34  50  72 102 131 161 203 250 292
#     4   8  16  31  50  71  99 133 163 197 245 296
#
# _framework density 17.405887
#
# number of rings (size 3 to 8) (size 9 to 14) (size 15 to 20)
#    0.000    2.667    0.000    4.500    0.000    8.000 
#    0.000    1.667    0.000    6.000    0.000    0.000 
#    0.000    0.000    0.000    0.000    0.000    0.000 
#
# Total GULP energy -267508.703987 kJ/mol
# GULP energy per Si atom -5573.098000 kJ/mol
# Density = 1.736627 g / cm^3
# Si number density = 17.405887 Si / 1000 Ang^3
#
#
#
# Elastic Constant Matrix: (Units=GPa)
#
#
# Indices 1 2 3 4 5 6 
#
# 1 195.8478 70.3106 64.4369 0.0000 0.0000 0.0000
# 2 70.3106 71.6338 31.1950 0.0000 0.0000 0.0000
# 3 64.4369 31.1950 43.9155 0.0000 0.0000 0.0000
# 4 0.0000 0.0000 0.0000 22.2230 0.0000 0.0000
# 5 0.0000 0.0000 0.0000 0.0000 32.5463 0.0000
# 6 0.0000 0.0000 0.0000 0.0000 0.0000 33.5787
#
#
#
# Elastic Compliance Matrix: (Units=1/GPa)
#
#
# Indices 1 2 3 4 5 6 
#
# 1 0.011220 -0.005565 -0.012510 0.000000 0.000000 0.000000
# 2 -0.005565 0.022972 -0.008153 0.000000 0.000000 0.000000
# 3 -0.012510 -0.008153 0.046918 0.000000 0.000000 0.000000
# 4 0.000000 0.000000 0.000000 0.044998 0.000000 0.000000
# 5 0.000000 0.000000 0.000000 0.000000 0.030725 0.000000
# 6 0.000000 0.000000 0.000000 0.000000 0.000000 0.029781
#
#
# Mechanical properties :
#
#
# Convention : Reuss Voigt Hill
#
# Bulk Modulus (GPa) = 34.89811 71.47580 53.18695
# Shear Modulus (GPa) = 20.11091 27.36657 23.73874
#
# Velocity S-wave (km/s) = 3.40282 3.96947 3.69702
# Velocity P-wave (km/s) = 5.96087 7.88430 6.98907
#
# Compressibility (1/GPa) = 0.02865485
#
# Stress axis : x y z
#
# Youngs Moduli (GPa) = 89.12936 43.53065 21.31381
#
# Poissons Ratio (x) = 0.24224 0.26663
# Poissons Ratio (y) = 0.49598 0.17377
# Poissons Ratio (z) = 1.11498 0.35491
#
# Static dielectric constant tensor:
#      x y z
#    x 1.632140 0.000000 0.000000 
#    y 0.000000 1.582790 0.000000 
#    z 0.000000 0.000000 1.566990 
# 
# From -- ./inp_files/15151.got.cif
#   From: 2010.05.17/outbox.cif.g08.bks.cpg/sg62_8_cif.got.tgz:15151.got - 2010.06.03 15:25:27.
