data_PCOD9462321
_publ_section_title
;
Structure prediction by ZEFSAII (Michael W. Deem and Ramdas Pophale) SiO2 
 PCOD9462321
Probable space group: P N M A
;
_chemical_formula_sum "Si O2"
_cell_formula_units_Z 56
_cell_length_a 10.425078
_cell_length_b 23.730985
_cell_length_c 11.699333
_cell_angle_alpha 90.000000
_cell_angle_beta 90.000000
_cell_angle_gamma 90.000000
_cell_volume 2894.384211
_symmetry_space_group_name_H-M "P N M A"
_symmetry_group_IT_number 62
_symmetry_cell_setting 'orthorhombic'
loop_
_space_group_symop_operation_xyz
x,y,z
1/2-x,-y,1/2+z
1/2+x,1/2-y,1/2-z
-x,1/2+y,-z
-x,-y,-z
1/2+x,y,1/2-z
1/2-x,1/2+y,1/2+z
x,1/2-y,z
loop_
_atom_site_type_symbol
_atom_site_label
_atom_site_fract_x
_atom_site_fract_y
_atom_site_fract_z
Si Si1 0.483354 0.316552 0.520352
Si Si2 0.709709 0.106903 0.611123
Si Si3 0.317834 0.408143 0.133726
Si Si4 0.919949 0.974084 0.398074
Si Si5 0.212330 0.891965 0.127392
Si Si6 0.999283 0.520081 0.151250
Si Si7 0.962402 0.891080 0.805751
O O1 0.497866 0.250000 0.519657
O O2 0.597646 0.346923 0.591565
O O3 0.348686 0.336580 0.573769
O O4 0.494934 0.343677 0.394758
O O5 0.799032 0.108805 0.498931
O O6 0.769696 0.114508 0.736023
O O7 0.636320 0.046385 0.612395
O O8 0.321894 0.476164 0.137735
O O9 0.449581 0.388825 0.193251
O O10 0.191958 0.388168 0.203122
O O11 0.845429 0.916529 0.420688
O O12 0.007110 0.967636 0.286921
O O13 0.000000 0.000000 0.500000
O O14 0.109591 0.941216 0.099579
O O15 0.011926 0.453328 0.139602
#
# Coordination Sequence:
#
# PCOD9462321 Si02
#       7
#     8   8   8   8   8   8   8
#     4  10  23  39  57  79 112 163 212 249 292 347
#     4   9  20  35  58  84 116 149 193 248 305 365
#     4  10  20  35  57  85 117 156 189 237 308 364
#     4  10  19  29  51  86 125 151 185 234 301 384
#     4  10  19  35  57  85 119 152 196 247 309 367
#     4   9  18  32  52  83 119 152 182 233 310 371
#     4  10  21  37  58  84 120 156 197 244 298 362
#
# _framework density 19.347812000000001
#
# number of rings (size 3 to 8) (size 9 to 14) (size 15 to 20)
#    0.000    2.286    1.429    0.857    2.000    4.571 
#    0.000    2.857    0.000    0.000    0.000    3.000 
#    0.000    0.000    0.000    0.000    0.000    0.000 
#
# Total GULP energy -312388.370649 kJ/mol
# GULP energy per Si atom -5578.363762 kJ/mol
# Density = 1.930378 g / cm^3
# Si number density = 19.347812 Si / 1000 Ang^3
#
#
#
# Elastic Constant Matrix: (Units=GPa)
#
#
# Indices 1 2 3 4 5 6 
#
# 1 59.0498 17.4328 40.5825 0.0000 0.0000 0.0000
# 2 17.4328 94.8114 9.0601 0.0000 0.0000 0.0000
# 3 40.5825 9.0601 77.9034 0.0000 0.0000 0.0000
# 4 0.0000 0.0000 0.0000 16.6783 0.0000 0.0000
# 5 0.0000 0.0000 0.0000 0.0000 33.6333 0.0000
# 6 0.0000 0.0000 0.0000 0.0000 0.0000 18.0646
#
#
#
# Elastic Compliance Matrix: (Units=1/GPa)
#
#
# Indices 1 2 3 4 5 6 
#
# 1 0.027636 -0.003747 -0.013961 0.000000 0.000000 0.000000
# 2 -0.003747 0.011174 0.000653 0.000000 0.000000 0.000000
# 3 -0.013961 0.000653 0.020033 0.000000 0.000000 0.000000
# 4 0.000000 0.000000 0.000000 0.059958 0.000000 0.000000
# 5 0.000000 0.000000 0.000000 0.000000 0.029732 0.000000
# 6 0.000000 0.000000 0.000000 0.000000 0.000000 0.055357
#
#
# Mechanical properties :
#
#
# Convention : Reuss Voigt Hill
#
# Bulk Modulus (GPa) = 40.43327 40.65726 40.54527
# Shear Modulus (GPa) = 20.30503 24.65453 22.47978
#
# Velocity S-wave (km/s) = 3.24307 3.57358 3.41233
# Velocity P-wave (km/s) = 5.91328 6.17145 6.04374
#
# Compressibility (1/GPa) = 0.02473211
#
# Stress axis : x y z
#
# Youngs Moduli (GPa) = 36.18514 89.49426 49.91754
#
# Poissons Ratio (x) = 0.33536 0.69688
# Poissons Ratio (y) = 0.13559 -0.03257
# Poissons Ratio (z) = 0.50516 -0.05840
#
# Static dielectric constant tensor:
#      x y z
#    x 1.756870 0.000000 0.000000 
#    y 0.000000 1.643890 0.000000 
#    z 0.000000 0.000000 1.716930 
# 
# From -- ./inp_files/12506.got.cif
#   From: 2010.05.17/outbox.cif.g08.bks.cpg/sg62_7_cif.got.tgz:12506.got - 2010.06.03 15:25:27.
