data_PCOD9462537
_publ_section_title
;
Structure prediction by ZEFSAII (Michael W. Deem and Ramdas Pophale) SiO2 
 PCOD9462537
Probable space group: P N M A
;
_chemical_formula_sum "Si O2"
_cell_formula_units_Z 64
_cell_length_a 5.484079
_cell_length_b 24.919730
_cell_length_c 27.510706
_cell_angle_alpha 90.000000
_cell_angle_beta 90.000000
_cell_angle_gamma 90.000000
_cell_volume 3759.661720
_symmetry_space_group_name_H-M "P N M A"
_symmetry_group_IT_number 62
_symmetry_cell_setting 'orthorhombic'
loop_
_space_group_symop_operation_xyz
x,y,z
1/2-x,-y,1/2+z
1/2+x,1/2-y,1/2-z
-x,1/2+y,-z
-x,-y,-z
1/2+x,y,1/2-z
1/2-x,1/2+y,1/2+z
x,1/2-y,z
loop_
_atom_site_type_symbol
_atom_site_label
_atom_site_fract_x
_atom_site_fract_y
_atom_site_fract_z
Si Si1 0.389800 0.988181 0.427207
Si Si2 0.791873 0.652035 0.728688
Si Si3 0.436492 0.086483 0.494384
Si Si4 0.555080 0.810459 0.637110
Si Si5 0.189812 0.869237 0.584815
Si Si6 0.306263 0.691279 0.967206
Si Si7 0.266948 0.029400 0.233509
Si Si8 0.088352 0.977647 0.621254
O O1 0.442393 0.933207 0.455910
O O2 0.151543 0.987918 0.392643
O O3 0.650721 0.003765 0.402154
O O4 0.327758 0.032869 0.469084
O O5 0.045462 0.675235 0.747345
O O6 0.753736 0.663490 0.672048
O O7 0.779825 0.589184 0.743970
O O8 0.261108 0.138290 0.497825
O O9 0.636634 0.105033 0.455562
O O10 0.500456 0.750000 0.652768
O O11 0.639296 0.808245 0.581192
O O12 0.326208 0.849619 0.633254
O O13 0.065036 0.819825 0.557905
O O14 0.021776 0.918343 0.600963
O O15 0.291514 0.750000 0.990609
O O16 0.496167 0.004444 0.262475
O O17 0.356016 0.028607 0.178085
#
# Coordination Sequence:
#
# PCOD9462537 Si02
#       8
#     8   8   8   8   8   8   8   8
#     4  10  21  34  54  78 101 128 167 215 266 311
#     4  10  22  35  49  65  86 120 161 216 264 308
#     4   9  20  33  50  73 104 127 165 214 263 308
#     4  10  22  35  47  66  92 128 174 222 265 305
#     4  10  19  31  51  70  95 129 164 216 260 309
#     4  10  20  33  51  72  98 133 175 215 257 305
#     4  10  20  32  49  69  95 125 163 207 251 306
#     4  11  21  33  53  76  97 129 169 213 264 311
#
# _framework density 17.022807
#
# number of rings (size 3 to 8) (size 9 to 14) (size 15 to 20)
#    0.000    2.000    1.250    2.625    7.000    2.500 
#    0.000    0.000    0.000    0.000    0.000    0.000 
#    0.000    0.000    0.000    0.000    0.000   12.500 
#
# Total GULP energy -356353.207693 kJ/mol
# GULP energy per Si atom -5568.018870 kJ/mol
# Density = 1.698406 g / cm^3
# Si number density = 17.022807 Si / 1000 Ang^3
#
#
#
# Elastic Constant Matrix: (Units=GPa)
#
#
# Indices 1 2 3 4 5 6 
#
# 1 68.6045 4.8712 4.4690 0.0000 0.0000 0.0000
# 2 4.8712 49.6055 18.5277 0.0000 0.0000 0.0000
# 3 4.4690 18.5277 44.5774 0.0000 0.0000 0.0000
# 4 0.0000 0.0000 0.0000 13.9811 0.0000 0.0000
# 5 0.0000 0.0000 0.0000 0.0000 18.5176 0.0000
# 6 0.0000 0.0000 0.0000 0.0000 0.0000 6.4478
#
#
#
# Elastic Compliance Matrix: (Units=1/GPa)
#
#
# Indices 1 2 3 4 5 6 
#
# 1 0.014719 -0.001059 -0.001036 0.000000 0.000000 0.000000
# 2 -0.001059 0.023940 -0.009844 0.000000 0.000000 0.000000
# 3 -0.001036 -0.009844 0.026628 0.000000 0.000000 0.000000
# 4 0.000000 0.000000 0.000000 0.071525 0.000000 0.000000
# 5 0.000000 0.000000 0.000000 0.000000 0.054003 0.000000
# 6 0.000000 0.000000 0.000000 0.000000 0.000000 0.155092
#
#
# Mechanical properties :
#
#
# Convention : Reuss Voigt Hill
#
# Bulk Modulus (GPa) = 24.14845 24.28035 24.21440
# Shear Modulus (GPa) = 13.03489 16.78395 14.90942
#
# Velocity S-wave (km/s) = 2.77019 3.14342 2.96269
# Velocity P-wave (km/s) = 4.94456 5.24110 5.09499
#
# Compressibility (1/GPa) = 0.04141052
#
# Stress axis : x y z
#
# Youngs Moduli (GPa) = 67.93977 41.77156 37.55423
#
# Poissons Ratio (x) = 0.04422 0.03889
# Poissons Ratio (y) = 0.07192 0.36968
# Poissons Ratio (z) = 0.07036 0.41120
#
# Static dielectric constant tensor:
#      x y z
#    x 1.717720 0.000000 0.000000 
#    y 0.000000 1.593790 0.000000 
#    z 0.000000 0.000000 1.599840 
# 
# From -- ./inp_files/28457.got.cif
#   From: 2010.05.17/outbox.cif.g08.bks.cpg/sg62_15_cif.got.tgz:28457.got - 2010.06.03 15:25:27.
