data_PCOD9462350
_publ_section_title
;
Structure prediction by ZEFSAII (Michael W. Deem and Ramdas Pophale) SiO2 
 PCOD9462350
Probable space group: P N M A
;
_chemical_formula_sum "Si O2"
_cell_formula_units_Z 56
_cell_length_a 18.664498
_cell_length_b 9.079961
_cell_length_c 20.896017
_cell_angle_alpha 90.000000
_cell_angle_beta 90.000000
_cell_angle_gamma 90.000000
_cell_volume 3541.308890
_symmetry_space_group_name_H-M "P N M A"
_symmetry_group_IT_number 62
_symmetry_cell_setting 'orthorhombic'
loop_
_space_group_symop_operation_xyz
x,y,z
1/2-x,-y,1/2+z
1/2+x,1/2-y,1/2-z
-x,1/2+y,-z
-x,-y,-z
1/2+x,y,1/2-z
1/2-x,1/2+y,1/2+z
x,1/2-y,z
loop_
_atom_site_type_symbol
_atom_site_label
_atom_site_fract_x
_atom_site_fract_y
_atom_site_fract_z
Si Si1 0.074796 0.427535 0.748782
Si Si2 0.922887 0.075499 0.505475
Si Si3 0.921568 0.574980 0.759873
Si Si4 0.845132 0.425381 0.370613
Si Si5 0.209733 0.580127 0.179927
Si Si6 0.714400 0.418193 0.680167
Si Si7 0.656159 0.423021 0.122841
O O1 0.072604 0.250000 0.742156
O O2 0.105481 0.498662 0.683504
O O3 0.133008 0.462298 0.804253
O O4 0.997464 0.494100 0.763055
O O5 0.932192 0.250000 0.513442
O O6 0.879462 0.050013 0.439889
O O7 0.880338 0.010360 0.565491
O O8 0.000000 0.000000 0.500000
O O9 0.928633 0.750000 0.769947
O O10 0.864418 0.504486 0.808706
O O11 0.888870 0.553350 0.688401
O O12 0.841762 0.250000 0.358217
O O13 0.766346 0.495958 0.364547
O O14 0.199328 0.750000 0.160720
O O15 0.248146 0.581683 0.249751
O O16 0.716239 0.250000 0.656212
O O17 0.763488 0.520729 0.636710
O O18 0.655591 0.250000 0.109013
#
# Coordination Sequence:
#
# PCOD9462350 Si02
#       7
#     8   8   8   8   8   8   8
#     4  10  19  30  47  71  96 124 156 192 234 279
#     4  11  23  35  48  67  94 127 161 195 229 268
#     4  10  19  30  46  70  98 125 153 192 237 278
#     4  10  20  33  47  66  93 125 159 194 233 276
#     4   9  17  30  48  68  90 120 155 191 232 279
#     4   8  16  30  46  65  90 119 152 189 231 275
#     4  10  20  32  47  67  92 124 160 193 229 273
#
# _framework density 15.813361
#
# number of rings (size 3 to 8) (size 9 to 14) (size 15 to 20)
#    0.000    2.286    0.000    4.286    0.000   11.429 
#    0.000    0.000    0.000    0.000    0.000    1.000 
#    0.000    0.000    0.000    0.000    0.000    0.000 
#
# Total GULP energy -312345.782248 kJ/mol
# GULP energy per Si atom -5577.603254 kJ/mol
# Density = 1.577737 g / cm^3
# Si number density = 15.813361 Si / 1000 Ang^3
#
#
#
# Elastic Constant Matrix: (Units=GPa)
#
#
# Indices 1 2 3 4 5 6 
#
# 1 151.6168 91.8290 52.4691 0.0000 0.0000 0.0000
# 2 91.8290 113.7644 64.0815 0.0000 0.0000 0.0000
# 3 52.4691 64.0815 57.9204 0.0000 0.0000 0.0000
# 4 0.0000 0.0000 0.0000 22.6515 0.0000 0.0000
# 5 0.0000 0.0000 0.0000 0.0000 18.9511 0.0000
# 6 0.0000 0.0000 0.0000 0.0000 0.0000 33.5304
#
#
#
# Elastic Compliance Matrix: (Units=1/GPa)
#
#
# Indices 1 2 3 4 5 6 
#
# 1 0.012908 -0.010172 -0.000440 0.000000 0.000000 0.000000
# 2 -0.010172 0.031344 -0.025463 0.000000 0.000000 0.000000
# 3 -0.000440 -0.025463 0.045835 0.000000 0.000000 0.000000
# 4 0.000000 0.000000 0.000000 0.044147 0.000000 0.000000
# 5 0.000000 0.000000 0.000000 0.000000 0.052767 0.000000
# 6 0.000000 0.000000 0.000000 0.000000 0.000000 0.029824
#
#
# Mechanical properties :
#
#
# Convention : Reuss Voigt Hill
#
# Bulk Modulus (GPa) = 55.74834 82.22898 68.98866
# Shear Modulus (GPa) = 16.95176 22.68808 19.81992
#
# Velocity S-wave (km/s) = 3.27768 3.79191 3.54413
# Velocity P-wave (km/s) = 7.04661 8.44298 7.77620
#
# Compressibility (1/GPa) = 0.01793775
#
# Stress axis : x y z
#
# Youngs Moduli (GPa) = 77.46844 31.90435 21.81724
#
# Poissons Ratio (x) = 0.32453 0.00959
# Poissons Ratio (y) = 0.78800 0.55554
# Poissons Ratio (z) = 0.03407 0.81239
#
# Static dielectric constant tensor:
#      x y z
#    x 1.525870 0.000000 0.000000 
#    y 0.000000 1.531190 0.000000 
#    z 0.000000 0.000000 1.501150 
# 
# From -- ./inp_files/27502.got.cif
#   From: 2010.05.17/outbox.cif.g08.bks.cpg/sg62_14_cif.got.tgz:27502.got - 2010.06.03 15:25:27.
