data_PCOD9462339
_publ_section_title
;
Structure prediction by ZEFSAII (Michael W. Deem and Ramdas Pophale) SiO2 
 PCOD9462339
Probable space group: P N M A
;
_chemical_formula_sum "Si O2"
_cell_formula_units_Z 56
_cell_length_a 13.762425
_cell_length_b 8.914943
_cell_length_c 29.979436
_cell_angle_alpha 90.000000
_cell_angle_beta 90.000000
_cell_angle_gamma 90.000000
_cell_volume 3678.214010
_symmetry_space_group_name_H-M "P N M A"
_symmetry_group_IT_number 62
_symmetry_cell_setting 'orthorhombic'
loop_
_space_group_symop_operation_xyz
x,y,z
1/2-x,-y,1/2+z
1/2+x,1/2-y,1/2-z
-x,1/2+y,-z
-x,-y,-z
1/2+x,y,1/2-z
1/2-x,1/2+y,1/2+z
x,1/2-y,z
loop_
_atom_site_type_symbol
_atom_site_label
_atom_site_fract_x
_atom_site_fract_y
_atom_site_fract_z
Si Si1 0.302647 0.071767 0.315427
Si Si2 0.894053 0.571786 0.271180
Si Si3 0.607599 0.429780 0.497993
Si Si4 0.400898 0.572023 0.770866
Si Si5 0.787001 0.570483 0.819685
Si Si6 0.386754 0.571191 0.402764
Si Si7 0.381720 0.070736 0.593344
O O1 0.317945 0.250000 0.310325
O O2 0.190277 0.040877 0.303190
O O3 0.366578 0.987753 0.278191
O O4 0.332810 0.017488 0.364100
O O5 0.884710 0.750000 0.272760
O O6 0.815820 0.496352 0.304075
O O7 0.003077 0.519890 0.281340
O O8 0.500000 0.500000 0.500000
O O9 0.601093 0.250000 0.493747
O O10 0.650125 0.463173 0.547048
O O11 0.652866 0.500083 0.453579
O O12 0.422293 0.750000 0.772769
O O13 0.361586 0.537953 0.721014
O O14 0.779996 0.750000 0.823647
O O15 0.825651 0.498309 0.864931
O O16 0.376509 0.750000 0.395552
O O17 0.502625 0.537398 0.401336
O O18 0.371584 0.250000 0.591934
#
# Coordination Sequence:
#
# PCOD9462339 Si02
#       7
#     8   8   8   8   8   8   8
#     4  10  20  32  48  68  91 122 156 188 225 271
#     4  11  21  32  48  68  92 121 152 190 230 267
#     4   9  17  29  44  64  91 123 155 188 229 273
#     4   9  19  34  48  65  90 120 154 188 223 266
#     4  10  20  33  49  68  92 123 156 189 226 271
#     4   9  18  30  45  67  95 123 152 189 228 268
#     4  10  19  30  45  68  96 124 155 190 228 272
#
# _framework density 15.224780000000001
#
# number of rings (size 3 to 8) (size 9 to 14) (size 15 to 20)
#    0.000    2.286    0.000    5.571    0.000    9.143 
#    0.000    0.000    0.000    0.000    0.000    1.000 
#    0.000    0.000    0.000    0.000    0.000    0.000 
#
# Total GULP energy -312319.551758 kJ/mol
# GULP energy per Si atom -5577.134853 kJ/mol
# Density = 1.519013 g / cm^3
# Si number density = 15.224780 Si / 1000 Ang^3
#
#
#
# Elastic Constant Matrix: (Units=GPa)
#
#
# Indices 1 2 3 4 5 6 
#
# 1 59.3914 43.2714 44.5310 0.0000 0.0000 0.0000
# 2 43.2714 73.0350 60.4127 0.0000 0.0000 0.0000
# 3 44.5310 60.4127 136.2509 0.0000 0.0000 0.0000
# 4 0.0000 0.0000 0.0000 30.4883 0.0000 0.0000
# 5 0.0000 0.0000 0.0000 0.0000 19.1985 0.0000
# 6 0.0000 0.0000 0.0000 0.0000 0.0000 20.9877
#
#
#
# Elastic Compliance Matrix: (Units=1/GPa)
#
#
# Indices 1 2 3 4 5 6 
#
# 1 0.030424 -0.015477 -0.003081 0.000000 0.000000 0.000000
# 2 -0.015477 0.029495 -0.008020 0.000000 0.000000 0.000000
# 3 -0.003081 -0.008020 0.011902 0.000000 0.000000 0.000000
# 4 0.000000 0.000000 0.000000 0.032799 0.000000 0.000000
# 5 0.000000 0.000000 0.000000 0.000000 0.052087 0.000000
# 6 0.000000 0.000000 0.000000 0.000000 0.000000 0.047647
#
#
# Mechanical properties :
#
#
# Convention : Reuss Voigt Hill
#
# Bulk Modulus (GPa) = 53.57274 62.78971 58.18123
# Shear Modulus (GPa) = 18.95862 22.16571 20.56217
#
# Velocity S-wave (km/s) = 3.53264 3.81976 3.67900
# Velocity P-wave (km/s) = 7.20442 7.79650 7.50630
#
# Compressibility (1/GPa) = 0.01866621
#
# Stress axis : x y z
#
# Youngs Moduli (GPa) = 32.86919 33.90373 84.01710
#
# Poissons Ratio (x) = 0.52471 0.25887
# Poissons Ratio (y) = 0.50870 0.67380
# Poissons Ratio (z) = 0.10128 0.27190
#
# Static dielectric constant tensor:
#      x y z
#    x 1.488270 0.000000 0.000000 
#    y 0.000000 1.503140 0.000000 
#    z 0.000000 0.000000 1.517970 
# 
# From -- ./inp_files/32654.got.cif
#   From: 2010.05.17/outbox.cif.g08.bks.cpg/sg62_17_cif.got.tgz:32654.got - 2010.06.03 15:25:27.
