data_PCOD9462391
_publ_section_title
;
Structure prediction by ZEFSAII (Michael W. Deem and Ramdas Pophale) SiO2 
 PCOD9462391
Probable space group: P N M A
;
_chemical_formula_sum "Si O2"
_cell_formula_units_Z 56
_cell_length_a 9.606425
_cell_length_b 14.112779
_cell_length_c 22.899804
_cell_angle_alpha 90.000000
_cell_angle_beta 90.000000
_cell_angle_gamma 90.000000
_cell_volume 3104.603211
_symmetry_space_group_name_H-M "P N M A"
_symmetry_group_IT_number 62
_symmetry_cell_setting 'orthorhombic'
loop_
_space_group_symop_operation_xyz
x,y,z
1/2-x,-y,1/2+z
1/2+x,1/2-y,1/2-z
-x,1/2+y,-z
-x,-y,-z
1/2+x,y,1/2-z
1/2-x,1/2+y,1/2+z
x,1/2-y,z
loop_
_atom_site_type_symbol
_atom_site_label
_atom_site_fract_x
_atom_site_fract_y
_atom_site_fract_z
Si Si1 0.645367 0.362279 0.866401
Si Si2 0.788879 0.517823 0.141071
Si Si3 0.445299 0.362094 0.641211
Si Si4 0.422395 0.138488 0.779926
Si Si5 0.471338 0.001666 0.931885
Si Si6 0.935564 0.362976 0.329289
Si Si7 0.237864 0.362167 0.274010
O O1 0.660286 0.250000 0.864376
O O2 0.797563 0.398184 0.882632
O O3 0.574432 0.390252 0.804879
O O4 0.531512 0.397482 0.911350
O O5 0.694809 0.580314 0.186065
O O6 0.689524 0.495457 0.086513
O O7 0.819045 0.422919 0.177459
O O8 0.923676 0.576163 0.123831
O O9 0.467299 0.250000 0.628812
O O10 0.424281 0.371995 0.710996
O O11 0.400870 0.250000 0.792710
O O12 0.545866 0.925218 0.888114
O O13 0.500000 0.000000 0.000000
O O14 0.933153 0.250000 0.342571
O O15 0.074288 0.379925 0.288911
O O16 0.800601 0.386607 0.289635
O O17 0.261149 0.250000 0.281245
#
# Coordination Sequence:
#
# PCOD9462391 Si02
#       7
#     8   8   8   8   8   8   8
#     4   9  19  33  50  74 104 140 173 209 255 305
#     4  10  20  30  53  77 105 142 174 215 269 313
#     4  10  19  30  48  78 111 137 166 207 260 319
#     4   9  17  29  46  75 112 141 166 195 246 318
#     4  10  22  38  53  75 103 141 188 219 253 319
#     4   9  19  35  55  79 105 134 170 223 278 319
#     4   9  19  33  50  76 106 132 171 219 272 325
#
# _framework density 18.037732999999999
#
# number of rings (size 3 to 8) (size 9 to 14) (size 15 to 20)
#    0.000    2.571    0.000    1.286    8.000    3.429 
#    0.000    0.714    0.000    0.000    0.000    8.000 
#    0.000    0.000    0.000    0.000    0.000    0.000 
#
# Total GULP energy -312003.947429 kJ/mol
# GULP energy per Si atom -5571.499061 kJ/mol
# Density = 1.799668 g / cm^3
# Si number density = 18.037733 Si / 1000 Ang^3
#
#
#
# Elastic Constant Matrix: (Units=GPa)
#
#
# Indices 1 2 3 4 5 6 
#
# 1 62.5521 18.3466 13.9309 0.0000 0.0000 0.0000
# 2 18.3466 34.8660 7.1035 0.0000 0.0000 0.0000
# 3 13.9309 7.1035 58.8326 0.0000 0.0000 0.0000
# 4 0.0000 0.0000 0.0000 12.9582 0.0000 0.0000
# 5 0.0000 0.0000 0.0000 0.0000 10.8036 0.0000
# 6 0.0000 0.0000 0.0000 0.0000 0.0000 23.9702
#
#
#
# Elastic Compliance Matrix: (Units=1/GPa)
#
#
# Indices 1 2 3 4 5 6 
#
# 1 0.019574 -0.009592 -0.003477 0.000000 0.000000 0.000000
# 2 -0.009592 0.034105 -0.001847 0.000000 0.000000 0.000000
# 3 -0.003477 -0.001847 0.018044 0.000000 0.000000 0.000000
# 4 0.000000 0.000000 0.000000 0.077171 0.000000 0.000000
# 5 0.000000 0.000000 0.000000 0.000000 0.092562 0.000000
# 6 0.000000 0.000000 0.000000 0.000000 0.000000 0.041719
#
#
# Mechanical properties :
#
#
# Convention : Reuss Voigt Hill
#
# Bulk Modulus (GPa) = 23.87079 26.11251 24.99165
# Shear Modulus (GPa) = 15.29199 17.33770 16.31484
#
# Velocity S-wave (km/s) = 2.91482 3.10367 3.01073
# Velocity P-wave (km/s) = 4.95891 5.22989 5.09620
#
# Compressibility (1/GPa) = 0.04189221
#
# Stress axis : x y z
#
# Youngs Moduli (GPa) = 51.08746 29.32149 55.42122
#
# Poissons Ratio (x) = 0.28124 0.19269
# Poissons Ratio (y) = 0.49002 0.10234
# Poissons Ratio (z) = 0.17762 0.05415
#
# Static dielectric constant tensor:
#      x y z
#    x 1.670520 0.000000 0.000000 
#    y 0.000000 1.661320 0.000000 
#    z 0.000000 0.000000 1.527430 
# 
# From -- ./inp_files/25985.got.cif
#   From: 2010.05.17/outbox.cif.g08.bks.cpg/sg62_13_cif.got.tgz:25985.got - 2010.06.03 15:25:27.
