data_PCOD9462697
_publ_section_title
;
Structure prediction by ZEFSAII (Michael W. Deem and Ramdas Pophale) SiO2 
 PCOD9462697
Probable space group: P N M A
;
_chemical_formula_sum "Si O2"
_cell_formula_units_Z 64
_cell_length_a 20.409159
_cell_length_b 8.457978
_cell_length_c 20.836657
_cell_angle_alpha 90.000000
_cell_angle_beta 90.000000
_cell_angle_gamma 90.000000
_cell_volume 3596.828270
_symmetry_space_group_name_H-M "P N M A"
_symmetry_group_IT_number 62
_symmetry_cell_setting 'orthorhombic'
loop_
_space_group_symop_operation_xyz
x,y,z
1/2-x,-y,1/2+z
1/2+x,1/2-y,1/2-z
-x,1/2+y,-z
-x,-y,-z
1/2+x,y,1/2-z
1/2-x,1/2+y,1/2+z
x,1/2-y,z
loop_
_atom_site_type_symbol
_atom_site_label
_atom_site_fract_x
_atom_site_fract_y
_atom_site_fract_z
Si Si1 0.174976 0.058888 0.083870
Si Si2 0.175676 0.556774 0.581645
Si Si3 0.071007 0.058574 0.977567
Si Si4 0.570495 0.939411 0.024166
Si Si5 0.441516 0.560641 0.835362
Si Si6 0.556976 0.059749 0.665821
Si Si7 0.410358 0.440246 0.200095
Si Si8 0.408637 0.060682 0.700272
O O1 0.174988 0.250000 0.082969
O O2 0.249543 0.004304 0.074867
O O3 0.126595 0.003931 0.027053
O O4 0.144808 0.004160 0.151262
O O5 0.175713 0.750000 0.581357
O O6 0.127385 0.506230 0.524455
O O7 0.143669 0.506112 0.649158
O O8 0.070291 0.250000 0.978292
O O9 0.081363 0.007087 0.903921
O O10 0.000000 0.000000 0.000000
O O11 0.568902 0.750000 0.022526
O O12 0.581862 0.995899 0.096626
O O13 0.500000 0.000000 0.000000
O O14 0.440254 0.750000 0.836591
O O15 0.517502 0.509259 0.824859
O O16 0.403037 0.499968 0.773011
O O17 0.557527 0.250000 0.667158
O O18 0.481032 0.008491 0.675403
O O19 0.596249 0.999346 0.727390
O O20 0.410253 0.250000 0.200869
O O21 0.407272 0.250000 0.699922
#
# Coordination Sequence:
#
# PCOD9462697 Si02
#       8
#     8   8   8   8   8   8   8   8
#     4  10  20  35  56  77 104 146 185 218 268 329
#     4   9  19  36  54  76 108 144 180 220 268 324
#     4  10  19  32  52  78 105 137 174 217 265 315
#     4  11  20  34  55  80 110 145 183 229 278 325
#     4  10  19  33  54  81 108 136 177 224 270 324
#     4   9  18  31  48  75 107 132 166 219 266 306
#     4   9  17  32  52  74 101 135 174 214 261 317
#     4  10  19  33  52  77 109 139 171 221 273 317
#
# _framework density 17.793455000000002
#
# number of rings (size 3 to 8) (size 9 to 14) (size 15 to 20)
#    0.000    2.250    2.500    1.125    0.000    1.500 
#    0.000    3.125    0.000    1.500    0.000    0.000 
#    0.000    0.000    0.000    0.000    0.000    0.000 
#
# Total GULP energy -357054.592011 kJ/mol
# GULP energy per Si atom -5578.978000 kJ/mol
# Density = 1.775296 g / cm^3
# Si number density = 17.793455 Si / 1000 Ang^3
#
#
#
# Elastic Constant Matrix: (Units=GPa)
#
#
# Indices 1 2 3 4 5 6 
#
# 1 129.7657 19.4418 97.0081 0.0000 0.0000 0.0000
# 2 19.4418 14.3696 23.8444 0.0000 0.0000 0.0000
# 3 97.0081 23.8444 196.6005 0.0000 0.0000 0.0000
# 4 0.0000 0.0000 0.0000 29.9792 0.0000 0.0000
# 5 0.0000 0.0000 0.0000 0.0000 25.7777 0.0000
# 6 0.0000 0.0000 0.0000 0.0000 0.0000 15.6257
#
#
#
# Elastic Compliance Matrix: (Units=1/GPa)
#
#
# Indices 1 2 3 4 5 6 
#
# 1 0.013027 -0.008712 -0.005371 0.000000 0.000000 0.000000
# 2 -0.008712 0.092952 -0.006975 0.000000 0.000000 0.000000
# 3 -0.005371 -0.006975 0.008583 0.000000 0.000000 0.000000
# 4 0.000000 0.000000 0.000000 0.033356 0.000000 0.000000
# 5 0.000000 0.000000 0.000000 0.000000 0.038793 0.000000
# 6 0.000000 0.000000 0.000000 0.000000 0.000000 0.063997
#
#
# Mechanical properties :
#
#
# Convention : Reuss Voigt Hill
#
# Bulk Modulus (GPa) = 13.80347 69.03604 41.41975
# Shear Modulus (GPa) = 15.77421 27.63929 21.70675
#
# Velocity S-wave (km/s) = 2.98067 3.94552 3.49654
# Velocity P-wave (km/s) = 4.42949 7.72263 6.29521
#
# Compressibility (1/GPa) = 0.07244557
#
# Stress axis : x y z
#
# Youngs Moduli (GPa) = 76.76534 10.75820 116.51462
#
# Poissons Ratio (x) = 0.09373 0.62581
# Poissons Ratio (y) = 0.66880 0.81266
# Poissons Ratio (z) = 0.41231 0.07504
#
# Static dielectric constant tensor:
#      x y z
#    x 1.593190 0.000000 0.000000 
#    y 0.000000 1.612910 0.000000 
#    z 0.000000 0.000000 1.608150 
# 
# From -- ./inp_files/27655.got.cif
#   From: 2010.05.17/outbox.cif.g08.bks.cpg/sg62_14_cif.got.tgz:27655.got - 2010.06.03 15:25:27.
