data_PCOD9462437
_publ_section_title
;
Structure prediction by ZEFSAII (Michael W. Deem and Ramdas Pophale) SiO2 
 PCOD9462437
Probable space group: P N M A
;
_chemical_formula_sum "Si O2"
_cell_formula_units_Z 56
_cell_length_a 18.691285
_cell_length_b 9.065327
_cell_length_c 19.398802
_cell_angle_alpha 90.000000
_cell_angle_beta 90.000000
_cell_angle_gamma 90.000000
_cell_volume 3286.983653
_symmetry_space_group_name_H-M "P N M A"
_symmetry_group_IT_number 62
_symmetry_cell_setting 'orthorhombic'
loop_
_space_group_symop_operation_xyz
x,y,z
1/2-x,-y,1/2+z
1/2+x,1/2-y,1/2-z
-x,1/2+y,-z
-x,-y,-z
1/2+x,y,1/2-z
1/2-x,1/2+y,1/2+z
x,1/2-y,z
loop_
_atom_site_type_symbol
_atom_site_label
_atom_site_fract_x
_atom_site_fract_y
_atom_site_fract_z
Si Si1 0.510316 0.419878 0.704994
Si Si2 0.157463 0.919686 0.249158
Si Si3 0.450728 0.928530 0.145367
Si Si4 0.612253 0.929621 0.106169
Si Si5 0.163826 0.928560 0.544496
Si Si6 0.471161 0.573520 0.569169
Si Si7 0.810922 0.573307 0.887696
O O1 0.529232 0.250000 0.688964
O O2 0.427053 0.419790 0.729239
O O3 0.552422 0.468893 0.773487
O O4 0.513678 0.517253 0.636698
O O5 0.182086 0.750000 0.248338
O O6 0.157880 0.979008 0.327240
O O7 0.195885 0.008537 0.189083
O O8 0.446336 0.750000 0.141828
O O9 0.529353 0.972457 0.116822
O O10 0.390535 0.002428 0.099303
O O11 0.613377 0.750000 0.108869
O O12 0.642303 0.976177 0.032561
O O13 0.158657 0.750000 0.547024
O O14 0.244279 0.971302 0.565278
O O15 0.500000 0.500000 0.500000
O O16 0.474844 0.750000 0.564423
O O17 0.388074 0.529100 0.581748
O O18 0.811455 0.750000 0.882894
#
# Coordination Sequence:
#
# PCOD9462437 Si02
#       7
#     8   8   8   8   8   8   8
#     4   8  15  29  48  69  92 117 149 193 238 278
#     4   8  14  28  50  68  84 114 157 197 229 270
#     4   9  17  30  48  71  97 123 157 198 233 272
#     4   8  15  29  49  71  93 122 160 196 230 272
#     4  10  19  31  47  68  99 132 156 186 234 289
#     4  10  19  32  51  72  94 123 161 204 246 286
#     4   9  19  33  47  67  96 127 157 192 237 285
#
# _framework density 17.036895999999999
#
# number of rings (size 3 to 8) (size 9 to 14) (size 15 to 20)
#    0.000    3.143    0.000    2.571    0.000    1.714 
#    0.000    4.286    0.000    3.429    0.000    0.000 
#    0.000    0.000    0.000    0.000    0.000    0.000 
#
# Total GULP energy -311864.248696 kJ/mol
# GULP energy per Si atom -5569.004441 kJ/mol
# Density = 1.699812 g / cm^3
# Si number density = 17.036896 Si / 1000 Ang^3
#
#
#
# Elastic Constant Matrix: (Units=GPa)
#
#
# Indices 1 2 3 4 5 6 
#
# 1 61.6949 24.3676 68.5101 0.0000 0.0000 0.0000
# 2 24.3676 20.6193 48.2718 0.0000 0.0000 0.0000
# 3 68.5101 48.2718 181.1433 0.0000 0.0000 0.0000
# 4 0.0000 0.0000 0.0000 30.1231 0.0000 0.0000
# 5 0.0000 0.0000 0.0000 0.0000 16.6757 0.0000
# 6 0.0000 0.0000 0.0000 0.0000 0.0000 17.4871
#
#
#
# Elastic Compliance Matrix: (Units=1/GPa)
#
#
# Indices 1 2 3 4 5 6 
#
# 1 0.032290 -0.025442 -0.005433 0.000000 0.000000 0.000000
# 2 -0.025442 0.148985 -0.030080 0.000000 0.000000 0.000000
# 3 -0.005433 -0.030080 0.015591 0.000000 0.000000 0.000000
# 4 0.000000 0.000000 0.000000 0.033197 0.000000 0.000000
# 5 0.000000 0.000000 0.000000 0.000000 0.059967 0.000000
# 6 0.000000 0.000000 0.000000 0.000000 0.000000 0.057185
#
#
# Mechanical properties :
#
#
# Convention : Reuss Voigt Hill
#
# Bulk Modulus (GPa) = 13.34089 60.63961 36.99025
# Shear Modulus (GPa) = 10.11920 21.01104 15.56512
#
# Velocity S-wave (km/s) = 2.43977 3.51560 3.02588
# Velocity P-wave (km/s) = 3.97294 7.22147 5.82812
#
# Compressibility (1/GPa) = 0.07495749
#
# Stress axis : x y z
#
# Youngs Moduli (GPa) = 30.96893 6.71209 64.13994
#
# Poissons Ratio (x) = 0.17077 0.34845
# Poissons Ratio (y) = 0.78791 1.92931
# Poissons Ratio (z) = 0.16824 0.20190
#
# Static dielectric constant tensor:
#      x y z
#    x 1.567450 0.000000 0.000000 
#    y 0.000000 1.573120 0.000000 
#    z 0.000000 0.000000 1.584730 
# 
# From -- ./inp_files/24649.got.cif
#   From: 2010.05.17/outbox.cif.g08.bks.cpg/sg62_13_cif.got.tgz:24649.got - 2010.06.03 15:25:27.
