data_PCOD9462471
_publ_section_title
;
Structure prediction by ZEFSAII (Michael W. Deem and Ramdas Pophale) SiO2 
 PCOD9462471
Probable space group: P N M A
;
_chemical_formula_sum "Si O2"
_cell_formula_units_Z 48
_cell_length_a 17.635545
_cell_length_b 18.088061
_cell_length_c 8.971485
_cell_angle_alpha 90.000000
_cell_angle_beta 90.000000
_cell_angle_gamma 90.000000
_cell_volume 2861.839243
_symmetry_space_group_name_H-M "P N M A"
_symmetry_group_IT_number 62
_symmetry_cell_setting 'orthorhombic'
loop_
_space_group_symop_operation_xyz
x,y,z
1/2-x,-y,1/2+z
1/2+x,1/2-y,1/2-z
-x,1/2+y,-z
-x,-y,-z
1/2+x,y,1/2-z
1/2-x,1/2+y,1/2+z
x,1/2-y,z
loop_
_atom_site_type_symbol
_atom_site_label
_atom_site_fract_x
_atom_site_fract_y
_atom_site_fract_z
Si Si1 0.819177 0.943273 0.823041
Si Si2 0.310891 0.449083 0.412429
Si Si3 0.577492 0.938587 0.147944
Si Si4 0.911083 0.164235 0.908947
Si Si5 0.458584 0.661886 0.645284
Si Si6 0.941151 0.454394 0.318628
O O1 0.754267 0.925292 0.702899
O O2 0.875904 0.876019 0.862516
O O3 0.870330 0.003921 0.737146
O O4 0.790278 0.985194 0.972326
O O5 0.345188 0.382049 0.509261
O O6 0.381214 0.472856 0.308784
O O7 0.581336 0.863787 0.240738
O O8 0.494050 0.974518 0.156867
O O9 0.597424 0.933976 0.974921
O O10 0.894255 0.250000 0.918708
O O11 0.990459 0.150621 0.996473
O O12 0.454979 0.750000 0.675016
O O13 0.506428 0.614535 0.766736
#
# Coordination Sequence:
#
# PCOD9462471 Si02
#       6
#     8   8   8   8   8   8
#     4  10  19  31  49  70  96 128 162 200 239 285
#     4  10  19  31  49  71  95 126 162 198 239 281
#     4   9  17  30  49  72  96 124 159 198 240 282
#     4   9  18  32  49  70  98 129 159 194 238 287
#     4   9  18  32  49  70  95 124 156 192 238 287
#     4   9  17  30  49  73  96 121 158 201 238 282
#
# _framework density 16.77243
#
# number of rings (size 3 to 8) (size 9 to 14) (size 15 to 20)
#    0.000    2.667    0.000    2.000    0.000    5.333 
#    0.000    0.000    0.000    8.000    0.000    0.000 
#    0.000    0.000    0.000    0.000    0.000    0.000 
#
# Total GULP energy -267263.966597 kJ/mol
# GULP energy per Si atom -5567.999304 kJ/mol
# Density = 1.673425 g / cm^3
# Si number density = 16.772430 Si / 1000 Ang^3
#
#
#
# Elastic Constant Matrix: (Units=GPa)
#
#
# Indices 1 2 3 4 5 6 
#
# 1 64.1583 24.0707 18.4103 0.0000 0.0000 0.0000
# 2 24.0707 64.8497 31.1566 0.0000 0.0000 0.0000
# 3 18.4103 31.1566 101.0200 0.0000 0.0000 0.0000
# 4 0.0000 0.0000 0.0000 17.4833 0.0000 0.0000
# 5 0.0000 0.0000 0.0000 0.0000 17.5038 0.0000
# 6 0.0000 0.0000 0.0000 0.0000 0.0000 12.6269
#
#
#
# Elastic Compliance Matrix: (Units=1/GPa)
#
#
# Indices 1 2 3 4 5 6 
#
# 1 0.018288 -0.006089 -0.001455 0.000000 0.000000 0.000000
# 2 -0.006089 0.020130 -0.005099 0.000000 0.000000 0.000000
# 3 -0.001455 -0.005099 0.011737 0.000000 0.000000 0.000000
# 4 0.000000 0.000000 0.000000 0.057197 0.000000 0.000000
# 5 0.000000 0.000000 0.000000 0.000000 0.057130 0.000000
# 6 0.000000 0.000000 0.000000 0.000000 0.000000 0.079196
#
#
# Mechanical properties :
#
#
# Convention : Reuss Voigt Hill
#
# Bulk Modulus (GPa) = 40.21004 41.92259 41.06632
# Shear Modulus (GPa) = 18.03393 19.94882 18.99138
#
# Velocity S-wave (km/s) = 3.28260 3.45248 3.36861
# Velocity P-wave (km/s) = 6.19623 6.39860 6.29823
#
# Compressibility (1/GPa) = 0.02486941
#
# Stress axis : x y z
#
# Youngs Moduli (GPa) = 54.67924 49.67675 85.20237
#
# Poissons Ratio (x) = 0.30249 0.12396
# Poissons Ratio (y) = 0.33296 0.43443
# Poissons Ratio (z) = 0.07955 0.25329
#
# Static dielectric constant tensor:
#      x y z
#    x 1.582030 0.000000 0.000000 
#    y 0.000000 1.539710 0.000000 
#    z 0.000000 0.000000 1.573400 
# 
# From -- ./inp_files/6490.got.cif
#   From: 2010.05.17/outbox.cif.g08.bks.cpg/sg62_4_cif.got.tgz:6490.got - 2010.06.03 15:25:27.
