data_PCOD9462860
_publ_section_title
;
Structure prediction by ZEFSAII (Michael W. Deem and Ramdas Pophale) SiO2 
 PCOD9462860
Probable space group: P N M A
;
_chemical_formula_sum "Si O2"
_cell_formula_units_Z 56
_cell_length_a 10.023770
_cell_length_b 13.883248
_cell_length_c 23.840448
_cell_angle_alpha 90.000000
_cell_angle_beta 90.000000
_cell_angle_gamma 90.000000
_cell_volume 3317.695983
_symmetry_space_group_name_H-M "P N M A"
_symmetry_group_IT_number 62
_symmetry_cell_setting 'orthorhombic'
loop_
_space_group_symop_operation_xyz
x,y,z
1/2-x,-y,1/2+z
1/2+x,1/2-y,1/2-z
-x,1/2+y,-z
-x,-y,-z
1/2+x,y,1/2-z
1/2-x,1/2+y,1/2+z
x,1/2-y,z
loop_
_atom_site_type_symbol
_atom_site_label
_atom_site_fract_x
_atom_site_fract_y
_atom_site_fract_z
Si Si1 0.808525 0.133260 0.708088
Si Si2 0.417311 0.635324 0.956729
Si Si3 0.390024 0.633675 0.194264
Si Si4 0.776899 0.635115 0.423406
Si Si5 0.275881 0.135810 0.017025
Si Si6 0.051973 0.487086 0.063257
Si Si7 0.765425 0.983573 0.097769
O O1 0.797905 0.250000 0.701436
O O2 0.722706 0.103380 0.761981
O O3 0.759552 0.079789 0.652468
O O4 0.963498 0.107409 0.714948
O O5 0.401757 0.750000 0.946386
O O6 0.574548 0.613967 0.961611
O O7 0.339349 0.569876 0.912267
O O8 0.349826 0.614502 0.017659
O O9 0.386157 0.750000 0.192973
O O10 0.362229 0.602710 0.130444
O O11 0.759010 0.750000 0.420556
O O12 0.635744 0.581769 0.421014
O O13 0.265204 0.250000 0.009881
O O14 0.162529 0.096603 0.059170
O O15 0.253585 0.084431 0.957083
O O16 0.916870 0.476183 0.098095
O O17 0.000000 0.500000 0.000000
#
# Coordination Sequence:
#
# PCOD9462860 Si02
#       7
#     8   8   8   8   8   8   8
#     4  10  21  36  54  79 110 143 179 218 261 314
#     4  10  20  34  54  78 105 141 178 217 265 315
#     4   9  20  35  52  76 105 142 180 214 261 313
#     4  10  19  33  53  74 106 144 177 216 262 314
#     4  10  20  33  50  75 108 142 174 214 262 317
#     4  10  21  32  46  77 105 140 176 210 259 316
#     4  11  21  34  51  79 108 143 177 217 259 316
#
# _framework density 16.879183000000001
#
# number of rings (size 3 to 8) (size 9 to 14) (size 15 to 20)
#    0.000    2.000    2.857    1.714    4.000    5.714 
#    0.000    0.000    0.000    0.000    0.000    2.000 
#    0.000    0.000    0.000    0.000    0.000    0.000 
#
# Total GULP energy -312295.274440 kJ/mol
# GULP energy per Si atom -5576.701329 kJ/mol
# Density = 1.684077 g / cm^3
# Si number density = 16.879183 Si / 1000 Ang^3
#
#
#
# Elastic Constant Matrix: (Units=GPa)
#
#
# Indices 1 2 3 4 5 6 
#
# 1 100.2517 14.3813 7.6747 0.0000 0.0000 0.0000
# 2 14.3813 56.0352 2.7080 0.0000 0.0000 0.0000
# 3 7.6747 2.7080 35.3743 0.0000 0.0000 0.0000
# 4 0.0000 0.0000 0.0000 23.5727 0.0000 0.0000
# 5 0.0000 0.0000 0.0000 0.0000 24.6649 0.0000
# 6 0.0000 0.0000 0.0000 0.0000 0.0000 27.6565
#
#
#
# Elastic Compliance Matrix: (Units=1/GPa)
#
#
# Indices 1 2 3 4 5 6 
#
# 1 0.010507 -0.002596 -0.002081 0.000000 0.000000 0.000000
# 2 -0.002596 0.018554 -0.000857 0.000000 0.000000 0.000000
# 3 -0.002081 -0.000857 0.028786 0.000000 0.000000 0.000000
# 4 0.000000 0.000000 0.000000 0.042422 0.000000 0.000000
# 5 0.000000 0.000000 0.000000 0.000000 0.040543 0.000000
# 6 0.000000 0.000000 0.000000 0.000000 0.000000 0.036158
#
#
# Mechanical properties :
#
#
# Convention : Reuss Voigt Hill
#
# Bulk Modulus (GPa) = 21.37726 26.79881 24.08804
# Shear Modulus (GPa) = 24.55431 26.30528 25.42980
#
# Velocity S-wave (km/s) = 3.81820 3.95200 3.88568
# Velocity P-wave (km/s) = 5.66839 6.06100 5.86798
#
# Compressibility (1/GPa) = 0.04677867
#
# Stress axis : x y z
#
# Youngs Moduli (GPa) = 95.17852 53.89792 34.73892
#
# Poissons Ratio (x) = 0.13992 0.07228
# Poissons Ratio (y) = 0.24708 0.02978
# Poissons Ratio (z) = 0.19804 0.04620
#
# Static dielectric constant tensor:
#      x y z
#    x 1.590290 0.000000 0.000000 
#    y 0.000000 1.570440 0.000000 
#    z 0.000000 0.000000 1.549180 
# 
# From -- ./inp_files/25986.got.cif
#   From: 2010.05.17/outbox.cif.g08.bks.cpg/sg62_13_cif.got.tgz:25986.got - 2010.06.03 15:25:27.
