data_PCOD9462973
_publ_section_title
;
Structure prediction by ZEFSAII (Michael W. Deem and Ramdas Pophale) SiO2 
 PCOD9462973
Probable space group: P N M A
;
_chemical_formula_sum "Si O2"
_cell_formula_units_Z 40
_cell_length_a 7.735777
_cell_length_b 17.638602
_cell_length_c 12.185687
_cell_angle_alpha 90.000000
_cell_angle_beta 90.000000
_cell_angle_gamma 90.000000
_cell_volume 1662.716174
_symmetry_space_group_name_H-M "P N M A"
_symmetry_group_IT_number 62
_symmetry_cell_setting 'orthorhombic'
loop_
_space_group_symop_operation_xyz
x,y,z
1/2-x,-y,1/2+z
1/2+x,1/2-y,1/2-z
-x,1/2+y,-z
-x,-y,-z
1/2+x,y,1/2-z
1/2-x,1/2+y,1/2+z
x,1/2-y,z
loop_
_atom_site_type_symbol
_atom_site_label
_atom_site_fract_x
_atom_site_fract_y
_atom_site_fract_z
Si Si1 0.900679 0.111813 0.167893
Si Si2 0.766103 0.373514 0.407485
Si Si3 0.198059 0.839854 0.056283
Si Si4 0.861545 0.940375 0.107167
Si Si5 0.425647 0.166634 0.871605
O O1 0.867649 0.122863 0.295360
O O2 0.771647 0.139797 0.072705
O O3 0.077732 0.152094 0.132106
O O4 0.906686 0.021079 0.154163
O O5 0.718152 0.447984 0.482447
O O6 0.860098 0.327388 0.502006
O O7 0.165507 0.750000 0.064187
O O8 0.375477 0.856252 0.120606
O O9 0.028901 0.886277 0.095694
O O10 0.706723 0.896980 0.170078
O O11 0.408053 0.250000 0.819774
#
# Coordination Sequence:
#
# PCOD9462973 Si02
#       5
#     8   8   8   8   8
#     4  11  20  37  53  85 118 151 190 233 284 343
#     4   9  20  33  53  79 117 146 183 229 278 335
#     4  10  19  33  55  82 109 147 185 225 283 342
#     4   9  21  37  56  80 119 148 190 232 285 333
#     4   9  19  35  56  84 114 147 184 230 287 344
#
# _framework density 24.057020000000001
#
# number of rings (size 3 to 8) (size 9 to 14) (size 15 to 20)
#    1.200    1.200    0.000    4.200    0.000    1.600 
#    3.600    2.000    0.000    0.000    0.000   14.000 
#    0.000    0.000    0.000    0.000    0.000    0.000 
#
# Total GULP energy -223006.270821 kJ/mol
# GULP energy per Si atom -5575.156771 kJ/mol
# Density = 2.400227 g / cm^3
# Si number density = 24.057020 Si / 1000 Ang^3
#
#
#
# Elastic Constant Matrix: (Units=GPa)
#
#
# Indices 1 2 3 4 5 6 
#
# 1 87.2435 49.1598 28.6117 0.0000 0.0000 0.0000
# 2 49.1598 98.2828 16.8327 0.0000 0.0000 0.0000
# 3 28.6117 16.8327 124.1134 0.0000 0.0000 0.0000
# 4 0.0000 0.0000 0.0000 0.8706 0.0000 0.0000
# 5 0.0000 0.0000 0.0000 0.0000 21.3074 0.0000
# 6 0.0000 0.0000 0.0000 0.0000 0.0000 12.6175
#
#
#
# Elastic Compliance Matrix: (Units=1/GPa)
#
#
# Indices 1 2 3 4 5 6 
#
# 1 0.016866 -0.007955 -0.002809 0.000000 0.000000 0.000000
# 2 -0.007955 0.014169 -0.000088 0.000000 0.000000 0.000000
# 3 -0.002809 -0.000088 0.008717 0.000000 0.000000 0.000000
# 4 0.000000 0.000000 0.000000 1.148695 0.000000 0.000000
# 5 0.000000 0.000000 0.000000 0.000000 0.046932 0.000000
# 6 0.000000 0.000000 0.000000 0.000000 0.000000 0.079255
#
#
# Mechanical properties :
#
#
# Convention : Reuss Voigt Hill
#
# Bulk Modulus (GPa) = 55.40963 55.42758 55.41861
# Shear Modulus (GPa) = 3.72480 21.29478 12.50979
#
# Velocity S-wave (km/s) = 1.24567 2.97842 2.28284
# Velocity P-wave (km/s) = 5.01513 5.90916 5.48040
#
# Compressibility (1/GPa) = 0.01804741
#
# Stress axis : x y z
#
# Youngs Moduli (GPa) = 59.29110 70.57787 114.72289
#
# Poissons Ratio (x) = 0.56145 0.32228
# Poissons Ratio (y) = 0.47166 0.01007
# Poissons Ratio (z) = 0.16656 0.00619
#
# Static dielectric constant tensor:
#      x y z
#    x 1.962500 0.000000 0.000000 
#    y 0.000000 1.877610 0.000000 
#    z 0.000000 0.000000 2.000990 
# 
# From -- ./inp_files/16788.got.cif
#   From: 2010.05.17/outbox.cif.g08.bks.cpg/sg62_9_cif.got.tgz:16788.got - 2010.06.03 15:25:27.
