data_PCOD9462412
_publ_section_title
;
Structure prediction by ZEFSAII (Michael W. Deem and Ramdas Pophale) SiO2 
 PCOD9462412
Probable space group: P N M A
;
_chemical_formula_sum "Si O2"
_cell_formula_units_Z 56
_cell_length_a 21.564228
_cell_length_b 23.773601
_cell_length_c 5.279198
_cell_angle_alpha 90.000000
_cell_angle_beta 90.000000
_cell_angle_gamma 90.000000
_cell_volume 2706.430228
_symmetry_space_group_name_H-M "P N M A"
_symmetry_group_IT_number 62
_symmetry_cell_setting 'orthorhombic'
loop_
_space_group_symop_operation_xyz
x,y,z
1/2-x,-y,1/2+z
1/2+x,1/2-y,1/2-z
-x,1/2+y,-z
-x,-y,-z
1/2+x,y,1/2-z
1/2-x,1/2+y,1/2+z
x,1/2-y,z
loop_
_atom_site_type_symbol
_atom_site_label
_atom_site_fract_x
_atom_site_fract_y
_atom_site_fract_z
Si Si1 0.174389 0.186866 0.538815
Si Si2 0.041165 0.512161 0.249488
Si Si3 0.445861 0.809505 0.394929
Si Si4 0.094801 0.100619 0.283435
Si Si5 0.375133 0.318077 0.283919
Si Si6 0.696782 0.817482 0.214911
Si Si7 0.527538 0.869965 0.071313
O O1 0.186895 0.250000 0.425696
O O2 0.113582 0.193843 0.711953
O O3 0.155538 0.136498 0.351535
O O4 0.233280 0.169083 0.704187
O O5 0.096344 0.466104 0.242406
O O6 0.058299 0.577400 0.285285
O O7 0.000000 0.500000 0.500000
O O8 0.000000 0.500000 0.000000
O O9 0.447158 0.750000 0.543329
O O10 0.434721 0.865398 0.552185
O O11 0.510606 0.817262 0.248360
O O12 0.041392 0.109663 0.493798
O O13 0.383758 0.250000 0.281413
O O14 0.324670 0.333711 0.065279
O O15 0.435448 0.349300 0.174063
O O16 0.349119 0.335249 0.557609
O O17 0.694081 0.750000 0.215349
#
# Coordination Sequence:
#
# PCOD9462412 Si02
#       7
#     8   8   8   8   8   8   8
#     4   9  19  34  52  79 109 142 181 228 279 329
#     4  10  20  36  55  77 108 146 185 218 264 325
#     4  10  19  30  51  81 113 143 175 223 285 334
#     4  10  20  33  54  80 109 142 180 229 276 327
#     4  10  21  35  54  79 108 146 183 220 270 327
#     4   9  20  36  54  76 106 145 186 222 265 327
#     4  10  21  35  52  78 113 144 183 226 274 332
#
# _framework density 20.691462000000001
#
# number of rings (size 3 to 8) (size 9 to 14) (size 15 to 20)
#    0.000    2.286    1.429    0.857    4.000    1.714 
#    0.000    0.000    0.000    1.714    0.000    0.000 
#    0.000    0.000    0.000    0.000    0.000    0.000 
#
# Total GULP energy -312012.061386 kJ/mol
# GULP energy per Si atom -5571.643953 kJ/mol
# Density = 2.064437 g / cm^3
# Si number density = 20.691462 Si / 1000 Ang^3
#
#
#
# Elastic Constant Matrix: (Units=GPa)
#
#
# Indices 1 2 3 4 5 6 
#
# 1 61.1646 16.0152 -5.0853 0.0000 0.0000 0.0000
# 2 16.0152 85.7355 11.3458 0.0000 0.0000 0.0000
# 3 -5.0853 11.3458 59.7179 0.0000 0.0000 0.0000
# 4 0.0000 0.0000 0.0000 20.3154 0.0000 0.0000
# 5 0.0000 0.0000 0.0000 0.0000 21.2368 0.0000
# 6 0.0000 0.0000 0.0000 0.0000 0.0000 -17.6619
#
#
#
# Elastic Compliance Matrix: (Units=1/GPa)
#
#
# Indices 1 2 3 4 5 6 
#
# 1 0.017458 -0.003547 0.002161 0.000000 0.000000 0.000000
# 2 -0.003547 0.012685 -0.002712 0.000000 0.000000 0.000000
# 3 0.002161 -0.002712 0.017445 0.000000 0.000000 0.000000
# 4 0.000000 0.000000 0.000000 0.049224 0.000000 0.000000
# 5 0.000000 0.000000 0.000000 0.000000 0.047088 0.000000
# 6 0.000000 0.000000 0.000000 0.000000 0.000000 -0.056619
#
#
# Mechanical properties :
#
#
# Convention : Reuss Voigt Hill
#
# Bulk Modulus (GPa) = 25.38685 27.90769 26.64727
# Shear Modulus (GPa) = 46.03720 17.06754 31.55237
#
# Velocity S-wave (km/s) = 4.72204 2.87515 3.90923
# Velocity P-wave (km/s) = 6.48275 4.95367 5.76910
#
# Compressibility (1/GPa) = 0.03939047
#
# Stress axis : x y z
#
# Youngs Moduli (GPa) = 57.28138 78.83166 57.32413
#
# Poissons Ratio (x) = 0.27961 -0.12385
# Poissons Ratio (y) = 0.20317 0.15547
# Poissons Ratio (z) = -0.12376 0.21380
#
# Static dielectric constant tensor:
#      x y z
#    x 1.762310 0.000000 0.000000 
#    y 0.000000 1.801160 0.000000 
#    z 0.000000 0.000000 1.801600 
# 
# From -- ./inp_files/2285.got.cif
#   From: 2010.05.17/outbox.cif.g08.bks.cpg/sg62_2_cif.got.tgz:2285.got - 2010.06.03 15:25:27.
