data_PCOD9462887
_publ_section_title
;
Structure prediction by ZEFSAII (Michael W. Deem and Ramdas Pophale) SiO2 
 PCOD9462887
Probable space group: P N M A
;
_chemical_formula_sum "Si O2"
_cell_formula_units_Z 64
_cell_length_a 16.451308
_cell_length_b 9.129348
_cell_length_c 23.369553
_cell_angle_alpha 90.000000
_cell_angle_beta 90.000000
_cell_angle_gamma 90.000000
_cell_volume 3509.866523
_symmetry_space_group_name_H-M "P N M A"
_symmetry_group_IT_number 62
_symmetry_cell_setting 'orthorhombic'
loop_
_space_group_symop_operation_xyz
x,y,z
1/2-x,-y,1/2+z
1/2+x,1/2-y,1/2-z
-x,1/2+y,-z
-x,-y,-z
1/2+x,y,1/2-z
1/2-x,1/2+y,1/2+z
x,1/2-y,z
loop_
_atom_site_type_symbol
_atom_site_label
_atom_site_fract_x
_atom_site_fract_y
_atom_site_fract_z
Si Si1 0.456906 0.913110 0.275275
Si Si2 0.747387 0.572499 0.543093
Si Si3 0.323129 0.415102 0.337916
Si Si4 0.565381 0.428437 0.042969
Si Si5 0.376600 0.085283 0.653647
Si Si6 0.547799 0.927442 0.167171
Si Si7 0.582659 0.927195 0.475863
Si Si8 0.321805 0.915820 0.754194
O O1 0.422803 0.750000 0.270420
O O2 0.543647 0.906542 0.306667
O O3 0.473841 0.966874 0.210728
O O4 0.401544 0.001364 0.318067
O O5 0.749918 0.750000 0.541046
O O6 0.726342 0.524936 0.607909
O O7 0.840193 0.528775 0.528172
O O8 0.667462 0.528468 0.506926
O O9 0.346294 0.250000 0.354070
O O10 0.265476 0.411757 0.283087
O O11 0.559918 0.250000 0.042653
O O12 0.547532 0.491919 0.106453
O O13 0.500000 0.500000 0.000000
O O14 0.342031 0.250000 0.648765
O O15 0.403690 0.036925 0.590916
O O16 0.319969 0.979450 0.690420
O O17 0.549322 0.750000 0.161206
O O18 0.625268 0.984112 0.203105
O O19 0.574345 0.750000 0.480996
O O20 0.500000 0.000000 0.500000
O O21 0.355726 0.750000 0.754006
#
# Coordination Sequence:
#
# PCOD9462887 Si02
#       8
#     8   8   8   8   8   8   8   8
#     4   9  19  33  51  79 111 141 177 228 279 336
#     4   9  19  37  59  83 115 154 195 241 293 351
#     4  10  19  33  53  80 109 141 184 229 281 346
#     4  11  22  40  62  84 115 154 202 253 300 351
#     4   9  19  35  52  76 110 145 184 224 275 341
#     4  10  20  37  58  82 111 144 187 235 292 351
#     4  10  20  36  59  85 117 156 193 236 291 348
#     4  10  19  33  55  79 107 143 181 228 282 334
#
# _framework density 18.234311999999999
#
# number of rings (size 3 to 8) (size 9 to 14) (size 15 to 20)
#    0.000    2.250    1.250    2.625    0.000    4.000 
#    2.250    1.250    0.000    0.000    0.000    0.000 
#    0.000    0.000    0.000    0.000    0.000    0.000 
#
# Total GULP energy -356274.537542 kJ/mol
# GULP energy per Si atom -5566.789649 kJ/mol
# Density = 1.819281 g / cm^3
# Si number density = 18.234312 Si / 1000 Ang^3
#
#
#
# Elastic Constant Matrix: (Units=GPa)
#
#
# Indices 1 2 3 4 5 6 
#
# 1 82.8873 23.0091 43.9161 0.0000 0.0000 0.0000
# 2 23.0091 41.5276 28.4846 0.0000 0.0000 0.0000
# 3 43.9161 28.4846 128.3191 0.0000 0.0000 0.0000
# 4 0.0000 0.0000 0.0000 29.7409 0.0000 0.0000
# 5 0.0000 0.0000 0.0000 0.0000 28.0552 0.0000
# 6 0.0000 0.0000 0.0000 0.0000 0.0000 4.0309
#
#
#
# Elastic Compliance Matrix: (Units=1/GPa)
#
#
# Indices 1 2 3 4 5 6 
#
# 1 0.015908 -0.005992 -0.004114 0.000000 0.000000 0.000000
# 2 -0.005992 0.030662 -0.004756 0.000000 0.000000 0.000000
# 3 -0.004114 -0.004756 0.010257 0.000000 0.000000 0.000000
# 4 0.000000 0.000000 0.000000 0.033624 0.000000 0.000000
# 5 0.000000 0.000000 0.000000 0.000000 0.035644 0.000000
# 6 0.000000 0.000000 0.000000 0.000000 0.000000 0.248082
#
#
# Mechanical properties :
#
#
# Convention : Reuss Voigt Hill
#
# Bulk Modulus (GPa) = 36.89620 49.28372 43.08996
# Shear Modulus (GPa) = 12.10845 22.85368 17.48107
#
# Velocity S-wave (km/s) = 2.57971 3.54409 3.09963
# Velocity P-wave (km/s) = 5.39922 6.62073 6.04093
#
# Compressibility (1/GPa) = 0.02710306
#
# Stress axis : x y z
#
# Youngs Moduli (GPa) = 62.86255 32.61317 97.49609
#
# Poissons Ratio (x) = 0.19542 0.40111
# Poissons Ratio (y) = 0.37667 0.46368
# Poissons Ratio (z) = 0.25863 0.15510
#
# Static dielectric constant tensor:
#      x y z
#    x 1.636360 0.000000 0.000000 
#    y 0.000000 1.664780 0.000000 
#    z 0.000000 0.000000 1.637820 
# 
# From -- ./inp_files/29821.got.cif
#   From: 2010.05.17/outbox.cif.g08.bks.cpg/sg62_15_cif.got.tgz:29821.got - 2010.06.03 15:25:27.
