data_PCOD9462587
_publ_section_title
;
Structure prediction by ZEFSAII (Michael W. Deem and Ramdas Pophale) SiO2 
 PCOD9462587
Probable space group: P N M A
;
_chemical_formula_sum "Si O2"
_cell_formula_units_Z 56
_cell_length_a 14.755995
_cell_length_b 9.079029
_cell_length_c 21.733209
_cell_angle_alpha 90.000000
_cell_angle_beta 90.000000
_cell_angle_gamma 90.000000
_cell_volume 2911.600325
_symmetry_space_group_name_H-M "P N M A"
_symmetry_group_IT_number 62
_symmetry_cell_setting 'orthorhombic'
loop_
_space_group_symop_operation_xyz
x,y,z
1/2-x,-y,1/2+z
1/2+x,1/2-y,1/2-z
-x,1/2+y,-z
-x,-y,-z
1/2+x,y,1/2-z
1/2-x,1/2+y,1/2+z
x,1/2-y,z
loop_
_atom_site_type_symbol
_atom_site_label
_atom_site_fract_x
_atom_site_fract_y
_atom_site_fract_z
Si Si1 0.832540 0.575514 0.362655
Si Si2 0.135979 0.923713 0.084598
Si Si3 0.818643 0.074158 0.231921
Si Si4 0.698194 0.073641 0.115441
Si Si5 0.650320 0.418794 0.538513
Si Si6 0.027065 0.079640 0.840284
Si Si7 0.499714 0.072428 0.067719
O O1 0.851834 0.750000 0.358635
O O2 0.741710 0.555702 0.402470
O O3 0.810534 0.509865 0.295856
O O4 0.915854 0.491364 0.393846
O O5 0.118363 0.750000 0.075636
O O6 0.074595 0.967788 0.142980
O O7 0.112491 0.009223 0.022949
O O8 0.815270 0.250000 0.240302
O O9 0.742106 0.030628 0.181313
O O10 0.915259 0.024735 0.203516
O O11 0.706592 0.250000 0.111347
O O12 0.594006 0.035543 0.102684
O O13 0.761466 0.003462 0.063189
O O14 0.673940 0.250000 0.526444
O O15 0.578850 0.423690 0.594161
O O16 0.028656 0.250000 0.818043
O O17 0.493877 0.250000 0.062501
O O18 0.500000 0.000000 0.000000
#
# Coordination Sequence:
#
# PCOD9462587 Si02
#       7
#     8   8   8   8   8   8   8
#     4  11  24  40  57  80 111 148 187 232 280 330
#     4  10  21  36  54  77 110 148 181 217 269 325
#     4  10  21  39  60  82 108 142 184 231 280 333
#     4   9  20  38  59  81 111 149 186 227 280 337
#     4  10  19  31  54  86 115 142 178 223 269 321
#     4   9  19  36  56  81 112 145 180 220 268 327
#     4  11  23  40  61  87 117 152 194 240 289 341
#
# _framework density 19.233409000000002
#
# number of rings (size 3 to 8) (size 9 to 14) (size 15 to 20)
#    0.000    2.000    0.000    3.000    0.000    8.571 
#    0.000    2.857    0.000    0.000    0.000    0.000 
#    0.000    0.000    0.000    0.000    0.000    0.000 
#
# Total GULP energy -312725.022232 kJ/mol
# GULP energy per Si atom -5584.375397 kJ/mol
# Density = 1.918963 g / cm^3
# Si number density = 19.233409 Si / 1000 Ang^3
#
#
#
# Elastic Constant Matrix: (Units=GPa)
#
#
# Indices 1 2 3 4 5 6 
#
# 1 99.4146 34.6342 10.8741 0.0000 0.0000 0.0000
# 2 34.6342 40.2327 29.8987 0.0000 0.0000 0.0000
# 3 10.8741 29.8987 74.2109 0.0000 0.0000 0.0000
# 4 0.0000 0.0000 0.0000 35.4602 0.0000 0.0000
# 5 0.0000 0.0000 0.0000 0.0000 16.3851 0.0000
# 6 0.0000 0.0000 0.0000 0.0000 0.0000 27.7698
#
#
#
# Elastic Compliance Matrix: (Units=1/GPa)
#
#
# Indices 1 2 3 4 5 6 
#
# 1 0.015302 -0.016424 0.004375 0.000000 0.000000 0.000000
# 2 -0.016424 0.053105 -0.018989 0.000000 0.000000 0.000000
# 3 0.004375 -0.018989 0.020485 0.000000 0.000000 0.000000
# 4 0.000000 0.000000 0.000000 0.028201 0.000000 0.000000
# 5 0.000000 0.000000 0.000000 0.000000 0.061031 0.000000
# 6 0.000000 0.000000 0.000000 0.000000 0.000000 0.036010
#
#
# Mechanical properties :
#
#
# Convention : Reuss Voigt Hill
#
# Bulk Modulus (GPa) = 37.29133 40.51913 38.90523
# Shear Modulus (GPa) = 17.53470 25.15310 21.34390
#
# Velocity S-wave (km/s) = 3.02268 3.62025 3.33488
# Velocity P-wave (km/s) = 5.62255 6.21190 5.92456
#
# Compressibility (1/GPa) = 0.02681589
#
# Stress axis : x y z
#
# Youngs Moduli (GPa) = 65.35038 18.83051 48.81737
#
# Poissons Ratio (x) = 0.30927 -0.21357
# Poissons Ratio (y) = 1.07331 0.92699
# Poissons Ratio (z) = -0.28589 0.35757
#
# Static dielectric constant tensor:
#      x y z
#    x 1.690120 0.000000 0.000000 
#    y 0.000000 1.647060 0.000000 
#    z 0.000000 0.000000 1.661520 
# 
# From -- ./inp_files/27202.got.cif
#   From: 2010.05.17/outbox.cif.g08.bks.cpg/sg62_14_cif.got.tgz:27202.got - 2010.06.03 15:25:27.
