data_PCOD9462966
_publ_section_title
;
Structure prediction by ZEFSAII (Michael W. Deem and Ramdas Pophale) SiO2 
 PCOD9462966
Probable space group: P N M A
;
_chemical_formula_sum "Si O2"
_cell_formula_units_Z 56
_cell_length_a 14.616649
_cell_length_b 8.786035
_cell_length_c 25.430900
_cell_angle_alpha 90.000000
_cell_angle_beta 90.000000
_cell_angle_gamma 90.000000
_cell_volume 3265.896950
_symmetry_space_group_name_H-M "P N M A"
_symmetry_group_IT_number 62
_symmetry_cell_setting 'orthorhombic'
loop_
_space_group_symop_operation_xyz
x,y,z
1/2-x,-y,1/2+z
1/2+x,1/2-y,1/2-z
-x,1/2+y,-z
-x,-y,-z
1/2+x,y,1/2-z
1/2-x,1/2+y,1/2+z
x,1/2-y,z
loop_
_atom_site_type_symbol
_atom_site_label
_atom_site_fract_x
_atom_site_fract_y
_atom_site_fract_z
Si Si1 0.167217 0.567555 0.317703
Si Si2 0.300963 0.074131 0.398481
Si Si3 0.396951 0.930616 0.499251
Si Si4 0.012672 0.575598 0.837569
Si Si5 0.026003 0.067438 0.724733
Si Si6 0.735677 0.434548 0.791823
Si Si7 0.149582 0.570244 0.106863
O O1 0.179973 0.750000 0.320223
O O2 0.214695 0.494745 0.368195
O O3 0.215638 0.515325 0.262680
O O4 0.058978 0.536279 0.313536
O O5 0.285477 0.250000 0.412606
O O6 0.383235 0.067664 0.356206
O O7 0.339751 0.986932 0.449023
O O8 0.406482 0.750000 0.498791
O O9 0.500000 0.000000 0.500000
O O10 0.344527 0.984988 0.551702
O O11 0.981072 0.750000 0.844737
O O12 0.952475 0.463635 0.872633
O O13 0.005758 0.521538 0.778133
O O14 0.025088 0.250000 0.735569
O O15 0.128394 0.026473 0.707087
O O16 0.742774 0.250000 0.791620
O O17 0.786743 0.485277 0.844912
O O18 0.163754 0.750000 0.099196
#
# Coordination Sequence:
#
# PCOD9462966 Si02
#       7
#     8   8   8   8   8   8   8
#     4  10  19  33  55  81 108 146 186 224 271 325
#     4  11  23  37  53  79 113 148 182 225 274 326
#     4  12  24  38  57  82 110 145 182 225 273 329
#     4  11  21  31  49  79 113 145 182 223 269 324
#     4  10  19  34  54  78 112 148 186 224 268 329
#     4   9  18  32  54  82 109 143 183 221 271 323
#     4  11  21  36  56  80 111 148 183 224 271 328
#
# _framework density 17.146896999999999
#
# number of rings (size 3 to 8) (size 9 to 14) (size 15 to 20)
#    0.000    1.429    4.286    2.571    0.000    1.714 
#    0.000    1.429    0.000    0.857    0.000    0.000 
#    0.000    0.000    0.000    0.000    0.000    0.000 
#
# Total GULP energy -312512.828662 kJ/mol
# GULP energy per Si atom -5580.586226 kJ/mol
# Density = 1.710787 g / cm^3
# Si number density = 17.146897 Si / 1000 Ang^3
#
#
#
# Elastic Constant Matrix: (Units=GPa)
#
#
# Indices 1 2 3 4 5 6 
#
# 1 63.8172 11.6851 8.6176 0.0000 0.0000 0.0000
# 2 11.6851 55.5461 20.6422 0.0000 0.0000 0.0000
# 3 8.6176 20.6422 67.9519 0.0000 0.0000 0.0000
# 4 0.0000 0.0000 0.0000 28.8696 0.0000 0.0000
# 5 0.0000 0.0000 0.0000 0.0000 29.0195 0.0000
# 6 0.0000 0.0000 0.0000 0.0000 0.0000 16.8504
#
#
#
# Elastic Compliance Matrix: (Units=1/GPa)
#
#
# Indices 1 2 3 4 5 6 
#
# 1 0.016378 -0.003014 -0.001162 0.000000 0.000000 0.000000
# 2 -0.003014 0.020849 -0.005951 0.000000 0.000000 0.000000
# 3 -0.001162 -0.005951 0.016671 0.000000 0.000000 0.000000
# 4 0.000000 0.000000 0.000000 0.034639 0.000000 0.000000
# 5 0.000000 0.000000 0.000000 0.000000 0.034460 0.000000
# 6 0.000000 0.000000 0.000000 0.000000 0.000000 0.059346
#
#
# Mechanical properties :
#
#
# Convention : Reuss Voigt Hill
#
# Bulk Modulus (GPa) = 29.72170 29.91168 29.81669
# Shear Modulus (GPa) = 23.38520 24.70593 24.04556
#
# Velocity S-wave (km/s) = 3.69699 3.79996 3.74883
# Velocity P-wave (km/s) = 5.96614 6.06095 6.01374
#
# Compressibility (1/GPa) = 0.03364545
#
# Stress axis : x y z
#
# Youngs Moduli (GPa) = 61.05589 47.96476 59.98288
#
# Poissons Ratio (x) = 0.14456 0.06967
# Poissons Ratio (y) = 0.18401 0.35697
# Poissons Ratio (z) = 0.07092 0.28544
#
# Static dielectric constant tensor:
#      x y z
#    x 1.580590 0.000000 0.000000 
#    y 0.000000 1.588370 0.000000 
#    z 0.000000 0.000000 1.579560 
# 
# From -- ./inp_files/27308.got.cif
#   From: 2010.05.17/outbox.cif.g08.bks.cpg/sg62_14_cif.got.tgz:27308.got - 2010.06.03 15:25:27.
