data_PCOD9462288
_publ_section_title
;
Structure prediction by ZEFSAII (Michael W. Deem and Ramdas Pophale) SiO2 
 PCOD9462288
Probable space group: P N M A
;
_chemical_formula_sum "Si O2"
_cell_formula_units_Z 64
_cell_length_a 9.250249
_cell_length_b 27.962998
_cell_length_c 14.440904
_cell_angle_alpha 90.000000
_cell_angle_beta 90.000000
_cell_angle_gamma 90.000000
_cell_volume 3735.352018
_symmetry_space_group_name_H-M "P N M A"
_symmetry_group_IT_number 62
_symmetry_cell_setting 'orthorhombic'
loop_
_space_group_symop_operation_xyz
x,y,z
1/2-x,-y,1/2+z
1/2+x,1/2-y,1/2-z
-x,1/2+y,-z
-x,-y,-z
1/2+x,y,1/2-z
1/2-x,1/2+y,1/2+z
x,1/2-y,z
loop_
_atom_site_type_symbol
_atom_site_label
_atom_site_fract_x
_atom_site_fract_y
_atom_site_fract_z
Si Si1 0.728758 0.544776 0.363379
Si Si2 0.448490 0.081341 0.009929
Si Si3 0.834198 0.514942 0.567768
Si Si4 0.098565 0.469271 0.815487
Si Si5 0.421205 0.305492 0.801655
Si Si6 0.942422 0.304236 0.921099
Si Si7 0.297183 0.627475 0.418516
Si Si8 0.675243 0.146497 0.904697
O O1 0.767750 0.527131 0.466271
O O2 0.572235 0.526217 0.331362
O O3 0.851247 0.530718 0.290193
O O4 0.732070 0.602594 0.362983
O O5 0.295324 0.108335 0.006708
O O6 0.558780 0.119314 0.967350
O O7 0.412274 0.036438 0.942264
O O8 0.542291 0.054445 0.088526
O O9 0.698844 0.508666 0.634744
O O10 0.144708 0.418290 0.861337
O O11 0.396498 0.250000 0.828821
O O12 0.419245 0.307341 0.690598
O O13 0.306978 0.340493 0.852184
O O14 0.580135 0.323064 0.833162
O O15 0.978698 0.250000 0.944353
O O16 0.787300 0.320518 0.958895
O O17 0.069019 0.340063 0.947273
#
# Coordination Sequence:
#
# PCOD9462288 Si02
#       8
#     8   8   8   8   8   8   8   8
#     4  11  22  32  51  71  93 125 163 206 242 283
#     4   8  18  32  51  59  82 118 152 201 240 279
#     4   9  19  36  50  67  93 118 164 205 245 284
#     4  11  22  32  51  71  93 125 163 206 242 283
#     4  10  19  29  39  55  84 124 162 203 241 270
#     4  11  19  27  39  60  90 120 157 206 241 270
#     4  10  19  30  43  62  85 119 166 202 237 275
#     4  10  19  30  43  62  85 119 166 202 237 275
#
# _framework density 17.133592
#
# number of rings (size 3 to 8) (size 9 to 14) (size 15 to 20)
#    0.000    2.000    1.250    3.375   10.500    2.000 
#    0.000    0.000    0.000    0.000    0.000    0.000 
#    0.000    0.000    0.000    0.000    0.000  385.000 
#
# Total GULP energy -356566.760854 kJ/mol
# GULP energy per Si atom -5571.355638 kJ/mol
# Density = 1.709460 g / cm^3
# Si number density = 17.133592 Si / 1000 Ang^3
#
#
#
# Elastic Constant Matrix: (Units=GPa)
#
#
# Indices 1 2 3 4 5 6 
#
# 1 95.8002 24.6463 5.4422 0.0000 0.0000 0.0000
# 2 24.6463 66.5640 13.6838 0.0000 0.0000 0.0000
# 3 5.4422 13.6838 28.8996 0.0000 0.0000 0.0000
# 4 0.0000 0.0000 0.0000 14.8869 0.0000 0.0000
# 5 0.0000 0.0000 0.0000 0.0000 20.5515 0.0000
# 6 0.0000 0.0000 0.0000 0.0000 0.0000 24.1871
#
#
#
# Elastic Compliance Matrix: (Units=1/GPa)
#
#
# Indices 1 2 3 4 5 6 
#
# 1 0.011538 -0.004238 -0.000166 0.000000 0.000000 0.000000
# 2 -0.004238 0.018200 -0.007819 0.000000 0.000000 0.000000
# 3 -0.000166 -0.007819 0.038336 0.000000 0.000000 0.000000
# 4 0.000000 0.000000 0.000000 0.067173 0.000000 0.000000
# 5 0.000000 0.000000 0.000000 0.000000 0.048658 0.000000
# 6 0.000000 0.000000 0.000000 0.000000 0.000000 0.041344
#
#
# Mechanical properties :
#
#
# Convention : Reuss Voigt Hill
#
# Bulk Modulus (GPa) = 22.92155 30.97872 26.95014
# Shear Modulus (GPa) = 18.92225 21.75787 20.34006
#
# Velocity S-wave (km/s) = 3.32685 3.56742 3.44924
# Velocity P-wave (km/s) = 5.30702 5.92357 5.62375
#
# Compressibility (1/GPa) = 0.04362706
#
# Stress axis : x y z
#
# Youngs Moduli (GPa) = 86.66908 54.94570 26.08500
#
# Poissons Ratio (x) = 0.23286 0.00433
# Poissons Ratio (y) = 0.36731 0.20397
# Poissons Ratio (z) = 0.01440 0.42964
#
# Static dielectric constant tensor:
#      x y z
#    x 1.654790 0.000000 0.000000 
#    y 0.000000 1.614050 0.000000 
#    z 0.000000 0.000000 1.566850 
# 
# From -- ./inp_files/22666.got.cif
#   From: 2010.05.17/outbox.cif.g08.bks.cpg/sg62_12_cif.got.tgz:22666.got - 2010.06.03 15:25:27.
