data_PCOD9462312
_publ_section_title
;
Structure prediction by ZEFSAII (Michael W. Deem and Ramdas Pophale) SiO2 
 PCOD9462312
Probable space group: P N M A
;
_chemical_formula_sum "Si O2"
_cell_formula_units_Z 56
_cell_length_a 10.775807
_cell_length_b 7.604200
_cell_length_c 28.438844
_cell_angle_alpha 90.000000
_cell_angle_beta 90.000000
_cell_angle_gamma 90.000000
_cell_volume 2330.318453
_symmetry_space_group_name_H-M "P N M A"
_symmetry_group_IT_number 62
_symmetry_cell_setting 'orthorhombic'
loop_
_space_group_symop_operation_xyz
x,y,z
1/2-x,-y,1/2+z
1/2+x,1/2-y,1/2-z
-x,1/2+y,-z
-x,-y,-z
1/2+x,y,1/2-z
1/2-x,1/2+y,1/2+z
x,1/2-y,z
loop_
_atom_site_type_symbol
_atom_site_label
_atom_site_fract_x
_atom_site_fract_y
_atom_site_fract_z
Si Si1 0.711697 0.034544 0.702627
Si Si2 0.665412 0.533894 0.361965
Si Si3 0.561498 0.558970 0.452474
Si Si4 0.827987 0.946482 0.500175
Si Si5 0.447490 0.463822 0.738062
Si Si6 0.575560 0.466092 0.905081
Si Si7 0.304463 0.042097 0.893152
O O1 0.706531 0.250000 0.704513
O O2 0.590953 0.976305 0.732645
O O3 0.712412 0.977391 0.647619
O O4 0.845854 0.980406 0.723388
O O5 0.664718 0.750000 0.364625
O O6 0.572388 0.465721 0.402619
O O7 0.617532 0.488159 0.311157
O O8 0.805313 0.479044 0.374971
O O9 0.500000 0.500000 0.500000
O O10 0.505990 0.750000 0.442625
O O11 0.704253 0.567017 0.468461
O O12 0.869996 0.750000 0.509971
O O13 0.917066 0.026321 0.459908
O O14 0.787117 0.019505 0.550722
O O15 0.452954 0.250000 0.741993
O O16 0.575627 0.250000 0.906542
O O17 0.444565 0.524581 0.884709
O O18 0.307389 0.250000 0.886080
#
# Coordination Sequence:
#
# PCOD9462312 Si02
#       7
#     8   8   8   8   8   8   8
#     4   9  19  29  42  68  97 124 156 199 248 293
#     4   8  15  27  45  64  90 128 159 187 236 292
#     4   9  18  30  46  68  94 128 163 195 235 288
#     4   9  18  32  46  66  97 132 166 192 233 294
#     4   9  17  29  43  63  96 129 156 193 246 297
#     4   8  15  28  45  66  93 128 163 193 230 283
#     4  10  19  29  47  74 100 122 158 205 242 277
#
# _framework density 24.031051000000001
#
# number of rings (size 3 to 8) (size 9 to 14) (size 15 to 20)
#    0.000    3.143    0.000    2.143    4.000    0.571 
#    0.000    0.000    0.000    0.857    0.000    2.000 
#    0.000    0.000    0.000    0.000    0.000    0.000 
#
# Total GULP energy -311854.902224 kJ/mol
# GULP energy per Si atom -5568.837540 kJ/mol
# Density = 2.397636 g / cm^3
# Si number density = 24.031051 Si / 1000 Ang^3
#
#
#
# Elastic Constant Matrix: (Units=GPa)
#
#
# Indices 1 2 3 4 5 6 
#
# 1 105.4607 6.6604 43.4048 0.0000 0.0000 0.0000
# 2 6.6604 36.4210 -2.4717 0.0000 0.0000 0.0000
# 3 43.4048 -2.4717 109.6509 0.0000 0.0000 0.0000
# 4 0.0000 0.0000 0.0000 8.9619 0.0000 0.0000
# 5 0.0000 0.0000 0.0000 0.0000 40.9944 0.0000
# 6 0.0000 0.0000 0.0000 0.0000 0.0000 2.3699
#
#
#
# Elastic Compliance Matrix: (Units=1/GPa)
#
#
# Indices 1 2 3 4 5 6 
#
# 1 0.011537 -0.002424 -0.004622 0.000000 0.000000 0.000000
# 2 -0.002424 0.028008 0.001591 0.000000 0.000000 0.000000
# 3 -0.004622 0.001591 0.010985 0.000000 0.000000 0.000000
# 4 0.000000 0.000000 0.000000 0.111584 0.000000 0.000000
# 5 0.000000 0.000000 0.000000 0.000000 0.024394 0.000000
# 6 0.000000 0.000000 0.000000 0.000000 0.000000 0.421959
#
#
# Mechanical properties :
#
#
# Convention : Reuss Voigt Hill
#
# Bulk Modulus (GPa) = 25.23891 38.52443 31.88167
# Shear Modulus (GPa) = 7.90411 24.06119 15.98265
#
# Velocity S-wave (km/s) = 1.81556 3.16769 2.58172
# Velocity P-wave (km/s) = 3.86270 5.42632 4.70985
#
# Compressibility (1/GPa) = 0.03962136
#
# Stress axis : x y z
#
# Youngs Moduli (GPa) = 86.67449 35.70434 91.03179
#
# Poissons Ratio (x) = 0.08653 0.42072
# Poissons Ratio (y) = 0.21006 -0.14480
# Poissons Ratio (z) = 0.40058 -0.05679
#
# Static dielectric constant tensor:
#      x y z
#    x 2.004190 0.000000 0.000000 
#    y 0.000000 1.942290 0.000000 
#    z 0.000000 0.000000 1.974230 
# 
# From -- ./inp_files/29399.got.cif
#   From: 2010.05.17/outbox.cif.g08.bks.cpg/sg62_15_cif.got.tgz:29399.got - 2010.06.03 15:25:27.
