data_PCOD9462826
_publ_section_title
;
Structure prediction by ZEFSAII (Michael W. Deem and Ramdas Pophale) SiO2 
 PCOD9462826
Probable space group: P N M A
;
_chemical_formula_sum "Si O2"
_cell_formula_units_Z 32
_cell_length_a 23.442025
_cell_length_b 5.675539
_cell_length_c 9.181493
_cell_angle_alpha 90.000000
_cell_angle_beta 90.000000
_cell_angle_gamma 90.000000
_cell_volume 1221.562085
_symmetry_space_group_name_H-M "P N M A"
_symmetry_group_IT_number 62
_symmetry_cell_setting 'orthorhombic'
loop_
_space_group_symop_operation_xyz
x,y,z
1/2-x,-y,1/2+z
1/2+x,1/2-y,1/2-z
-x,1/2+y,-z
-x,-y,-z
1/2+x,y,1/2-z
1/2-x,1/2+y,1/2+z
x,1/2-y,z
loop_
_atom_site_type_symbol
_atom_site_label
_atom_site_fract_x
_atom_site_fract_y
_atom_site_fract_z
Si Si1 0.664045 0.250000 0.056688
Si Si2 0.157555 0.750000 0.448178
Si Si3 0.860574 0.750000 0.236239
Si Si4 0.374510 0.250000 0.406291
Si Si5 0.011303 0.250000 0.803696
Si Si6 0.701568 0.750000 0.352923
Si Si7 0.009526 0.250000 0.144804
Si Si8 0.747405 0.250000 0.331602
O O1 0.630421 0.495031 0.076254
O O2 0.676068 0.250000 0.883556
O O3 0.718868 0.250000 0.167136
O O4 0.204929 0.750000 0.321265
O O5 0.187948 0.750000 0.605159
O O6 0.928115 0.750000 0.278382
O O7 0.851244 0.502422 0.152852
O O8 0.361710 0.250000 0.577918
O O9 0.440708 0.250000 0.368148
O O10 0.978489 0.496736 0.783995
O O11 0.030095 0.250000 0.976838
O O12 0.723887 0.493419 0.396558
#
# Coordination Sequence:
#
# PCOD9462826 Si02
#       8
#     4   4   4   4   4   4   4   4
#     4  10  21  38  55  76  97 133 170 213 267 306
#     4  10  21  40  57  71  95 127 179 220 258 311
#     4  10  19  33  50  79 112 136 167 211 257 314
#     4  10  19  33  50  79 112 136 167 211 257 314
#     4   8  14  25  44  69 102 139 169 199 241 291
#     4  10  21  38  55  76  97 133 170 213 267 306
#     4   8  14  25  44  69 102 139 169 199 241 291
#     4  10  21  40  57  71  95 127 179 220 258 311
#
# _framework density 26.195969000000002
#
# number of rings (size 3 to 8) (size 9 to 14) (size 15 to 20)
#    0.000    2.500    0.000    2.250    0.000    0.000 
#   27.000    0.000    0.000    0.000    0.000    7.000 
#    0.000    0.000    0.000    0.000    0.000    0.000 
#
# Total GULP energy -178140.671543 kJ/mol
# GULP energy per Si atom -5566.895986 kJ/mol
# Density = 2.613635 g / cm^3
# Si number density = 26.195969 Si / 1000 Ang^3
#
#
#
# Elastic Constant Matrix: (Units=GPa)
#
#
# Indices 1 2 3 4 5 6 
#
# 1 50.1809 42.2465 57.2762 0.0000 0.0000 0.0000
# 2 42.2465 339.0157 39.2455 0.0000 0.0000 0.0000
# 3 57.2762 39.2455 88.5364 0.0000 0.0000 0.0000
# 4 0.0000 0.0000 0.0000 1.3048 0.0000 0.0000
# 5 0.0000 0.0000 0.0000 0.0000 32.2655 0.0000
# 6 0.0000 0.0000 0.0000 0.0000 0.0000 16.0054
#
#
#
# Elastic Compliance Matrix: (Units=1/GPa)
#
#
# Indices 1 2 3 4 5 6 
#
# 1 0.081673 -0.004281 -0.050938 0.000000 0.000000 0.000000
# 2 -0.004281 0.003334 0.001292 0.000000 0.000000 0.000000
# 3 -0.050938 0.001292 0.043675 0.000000 0.000000 0.000000
# 4 0.000000 0.000000 0.000000 0.766410 0.000000 0.000000
# 5 0.000000 0.000000 0.000000 0.000000 0.030993 0.000000
# 6 0.000000 0.000000 0.000000 0.000000 0.000000 0.062479
#
#
# Mechanical properties :
#
#
# Convention : Reuss Voigt Hill
#
# Bulk Modulus (GPa) = 48.01538 83.91882 65.96710
# Shear Modulus (GPa) = 4.53161 32.51279 18.52220
#
# Velocity S-wave (km/s) = 1.31668 3.52680 2.66195
# Velocity P-wave (km/s) = 4.54759 6.97775 5.88938
#
# Compressibility (1/GPa) = 0.02082666
#
# Stress axis : x y z
#
# Youngs Moduli (GPa) = 12.24402 299.97176 22.89620
#
# Poissons Ratio (x) = 1.28414 1.16629
# Poissons Ratio (y) = 0.05242 -0.02957
# Poissons Ratio (z) = 0.62369 -0.38747
#
# Static dielectric constant tensor:
#      x y z
#    x 2.105380 0.000000 0.000000 
#    y 0.000000 2.128100 0.000000 
#    z 0.000000 0.000000 2.008970 
# 
# From -- ./inp_files/9643.got.cif
#   From: 2010.05.17/outbox.cif.g08.bks.cpg/sg62_5_cif.got.tgz:9643.got - 2010.06.03 15:25:27.
