data_PCOD9462936
_publ_section_title
;
Structure prediction by ZEFSAII (Michael W. Deem and Ramdas Pophale) SiO2 
 PCOD9462936
Probable space group: P N M A
;
_chemical_formula_sum "Si O2"
_cell_formula_units_Z 64
_cell_length_a 17.671495
_cell_length_b 9.764100
_cell_length_c 20.189883
_cell_angle_alpha 90.000000
_cell_angle_beta 90.000000
_cell_angle_gamma 90.000000
_cell_volume 3483.688485
_symmetry_space_group_name_H-M "P N M A"
_symmetry_group_IT_number 62
_symmetry_cell_setting 'orthorhombic'
loop_
_space_group_symop_operation_xyz
x,y,z
1/2-x,-y,1/2+z
1/2+x,1/2-y,1/2-z
-x,1/2+y,-z
-x,-y,-z
1/2+x,y,1/2-z
1/2-x,1/2+y,1/2+z
x,1/2-y,z
loop_
_atom_site_type_symbol
_atom_site_label
_atom_site_fract_x
_atom_site_fract_y
_atom_site_fract_z
Si Si1 0.383283 0.587385 0.029580
Si Si2 0.489641 0.589563 0.901782
Si Si3 0.052446 0.595555 0.156056
Si Si4 0.746381 0.090791 0.510722
Si Si5 0.089309 0.531837 0.010406
Si Si6 0.749654 0.907732 0.639939
Si Si7 0.394330 0.909482 0.771384
Si Si8 0.584947 0.896941 0.637015
O O1 0.374364 0.750000 0.042499
O O2 0.443511 0.512749 0.077607
O O3 0.422228 0.573973 0.956328
O O4 0.304502 0.504075 0.030643
O O5 0.513342 0.750000 0.905812
O O6 0.456570 0.563370 0.828803
O O7 0.042965 0.750000 0.178782
O O8 0.090065 0.595794 0.083200
O O9 0.097126 0.506331 0.208932
O O10 0.971859 0.519493 0.149022
O O11 0.768523 0.250000 0.509884
O O12 0.657947 0.077460 0.489536
O O13 0.752934 0.022420 0.583413
O O14 0.104814 0.608354 0.941416
O O15 0.000000 0.500000 0.000000
O O16 0.760027 0.750000 0.613602
O O17 0.814326 0.929491 0.693027
O O18 0.665889 0.913411 0.670826
O O19 0.400573 0.750000 0.752543
O O20 0.550363 0.750000 0.655293
#
# Coordination Sequence:
#
# PCOD9462936 Si02
#       8
#     8   8   8   8   8   8   8   8
#     4  10  19  33  54  82 116 149 187 234 283 329
#     4   9  18  34  55  79 110 150 193 232 274 328
#     4  11  23  37  55  82 113 146 186 232 282 335
#     4  11  21  33  56  88 117 145 185 232 283 342
#     4   9  21  38  57  81 112 144 182 235 289 340
#     4   9  18  35  57  83 111 143 183 228 278 331
#     4  10  20  37  58  80 113 153 192 228 273 341
#     4   9  18  35  61  84 106 141 184 230 286 342
#
# _framework density 18.371333
#
# number of rings (size 3 to 8) (size 9 to 14) (size 15 to 20)
#    0.000    2.250    1.250    1.500    0.000   10.000 
#    0.000    1.250    0.000    3.000    0.000    0.000 
#    0.000    0.000    0.000    0.000    0.000    0.000 
#
# Total GULP energy -356362.763795 kJ/mol
# GULP energy per Si atom -5568.168184 kJ/mol
# Density = 1.832952 g / cm^3
# Si number density = 18.371333 Si / 1000 Ang^3
#
#
#
# Elastic Constant Matrix: (Units=GPa)
#
#
# Indices 1 2 3 4 5 6 
#
# 1 102.7376 61.1415 34.8726 0.0000 0.0000 0.0000
# 2 61.1415 131.9158 42.7545 0.0000 0.0000 0.0000
# 3 34.8726 42.7545 62.8870 0.0000 0.0000 0.0000
# 4 0.0000 0.0000 0.0000 17.2273 0.0000 0.0000
# 5 0.0000 0.0000 0.0000 0.0000 19.1113 0.0000
# 6 0.0000 0.0000 0.0000 0.0000 0.0000 24.5094
#
#
#
# Elastic Compliance Matrix: (Units=1/GPa)
#
#
# Indices 1 2 3 4 5 6 
#
# 1 0.014332 -0.005216 -0.004401 0.000000 0.000000 0.000000
# 2 -0.005216 0.011622 -0.005009 0.000000 0.000000 0.000000
# 3 -0.004401 -0.005009 0.021747 0.000000 0.000000 0.000000
# 4 0.000000 0.000000 0.000000 0.058047 0.000000 0.000000
# 5 0.000000 0.000000 0.000000 0.000000 0.052325 0.000000
# 6 0.000000 0.000000 0.000000 0.000000 0.000000 0.040801
#
#
# Mechanical properties :
#
#
# Convention : Reuss Voigt Hill
#
# Bulk Modulus (GPa) = 54.20386 63.89751 59.05068
# Shear Modulus (GPa) = 21.34250 22.75440 22.04845
#
# Velocity S-wave (km/s) = 3.41211 3.52317 3.46808
# Velocity P-wave (km/s) = 6.71506 7.16986 6.94618
#
# Compressibility (1/GPa) = 0.01844887
#
# Stress axis : x y z
#
# Youngs Moduli (GPa) = 69.77565 86.04740 45.98312
#
# Poissons Ratio (x) = 0.44884 0.20237
# Poissons Ratio (y) = 0.36396 0.23031
# Poissons Ratio (z) = 0.30708 0.43097
#
# Static dielectric constant tensor:
#      x y z
#    x 1.692830 0.000000 0.000000 
#    y 0.000000 1.554350 0.000000 
#    z 0.000000 0.000000 1.634400 
# 
# From -- ./inp_files/27658.got.cif
#   From: 2010.05.17/outbox.cif.g08.bks.cpg/sg62_14_cif.got.tgz:27658.got - 2010.06.03 15:25:27.
