data_PCOD9462706
_publ_section_title
;
Structure prediction by ZEFSAII (Michael W. Deem and Ramdas Pophale) SiO2 
 PCOD9462706
Probable space group: P N M A
;
_chemical_formula_sum "Si O2"
_cell_formula_units_Z 64
_cell_length_a 20.334261
_cell_length_b 8.360257
_cell_length_c 20.965312
_cell_angle_alpha 90.000000
_cell_angle_beta 90.000000
_cell_angle_gamma 90.000000
_cell_volume 3564.095657
_symmetry_space_group_name_H-M "P N M A"
_symmetry_group_IT_number 62
_symmetry_cell_setting 'orthorhombic'
loop_
_space_group_symop_operation_xyz
x,y,z
1/2-x,-y,1/2+z
1/2+x,1/2-y,1/2-z
-x,1/2+y,-z
-x,-y,-z
1/2+x,y,1/2-z
1/2-x,1/2+y,1/2+z
x,1/2-y,z
loop_
_atom_site_type_symbol
_atom_site_label
_atom_site_fract_x
_atom_site_fract_y
_atom_site_fract_z
Si Si1 0.409195 0.444652 0.301524
Si Si2 0.559256 0.442847 0.333769
Si Si3 0.557666 0.557316 0.835164
Si Si4 0.928515 0.443752 0.476985
Si Si5 0.088295 0.941160 0.301384
Si Si6 0.571541 0.441888 0.476850
Si Si7 0.676650 0.556797 0.082311
Si Si8 0.175379 0.941440 0.919307
O O1 0.407153 0.250000 0.301044
O O2 0.482358 0.489147 0.325580
O O3 0.404339 0.499889 0.228229
O O4 0.355755 0.501047 0.352265
O O5 0.561924 0.250000 0.330998
O O6 0.596699 0.508220 0.271987
O O7 0.582286 0.495523 0.403588
O O8 0.561244 0.750000 0.835373
O O9 0.581475 0.500286 0.904136
O O10 0.481437 0.511129 0.825122
O O11 0.928553 0.250000 0.477325
O O12 0.872486 0.497638 0.526094
O O13 0.000000 0.500000 0.500000
O O14 0.083583 0.750000 0.304722
O O15 0.144825 0.994699 0.350213
O O16 0.500000 0.500000 0.500000
O O17 0.570777 0.250000 0.477066
O O18 0.627658 0.501351 0.524336
O O19 0.677334 0.750000 0.081477
O O20 0.750264 0.497631 0.073298
O O21 0.173750 0.750000 0.918419
#
# Coordination Sequence:
#
# PCOD9462706 Si02
#       8
#     8   8   8   8   8   8   8   8
#     4   8  15  31  51  76 105 131 171 223 266 314
#     4   9  18  34  55  79 109 139 177 225 271 326
#     4   9  17  31  54  79 104 136 175 223 276 327
#     4  10  19  33  55  80 109 143 182 228 277 330
#     4  10  19  32  52  79 111 141 176 228 277 324
#     4  11  21  36  58  84 114 147 185 233 282 333
#     4  10  22  38  52  76 115 152 184 227 284 337
#     4  11  22  37  56  79 110 149 192 233 276 335
#
# _framework density 17.956868
#
# number of rings (size 3 to 8) (size 9 to 14) (size 15 to 20)
#    0.000    2.250    2.500    1.875    0.000    2.500 
#    0.000    1.875    0.000    3.000    0.000    0.000 
#    0.000    0.000    0.000    0.000    0.000    0.000 
#
# Total GULP energy -356960.384085 kJ/mol
# GULP energy per Si atom -5577.506001 kJ/mol
# Density = 1.791600 g / cm^3
# Si number density = 17.956868 Si / 1000 Ang^3
#
#
#
# Elastic Constant Matrix: (Units=GPa)
#
#
# Indices 1 2 3 4 5 6 
#
# 1 125.4237 15.7333 98.4172 0.0000 0.0000 0.0000
# 2 15.7333 13.9328 26.5864 0.0000 0.0000 0.0000
# 3 98.4172 26.5864 204.4567 0.0000 0.0000 0.0000
# 4 0.0000 0.0000 0.0000 23.2484 0.0000 0.0000
# 5 0.0000 0.0000 0.0000 0.0000 26.7905 0.0000
# 6 0.0000 0.0000 0.0000 0.0000 0.0000 25.7883
#
#
#
# Elastic Compliance Matrix: (Units=1/GPa)
#
#
# Indices 1 2 3 4 5 6 
#
# 1 0.012949 -0.003629 -0.005761 0.000000 0.000000 0.000000
# 2 -0.003629 0.096477 -0.010799 0.000000 0.000000 0.000000
# 3 -0.005761 -0.010799 0.009068 0.000000 0.000000 0.000000
# 4 0.000000 0.000000 0.000000 0.043014 0.000000 0.000000
# 5 0.000000 0.000000 0.000000 0.000000 0.037327 0.000000
# 6 0.000000 0.000000 0.000000 0.000000 0.000000 0.038777
#
#
# Mechanical properties :
#
#
# Convention : Reuss Voigt Hill
#
# Bulk Modulus (GPa) = 12.80130 69.47632 41.13881
# Shear Modulus (GPa) = 16.44587 28.70386 22.57486
#
# Velocity S-wave (km/s) = 3.02959 4.00245 3.54951
# Velocity P-wave (km/s) = 4.40253 7.75462 6.30541
#
# Compressibility (1/GPa) = 0.07811705
#
# Stress axis : x y z
#
# Youngs Moduli (GPa) = 77.22691 10.36519 110.27293
#
# Poissons Ratio (x) = 0.03761 0.63530
# Poissons Ratio (y) = 0.28024 1.19079
# Poissons Ratio (z) = 0.44492 0.11193
#
# Static dielectric constant tensor:
#      x y z
#    x 1.579940 0.000000 0.000000 
#    y 0.000000 1.624290 0.000000 
#    z 0.000000 0.000000 1.660030 
# 
# From -- ./inp_files/27703.got.cif
#   From: 2010.05.17/outbox.cif.g08.bks.cpg/sg62_14_cif.got.tgz:27703.got - 2010.06.03 15:25:27.
