data_PCOD9462633
_publ_section_title
;
Structure prediction by ZEFSAII (Michael W. Deem and Ramdas Pophale) SiO2 
 PCOD9462633
Probable space group: P N M A
;
_chemical_formula_sum "Si O2"
_cell_formula_units_Z 64
_cell_length_a 17.333712
_cell_length_b 7.551871
_cell_length_c 21.193382
_cell_angle_alpha 90.000000
_cell_angle_beta 90.000000
_cell_angle_gamma 90.000000
_cell_volume 2774.255179
_symmetry_space_group_name_H-M "P N M A"
_symmetry_group_IT_number 62
_symmetry_cell_setting 'orthorhombic'
loop_
_space_group_symop_operation_xyz
x,y,z
1/2-x,-y,1/2+z
1/2+x,1/2-y,1/2-z
-x,1/2+y,-z
-x,-y,-z
1/2+x,y,1/2-z
1/2-x,1/2+y,1/2+z
x,1/2-y,z
loop_
_atom_site_type_symbol
_atom_site_label
_atom_site_fract_x
_atom_site_fract_y
_atom_site_fract_z
Si Si1 0.411154 0.551812 0.789513
Si Si2 0.571088 0.532005 0.759069
Si Si3 0.201734 0.966187 0.645825
Si Si4 0.804358 0.045907 0.489842
Si Si5 0.877545 0.466243 0.985288
Si Si6 0.722622 0.544055 0.122722
Si Si7 0.398828 0.046940 0.378361
Si Si8 0.618778 0.954151 0.348338
O O1 0.410932 0.750000 0.815081
O O2 0.496009 0.472308 0.797984
O O3 0.336243 0.464966 0.819582
O O4 0.404743 0.555941 0.713881
O O5 0.569644 0.750000 0.757500
O O6 0.648071 0.481067 0.796171
O O7 0.570173 0.467166 0.686710
O O8 0.206407 0.750000 0.644981
O O9 0.169063 0.026870 0.577598
O O10 0.288195 0.036433 0.650854
O O11 0.829613 0.250000 0.490728
O O12 0.819606 0.971766 0.559494
O O13 0.710903 0.032391 0.486427
O O14 0.875646 0.250000 0.985912
O O15 0.909352 0.520744 0.916861
O O16 0.913641 0.529010 0.051498
O O17 0.741350 0.750000 0.111413
O O18 0.805353 0.453379 0.130733
O O19 0.424917 0.250000 0.380395
O O20 0.595663 0.750000 0.341468
#
# Coordination Sequence:
#
# PCOD9462633 Si02
#       8
#     8   8   8   8   8   8   8   8
#     4  11  22  35  48  66  94 131 168 203 240 284
#     4   9  19  33  50  70  94 125 166 205 236 276
#     4   9  16  31  54  77  98 126 161 198 238 286
#     4   8  15  27  47  73 100 124 152 192 239 285
#     4   8  15  27  47  73 100 124 152 192 239 285
#     4  10  19  32  50  75 101 126 157 198 243 290
#     4   9  16  31  54  77  98 126 161 198 238 286
#     4  10  19  32  50  75 101 126 157 198 243 290
#
# _framework density 23.069254000000001
#
# number of rings (size 3 to 8) (size 9 to 14) (size 15 to 20)
#    0.000    2.750    0.000    1.875    0.000    2.000 
#    0.000    3.750    0.000    0.000    0.000    0.000 
#    0.000    0.000    0.000    0.000    0.000    0.000 
#
# Total GULP energy -356962.406778 kJ/mol
# GULP energy per Si atom -5577.537606 kJ/mol
# Density = 2.301675 g / cm^3
# Si number density = 23.069254 Si / 1000 Ang^3
#
#
#
# Elastic Constant Matrix: (Units=GPa)
#
#
# Indices 1 2 3 4 5 6 
#
# 1 53.0330 1.0508 13.4023 0.0000 0.0000 0.0000
# 2 1.0508 69.9925 4.8511 0.0000 0.0000 0.0000
# 3 13.4023 4.8511 107.4241 0.0000 0.0000 0.0000
# 4 0.0000 0.0000 0.0000 -14.0516 0.0000 0.0000
# 5 0.0000 0.0000 0.0000 0.0000 -17.0717 0.0000
# 6 0.0000 0.0000 0.0000 0.0000 0.0000 0.6191
#
#
#
# Elastic Compliance Matrix: (Units=1/GPa)
#
#
# Indices 1 2 3 4 5 6 
#
# 1 0.019471 -0.000124 -0.002424 0.000000 0.000000 0.000000
# 2 -0.000124 0.014333 -0.000632 0.000000 0.000000 0.000000
# 3 -0.002424 -0.000632 0.009640 0.000000 0.000000 0.000000
# 4 0.000000 0.000000 0.000000 -0.071166 0.000000 0.000000
# 5 0.000000 0.000000 0.000000 0.000000 -0.058576 0.000000
# 6 0.000000 0.000000 0.000000 0.000000 0.000000 1.615250
#
#
# Mechanical properties :
#
#
# Convention : Reuss Voigt Hill
#
# Bulk Modulus (GPa) = 26.96551 29.89535 28.43043
# Shear Modulus (GPa) = 3.23066 7.97551 5.60309
#
# Velocity S-wave (km/s) = 1.18468 1.86137 1.56016
# Velocity P-wave (km/s) = 3.68586 4.19603 3.94920
#
# Compressibility (1/GPa) = 0.03708441
#
# Stress axis : x y z
#
# Youngs Moduli (GPa) = 51.35811 69.76960 103.73666
#
# Poissons Ratio (x) = 0.00868 0.25142
# Poissons Ratio (y) = 0.00639 0.06553
# Poissons Ratio (z) = 0.12447 0.04408
#
# Static dielectric constant tensor:
#      x y z
#    x 1.822770 0.000000 0.000000 
#    y 0.000000 1.843490 0.000000 
#    z 0.000000 0.000000 1.926510 
# 
# From -- ./inp_files/27649.got.cif
#   From: 2010.05.17/outbox.cif.g08.bks.cpg/sg62_14_cif.got.tgz:27649.got - 2010.06.03 15:25:27.
