data_PCOD9462982
_publ_section_title
;
Structure prediction by ZEFSAII (Michael W. Deem and Ramdas Pophale) SiO2 
 PCOD9462982
Probable space group: P N M A
;
_chemical_formula_sum "Si O2"
_cell_formula_units_Z 56
_cell_length_a 14.830288
_cell_length_b 9.173379
_cell_length_c 22.155625
_cell_angle_alpha 90.000000
_cell_angle_beta 90.000000
_cell_angle_gamma 90.000000
_cell_volume 3014.136580
_symmetry_space_group_name_H-M "P N M A"
_symmetry_group_IT_number 62
_symmetry_cell_setting 'orthorhombic'
loop_
_space_group_symop_operation_xyz
x,y,z
1/2-x,-y,1/2+z
1/2+x,1/2-y,1/2-z
-x,1/2+y,-z
-x,-y,-z
1/2+x,y,1/2-z
1/2-x,1/2+y,1/2+z
x,1/2-y,z
loop_
_atom_site_type_symbol
_atom_site_label
_atom_site_fract_x
_atom_site_fract_y
_atom_site_fract_z
Si Si1 0.649867 0.079500 0.653872
Si Si2 0.010136 0.577433 0.629063
Si Si3 0.296564 0.420800 0.624585
Si Si4 0.175420 0.922110 0.719682
Si Si5 0.844790 0.420530 0.594279
Si Si6 0.629970 0.078897 0.967566
Si Si7 0.013428 0.573442 0.065206
O O1 0.635406 0.250000 0.669049
O O2 0.743714 0.067346 0.618316
O O3 0.568235 0.033818 0.610191
O O4 0.659907 0.990412 0.715125
O O5 0.996310 0.750000 0.622025
O O6 0.084437 0.553053 0.680663
O O7 0.053615 0.507799 0.568932
O O8 0.916609 0.494513 0.639176
O O9 0.304377 0.250000 0.640686
O O10 0.257294 0.506293 0.681988
O O11 0.220743 0.433612 0.572493
O O12 0.391988 0.468970 0.596806
O O13 0.190513 0.750000 0.723872
O O14 0.866288 0.250000 0.586088
O O15 0.853447 0.506697 0.531800
O O16 0.607232 0.250000 0.972768
O O17 0.013624 0.750000 0.057782
O O18 0.000000 0.500000 0.000000
#
# Coordination Sequence:
#
# PCOD9462982 Si02
#       7
#     8   8   8   8   8   8   8
#     4  10  23  40  57  79 112 149 184 226 277 331
#     4  10  21  37  56  80 110 143 179 223 271 323
#     4   9  19  36  59  84 112 147 185 224 275 334
#     4  10  22  39  59  82 108 141 185 232 278 327
#     4  11  22  35  53  79 109 144 181 219 267 321
#     4  10  19  33  55  83 113 144 177 219 268 322
#     4  10  21  38  60  87 116 150 190 233 282 336
#
# _framework density 18.579118000000001
#
# number of rings (size 3 to 8) (size 9 to 14) (size 15 to 20)
#    0.000    2.000    0.000    3.000    0.000    5.714 
#    0.000    4.286    0.000    0.000    0.000    0.000 
#    0.000    0.000    0.000    0.000    0.000    0.000 
#
# Total GULP energy -312806.075360 kJ/mol
# GULP energy per Si atom -5585.822774 kJ/mol
# Density = 1.853683 g / cm^3
# Si number density = 18.579118 Si / 1000 Ang^3
#
#
#
# Elastic Constant Matrix: (Units=GPa)
#
#
# Indices 1 2 3 4 5 6 
#
# 1 122.8772 50.8955 46.8278 0.0000 0.0000 0.0000
# 2 50.8955 74.8161 59.5365 0.0000 0.0000 0.0000
# 3 46.8278 59.5365 122.7286 0.0000 0.0000 0.0000
# 4 0.0000 0.0000 0.0000 35.8580 0.0000 0.0000
# 5 0.0000 0.0000 0.0000 0.0000 15.3089 0.0000
# 6 0.0000 0.0000 0.0000 0.0000 0.0000 23.6156
#
#
#
# Elastic Compliance Matrix: (Units=1/GPa)
#
#
# Indices 1 2 3 4 5 6 
#
# 1 0.011400 -0.006993 -0.000957 0.000000 0.000000 0.000000
# 2 -0.006993 0.026060 -0.009974 0.000000 0.000000 0.000000
# 3 -0.000957 -0.009974 0.013352 0.000000 0.000000 0.000000
# 4 0.000000 0.000000 0.000000 0.027888 0.000000 0.000000
# 5 0.000000 0.000000 0.000000 0.000000 0.065321 0.000000
# 6 0.000000 0.000000 0.000000 0.000000 0.000000 0.042345
#
#
# Mechanical properties :
#
#
# Convention : Reuss Voigt Hill
#
# Bulk Modulus (GPa) = 66.83017 70.54907 68.68962
# Shear Modulus (GPa) = 22.00696 25.83397 23.92047
#
# Velocity S-wave (km/s) = 3.44539 3.73297 3.59206
# Velocity P-wave (km/s) = 7.20252 7.52560 7.36583
#
# Compressibility (1/GPa) = 0.01496330
#
# Stress axis : x y z
#
# Youngs Moduli (GPa) = 87.72312 38.37281 74.89760
#
# Poissons Ratio (x) = 0.26835 0.07169
# Poissons Ratio (y) = 0.61346 0.74700
# Poissons Ratio (z) = 0.08396 0.38272
#
# Static dielectric constant tensor:
#      x y z
#    x 1.651640 0.000000 0.000000 
#    y 0.000000 1.624960 0.000000 
#    z 0.000000 0.000000 1.609820 
# 
# From -- ./inp_files/27143.got.cif
#   From: 2010.05.17/outbox.cif.g08.bks.cpg/sg62_14_cif.got.tgz:27143.got - 2010.06.03 15:25:27.
