data_PCOD9462126
_publ_section_title
;
Structure prediction by ZEFSAII (Michael W. Deem and Ramdas Pophale) SiO2 
 PCOD9462126
Probable space group: P N M A
;
_chemical_formula_sum "Si O2"
_cell_formula_units_Z 48
_cell_length_a 25.930706
_cell_length_b 7.365902
_cell_length_c 10.019333
_cell_angle_alpha 90.000000
_cell_angle_beta 90.000000
_cell_angle_gamma 90.000000
_cell_volume 1913.723054
_symmetry_space_group_name_H-M "P N M A"
_symmetry_group_IT_number 62
_symmetry_cell_setting 'orthorhombic'
loop_
_space_group_symop_operation_xyz
x,y,z
1/2-x,-y,1/2+z
1/2+x,1/2-y,1/2-z
-x,1/2+y,-z
-x,-y,-z
1/2+x,y,1/2-z
1/2-x,1/2+y,1/2+z
x,1/2-y,z
loop_
_atom_site_type_symbol
_atom_site_label
_atom_site_fract_x
_atom_site_fract_y
_atom_site_fract_z
Si Si1 0.306968 0.459417 0.438028
Si Si2 0.261476 0.031743 0.176121
Si Si3 0.579515 0.972465 0.519169
Si Si4 0.869488 0.028579 0.458011
Si Si5 0.418314 0.458529 0.780676
Si Si6 0.031153 0.969238 0.713948
O O1 0.313451 0.250000 0.399238
O O2 0.285384 0.465453 0.586649
O O3 0.266923 0.532777 0.328686
O O4 0.364231 0.534085 0.430229
O O5 0.257034 0.250000 0.170708
O O6 0.315038 0.975417 0.104778
O O7 0.577661 0.750000 0.517540
O O8 0.576664 0.038637 0.367192
O O9 0.538986 0.029534 0.631685
O O10 0.869810 0.250000 0.458763
O O11 0.880015 0.963646 0.608741
O O12 0.918543 0.973399 0.368594
O O13 0.402388 0.250000 0.761602
O O14 0.476404 0.462787 0.838371
O O15 0.029619 0.750000 0.710776
#
# Coordination Sequence:
#
# PCOD9462126 Si02
#       6
#     8   8   8   8   8   8
#     4  10  21  38  59  83 110 143 184 228 273 327
#     4  10  21  38  59  83 110 143 184 228 273 327
#     4   9  18  34  55  76 103 141 179 213 260 323
#     4   9  18  34  55  76 103 141 179 213 260 323
#     4  10  20  32  51  80 106 134 177 220 257 312
#     4  10  18  34  55  74 102 140 177 214 263 316
#
# _framework density 25.081997999999999
#
# number of rings (size 3 to 8) (size 9 to 14) (size 15 to 20)
#    0.000    2.333    1.667    1.000    2.333    0.667 
#    0.000    3.333    0.000    0.000    0.000    0.000 
#    0.000    0.000    0.000    0.000    0.000    0.000 
#
# Total GULP energy -268363.534825 kJ/mol
# GULP energy per Si atom -5590.906976 kJ/mol
# Density = 2.502491 g / cm^3
# Si number density = 25.081998 Si / 1000 Ang^3
#
#
#
# Elastic Constant Matrix: (Units=GPa)
#
#
# Indices 1 2 3 4 5 6 
#
# 1 30.6348 -9.6266 -15.1583 0.0000 0.0000 0.0000
# 2 -9.6266 90.4159 -0.3444 0.0000 0.0000 0.0000
# 3 -15.1583 -0.3444 85.1518 0.0000 0.0000 0.0000
# 4 0.0000 0.0000 0.0000 -0.1210 0.0000 0.0000
# 5 0.0000 0.0000 0.0000 0.0000 43.4154 0.0000
# 6 0.0000 0.0000 0.0000 0.0000 0.0000 9.1889
#
#
#
# Elastic Compliance Matrix: (Units=1/GPa)
#
#
# Indices 1 2 3 4 5 6 
#
# 1 0.037177 0.003984 0.006634 0.000000 0.000000 0.000000
# 2 0.003984 0.011487 0.000756 0.000000 0.000000 0.000000
# 3 0.006634 0.000756 0.012928 0.000000 0.000000 0.000000
# 4 0.000000 0.000000 0.000000 -8.261369 0.000000 0.000000
# 5 0.000000 0.000000 0.000000 0.000000 0.023033 0.000000
# 6 0.000000 0.000000 0.000000 0.000000 0.000000 0.108827
#
#
# Mechanical properties :
#
#
# Convention : Reuss Voigt Hill
#
# Bulk Modulus (GPa) = 11.85701 17.32710 14.59206
# Shear Modulus (GPa) = -0.62015 25.91879 12.64932
#
# Velocity S-wave (km/s) = -0.49778 3.21808 2.24814
# Velocity P-wave (km/s) = 2.09933 4.55316 3.54531
#
# Compressibility (1/GPa) = 0.08433827
#
# Stress axis : x y z
#
# Youngs Moduli (GPa) = 26.89838 87.05488 77.35288
#
# Poissons Ratio (x) = -0.34679 -0.51317
# Poissons Ratio (y) = -0.10715 -0.05845
# Poissons Ratio (z) = -0.17845 -0.06578
#
# Static dielectric constant tensor:
#      x y z
#    x 1.914580 0.000000 0.000000 
#    y 0.000000 1.961590 0.000000 
#    z 0.000000 0.000000 2.021360 
# 
# From -- ./inp_files/9317.got.cif
#   From: 2010.05.17/outbox.cif.g08.bks.cpg/sg62_5_cif.got.tgz:9317.got - 2010.06.03 15:25:27.
