data_PCOD9462213
_publ_section_title
;
Structure prediction by ZEFSAII (Michael W. Deem and Ramdas Pophale) SiO2 
 PCOD9462213
Probable space group: P N M A
;
_chemical_formula_sum "Si O2"
_cell_formula_units_Z 44
_cell_length_a 11.948828
_cell_length_b 18.198449
_cell_length_c 8.636895
_cell_angle_alpha 90.000000
_cell_angle_beta 90.000000
_cell_angle_gamma 90.000000
_cell_volume 1878.094001
_symmetry_space_group_name_H-M "P N M A"
_symmetry_group_IT_number 62
_symmetry_cell_setting 'orthorhombic'
loop_
_space_group_symop_operation_xyz
x,y,z
1/2-x,-y,1/2+z
1/2+x,1/2-y,1/2-z
-x,1/2+y,-z
-x,-y,-z
1/2+x,y,1/2-z
1/2-x,1/2+y,1/2+z
x,1/2-y,z
loop_
_atom_site_type_symbol
_atom_site_label
_atom_site_fract_x
_atom_site_fract_y
_atom_site_fract_z
Si Si1 0.172497 0.509671 0.445924
Si Si2 0.216258 0.402611 0.210126
Si Si3 0.049761 0.750000 0.384545
Si Si4 0.025395 0.750000 0.018598
Si Si5 0.514802 0.089027 0.482441
Si Si6 0.234906 0.250000 0.101318
Si Si7 0.030971 0.403845 0.666468
O O1 0.249995 0.456243 0.346246
O O2 0.236498 0.566105 0.551107
O O3 0.106735 0.456476 0.563168
O O4 0.090484 0.556546 0.336709
O O5 0.248120 0.319312 0.211791
O O6 0.083824 0.406707 0.178252
O O7 0.167785 0.750000 0.472840
O O8 0.060788 0.750000 0.198636
O O9 0.983014 0.825142 0.415986
O O10 0.059010 0.834460 0.967756
O O11 0.889996 0.750000 0.976222
O O12 0.566872 0.105035 0.655259
O O13 0.500000 0.000000 0.500000
#
# Coordination Sequence:
#
# PCOD9462213 Si02
#       7
#     8   8   4   4   8   4   8
#     4  11  22  37  59  90 118 158 207 250 306 375
#     4  11  22  38  62  88 124 161 206 258 308 380
#     4  10  18  39  63  86 126 165 209 256 307 375
#     4   8  20  32  56  96 121 158 213 250 303 378
#     4  10  18  36  59  85 123 158 198 251 308 359
#     4  10  20  37  61  92 125 167 206 260 324 363
#     4  10  21  37  60  89 117 160 206 248 308 375
#
# _framework density 23.428007999999998
#
# number of rings (size 3 to 8) (size 9 to 14) (size 15 to 20)
#    0.000    1.818    3.636    1.091    0.000    0.727 
#    0.000    0.000    0.000    6.545    0.000    0.000 
#    0.000    0.000    0.000    0.000    0.000    0.000 
#
# Total GULP energy -244947.500646 kJ/mol
# GULP energy per Si atom -5566.988651 kJ/mol
# Density = 2.337468 g / cm^3
# Si number density = 23.428008 Si / 1000 Ang^3
#
#
#
# Elastic Constant Matrix: (Units=GPa)
#
#
# Indices 1 2 3 4 5 6 
#
# 1 10.9615 9.3068 0.7204 0.0000 0.0000 0.0000
# 2 9.3068 227.0802 14.9946 0.0000 0.0000 0.0000
# 3 0.7204 14.9946 31.2160 0.0000 0.0000 0.0000
# 4 0.0000 0.0000 0.0000 30.3689 0.0000 0.0000
# 5 0.0000 0.0000 0.0000 0.0000 20.5714 0.0000
# 6 0.0000 0.0000 0.0000 0.0000 0.0000 24.7339
#
#
#
# Elastic Compliance Matrix: (Units=1/GPa)
#
#
# Indices 1 2 3 4 5 6 
#
# 1 0.094520 -0.003852 -0.000331 0.000000 0.000000 0.000000
# 2 -0.003852 0.004705 -0.002171 0.000000 0.000000 0.000000
# 3 -0.000331 -0.002171 0.033085 0.000000 0.000000 0.000000
# 4 0.000000 0.000000 0.000000 0.032928 0.000000 0.000000
# 5 0.000000 0.000000 0.000000 0.000000 0.048611 0.000000
# 6 0.000000 0.000000 0.000000 0.000000 0.000000 0.040430
#
#
# Mechanical properties :
#
#
# Convention : Reuss Voigt Hill
#
# Bulk Modulus (GPa) = 8.36104 35.47792 21.91948
# Shear Modulus (GPa) = 16.29426 31.41724 23.85575
#
# Velocity S-wave (km/s) = 2.64010 3.66596 3.19448
# Velocity P-wave (km/s) = 3.58749 5.75285 4.79402
#
# Compressibility (1/GPa) = 0.11960235
#
# Stress axis : x y z
#
# Youngs Moduli (GPa) = 10.57973 212.54129 30.22480
#
# Poissons Ratio (x) = 0.81871 0.01001
# Poissons Ratio (y) = 0.04075 0.06562
# Poissons Ratio (z) = 0.00350 0.46145
#
# Static dielectric constant tensor:
#      x y z
#    x 2.025210 0.000000 0.000000 
#    y 0.000000 1.939390 0.000000 
#    z 0.000000 0.000000 1.827380 
# 
# From -- ./inp_files/6374.got.cif
#   From: 2010.05.17/outbox.cif.g08.bks.cpg/sg62_4_cif.got.tgz:6374.got - 2010.06.03 15:25:27.
