data_PCOD9462303
_publ_section_title
;
Structure prediction by ZEFSAII (Michael W. Deem and Ramdas Pophale) SiO2 
 PCOD9462303
Probable space group: P N M A
;
_chemical_formula_sum "Si O2"
_cell_formula_units_Z 48
_cell_length_a 24.625590
_cell_length_b 8.781243
_cell_length_c 14.125202
_cell_angle_alpha 90.000000
_cell_angle_beta 90.000000
_cell_angle_gamma 90.000000
_cell_volume 3054.480150
_symmetry_space_group_name_H-M "P N M A"
_symmetry_group_IT_number 62
_symmetry_cell_setting 'orthorhombic'
loop_
_space_group_symop_operation_xyz
x,y,z
1/2-x,-y,1/2+z
1/2+x,1/2-y,1/2-z
-x,1/2+y,-z
-x,-y,-z
1/2+x,y,1/2-z
1/2-x,1/2+y,1/2+z
x,1/2-y,z
loop_
_atom_site_type_symbol
_atom_site_label
_atom_site_fract_x
_atom_site_fract_y
_atom_site_fract_z
Si Si1 0.724555 0.566479 0.099092
Si Si2 0.665085 0.066459 0.704703
Si Si3 0.940467 0.431882 0.109582
Si Si4 0.834337 0.064558 0.787532
Si Si5 0.056663 0.566233 0.111442
Si Si6 0.774671 0.933533 0.394072
O O1 0.723243 0.750000 0.094876
O O2 0.784754 0.522421 0.136011
O O3 0.682921 0.517508 0.181834
O O4 0.713309 0.500134 0.996414
O O5 0.661122 0.250000 0.702196
O O6 0.683598 0.022365 0.810720
O O7 0.609320 0.995529 0.669757
O O8 0.941429 0.250000 0.114906
O O9 0.998797 0.497502 0.139682
O O10 0.933011 0.475168 0.998657
O O11 0.834636 0.250000 0.788026
O O12 0.892578 0.013827 0.825450
O O13 0.785260 0.018640 0.857442
O O14 0.053351 0.750000 0.116296
O O15 0.774643 0.750000 0.399233
#
# Coordination Sequence:
#
# PCOD9462303 Si02
#       6
#     8   8   8   8   8   8
#     4   9  17  29  46  68  91 115 147 184 217 254
#     4   9  18  31  46  65  92 124 150 175 216 270
#     4  10  19  29  45  69  92 115 148 189 223 255
#     4   8  15  29  47  65  88 120 150 174 212 269
#     4   9  17  30  47  65  89 121 149 176 220 272
#     4   9  17  30  47  67  92 120 148 178 218 267
#
# _framework density 15.714620999999999
#
# number of rings (size 3 to 8) (size 9 to 14) (size 15 to 20)
#    0.000    3.000    0.000    3.500    0.000    3.333 
#    0.000    4.167    0.000    1.000    0.000    0.000 
#    0.000    0.000    0.000    0.000    0.000    0.000 
#
# Total GULP energy -267462.794958 kJ/mol
# GULP energy per Si atom -5572.141562 kJ/mol
# Density = 1.567885 g / cm^3
# Si number density = 15.714621 Si / 1000 Ang^3
#
#
#
# Elastic Constant Matrix: (Units=GPa)
#
#
# Indices 1 2 3 4 5 6 
#
# 1 160.3197 33.0611 87.0566 0.0000 0.0000 0.0000
# 2 33.0611 10.5556 27.0889 0.0000 0.0000 0.0000
# 3 87.0566 27.0889 120.1195 0.0000 0.0000 0.0000
# 4 0.0000 0.0000 0.0000 26.6912 0.0000 0.0000
# 5 0.0000 0.0000 0.0000 0.0000 22.4562 0.0000
# 6 0.0000 0.0000 0.0000 0.0000 0.0000 16.1512
#
#
#
# Elastic Compliance Matrix: (Units=1/GPa)
#
#
# Indices 1 2 3 4 5 6 
#
# 1 0.017645 -0.053288 -0.000771 0.000000 0.000000 0.000000
# 2 -0.053288 0.385820 -0.048388 0.000000 0.000000 0.000000
# 3 -0.000771 -0.048388 0.019796 0.000000 0.000000 0.000000
# 4 0.000000 0.000000 0.000000 0.037465 0.000000 0.000000
# 5 0.000000 0.000000 0.000000 0.000000 0.044531 0.000000
# 6 0.000000 0.000000 0.000000 0.000000 0.000000 0.061915
#
#
# Mechanical properties :
#
#
# Convention : Reuss Voigt Hill
#
# Bulk Modulus (GPa) = 4.57945 65.04536 34.81240
# Shear Modulus (GPa) = 5.91816 22.64559 14.28187
#
# Velocity S-wave (km/s) = 1.94273 3.80024 3.01795
# Velocity P-wave (km/s) = 2.82006 7.79341 5.86046
#
# Compressibility (1/GPa) = 0.21836683
#
# Stress axis : x y z
#
# Youngs Moduli (GPa) = 56.67219 2.59188 50.51460
#
# Poissons Ratio (x) = 0.13812 0.03895
# Poissons Ratio (y) = 3.01995 2.44431
# Poissons Ratio (z) = 0.04370 0.12542
#
# Static dielectric constant tensor:
#      x y z
#    x 1.511010 0.000000 0.000000 
#    y 0.000000 1.527990 0.000000 
#    z 0.000000 0.000000 1.514180 
# 
# From -- ./inp_files/14710.got.cif
#   From: 2010.05.17/outbox.cif.g08.bks.cpg/sg62_8_cif.got.tgz:14710.got - 2010.06.03 15:25:27.
