data_PCOD9462972
_publ_section_title
;
Structure prediction by ZEFSAII (Michael W. Deem and Ramdas Pophale) SiO2 
 PCOD9462972
Probable space group: P N M A
;
_chemical_formula_sum "Si O2"
_cell_formula_units_Z 48
_cell_length_a 14.417624
_cell_length_b 16.870841
_cell_length_c 8.171297
_cell_angle_alpha 90.000000
_cell_angle_beta 90.000000
_cell_angle_gamma 90.000000
_cell_volume 1987.565381
_symmetry_space_group_name_H-M "P N M A"
_symmetry_group_IT_number 62
_symmetry_cell_setting 'orthorhombic'
loop_
_space_group_symop_operation_xyz
x,y,z
1/2-x,-y,1/2+z
1/2+x,1/2-y,1/2-z
-x,1/2+y,-z
-x,-y,-z
1/2+x,y,1/2-z
1/2-x,1/2+y,1/2+z
x,1/2-y,z
loop_
_atom_site_type_symbol
_atom_site_label
_atom_site_fract_x
_atom_site_fract_y
_atom_site_fract_z
Si Si1 0.037103 0.165443 0.027604
Si Si2 0.838720 0.968104 0.101767
Si Si3 0.844936 0.868008 0.652926
Si Si4 0.635423 0.627966 0.735655
Si Si5 0.837866 0.450032 0.757132
Si Si6 0.487894 0.095833 0.963736
O O1 0.048495 0.250000 0.942636
O O2 0.077390 0.088883 0.938989
O O3 0.097034 0.165516 0.195525
O O4 0.933444 0.154609 0.092612
O O5 0.821785 0.025538 0.944781
O O6 0.752071 0.916679 0.163533
O O7 0.860155 0.032076 0.238835
O O8 0.738496 0.842837 0.687748
O O9 0.911371 0.862526 0.492444
O O10 0.843047 0.962382 0.679416
O O11 0.581637 0.640273 0.906720
O O12 0.929598 0.403272 0.705091
O O13 0.500000 0.000000 0.000000
#
# Coordination Sequence:
#
# PCOD9462972 Si02
#       6
#     8   8   8   8   8   8
#     4  10  20  32  49  76 107 138 174 220 273 322
#     4  10  19  33  55  82 109 140 181 226 269 318
#     4   8  17  30  47  70 100 132 167 209 256 311
#     4  10  19  34  52  76 104 137 179 219 263 317
#     4   9  16  29  51  81 107 131 166 216 268 317
#     4   9  16  28  48  75 105 130 163 214 267 311
#
# _framework density 24.150148999999999
#
# number of rings (size 3 to 8) (size 9 to 14) (size 15 to 20)
#    0.000    2.667    0.000    4.500    0.000    0.667 
#    0.000    0.000    0.000    1.000    0.000   79.333 
#    0.000    0.000    0.000    0.000    0.000    0.000 
#
# Total GULP energy -267288.156578 kJ/mol
# GULP energy per Si atom -5568.503262 kJ/mol
# Density = 2.409518 g / cm^3
# Si number density = 24.150149 Si / 1000 Ang^3
#
#
#
# Elastic Constant Matrix: (Units=GPa)
#
#
# Indices 1 2 3 4 5 6 
#
# 1 205.3607 19.9186 68.6222 0.0000 0.0000 0.0000
# 2 19.9186 47.1673 -9.5536 0.0000 0.0000 0.0000
# 3 68.6222 -9.5536 82.3658 0.0000 0.0000 0.0000
# 4 0.0000 0.0000 0.0000 -13.0957 0.0000 0.0000
# 5 0.0000 0.0000 0.0000 0.0000 42.3941 0.0000
# 6 0.0000 0.0000 0.0000 0.0000 0.0000 13.1593
#
#
#
# Elastic Compliance Matrix: (Units=1/GPa)
#
#
# Indices 1 2 3 4 5 6 
#
# 1 0.007615 -0.004609 -0.006879 0.000000 0.000000 0.000000
# 2 -0.004609 0.024501 0.006682 0.000000 0.000000 0.000000
# 3 -0.006879 0.006682 0.018647 0.000000 0.000000 0.000000
# 4 0.000000 0.000000 0.000000 -0.076361 0.000000 0.000000
# 5 0.000000 0.000000 0.000000 0.000000 0.023588 0.000000
# 6 0.000000 0.000000 0.000000 0.000000 0.000000 0.075992
#
#
# Mechanical properties :
#
#
# Convention : Reuss Voigt Hill
#
# Bulk Modulus (GPa) = 24.30088 54.76313 39.53200
# Shear Modulus (GPa) = 51.38100 25.55200 38.46650
#
# Velocity S-wave (km/s) = 4.61756 3.25629 3.99533
# Velocity P-wave (km/s) = 6.20591 6.07151 6.13908
#
# Compressibility (1/GPa) = 0.04115077
#
# Stress axis : x y z
#
# Youngs Moduli (GPa) = 131.31512 40.81461 53.62689
#
# Poissons Ratio (x) = 0.18813 0.36891
# Poissons Ratio (y) = 0.60527 -0.35834
# Poissons Ratio (z) = 0.90334 -0.27272
#
# Static dielectric constant tensor:
#      x y z
#    x 2.058910 0.000000 0.000000 
#    y 0.000000 1.913460 0.000000 
#    z 0.000000 0.000000 1.983580 
# 
# From -- ./inp_files/13631.got.cif
#   From: 2010.05.17/outbox.cif.g08.bks.cpg/sg62_7_cif.got.tgz:13631.got - 2010.06.03 15:25:27.
