data_PCOD9462668
_publ_section_title
;
Structure prediction by ZEFSAII (Michael W. Deem and Ramdas Pophale) SiO2 
 PCOD9462668
Probable space group: P N M A
;
_chemical_formula_sum "Si O2"
_cell_formula_units_Z 64
_cell_length_a 28.458736
_cell_length_b 7.486505
_cell_length_c 13.199293
_cell_angle_alpha 90.000000
_cell_angle_beta 90.000000
_cell_angle_gamma 90.000000
_cell_volume 2812.194765
_symmetry_space_group_name_H-M "P N M A"
_symmetry_group_IT_number 62
_symmetry_cell_setting 'orthorhombic'
loop_
_space_group_symop_operation_xyz
x,y,z
1/2-x,-y,1/2+z
1/2+x,1/2-y,1/2-z
-x,1/2+y,-z
-x,-y,-z
1/2+x,y,1/2-z
1/2-x,1/2+y,1/2+z
x,1/2-y,z
loop_
_atom_site_type_symbol
_atom_site_label
_atom_site_fract_x
_atom_site_fract_y
_atom_site_fract_z
Si Si1 0.058412 0.454887 0.092455
Si Si2 0.211417 0.040079 0.356379
Si Si3 0.810524 0.035254 0.076759
Si Si4 0.082685 0.457893 0.875929
Si Si5 0.664531 0.962812 0.356302
Si Si6 0.963854 0.534352 0.692804
Si Si7 0.618357 0.030650 0.043754
Si Si8 0.565402 0.460581 0.845854
O O1 0.042717 0.250000 0.083027
O O2 0.113078 0.454887 0.127721
O O3 0.033278 0.535330 0.191172
O O4 0.059381 0.535199 0.979085
O O5 0.215660 0.250000 0.380181
O O6 0.263921 0.967031 0.367939
O O7 0.170800 0.968828 0.430559
O O8 0.190592 0.021818 0.244342
O O9 0.814243 0.250000 0.088672
O O10 0.860980 0.963716 0.110596
O O11 0.806273 0.995502 0.957323
O O12 0.068659 0.250000 0.874082
O O13 0.072221 0.539611 0.766451
O O14 0.657635 0.750000 0.352023
O O15 0.962021 0.750000 0.698212
O O16 0.917358 0.475296 0.633289
O O17 0.010308 0.481676 0.632268
O O18 0.618258 0.250000 0.044282
O O19 0.597379 0.969436 0.936726
O O20 0.576372 0.250000 0.838803
#
# Coordination Sequence:
#
# PCOD9462668 Si02
#       8
#     8   8   8   8   8   8   8   8
#     4   9  17  33  55  75 100 138 178 211 256 317
#     4  10  19  35  56  76 101 140 179 210 255 322
#     4   9  20  35  54  79 106 137 173 214 265 316
#     4   9  19  35  54  76 106 141 175 216 264 315
#     4  10  19  32  51  79 107 131 168 222 267 299
#     4  10  19  33  54  77 100 138 184 220 260 314
#     4   9  18  34  54  74 101 139 179 213 257 317
#     4  10  21  35  52  77 108 141 175 216 267 314
#
# _framework density 22.758026999999998
#
# number of rings (size 3 to 8) (size 9 to 14) (size 15 to 20)
#    0.000    2.500    1.250    0.750    0.000    3.500 
#    0.000    3.125    0.000    0.000    0.000    0.000 
#    0.000    0.000    0.000    0.000    0.000    0.000 
#
# Total GULP energy -357386.693881 kJ/mol
# GULP energy per Si atom -5584.167092 kJ/mol
# Density = 2.270623 g / cm^3
# Si number density = 22.758027 Si / 1000 Ang^3
#
#
#
# Elastic Constant Matrix: (Units=GPa)
#
#
# Indices 1 2 3 4 5 6 
#
# 1 73.8542 1.4417 19.1312 0.0000 0.0000 0.0000
# 2 1.4417 64.7382 7.0654 0.0000 0.0000 0.0000
# 3 19.1312 7.0654 108.4061 0.0000 0.0000 0.0000
# 4 0.0000 0.0000 0.0000 -5.4100 0.0000 0.0000
# 5 0.0000 0.0000 0.0000 0.0000 27.8903 0.0000
# 6 0.0000 0.0000 0.0000 0.0000 0.0000 17.2857
#
#
#
# Elastic Compliance Matrix: (Units=1/GPa)
#
#
# Indices 1 2 3 4 5 6 
#
# 1 0.014189 -0.000043 -0.002501 0.000000 0.000000 0.000000
# 2 -0.000043 0.015558 -0.001006 0.000000 0.000000 0.000000
# 3 -0.002501 -0.001006 0.009732 0.000000 0.000000 0.000000
# 4 0.000000 0.000000 0.000000 -0.184843 0.000000 0.000000
# 5 0.000000 0.000000 0.000000 0.000000 0.035855 0.000000
# 6 0.000000 0.000000 0.000000 0.000000 0.000000 0.057851
#
#
# Mechanical properties :
#
#
# Convention : Reuss Voigt Hill
#
# Bulk Modulus (GPa) = 30.88617 33.58610 32.23614
# Shear Modulus (GPa) = -148.08187 22.57723 -62.75232
#
# Velocity S-wave (km/s) = -8.07522 3.15311 -5.25676
# Velocity P-wave (km/s) = 8.56415 5.29585 4.75913
#
# Compressibility (1/GPa) = 0.03237695
#
# Stress axis : x y z
#
# Youngs Moduli (GPa) = 70.47736 64.27713 102.75836
#
# Poissons Ratio (x) = 0.00276 0.25702
# Poissons Ratio (y) = 0.00303 0.10341
# Poissons Ratio (z) = 0.17628 0.06469
#
# Static dielectric constant tensor:
#      x y z
#    x 1.828200 0.000000 0.000000 
#    y 0.000000 1.858220 0.000000 
#    z 0.000000 0.000000 1.864810 
# 
# From -- ./inp_files/15762.got.cif
#   From: 2010.05.17/outbox.cif.g08.bks.cpg/sg62_8_cif.got.tgz:15762.got - 2010.06.03 15:25:27.
