data_PCOD9462285
_publ_section_title
;
Structure prediction by ZEFSAII (Michael W. Deem and Ramdas Pophale) SiO2 
 PCOD9462285
Probable space group: P N M A
;
_chemical_formula_sum "Si O2"
_cell_formula_units_Z 64
_cell_length_a 12.430625
_cell_length_b 7.758206
_cell_length_c 34.334981
_cell_angle_alpha 90.000000
_cell_angle_beta 90.000000
_cell_angle_gamma 90.000000
_cell_volume 3311.243231
_symmetry_space_group_name_H-M "P N M A"
_symmetry_group_IT_number 62
_symmetry_cell_setting 'orthorhombic'
loop_
_space_group_symop_operation_xyz
x,y,z
1/2-x,-y,1/2+z
1/2+x,1/2-y,1/2-z
-x,1/2+y,-z
-x,-y,-z
1/2+x,y,1/2-z
1/2-x,1/2+y,1/2+z
x,1/2-y,z
loop_
_atom_site_type_symbol
_atom_site_label
_atom_site_fract_x
_atom_site_fract_y
_atom_site_fract_z
Si Si1 0.957631 0.958586 0.671928
Si Si2 0.675206 0.958700 0.866316
Si Si3 0.802162 0.446424 0.740551
Si Si4 0.383892 0.458940 0.318816
Si Si5 0.845544 0.950404 0.533123
Si Si6 0.729440 0.039693 0.112931
Si Si7 0.088561 0.043637 0.549131
Si Si8 0.624912 0.447238 0.321384
O O1 0.956782 0.750000 0.673904
O O2 0.077239 0.017541 0.661555
O O3 0.878183 0.010269 0.636606
O O4 0.901878 0.023159 0.711166
O O5 0.676605 0.750000 0.863693
O O6 0.789552 0.025913 0.851275
O O7 0.645848 0.005160 0.910378
O O8 0.801169 0.250000 0.753297
O O9 0.694703 0.484054 0.715958
O O10 0.818500 0.554725 0.779327
O O11 0.382761 0.250000 0.317071
O O12 0.327747 0.512197 0.359434
O O13 0.505871 0.523632 0.316732
O O14 0.185125 0.250000 0.470273
O O15 0.969738 0.962359 0.547258
O O16 0.776664 0.025688 0.568752
O O17 0.847707 0.021359 0.489250
O O18 0.729323 0.250000 0.111574
O O19 0.074323 0.250000 0.545296
O O20 0.606745 0.250000 0.334311
#
# Coordination Sequence:
#
# PCOD9462285 Si02
#       8
#     8   8   8   8   8   8   8   8
#     4   9  17  32  53  74  98 133 174 209 248 303
#     4  10  20  35  54  74 101 139 176 214 258 306
#     4  11  23  36  53  78 107 133 163 212 269 316
#     4   9  19  37  57  76  99 131 178 221 252 301
#     4   9  16  29  48  73 104 140 175 207 253 312
#     4   8  13  27  52  74  94 127 167 207 248 291
#     4  10  19  28  45  75 110 138 167 212 263 315
#     4  10  22  38  57  77  97 134 182 220 254 302
#
# _framework density 19.328087
#
# number of rings (size 3 to 8) (size 9 to 14) (size 15 to 20)
#    0.000    2.500    1.250    2.250    1.750    2.000 
#    0.000    0.000    0.000    0.750    0.000    0.000 
#    0.000    0.000    0.000    0.000    0.000    0.375 
#
# Total GULP energy -356925.886600 kJ/mol
# GULP energy per Si atom -5576.966978 kJ/mol
# Density = 1.928410 g / cm^3
# Si number density = 19.328087 Si / 1000 Ang^3
#
#
#
# Elastic Constant Matrix: (Units=GPa)
#
#
# Indices 1 2 3 4 5 6 
#
# 1 108.0800 0.3838 37.1326 0.0000 0.0000 0.0000
# 2 0.3838 36.5395 -15.9684 0.0000 0.0000 0.0000
# 3 37.1326 -15.9684 82.7793 0.0000 0.0000 0.0000
# 4 0.0000 0.0000 0.0000 14.8049 0.0000 0.0000
# 5 0.0000 0.0000 0.0000 0.0000 20.1015 0.0000
# 6 0.0000 0.0000 0.0000 0.0000 0.0000 2.6439
#
#
#
# Elastic Compliance Matrix: (Units=1/GPa)
#
#
# Indices 1 2 3 4 5 6 
#
# 1 0.011146 -0.002514 -0.005485 0.000000 0.000000 0.000000
# 2 -0.002514 0.030454 0.007002 0.000000 0.000000 0.000000
# 3 -0.005485 0.007002 0.015891 0.000000 0.000000 0.000000
# 4 0.000000 0.000000 0.000000 0.067545 0.000000 0.000000
# 5 0.000000 0.000000 0.000000 0.000000 0.049747 0.000000
# 6 0.000000 0.000000 0.000000 0.000000 0.000000 0.378225
#
#
# Mechanical properties :
#
#
# Convention : Reuss Voigt Hill
#
# Bulk Modulus (GPa) = 18.01836 30.05497 24.03667
# Shear Modulus (GPa) = 8.71839 21.23346 14.97592
#
# Velocity S-wave (km/s) = 2.12615 3.31808 2.78659
# Velocity P-wave (km/s) = 3.92046 5.50120 4.77667
#
# Compressibility (1/GPa) = 0.05549894
#
# Stress axis : x y z
#
# Youngs Moduli (GPa) = 89.72115 32.83619 62.92743
#
# Poissons Ratio (x) = 0.08255 0.34513
# Poissons Ratio (y) = 0.22555 -0.44064
# Poissons Ratio (z) = 0.49208 -0.22993
#
# Static dielectric constant tensor:
#      x y z
#    x 1.672620 0.000000 0.000000 
#    y 0.000000 1.713670 0.000000 
#    z 0.000000 0.000000 1.682290 
# 
# From -- ./inp_files/32515.got.cif
#   From: 2010.05.17/outbox.cif.g08.bks.cpg/sg62_17_cif.got.tgz:32515.got - 2010.06.03 15:25:27.
