data_PCOD9462296
_publ_section_title
;
Structure prediction by ZEFSAII (Michael W. Deem and Ramdas Pophale) SiO2 
 PCOD9462296
Probable space group: P N M A
;
_chemical_formula_sum "Si O2"
_cell_formula_units_Z 56
_cell_length_a 19.759782
_cell_length_b 7.582011
_cell_length_c 20.112638
_cell_angle_alpha 90.000000
_cell_angle_beta 90.000000
_cell_angle_gamma 90.000000
_cell_volume 3013.252989
_symmetry_space_group_name_H-M "P N M A"
_symmetry_group_IT_number 62
_symmetry_cell_setting 'orthorhombic'
loop_
_space_group_symop_operation_xyz
x,y,z
1/2-x,-y,1/2+z
1/2+x,1/2-y,1/2-z
-x,1/2+y,-z
-x,-y,-z
1/2+x,y,1/2-z
1/2-x,1/2+y,1/2+z
x,1/2-y,z
loop_
_atom_site_type_symbol
_atom_site_label
_atom_site_fract_x
_atom_site_fract_y
_atom_site_fract_z
Si Si1 0.942516 0.961322 0.553889
Si Si2 0.630159 0.536438 0.764812
Si Si3 0.708733 0.467334 0.017752
Si Si4 0.018796 0.038102 0.299240
Si Si5 0.728357 0.954785 0.651860
Si Si6 0.160509 0.540095 0.242616
Si Si7 0.243392 0.040424 0.628398
O O1 0.937209 0.750000 0.559533
O O2 0.868645 0.024389 0.530883
O O3 0.963415 0.029361 0.626762
O O4 0.000000 0.000000 0.500000
O O5 0.629684 0.750000 0.761054
O O6 0.553731 0.472821 0.773875
O O7 0.670152 0.468872 0.699634
O O8 0.675571 0.489423 0.828655
O O9 0.708584 0.250000 0.018051
O O10 0.754495 0.528636 0.079574
O O11 0.734458 0.528554 0.945965
O O12 0.013388 0.250000 0.303770
O O13 0.081897 0.997587 0.251915
O O14 0.711001 0.750000 0.641599
O O15 0.797002 0.962981 0.695656
O O16 0.170823 0.750000 0.245506
O O17 0.195645 0.472612 0.174996
O O18 0.253358 0.250000 0.621929
#
# Coordination Sequence:
#
# PCOD9462296 Si02
#       7
#     8   8   8   8   8   8   8
#     4  10  19  29  43  65  94 124 149 178 223 278
#     4   9  18  30  48  71  93 119 154 194 233 272
#     4   9  16  29  48  66  88 122 155 183 225 278
#     4  10  19  32  47  67  95 125 157 191 227 277
#     4   9  16  31  51  68  89 121 157 192 231 276
#     4  10  19  30  46  69  92 120 157 194 232 272
#     4   9  18  31  47  68  94 120 153 193 230 276
#
# _framework density 18.584567
#
# number of rings (size 3 to 8) (size 9 to 14) (size 15 to 20)
#    0.000    2.571    1.429    1.286    0.000    1.714 
#    0.000    0.714    0.000    0.857    0.000    0.000 
#    0.000    0.000    0.000    0.000    0.000    0.429 
#
# Total GULP energy -312382.350384 kJ/mol
# GULP energy per Si atom -5578.256257 kJ/mol
# Density = 1.854227 g / cm^3
# Si number density = 18.584567 Si / 1000 Ang^3
#
#
#
# Elastic Constant Matrix: (Units=GPa)
#
#
# Indices 1 2 3 4 5 6 
#
# 1 115.3849 -6.1591 107.3181 0.0000 0.0000 0.0000
# 2 -6.1591 39.2209 3.2184 0.0000 0.0000 0.0000
# 3 107.3181 3.2184 181.9083 0.0000 0.0000 0.0000
# 4 0.0000 0.0000 0.0000 6.0811 0.0000 0.0000
# 5 0.0000 0.0000 0.0000 0.0000 20.8772 0.0000
# 6 0.0000 0.0000 0.0000 0.0000 0.0000 13.4493
#
#
#
# Elastic Compliance Matrix: (Units=1/GPa)
#
#
# Indices 1 2 3 4 5 6 
#
# 1 0.019836 0.004081 -0.011774 0.000000 0.000000 0.000000
# 2 0.004081 0.026373 -0.002874 0.000000 0.000000 0.000000
# 3 -0.011774 -0.002874 0.012495 0.000000 0.000000 0.000000
# 4 0.000000 0.000000 0.000000 0.164443 0.000000 0.000000
# 5 0.000000 0.000000 0.000000 0.000000 0.047899 0.000000
# 6 0.000000 0.000000 0.000000 0.000000 0.000000 0.074353
#
#
# Mechanical properties :
#
#
# Convention : Reuss Voigt Hill
#
# Bulk Modulus (GPa) = 26.61812 60.58544 43.60178
# Shear Modulus (GPa) = 13.19062 23.55732 18.37397
#
# Velocity S-wave (km/s) = 2.66703 3.56416 3.14772
# Velocity P-wave (km/s) = 4.88240 7.04332 6.05996
#
# Compressibility (1/GPa) = 0.03756839
#
# Stress axis : x y z
#
# Youngs Moduli (GPa) = 50.41394 37.91709 80.03485
#
# Poissons Ratio (x) = -0.15474 0.94237
# Poissons Ratio (y) = -0.20575 0.23004
# Poissons Ratio (z) = 0.59360 0.10898
#
# Static dielectric constant tensor:
#      x y z
#    x 1.626970 0.000000 0.000000 
#    y 0.000000 1.680650 0.000000 
#    z 0.000000 0.000000 1.645700 
# 
# From -- ./inp_files/24442.got.cif
#   From: 2010.05.17/outbox.cif.g08.bks.cpg/sg62_13_cif.got.tgz:24442.got - 2010.06.03 15:25:27.
