data_PCOD9462665
_publ_section_title
;
Structure prediction by ZEFSAII (Michael W. Deem and Ramdas Pophale) SiO2 
 PCOD9462665
Probable space group: P N M A
;
_chemical_formula_sum "Si O2"
_cell_formula_units_Z 64
_cell_length_a 24.562411
_cell_length_b 8.874291
_cell_length_c 15.668004
_cell_angle_alpha 90.000000
_cell_angle_beta 90.000000
_cell_angle_gamma 90.000000
_cell_volume 3415.217236
_symmetry_space_group_name_H-M "P N M A"
_symmetry_group_IT_number 62
_symmetry_cell_setting 'orthorhombic'
loop_
_space_group_symop_operation_xyz
x,y,z
1/2-x,-y,1/2+z
1/2+x,1/2-y,1/2-z
-x,1/2+y,-z
-x,-y,-z
1/2+x,y,1/2-z
1/2-x,1/2+y,1/2+z
x,1/2-y,z
loop_
_atom_site_type_symbol
_atom_site_label
_atom_site_fract_x
_atom_site_fract_y
_atom_site_fract_z
Si Si1 0.954796 0.428955 0.111368
Si Si2 0.954309 0.431859 0.304747
Si Si3 0.688839 0.568526 0.198532
Si Si4 0.689214 0.929429 0.386724
Si Si5 0.075351 0.070913 0.356437
Si Si6 0.772577 0.069528 0.516243
Si Si7 0.920541 0.573072 0.939234
Si Si8 0.385130 0.928535 0.044231
O O1 0.945285 0.250000 0.097126
O O2 0.938763 0.468387 0.207532
O O3 0.019836 0.453020 0.100999
O O4 0.925743 0.523186 0.037789
O O5 0.952334 0.250000 0.314122
O O6 0.915816 0.507204 0.374140
O O7 0.016950 0.478566 0.321588
O O8 0.687342 0.750000 0.197987
O O9 0.708742 0.520956 0.292193
O O10 0.627551 0.509608 0.183817
O O11 0.723562 0.520073 0.115740
O O12 0.694588 0.750000 0.392975
O O13 0.722806 0.004542 0.462722
O O14 0.626530 0.977598 0.395532
O O15 0.080746 0.250000 0.340122
O O16 0.079257 0.046902 0.458407
O O17 0.771121 0.250000 0.514091
O O18 0.828038 0.010420 0.472928
O O19 0.908075 0.750000 0.931873
O O20 0.375827 0.750000 0.052635
#
# Coordination Sequence:
#
# PCOD9462665 Si02
#       8
#     8   8   8   8   8   8   8   8
#     4   9  19  35  54  79 113 147 182 225 273 324
#     4  10  19  32  51  78 111 148 185 222 268 327
#     4   9  20  37  58  83 110 140 179 228 279 326
#     4  11  22  38  60  86 112 142 182 232 281 330
#     4   9  18  32  53  80 111 144 182 226 271 322
#     4  10  21  40  60  80 108 145 186 231 279 330
#     4  10  20  36  58  82 109 144 182 225 275 328
#     4  10  20  34  52  77 110 146 182 226 277 326
#
# _framework density 18.739657999999999
#
# number of rings (size 3 to 8) (size 9 to 14) (size 15 to 20)
#    0.000    2.250    0.000    2.625    0.000    4.500 
#    2.250    0.000    0.000    0.000    0.000    0.000 
#    0.000    0.000    0.000    0.000    0.000    0.000 
#
# Total GULP energy -357288.953907 kJ/mol
# GULP energy per Si atom -5582.639905 kJ/mol
# Density = 1.869701 g / cm^3
# Si number density = 18.739658 Si / 1000 Ang^3
#
#
#
# Elastic Constant Matrix: (Units=GPa)
#
#
# Indices 1 2 3 4 5 6 
#
# 1 16.8855 10.1065 26.0032 0.0000 0.0000 0.0000
# 2 10.1065 30.5687 35.0323 0.0000 0.0000 0.0000
# 3 26.0032 35.0323 106.3259 0.0000 0.0000 0.0000
# 4 0.0000 0.0000 0.0000 25.6638 0.0000 0.0000
# 5 0.0000 0.0000 0.0000 0.0000 15.0522 0.0000
# 6 0.0000 0.0000 0.0000 0.0000 0.0000 30.8738
#
#
#
# Elastic Compliance Matrix: (Units=1/GPa)
#
#
# Indices 1 2 3 4 5 6 
#
# 1 0.096139 -0.007776 -0.020950 0.000000 0.000000 0.000000
# 2 -0.007776 0.053188 -0.015623 0.000000 0.000000 0.000000
# 3 -0.020950 -0.015623 0.019676 0.000000 0.000000 0.000000
# 4 0.000000 0.000000 0.000000 0.038965 0.000000 0.000000
# 5 0.000000 0.000000 0.000000 0.000000 0.066435 0.000000
# 6 0.000000 0.000000 0.000000 0.000000 0.000000 0.032390
#
#
# Mechanical properties :
#
#
# Convention : Reuss Voigt Hill
#
# Bulk Modulus (GPa) = 12.45242 32.89601 22.67421
# Shear Modulus (GPa) = 11.84105 19.82717 15.83411
#
# Velocity S-wave (km/s) = 2.51643 3.25627 2.90996
# Velocity P-wave (km/s) = 3.88621 5.63294 4.83904
#
# Compressibility (1/GPa) = 0.08030567
#
# Stress axis : x y z
#
# Youngs Moduli (GPa) = 10.40159 18.80121 50.82353
#
# Poissons Ratio (x) = 0.14620 1.06474
# Poissons Ratio (y) = 0.08089 0.79400
# Poissons Ratio (z) = 0.21791 0.29372
#
# Static dielectric constant tensor:
#      x y z
#    x 1.620190 0.000000 0.000000 
#    y 0.000000 1.626550 0.000000 
#    z 0.000000 0.000000 1.665120 
# 
# From -- ./inp_files/20973.got.cif
#   From: 2010.05.17/outbox.cif.g08.bks.cpg/sg62_11_cif.got.tgz:20973.got - 2010.06.03 15:25:27.
