data_PCOD9462093
_publ_section_title
;
Structure prediction by ZEFSAII (Michael W. Deem and Ramdas Pophale) SiO2 
 PCOD9462093
Probable space group: P N M A
;
_chemical_formula_sum "Si O2"
_cell_formula_units_Z 64
_cell_length_a 12.009597
_cell_length_b 7.559073
_cell_length_c 31.282638
_cell_angle_alpha 90.000000
_cell_angle_beta 90.000000
_cell_angle_gamma 90.000000
_cell_volume 2839.882312
_symmetry_space_group_name_H-M "P N M A"
_symmetry_group_IT_number 62
_symmetry_cell_setting 'orthorhombic'
loop_
_space_group_symop_operation_xyz
x,y,z
1/2-x,-y,1/2+z
1/2+x,1/2-y,1/2-z
-x,1/2+y,-z
-x,-y,-z
1/2+x,y,1/2-z
1/2-x,1/2+y,1/2+z
x,1/2-y,z
loop_
_atom_site_type_symbol
_atom_site_label
_atom_site_fract_x
_atom_site_fract_y
_atom_site_fract_z
Si Si1 0.036543 0.534072 0.661656
Si Si2 0.566668 0.538873 0.388600
Si Si3 0.803616 0.963333 0.551541
Si Si4 0.324490 0.540723 0.363065
Si Si5 0.276940 0.963912 0.692153
Si Si6 0.793847 0.454689 0.968416
Si Si7 0.673837 0.458257 0.213655
Si Si8 0.952172 0.464317 0.437504
O O1 0.033516 0.750000 0.662177
O O2 0.930933 0.466948 0.687801
O O3 0.035310 0.485722 0.612169
O O4 0.152340 0.475708 0.681884
O O5 0.556747 0.750000 0.394722
O O6 0.443698 0.467627 0.378438
O O7 0.643172 0.511589 0.347025
O O8 0.628293 0.467212 0.431218
O O9 0.806847 0.750000 0.548354
O O10 0.716422 0.032542 0.516154
O O11 0.930164 0.024815 0.542417
O O12 0.763687 0.004772 0.599198
O O13 0.335611 0.750000 0.358214
O O14 0.279541 0.473241 0.317726
O O15 0.274225 0.750000 0.693614
O O16 0.312128 0.031259 0.738794
O O17 0.827467 0.250000 0.973223
O O18 0.665178 0.461355 0.953084
O O19 0.652146 0.250000 0.219206
O O20 0.945249 0.250000 0.440777
#
# Coordination Sequence:
#
# PCOD9462093 Si02
#       8
#     8   8   8   8   8   8   8   8
#     4   9  17  33  55  85 117 141 176 232 283 321
#     4  10  23  41  56  78 117 153 185 235 286 331
#     4  10  21  38  59  83 112 148 189 235 284 336
#     4  11  24  40  57  80 114 152 190 233 283 336
#     4  10  21  36  61  89 111 146 190 228 275 334
#     4  10  21  37  58  83 112 149 190 230 283 342
#     4  10  21  38  61  86 115 147 186 236 281 328
#     4  10  18  33  57  84 117 145 175 231 290 333
#
# _framework density 22.536144
#
# number of rings (size 3 to 8) (size 9 to 14) (size 15 to 20)
#    0.000    2.000    2.500    0.750    1.750    3.000 
#    0.000    0.625    0.000    0.000    0.000    0.000 
#    0.000    0.000    0.000    0.000    0.000    0.000 
#
# Total GULP energy -357526.071822 kJ/mol
# GULP energy per Si atom -5586.344872 kJ/mol
# Density = 2.248485 g / cm^3
# Si number density = 22.536144 Si / 1000 Ang^3
#
#
#
# Elastic Constant Matrix: (Units=GPa)
#
#
# Indices 1 2 3 4 5 6 
#
# 1 49.9392 -12.5639 -28.8762 0.0000 0.0000 0.0000
# 2 -12.5639 51.3796 -10.5558 0.0000 0.0000 0.0000
# 3 -28.8762 -10.5558 54.6557 0.0000 0.0000 0.0000
# 4 0.0000 0.0000 0.0000 12.9337 0.0000 0.0000
# 5 0.0000 0.0000 0.0000 0.0000 19.1988 0.0000
# 6 0.0000 0.0000 0.0000 0.0000 0.0000 13.5120
#
#
#
# Elastic Compliance Matrix: (Units=1/GPa)
#
#
# Indices 1 2 3 4 5 6 
#
# 1 0.035697 0.013125 0.021395 0.000000 0.000000 0.000000
# 2 0.013125 0.025093 0.011780 0.000000 0.000000 0.000000
# 3 0.021395 0.011780 0.031875 0.000000 0.000000 0.000000
# 4 0.000000 0.000000 0.000000 0.077318 0.000000 0.000000
# 5 0.000000 0.000000 0.000000 0.000000 0.052087 0.000000
# 6 0.000000 0.000000 0.000000 0.000000 0.000000 0.074008
#
#
# Mechanical properties :
#
#
# Convention : Reuss Voigt Hill
#
# Bulk Modulus (GPa) = 5.39771 5.77585 5.58678
# Shear Modulus (GPa) = 18.85137 22.99359 20.92248
#
# Velocity S-wave (km/s) = 2.89536 3.19768 3.05027
# Velocity P-wave (km/s) = 3.68481 4.02517 3.85874
#
# Compressibility (1/GPa) = 0.18526391
#
# Stress axis : x y z
#
# Youngs Moduli (GPa) = 28.01333 39.85242 31.37261
#
# Poissons Ratio (x) = -0.52305 -0.67121
# Poissons Ratio (y) = -0.36766 -0.36958
# Poissons Ratio (z) = -0.59934 -0.46947
#
# Static dielectric constant tensor:
#      x y z
#    x 1.822870 0.000000 0.000000 
#    y 0.000000 1.834550 0.000000 
#    z 0.000000 0.000000 1.832100 
# 
# From -- ./inp_files/32467.got.cif
#   From: 2010.05.17/outbox.cif.g08.bks.cpg/sg62_17_cif.got.tgz:32467.got - 2010.06.03 15:25:27.
