data_PCOD9462121
_publ_section_title
;
Structure prediction by ZEFSAII (Michael W. Deem and Ramdas Pophale) SiO2 
 PCOD9462121
Probable space group: P N M A
;
_chemical_formula_sum "Si O2"
_cell_formula_units_Z 48
_cell_length_a 9.840774
_cell_length_b 21.481553
_cell_length_c 13.961333
_cell_angle_alpha 90.000000
_cell_angle_beta 90.000000
_cell_angle_gamma 90.000000
_cell_volume 2951.357501
_symmetry_space_group_name_H-M "P N M A"
_symmetry_group_IT_number 62
_symmetry_cell_setting 'orthorhombic'
loop_
_space_group_symop_operation_xyz
x,y,z
1/2-x,-y,1/2+z
1/2+x,1/2-y,1/2-z
-x,1/2+y,-z
-x,-y,-z
1/2+x,y,1/2-z
1/2-x,1/2+y,1/2+z
x,1/2-y,z
loop_
_atom_site_type_symbol
_atom_site_label
_atom_site_fract_x
_atom_site_fract_y
_atom_site_fract_z
Si Si1 0.721488 0.884949 0.433350
Si Si2 0.653493 0.250000 0.664295
Si Si3 0.486490 0.442390 0.926432
Si Si4 0.694579 0.382844 0.572716
Si Si5 0.514186 0.539323 0.299796
Si Si6 0.334894 0.250000 0.646702
Si Si7 0.489070 0.437170 0.435769
O O1 0.879316 0.900351 0.436229
O O2 0.642961 0.925696 0.350579
O O3 0.690964 0.813270 0.411416
O O4 0.651156 0.906036 0.532646
O O5 0.690776 0.312198 0.606975
O O6 0.491422 0.250000 0.680331
O O7 0.734835 0.250000 0.763104
O O8 0.345009 0.407476 0.944271
O O9 0.481644 0.459040 0.813799
O O10 0.500000 0.500000 0.000000
O O11 0.615120 0.423308 0.654888
O O12 0.606824 0.393423 0.476549
O O13 0.505207 0.467352 0.332742
O O14 0.500000 0.500000 0.500000
#
# Coordination Sequence:
#
# PCOD9462121 Si02
#       7
#     8   4   8   8   8   4   8
#     4  10  21  33  51  75 107 136 176 208 255 317
#     4  12  22  34  52  78 109 145 178 208 261 325
#     4  12  22  33  50  80 108 135 167 224 274 308
#     4  10  21  33  51  75 107 136 176 208 255 317
#     4  10  18  34  53  72 100 140 175 212 258 315
#     4  12  22  34  52  78 109 145 178 208 261 325
#     4   8  16  34  51  69  96 137 177 214 244 311
#
# _framework density 16.263701999999999
#
# number of rings (size 3 to 8) (size 9 to 14) (size 15 to 20)
#    0.000    2.000    3.333    6.000    2.333    0.000 
#    0.000    0.000    0.000    0.000    0.000    7.000 
#    0.000    0.000    0.000    0.000    0.000    0.000 
#
# Total GULP energy -267539.756017 kJ/mol
# GULP energy per Si atom -5573.744917 kJ/mol
# Density = 1.622668 g / cm^3
# Si number density = 16.263702 Si / 1000 Ang^3
#
#
#
# Elastic Constant Matrix: (Units=GPa)
#
#
# Indices 1 2 3 4 5 6 
#
# 1 73.7843 -19.5931 -5.3971 0.0000 0.0000 0.0000
# 2 -19.5931 57.8848 13.2457 0.0000 0.0000 0.0000
# 3 -5.3971 13.2457 36.3300 0.0000 0.0000 0.0000
# 4 0.0000 0.0000 0.0000 18.1853 0.0000 0.0000
# 5 0.0000 0.0000 0.0000 0.0000 12.7978 0.0000
# 6 0.0000 0.0000 0.0000 0.0000 0.0000 27.4736
#
#
#
# Elastic Compliance Matrix: (Units=1/GPa)
#
#
# Indices 1 2 3 4 5 6 
#
# 1 0.014897 0.004949 0.000409 0.000000 0.000000 0.000000
# 2 0.004949 0.020492 -0.006736 0.000000 0.000000 0.000000
# 3 0.000409 -0.006736 0.030042 0.000000 0.000000 0.000000
# 4 0.000000 0.000000 0.000000 0.054989 0.000000 0.000000
# 5 0.000000 0.000000 0.000000 0.000000 0.078139 0.000000
# 6 0.000000 0.000000 0.000000 0.000000 0.000000 0.036399
#
#
# Mechanical properties :
#
#
# Convention : Reuss Voigt Hill
#
# Bulk Modulus (GPa) = 15.95548 16.05669 16.00609
# Shear Modulus (GPa) = 19.33440 23.67425 21.50433
#
# Velocity S-wave (km/s) = 3.45165 3.81944 3.64019
# Velocity P-wave (km/s) = 5.07119 5.41710 5.24699
#
# Compressibility (1/GPa) = 0.06267438
#
# Stress axis : x y z
#
# Youngs Moduli (GPa) = 67.12728 48.79899 33.28661
#
# Poissons Ratio (x) = -0.24150 -0.01361
# Poissons Ratio (y) = -0.33221 0.22422
# Poissons Ratio (z) = -0.02744 0.32872
#
# Static dielectric constant tensor:
#      x y z
#    x 1.569740 0.000000 0.000000 
#    y 0.000000 1.547100 0.000000 
#    z 0.000000 0.000000 1.574120 
# 
# From -- ./inp_files/17110.got.cif
#   From: 2010.05.17/outbox.cif.g08.bks.cpg/sg62_9_cif.got.tgz:17110.got - 2010.06.03 15:25:27.
