data_PCOD9462572
_publ_section_title
;
Structure prediction by ZEFSAII (Michael W. Deem and Ramdas Pophale) SiO2 
 PCOD9462572
Probable space group: P N M A
;
_chemical_formula_sum "Si O2"
_cell_formula_units_Z 48
_cell_length_a 14.902038
_cell_length_b 7.364052
_cell_length_c 17.726530
_cell_angle_alpha 90.000000
_cell_angle_beta 90.000000
_cell_angle_gamma 90.000000
_cell_volume 1945.298460
_symmetry_space_group_name_H-M "P N M A"
_symmetry_group_IT_number 62
_symmetry_cell_setting 'orthorhombic'
loop_
_space_group_symop_operation_xyz
x,y,z
1/2-x,-y,1/2+z
1/2+x,1/2-y,1/2-z
-x,1/2+y,-z
-x,-y,-z
1/2+x,y,1/2-z
1/2-x,1/2+y,1/2+z
x,1/2-y,z
loop_
_atom_site_type_symbol
_atom_site_label
_atom_site_fract_x
_atom_site_fract_y
_atom_site_fract_z
Si Si1 0.945417 0.465337 0.861048
Si Si2 0.809320 0.040122 0.741003
Si Si3 0.936989 0.970002 0.600780
Si Si4 0.871923 0.042406 0.431743
Si Si5 0.187974 0.467597 0.016258
Si Si6 0.852644 0.972919 0.150926
O O1 0.950760 0.250000 0.846706
O O2 0.869317 0.544422 0.806335
O O3 0.906084 0.490886 0.944257
O O4 0.044852 0.535066 0.846049
O O5 0.793351 0.250000 0.761145
O O6 0.713094 0.963870 0.717090
O O7 0.872016 0.032707 0.666790
O O8 0.936962 0.750000 0.598072
O O9 0.040528 0.033669 0.610435
O O10 0.901920 0.038625 0.519976
O O11 0.863026 0.250000 0.405900
O O12 0.772467 0.959897 0.435335
O O13 0.197940 0.250000 0.013876
O O14 0.187236 0.530751 0.930073
O O15 0.851710 0.750000 0.151107
#
# Coordination Sequence:
#
# PCOD9462572 Si02
#       6
#     8   8   8   8   8   8
#     4  10  22  36  55  83 109 138 187 235 266 319
#     4  10  20  37  57  76 110 152 181 218 281 336
#     4  10  19  31  52  82 110 137 182 229 259 313
#     4   9  18  33  53  79 110 146 177 213 275 330
#     4  10  19  35  58  78 108 149 180 218 275 333
#     4   9  18  36  58  78 105 146 184 217 271 332
#
# _framework density 24.674876999999999
#
# number of rings (size 3 to 8) (size 9 to 14) (size 15 to 20)
#    0.000    2.333    1.667    1.000    0.000    3.333 
#    0.000    2.500    0.000    0.000    0.000    0.000 
#    0.000    0.000    0.000    0.000    0.000    0.000 
#
# Total GULP energy -268261.286283 kJ/mol
# GULP energy per Si atom -5588.776798 kJ/mol
# Density = 2.461872 g / cm^3
# Si number density = 24.674877 Si / 1000 Ang^3
#
#
#
# Elastic Constant Matrix: (Units=GPa)
#
#
# Indices 1 2 3 4 5 6 
#
# 1 193.9531 11.5767 22.5713 0.0000 0.0000 0.0000
# 2 11.5767 102.7884 -3.9847 0.0000 0.0000 0.0000
# 3 22.5713 -3.9847 33.0708 0.0000 0.0000 0.0000
# 4 0.0000 0.0000 0.0000 3.9446 0.0000 0.0000
# 5 0.0000 0.0000 0.0000 0.0000 18.5946 0.0000
# 6 0.0000 0.0000 0.0000 0.0000 0.0000 2.0757
#
#
#
# Elastic Compliance Matrix: (Units=1/GPa)
#
#
# Indices 1 2 3 4 5 6 
#
# 1 0.005664 -0.000791 -0.003961 0.000000 0.000000 0.000000
# 2 -0.000791 0.009885 0.001731 0.000000 0.000000 0.000000
# 3 -0.003961 0.001731 0.033150 0.000000 0.000000 0.000000
# 4 0.000000 0.000000 0.000000 0.253508 0.000000 0.000000
# 5 0.000000 0.000000 0.000000 0.000000 0.053779 0.000000
# 6 0.000000 0.000000 0.000000 0.000000 0.000000 0.481772
#
#
# Mechanical properties :
#
#
# Convention : Reuss Voigt Hill
#
# Bulk Modulus (GPa) = 23.44305 43.34875 33.39590
# Shear Modulus (GPa) = 5.82736 24.89958 15.36347
#
# Velocity S-wave (km/s) = 1.53844 3.18009 2.49798
# Velocity P-wave (km/s) = 3.56049 5.57585 4.67799
#
# Compressibility (1/GPa) = 0.04265656
#
# Stress axis : x y z
#
# Youngs Moduli (GPa) = 176.55013 101.16357 30.16560
#
# Poissons Ratio (x) = 0.08007 0.11949
# Poissons Ratio (y) = 0.13974 -0.05222
# Poissons Ratio (z) = 0.69935 -0.17514
#
# Static dielectric constant tensor:
#      x y z
#    x 1.987320 0.000000 0.000000 
#    y 0.000000 1.984680 0.000000 
#    z 0.000000 0.000000 1.924020 
# 
# From -- ./inp_files/23641.got.cif
#   From: 2010.05.17/outbox.cif.g08.bks.cpg/sg62_12_cif.got.tgz:23641.got - 2010.06.03 15:25:27.
