data_PCOD9462692
_publ_section_title
;
Structure prediction by ZEFSAII (Michael W. Deem and Ramdas Pophale) SiO2 
 PCOD9462692
Probable space group: P N M A
;
_chemical_formula_sum "Si O2"
_cell_formula_units_Z 48
_cell_length_a 10.701979
_cell_length_b 7.461894
_cell_length_c 27.480789
_cell_angle_alpha 90.000000
_cell_angle_beta 90.000000
_cell_angle_gamma 90.000000
_cell_volume 2194.534271
_symmetry_space_group_name_H-M "P N M A"
_symmetry_group_IT_number 62
_symmetry_cell_setting 'orthorhombic'
loop_
_space_group_symop_operation_xyz
x,y,z
1/2-x,-y,1/2+z
1/2+x,1/2-y,1/2-z
-x,1/2+y,-z
-x,-y,-z
1/2+x,y,1/2-z
1/2-x,1/2+y,1/2+z
x,1/2-y,z
loop_
_atom_site_type_symbol
_atom_site_label
_atom_site_fract_x
_atom_site_fract_y
_atom_site_fract_z
Si Si1 0.632109 0.464572 0.025731
Si Si2 0.621586 0.030730 0.137121
Si Si3 0.613814 0.041416 0.356002
Si Si4 0.376339 0.037056 0.531341
Si Si5 0.134479 0.530770 0.803392
Si Si6 0.869373 0.469237 0.309228
O O1 0.646563 0.250000 0.028359
O O2 0.630988 0.530140 0.081307
O O3 0.500000 0.500000 0.000000
O O4 0.751153 0.533067 0.995209
O O5 0.621126 0.250000 0.136635
O O6 0.740720 0.973866 0.168656
O O7 0.493196 0.972802 0.162382
O O8 0.615078 0.250000 0.341575
O O9 0.488804 0.966802 0.331609
O O10 0.743717 0.966808 0.335725
O O11 0.609445 0.032714 0.414064
O O12 0.363355 0.250000 0.535620
O O13 0.500000 0.000000 0.500000
O O14 0.135912 0.750000 0.804174
O O15 0.131089 0.476991 0.747124
O O16 0.871094 0.250000 0.310184
#
# Coordination Sequence:
#
# PCOD9462692 Si02
#       6
#     8   8   8   8   8   8
#     4  10  21  36  54  77 105 138 175 218 267 319
#     4   9  16  27  43  65  96 128 159 200 250 300
#     4  10  19  32  52  77 105 137 175 221 271 318
#     4  11  23  38  56  79 108 143 184 227 274 328
#     4   9  16  27  45  72 104 133 165 208 256 308
#     4   9  16  26  45  74 103 131 165 208 258 311
#
# _framework density 21.872520999999999
#
# number of rings (size 3 to 8) (size 9 to 14) (size 15 to 20)
#    0.000    2.333    0.000    3.500    0.000    9.333 
#    0.000    0.000    0.000    1.000    0.000    2.333 
#    0.000    0.000    0.000    0.000    0.000    0.000 
#
# Total GULP energy -268327.340191 kJ/mol
# GULP energy per Si atom -5590.152921 kJ/mol
# Density = 2.182274 g / cm^3
# Si number density = 21.872521 Si / 1000 Ang^3
#
#
#
# Elastic Constant Matrix: (Units=GPa)
#
#
# Indices 1 2 3 4 5 6 
#
# 1 229.4358 -6.5250 109.9557 0.0000 0.0000 0.0000
# 2 -6.5250 61.5851 -17.5548 0.0000 0.0000 0.0000
# 3 109.9557 -17.5548 175.1831 0.0000 0.0000 0.0000
# 4 0.0000 0.0000 0.0000 14.3548 0.0000 0.0000
# 5 0.0000 0.0000 0.0000 0.0000 50.2065 0.0000
# 6 0.0000 0.0000 0.0000 0.0000 0.0000 -1.4492
#
#
#
# Elastic Compliance Matrix: (Units=1/GPa)
#
#
# Indices 1 2 3 4 5 6 
#
# 1 0.006247 -0.000469 -0.003968 0.000000 0.000000 0.000000
# 2 -0.000469 0.016750 0.001973 0.000000 0.000000 0.000000
# 3 -0.003968 0.001973 0.008397 0.000000 0.000000 0.000000
# 4 0.000000 0.000000 0.000000 0.069663 0.000000 0.000000
# 5 0.000000 0.000000 0.000000 0.000000 0.019918 0.000000
# 6 0.000000 0.000000 0.000000 0.000000 0.000000 -0.690059
#
#
# Mechanical properties :
#
#
# Convention : Reuss Voigt Hill
#
# Bulk Modulus (GPa) = 37.78493 70.88396 54.33445
# Shear Modulus (GPa) = -9.00358 37.97763 14.48702
#
# Velocity S-wave (km/s) = -2.03109 4.17143 2.57639
# Velocity P-wave (km/s) = 3.43688 7.46185 5.80911
#
# Compressibility (1/GPa) = 0.02646558
#
# Stress axis : x y z
#
# Youngs Moduli (GPa) = 160.08335 59.70013 119.09724
#
# Poissons Ratio (x) = 0.02801 0.47256
# Poissons Ratio (y) = 0.07511 -0.23498
# Poissons Ratio (z) = 0.63519 -0.11779
#
# Static dielectric constant tensor:
#      x y z
#    x 1.761810 0.000000 0.000000 
#    y 0.000000 1.854010 0.000000 
#    z 0.000000 0.000000 1.726910 
# 
# From -- ./inp_files/30736.got.cif
#   From: 2010.05.17/outbox.cif.g08.bks.cpg/sg62_16_cif.got.tgz:30736.got - 2010.06.03 15:25:27.
