data_PCOD9462545
_publ_section_title
;
Structure prediction by ZEFSAII (Michael W. Deem and Ramdas Pophale) SiO2 
 PCOD9462545
Probable space group: P N M A
;
_chemical_formula_sum "Si O2"
_cell_formula_units_Z 64
_cell_length_a 24.763123
_cell_length_b 8.890754
_cell_length_c 14.925517
_cell_angle_alpha 90.000000
_cell_angle_beta 90.000000
_cell_angle_gamma 90.000000
_cell_volume 3286.044135
_symmetry_space_group_name_H-M "P N M A"
_symmetry_group_IT_number 62
_symmetry_cell_setting 'orthorhombic'
loop_
_space_group_symop_operation_xyz
x,y,z
1/2-x,-y,1/2+z
1/2+x,1/2-y,1/2-z
-x,1/2+y,-z
-x,-y,-z
1/2+x,y,1/2-z
1/2-x,1/2+y,1/2+z
x,1/2-y,z
loop_
_atom_site_type_symbol
_atom_site_label
_atom_site_fract_x
_atom_site_fract_y
_atom_site_fract_z
Si Si1 0.440095 0.077110 0.055964
Si Si2 0.090973 0.428809 0.375720
Si Si3 0.207679 0.568084 0.357565
Si Si4 0.499680 0.070750 0.776295
Si Si5 0.167974 0.579852 0.659604
Si Si6 0.185971 0.069689 0.972864
Si Si7 0.222606 0.572748 0.148815
Si Si8 0.896203 0.930987 0.176831
O O1 0.460127 0.250000 0.049523
O O2 0.377536 0.086476 0.084315
O O3 0.466676 0.987265 0.137691
O O4 0.440944 0.990163 0.962824
O O5 0.091342 0.250000 0.374172
O O6 0.151259 0.492873 0.383304
O O7 0.058222 0.492275 0.289496
O O8 0.203137 0.750000 0.364925
O O9 0.260345 0.522689 0.415819
O O10 0.214986 0.528775 0.252563
O O11 0.492366 0.250000 0.779323
O O12 0.540614 0.033142 0.694455
O O13 0.187802 0.750000 0.675907
O O14 0.216140 0.474850 0.628905
O O15 0.139376 0.513498 0.747692
O O16 0.188641 0.250000 0.978346
O O17 0.132282 0.030028 0.916662
O O18 0.187242 0.004292 0.072306
O O19 0.215275 0.750000 0.143082
O O20 0.890644 0.750000 0.189902
#
# Coordination Sequence:
#
# PCOD9462545 Si02
#       8
#     8   8   8   8   8   8   8   8
#     4  10  20  34  52  78 112 148 186 227 275 329
#     4  12  24  36  52  77 110 145 187 233 278 332
#     4  10  22  40  58  78 114 154 186 226 277 333
#     4  10  20  35  57  80 107 146 188 229 278 333
#     4  10  19  31  51  78 109 144 181 224 270 322
#     4  10  20  37  59  84 113 145 181 228 279 331
#     4  11  22  36  55  81 113 149 187 229 278 335
#     4   9  18  35  57  80 107 142 181 223 271 327
#
# _framework density 19.476305
#
# number of rings (size 3 to 8) (size 9 to 14) (size 15 to 20)
#    0.000    1.750    1.250    3.750    0.000    7.000 
#    0.000    0.000    0.000    0.750    0.000    0.000 
#    0.000    0.000    0.000    0.000    0.000    0.000 
#
# Total GULP energy -357156.602458 kJ/mol
# GULP energy per Si atom -5580.571913 kJ/mol
# Density = 1.943198 g / cm^3
# Si number density = 19.476305 Si / 1000 Ang^3
#
#
#
# Elastic Constant Matrix: (Units=GPa)
#
#
# Indices 1 2 3 4 5 6 
#
# 1 29.5145 1.2099 -15.5295 0.0000 0.0000 0.0000
# 2 1.2099 27.3564 16.5374 0.0000 0.0000 0.0000
# 3 -15.5295 16.5374 43.5596 0.0000 0.0000 0.0000
# 4 0.0000 0.0000 0.0000 26.4470 0.0000 0.0000
# 5 0.0000 0.0000 0.0000 0.0000 22.0064 0.0000
# 6 0.0000 0.0000 0.0000 0.0000 0.0000 23.6783
#
#
#
# Elastic Compliance Matrix: (Units=1/GPa)
#
#
# Indices 1 2 3 4 5 6 
#
# 1 0.046334 -0.015620 0.022448 0.000000 0.000000 0.000000
# 2 -0.015620 0.052708 -0.025579 0.000000 0.000000 0.000000
# 3 0.022448 -0.025579 0.040671 0.000000 0.000000 0.000000
# 4 0.000000 0.000000 0.000000 0.037812 0.000000 0.000000
# 5 0.000000 0.000000 0.000000 0.000000 0.045441 0.000000
# 6 0.000000 0.000000 0.000000 0.000000 0.000000 0.042233
#
#
# Mechanical properties :
#
#
# Convention : Reuss Voigt Hill
#
# Bulk Modulus (GPa) = 9.78357 11.65180 10.71768
# Shear Modulus (GPa) = 14.84689 20.97384 17.91037
#
# Velocity S-wave (km/s) = 2.76398 3.28516 3.03578
# Velocity P-wave (km/s) = 3.90133 4.51500 4.21934
#
# Compressibility (1/GPa) = 0.10221218
#
# Stress axis : x y z
#
# Youngs Moduli (GPa) = 21.58263 18.97231 24.58734
#
# Poissons Ratio (x) = 0.29634 -0.55195
# Poissons Ratio (y) = 0.33711 0.62893
# Poissons Ratio (z) = -0.48450 0.48530
#
# Static dielectric constant tensor:
#      x y z
#    x 1.735610 0.000000 0.000000 
#    y 0.000000 1.660360 0.000000 
#    z 0.000000 0.000000 1.696920 
# 
# From -- ./inp_files/20776.got.cif
#   From: 2010.05.17/outbox.cif.g08.bks.cpg/sg62_11_cif.got.tgz:20776.got - 2010.06.03 15:25:27.
