data_PCOD9462605
_publ_section_title
;
Structure prediction by ZEFSAII (Michael W. Deem and Ramdas Pophale) SiO2 
 PCOD9462605
Probable space group: P N M A
;
_chemical_formula_sum "Si O2"
_cell_formula_units_Z 64
_cell_length_a 23.999364
_cell_length_b 8.603654
_cell_length_c 19.693681
_cell_angle_alpha 90.000000
_cell_angle_beta 90.000000
_cell_angle_gamma 90.000000
_cell_volume 4066.395053
_symmetry_space_group_name_H-M "P N M A"
_symmetry_group_IT_number 62
_symmetry_cell_setting 'orthorhombic'
loop_
_space_group_symop_operation_xyz
x,y,z
1/2-x,-y,1/2+z
1/2+x,1/2-y,1/2-z
-x,1/2+y,-z
-x,-y,-z
1/2+x,y,1/2-z
1/2-x,1/2+y,1/2+z
x,1/2-y,z
loop_
_atom_site_type_symbol
_atom_site_label
_atom_site_fract_x
_atom_site_fract_y
_atom_site_fract_z
Si Si1 0.775492 0.437378 0.148138
Si Si2 0.119290 0.936344 0.498752
Si Si3 0.254898 0.936141 0.000233
Si Si4 0.437344 0.938329 0.862868
Si Si5 0.334717 0.934181 0.225556
Si Si6 0.934717 0.062251 0.356810
Si Si7 0.336817 0.938328 0.771797
Si Si8 0.729209 0.063577 0.356506
O O1 0.780593 0.250000 0.153351
O O2 0.775911 0.482707 0.069410
O O3 0.820078 0.513818 0.198066
O O4 0.714506 0.479660 0.178423
O O5 0.120135 0.750000 0.495198
O O6 0.089480 0.981845 0.569193
O O7 0.182398 0.997734 0.498678
O O8 0.086161 0.002420 0.434478
O O9 0.258743 0.750000 0.000698
O O10 0.226045 0.993779 0.068799
O O11 0.436227 0.750000 0.864552
O O12 0.501006 0.986560 0.851543
O O13 0.394531 0.992140 0.804312
O O14 0.329580 0.750000 0.218925
O O15 0.394396 0.990205 0.199375
O O16 0.287693 0.013281 0.177770
O O17 0.932031 0.250000 0.351767
O O18 0.338586 0.750000 0.770186
O O19 0.318431 0.989088 0.696636
O O20 0.728655 0.250000 0.360672
#
# Coordination Sequence:
#
# PCOD9462605 Si02
#       8
#     8   8   8   8   8   8   8   8
#     4   9  18  33  51  69  96 125 158 202 247 291
#     4  11  21  31  44  69 102 135 166 202 242 280
#     4  11  20  32  51  74  97 131 166 198 243 296
#     4  10  19  34  52  69  93 133 177 205 236 288
#     4  11  21  32  49  71  96 128 166 202 243 293
#     4  10  21  34  49  68  97 135 171 206 243 283
#     4   8  15  30  49  68  91 124 160 198 241 283
#     4  10  19  32  49  70  99 128 159 201 248 290
#
# _framework density 15.738756
#
# number of rings (size 3 to 8) (size 9 to 14) (size 15 to 20)
#    0.000    2.000    2.500    3.375    0.000    2.000 
#    0.000    0.625    0.000    0.000    0.000    0.875 
#    0.000    0.000    0.000    0.000    0.000    0.000 
#
# Total GULP energy -357087.882537 kJ/mol
# GULP energy per Si atom -5579.498165 kJ/mol
# Density = 1.570293 g / cm^3
# Si number density = 15.738756 Si / 1000 Ang^3
#
#
#
# Elastic Constant Matrix: (Units=GPa)
#
#
# Indices 1 2 3 4 5 6 
#
# 1 100.4534 24.4417 74.2334 0.0000 0.0000 0.0000
# 2 24.4417 24.4122 26.4196 0.0000 0.0000 0.0000
# 3 74.2334 26.4196 143.2839 0.0000 0.0000 0.0000
# 4 0.0000 0.0000 0.0000 25.9965 0.0000 0.0000
# 5 0.0000 0.0000 0.0000 0.0000 18.8856 0.0000
# 6 0.0000 0.0000 0.0000 0.0000 0.0000 14.2496
#
#
#
# Elastic Compliance Matrix: (Units=1/GPa)
#
#
# Indices 1 2 3 4 5 6 
#
# 1 0.017833 -0.009814 -0.007429 0.000000 0.000000 0.000000
# 2 -0.009814 0.056576 -0.005347 0.000000 0.000000 0.000000
# 3 -0.007429 -0.005347 0.011814 0.000000 0.000000 0.000000
# 4 0.000000 0.000000 0.000000 0.038467 0.000000 0.000000
# 5 0.000000 0.000000 0.000000 0.000000 0.052950 0.000000
# 6 0.000000 0.000000 0.000000 0.000000 0.000000 0.070177
#
#
# Mechanical properties :
#
#
# Convention : Reuss Voigt Hill
#
# Bulk Modulus (GPa) = 24.36554 57.59321 40.97938
# Shear Modulus (GPa) = 16.30361 21.36332 18.83347
#
# Velocity S-wave (km/s) = 3.22202 3.68825 3.46299
# Velocity P-wave (km/s) = 5.41818 7.40339 6.48718
#
# Compressibility (1/GPa) = 0.04104156
#
# Stress axis : x y z
#
# Youngs Moduli (GPa) = 56.07570 17.67527 84.64396
#
# Poissons Ratio (x) = 0.17347 0.62886
# Poissons Ratio (y) = 0.55034 0.45261
# Poissons Ratio (z) = 0.41661 0.09451
#
# Static dielectric constant tensor:
#      x y z
#    x 1.507290 0.000000 0.000000 
#    y 0.000000 1.530540 0.000000 
#    z 0.000000 0.000000 1.531280 
# 
# From -- ./inp_files/24983.got.cif
#   From: 2010.05.17/outbox.cif.g08.bks.cpg/sg62_13_cif.got.tgz:24983.got - 2010.06.03 15:25:27.
