data_PCOD9462362
_publ_section_title
;
Structure prediction by ZEFSAII (Michael W. Deem and Ramdas Pophale) SiO2 
 PCOD9462362
Probable space group: P N M A
;
_chemical_formula_sum "Si O2"
_cell_formula_units_Z 48
_cell_length_a 24.450366
_cell_length_b 8.602826
_cell_length_c 14.152059
_cell_angle_alpha 90.000000
_cell_angle_beta 90.000000
_cell_angle_gamma 90.000000
_cell_volume 2976.775852
_symmetry_space_group_name_H-M "P N M A"
_symmetry_group_IT_number 62
_symmetry_cell_setting 'orthorhombic'
loop_
_space_group_symop_operation_xyz
x,y,z
1/2-x,-y,1/2+z
1/2+x,1/2-y,1/2-z
-x,1/2+y,-z
-x,-y,-z
1/2+x,y,1/2-z
1/2-x,1/2+y,1/2+z
x,1/2-y,z
loop_
_atom_site_type_symbol
_atom_site_label
_atom_site_fract_x
_atom_site_fract_y
_atom_site_fract_z
Si Si1 0.335253 0.438537 0.219359
Si Si2 0.227672 0.563215 0.902712
Si Si3 0.438975 0.438164 0.104164
Si Si4 0.668320 0.565148 0.207864
Si Si5 0.774632 0.563553 0.888611
Si Si6 0.564140 0.064015 0.106215
O O1 0.336424 0.250000 0.220811
O O2 0.316777 0.488060 0.323916
O O3 0.393280 0.490810 0.178751
O O4 0.285917 0.483079 0.148790
O O5 0.227852 0.750000 0.906820
O O6 0.286048 0.507601 0.861977
O O7 0.217196 0.495429 0.005732
O O8 0.436524 0.250000 0.096375
O O9 0.501341 0.479578 0.129876
O O10 0.426470 0.507942 0.001279
O O11 0.672850 0.750000 0.203994
O O12 0.683451 0.505457 0.312313
O O13 0.609014 0.511797 0.173324
O O14 0.777673 0.750000 0.885473
O O15 0.569047 0.250000 0.110609
#
# Coordination Sequence:
#
# PCOD9462362 Si02
#       6
#     8   8   8   8   8   8
#     4   8  16  30  48  69  94 124 154 188 232 285
#     4  10  19  32  50  73  99 125 158 198 241 290
#     4   9  17  31  50  71  97 129 160 192 240 297
#     4  11  21  33  49  69  97 132 166 200 240 283
#     4  10  19  32  50  73 100 127 158 196 241 292
#     4  10  19  30  47  72  99 126 160 202 242 286
#
# _framework density 16.124828999999998
#
# number of rings (size 3 to 8) (size 9 to 14) (size 15 to 20)
#    0.000    2.333    0.000    5.000    0.000    2.000 
#    0.000    4.167    0.000    1.000    0.000    0.000 
#    0.000    0.000    0.000    0.000    0.000    0.000 
#
# Total GULP energy -267758.201215 kJ/mol
# GULP energy per Si atom -5578.295859 kJ/mol
# Density = 1.608813 g / cm^3
# Si number density = 16.124829 Si / 1000 Ang^3
#
#
#
# Elastic Constant Matrix: (Units=GPa)
#
#
# Indices 1 2 3 4 5 6 
#
# 1 111.5768 26.1144 80.0970 0.0000 0.0000 0.0000
# 2 26.1144 45.7965 28.0280 0.0000 0.0000 0.0000
# 3 80.0970 28.0280 131.9452 0.0000 0.0000 0.0000
# 4 0.0000 0.0000 0.0000 28.9106 0.0000 0.0000
# 5 0.0000 0.0000 0.0000 0.0000 23.9364 0.0000
# 6 0.0000 0.0000 0.0000 0.0000 0.0000 18.2993
#
#
#
# Elastic Compliance Matrix: (Units=1/GPa)
#
#
# Indices 1 2 3 4 5 6 
#
# 1 0.016427 -0.003752 -0.009175 0.000000 0.000000 0.000000
# 2 -0.003752 0.025956 -0.003236 0.000000 0.000000 0.000000
# 3 -0.009175 -0.003236 0.013836 0.000000 0.000000 0.000000
# 4 0.000000 0.000000 0.000000 0.034589 0.000000 0.000000
# 5 0.000000 0.000000 0.000000 0.000000 0.041777 0.000000
# 6 0.000000 0.000000 0.000000 0.000000 0.000000 0.054647
#
#
# Mechanical properties :
#
#
# Convention : Reuss Voigt Hill
#
# Bulk Modulus (GPa) = 41.85350 61.97748 51.91549
# Shear Modulus (GPa) = 21.97589 24.56786 23.27187
#
# Velocity S-wave (km/s) = 3.69570 3.90757 3.80311
# Velocity P-wave (km/s) = 6.65005 7.67322 7.17989
#
# Compressibility (1/GPa) = 0.02389287
#
# Stress axis : x y z
#
# Youngs Moduli (GPa) = 60.87560 38.52734 72.27563
#
# Poissons Ratio (x) = 0.14455 0.66313
# Poissons Ratio (y) = 0.22840 0.23388
# Poissons Ratio (z) = 0.55853 0.12467
#
# Static dielectric constant tensor:
#      x y z
#    x 1.540750 0.000000 0.000000 
#    y 0.000000 1.543360 0.000000 
#    z 0.000000 0.000000 1.518620 
# 
# From -- ./inp_files/15118.got.cif
#   From: 2010.05.17/outbox.cif.g08.bks.cpg/sg62_8_cif.got.tgz:15118.got - 2010.06.03 15:25:27.
