data_PCOD9462195
_publ_section_title
;
Structure prediction by ZEFSAII (Michael W. Deem and Ramdas Pophale) SiO2 
 PCOD9462195
Probable space group: P N M A
;
_chemical_formula_sum "Si O2"
_cell_formula_units_Z 48
_cell_length_a 15.118274
_cell_length_b 17.409389
_cell_length_c 8.716147
_cell_angle_alpha 90.000000
_cell_angle_beta 90.000000
_cell_angle_gamma 90.000000
_cell_volume 2294.089133
_symmetry_space_group_name_H-M "P N M A"
_symmetry_group_IT_number 62
_symmetry_cell_setting 'orthorhombic'
loop_
_space_group_symop_operation_xyz
x,y,z
1/2-x,-y,1/2+z
1/2+x,1/2-y,1/2-z
-x,1/2+y,-z
-x,-y,-z
1/2+x,y,1/2-z
1/2-x,1/2+y,1/2+z
x,1/2-y,z
loop_
_atom_site_type_symbol
_atom_site_label
_atom_site_fract_x
_atom_site_fract_y
_atom_site_fract_z
Si Si1 0.320431 0.250000 0.202987
Si Si2 0.797250 0.097147 0.124427
Si Si3 0.035560 0.508951 0.738674
Si Si4 0.886861 0.919079 0.551367
Si Si5 0.503325 0.250000 0.395659
Si Si6 0.908597 0.750000 0.582980
Si Si7 0.569653 0.629565 0.375007
Si Si8 0.910347 0.250000 0.606451
O O1 0.280418 0.329861 0.264244
O O2 0.414671 0.250000 0.292387
O O3 0.332870 0.250000 0.019974
O O4 0.707237 0.049062 0.107715
O O5 0.880726 0.049508 0.186605
O O6 0.836095 0.123496 0.960141
O O7 0.076043 0.460245 0.598078
O O8 0.965823 0.571077 0.673506
O O9 0.978107 0.450401 0.839713
O O10 0.866905 0.829361 0.527917
O O11 0.579733 0.250000 0.268191
O O12 0.493800 0.177783 0.509917
O O13 0.002971 0.750000 0.498682
O O14 0.584824 0.676651 0.218227
#
# Coordination Sequence:
#
# PCOD9462195 Si02
#       8
#     4   8   8   8   4   4   8   4
#     4   9  19  38  62  95 124 168 215 260 318 379
#     4  11  24  42  67  93 133 170 215 270 320 381
#     4  11  24  42  63 101 129 172 215 263 334 382
#     4  11  25  41  69  95 131 173 218 265 322 394
#     4   8  18  34  64  93 124 167 211 261 320 367
#     4  11  19  41  65  92 124 173 220 258 314 395
#     4  10  20  38  65  97 127 170 214 265 322 379
#     4  10  18  35  69  94 126 174 214 267 318 381
#
# _framework density 20.923335999999999
#
# number of rings (size 3 to 8) (size 9 to 14) (size 15 to 20)
#    0.000    1.667    1.667    4.500    4.667    0.000 
#    0.000    0.000    3.667    0.000    0.000    0.000 
#    0.000    0.000    0.000    0.000    0.000    0.000 
#
# Total GULP energy -267941.410713 kJ/mol
# GULP energy per Si atom -5582.112723 kJ/mol
# Density = 2.087571 g / cm^3
# Si number density = 20.923336 Si / 1000 Ang^3
#
#
#
# Elastic Constant Matrix: (Units=GPa)
#
#
# Indices 1 2 3 4 5 6 
#
# 1 104.5820 14.9330 31.1170 0.0000 0.0000 0.0000
# 2 14.9330 80.3698 25.5169 0.0000 0.0000 0.0000
# 3 31.1170 25.5169 112.8860 0.0000 0.0000 0.0000
# 4 0.0000 0.0000 0.0000 18.0953 0.0000 0.0000
# 5 0.0000 0.0000 0.0000 0.0000 25.5023 0.0000
# 6 0.0000 0.0000 0.0000 0.0000 0.0000 -5.1416
#
#
#
# Elastic Compliance Matrix: (Units=1/GPa)
#
#
# Indices 1 2 3 4 5 6 
#
# 1 0.010508 -0.001113 -0.002645 0.000000 0.000000 0.000000
# 2 -0.001113 0.013522 -0.002750 0.000000 0.000000 0.000000
# 3 -0.002645 -0.002750 0.010209 0.000000 0.000000 0.000000
# 4 0.000000 0.000000 0.000000 0.055263 0.000000 0.000000
# 5 0.000000 0.000000 0.000000 0.000000 0.039212 0.000000
# 6 0.000000 0.000000 0.000000 0.000000 0.000000 -0.194490
#
#
# Mechanical properties :
#
#
# Convention : Reuss Voigt Hill
#
# Bulk Modulus (GPa) = 47.11595 48.99683 48.05639
# Shear Modulus (GPa) = -109.44195 22.77592 -43.33302
#
# Velocity S-wave (km/s) = -7.24015 3.30288 -4.55580
# Velocity P-wave (km/s) = 6.87937 6.16551 2.15779
#
# Compressibility (1/GPa) = 0.02122424
#
# Stress axis : x y z
#
# Youngs Moduli (GPa) = 95.16814 73.95197 97.95116
#
# Poissons Ratio (x) = 0.08228 0.25908
# Poissons Ratio (y) = 0.10589 0.26936
# Poissons Ratio (z) = 0.25172 0.20336
#
# Static dielectric constant tensor:
#      x y z
#    x 1.788980 0.000000 0.000000 
#    y 0.000000 1.784560 0.000000 
#    z 0.000000 0.000000 1.760350 
# 
# From -- ./inp_files/6552.got.cif
#   From: 2010.05.17/outbox.cif.g08.bks.cpg/sg62_4_cif.got.tgz:6552.got - 2010.06.03 15:25:27.
