data_PCOD9462637
_publ_section_title
;
Structure prediction by ZEFSAII (Michael W. Deem and Ramdas Pophale) SiO2 
 PCOD9462637
Probable space group: P N M A
;
_chemical_formula_sum "Si O2"
_cell_formula_units_Z 64
_cell_length_a 14.522306
_cell_length_b 7.465259
_cell_length_c 25.652202
_cell_angle_alpha 90.000000
_cell_angle_beta 90.000000
_cell_angle_gamma 90.000000
_cell_volume 2781.026418
_symmetry_space_group_name_H-M "P N M A"
_symmetry_group_IT_number 62
_symmetry_cell_setting 'orthorhombic'
loop_
_space_group_symop_operation_xyz
x,y,z
1/2-x,-y,1/2+z
1/2+x,1/2-y,1/2-z
-x,1/2+y,-z
-x,-y,-z
1/2+x,y,1/2-z
1/2-x,1/2+y,1/2+z
x,1/2-y,z
loop_
_atom_site_type_symbol
_atom_site_label
_atom_site_fract_x
_atom_site_fract_y
_atom_site_fract_z
Si Si1 0.268534 0.465629 0.165331
Si Si2 0.131196 0.969146 0.560389
Si Si3 0.877646 0.535448 0.119989
Si Si4 0.263243 0.539044 0.280511
Si Si5 0.943312 0.531991 0.601633
Si Si6 0.763712 0.043480 0.540256
Si Si7 0.550768 0.452785 0.216552
Si Si8 0.059310 0.464248 0.171657
O O1 0.268309 0.250000 0.163583
O O2 0.324536 0.525720 0.115162
O O3 0.304436 0.515588 0.222673
O O4 0.162512 0.529855 0.161532
O O5 0.131260 0.750000 0.558654
O O6 0.024404 0.022678 0.562473
O O7 0.190835 0.035692 0.511712
O O8 0.866563 0.750000 0.119273
O O9 0.825847 0.469997 0.172374
O O10 0.825472 0.464710 0.068904
O O11 0.984949 0.498941 0.127406
O O12 0.247031 0.750000 0.288375
O O13 0.162749 0.448923 0.280834
O O14 0.937649 0.750000 0.603099
O O15 0.845224 0.462437 0.582997
O O16 0.968861 0.468741 0.659877
O O17 0.742136 0.250000 0.527382
O O18 0.513376 0.250000 0.215231
O O19 0.524623 0.536764 0.272106
O O20 0.066101 0.250000 0.178026
#
# Coordination Sequence:
#
# PCOD9462637 Si02
#       8
#     8   8   8   8   8   8   8   8
#     4   9  19  37  57  78 103 135 177 223 266 310
#     4   9  19  35  58  79 102 140 181 220 262 314
#     4  10  21  34  50  75 107 142 178 211 257 315
#     4  10  19  32  50  75 106 140 173 209 259 316
#     4  10  19  32  53  82 108 136 174 215 261 311
#     4  10  20  37  55  76 108 144 179 214 259 315
#     4   9  18  32  50  77 108 136 170 211 259 312
#     4   9  19  33  52  77 104 135 174 219 264 307
#
# _framework density 23.013085
#
# number of rings (size 3 to 8) (size 9 to 14) (size 15 to 20)
#    0.000    2.500    1.250    1.500    1.750    3.500 
#    0.000    1.875    0.000    0.000    0.000    0.000 
#    0.000    0.000    0.000    0.000    0.000    0.000 
#
# Total GULP energy -357443.032675 kJ/mol
# GULP energy per Si atom -5585.047386 kJ/mol
# Density = 2.296071 g / cm^3
# Si number density = 23.013085 Si / 1000 Ang^3
#
#
#
# Elastic Constant Matrix: (Units=GPa)
#
#
# Indices 1 2 3 4 5 6 
#
# 1 45.4002 -7.9354 -4.8256 0.0000 0.0000 0.0000
# 2 -7.9354 74.8257 -6.6033 0.0000 0.0000 0.0000
# 3 -4.8256 -6.6033 51.6307 0.0000 0.0000 0.0000
# 4 0.0000 0.0000 0.0000 7.7627 0.0000 0.0000
# 5 0.0000 0.0000 0.0000 0.0000 33.5963 0.0000
# 6 0.0000 0.0000 0.0000 0.0000 0.0000 11.5711
#
#
#
# Elastic Compliance Matrix: (Units=1/GPa)
#
#
# Indices 1 2 3 4 5 6 
#
# 1 0.022748 0.002630 0.002462 0.000000 0.000000 0.000000
# 2 0.002630 0.013821 0.002013 0.000000 0.000000 0.000000
# 3 0.002462 0.002013 0.019856 0.000000 0.000000 0.000000
# 4 0.000000 0.000000 0.000000 0.128820 0.000000 0.000000
# 5 0.000000 0.000000 0.000000 0.000000 0.029765 0.000000
# 6 0.000000 0.000000 0.000000 0.000000 0.000000 0.086422
#
#
# Mechanical properties :
#
#
# Convention : Reuss Voigt Hill
#
# Bulk Modulus (GPa) = 14.15714 14.79201 14.47457
# Shear Modulus (GPa) = 16.08924 23.33409 19.71167
#
# Velocity S-wave (km/s) = 2.64698 3.18771 2.92985
# Velocity P-wave (km/s) = 3.93791 4.47105 4.21292
#
# Compressibility (1/GPa) = 0.07063576
#
# Stress axis : x y z
#
# Youngs Moduli (GPa) = 43.96049 72.35390 50.36270
#
# Poissons Ratio (x) = -0.19027 -0.12401
# Poissons Ratio (y) = -0.11560 -0.10140
# Poissons Ratio (z) = -0.10825 -0.14568
#
# Static dielectric constant tensor:
#      x y z
#    x 1.843860 0.000000 0.000000 
#    y 0.000000 1.872900 0.000000 
#    z 0.000000 0.000000 1.878680 
# 
# From -- ./inp_files/29845.got.cif
#   From: 2010.05.17/outbox.cif.g08.bks.cpg/sg62_15_cif.got.tgz:29845.got - 2010.06.03 15:25:27.
