data_PCOD9462996
_publ_section_title
;
Structure prediction by ZEFSAII (Michael W. Deem and Ramdas Pophale) SiO2 
 PCOD9462996
Probable space group: P N M A
;
_chemical_formula_sum "Si O2"
_cell_formula_units_Z 48
_cell_length_a 15.045432
_cell_length_b 7.567429
_cell_length_c 20.501108
_cell_angle_alpha 90.000000
_cell_angle_beta 90.000000
_cell_angle_gamma 90.000000
_cell_volume 2334.158540
_symmetry_space_group_name_H-M "P N M A"
_symmetry_group_IT_number 62
_symmetry_cell_setting 'orthorhombic'
loop_
_space_group_symop_operation_xyz
x,y,z
1/2-x,-y,1/2+z
1/2+x,1/2-y,1/2-z
-x,1/2+y,-z
-x,-y,-z
1/2+x,y,1/2-z
1/2-x,1/2+y,1/2+z
x,1/2-y,z
loop_
_atom_site_type_symbol
_atom_site_label
_atom_site_fract_x
_atom_site_fract_y
_atom_site_fract_z
Si Si1 0.025696 0.453251 0.287928
Si Si2 0.725659 0.033168 0.204062
Si Si3 0.840786 0.463416 0.079817
Si Si4 0.473753 0.458141 0.640377
Si Si5 0.838449 0.038263 0.329133
Si Si6 0.800325 0.462035 0.935530
O O1 0.031980 0.250000 0.310273
O O2 0.123888 0.530116 0.297869
O O3 0.008251 0.455392 0.210242
O O4 0.938462 0.532847 0.321609
O O5 0.724278 0.250000 0.205889
O O6 0.780618 0.977513 0.140531
O O7 0.776195 0.973675 0.269615
O O8 0.837824 0.250000 0.079839
O O9 0.942171 0.516013 0.093639
O O10 0.807305 0.527232 0.009560
O O11 0.462676 0.250000 0.652935
O O12 0.384084 0.528262 0.606995
O O13 0.844182 0.250000 0.321036
O O14 0.789246 0.002400 0.396711
O O15 0.809422 0.250000 0.938268
#
# Coordination Sequence:
#
# PCOD9462996 Si02
#       6
#     8   8   8   8   8   8
#     4  10  19  34  55  80 104 133 177 221 259 307
#     4   9  17  32  56  79  99 134 180 219 253 300
#     4  10  20  37  56  76 106 144 181 212 257 319
#     4  11  21  32  50  81 111 136 168 216 272 314
#     4  10  19  33  56  79 101 136 178 217 257 307
#     4  10  22  36  52  77 111 144 172 213 268 318
#
# _framework density 20.564156000000001
#
# number of rings (size 3 to 8) (size 9 to 14) (size 15 to 20)
#    0.000    2.000    3.333    1.000    0.000    2.000 
#    0.000    1.667    0.000    0.000    0.000    0.000 
#    0.000    0.000    0.000    0.000    0.000    0.000 
#
# Total GULP energy -268102.892747 kJ/mol
# GULP energy per Si atom -5585.476932 kJ/mol
# Density = 2.051735 g / cm^3
# Si number density = 20.564156 Si / 1000 Ang^3
#
#
#
# Elastic Constant Matrix: (Units=GPa)
#
#
# Indices 1 2 3 4 5 6 
#
# 1 78.4413 5.7541 -14.9386 0.0000 0.0000 0.0000
# 2 5.7541 47.3278 -2.3245 0.0000 0.0000 0.0000
# 3 -14.9386 -2.3245 31.6407 0.0000 0.0000 0.0000
# 4 0.0000 0.0000 0.0000 8.8922 0.0000 0.0000
# 5 0.0000 0.0000 0.0000 0.0000 25.4707 0.0000
# 6 0.0000 0.0000 0.0000 0.0000 0.0000 -5.7650
#
#
#
# Elastic Compliance Matrix: (Units=1/GPa)
#
#
# Indices 1 2 3 4 5 6 
#
# 1 0.014099 -0.001392 0.006554 0.000000 0.000000 0.000000
# 2 -0.001392 0.021343 0.000911 0.000000 0.000000 0.000000
# 3 0.006554 0.000911 0.034766 0.000000 0.000000 0.000000
# 4 0.000000 0.000000 0.000000 0.112458 0.000000 0.000000
# 5 0.000000 0.000000 0.000000 0.000000 0.039261 0.000000
# 6 0.000000 0.000000 0.000000 0.000000 0.000000 -0.173461
#
#
# Mechanical properties :
#
#
# Convention : Reuss Voigt Hill
#
# Bulk Modulus (GPa) = 12.14277 14.93241 13.53759
# Shear Modulus (GPa) = 78.40410 16.98084 47.69247
#
# Velocity S-wave (km/s) = 6.18137 2.87670 4.82104
# Velocity P-wave (km/s) = 7.54079 4.27914 6.13084
#
# Compressibility (1/GPa) = 0.08235354
#
# Stress axis : x y z
#
# Youngs Moduli (GPa) = 70.92851 46.85331 28.76353
#
# Poissons Ratio (x) = 0.06523 -0.18852
# Poissons Ratio (y) = 0.09875 -0.02620
# Poissons Ratio (z) = -0.46488 -0.04267
#
# Static dielectric constant tensor:
#      x y z
#    x 1.735950 0.000000 0.000000 
#    y 0.000000 1.774700 0.000000 
#    z 0.000000 0.000000 1.698280 
# 
# From -- ./inp_files/23654.got.cif
#   From: 2010.05.17/outbox.cif.g08.bks.cpg/sg62_12_cif.got.tgz:23654.got - 2010.06.03 15:25:27.
