data_PCOD9462216
_publ_section_title
;
Structure prediction by ZEFSAII (Michael W. Deem and Ramdas Pophale) SiO2 
 PCOD9462216
Probable space group: P N M A
;
_chemical_formula_sum "Si O2"
_cell_formula_units_Z 56
_cell_length_a 9.662660
_cell_length_b 20.795984
_cell_length_c 13.905065
_cell_angle_alpha 90.000000
_cell_angle_beta 90.000000
_cell_angle_gamma 90.000000
_cell_volume 2794.146650
_symmetry_space_group_name_H-M "P N M A"
_symmetry_group_IT_number 62
_symmetry_cell_setting 'orthorhombic'
loop_
_space_group_symop_operation_xyz
x,y,z
1/2-x,-y,1/2+z
1/2+x,1/2-y,1/2-z
-x,1/2+y,-z
-x,-y,-z
1/2+x,y,1/2-z
1/2-x,1/2+y,1/2+z
x,1/2-y,z
loop_
_atom_site_type_symbol
_atom_site_label
_atom_site_fract_x
_atom_site_fract_y
_atom_site_fract_z
Si Si1 0.919170 0.602505 0.818200
Si Si2 0.299415 0.325030 0.301954
Si Si3 0.817383 0.015848 0.906645
Si Si4 0.998013 0.983463 0.634269
Si Si5 0.173124 0.389746 0.482427
Si Si6 0.361724 0.400667 0.773963
Si Si7 0.376764 0.674706 0.189226
O O1 0.777029 0.636653 0.784203
O O2 0.888941 0.553412 0.905361
O O3 0.966954 0.557104 0.730076
O O4 0.045170 0.651946 0.825669
O O5 0.297679 0.250000 0.281135
O O6 0.209443 0.342596 0.395963
O O7 0.885869 0.061659 0.826548
O O8 0.657975 0.003562 0.871331
O O9 0.796584 0.058296 0.001378
O O10 0.954206 0.935311 0.549085
O O11 0.898575 0.045822 0.646051
O O12 0.153420 0.351272 0.581210
O O13 0.211952 0.369365 0.762129
O O14 0.465616 0.341998 0.788396
O O15 0.346188 0.750000 0.196651
#
# Coordination Sequence:
#
# PCOD9462216 Si02
#       7
#     8   8   8   8   8   8   8
#     4  10  21  36  60  86 112 148 190 239 289 335
#     4  11  22  39  58  82 115 155 194 230 280 353
#     4  10  19  35  59  87 115 141 189 243 291 336
#     4  10  18  36  60  88 115 142 189 246 290 339
#     4  10  22  35  62  86 114 156 189 240 298 342
#     4  10  20  34  59  86 112 149 192 240 288 335
#     4  11  22  39  58  85 119 158 199 234 281 355
#
# _framework density 20.041898
#
# number of rings (size 3 to 8) (size 9 to 14) (size 15 to 20)
#    0.000    1.714    4.286    1.714    0.000    0.571 
#    0.000    1.429    0.000    0.000    0.000    0.000 
#    0.000    0.000    0.000    0.000    0.000    0.000 
#
# Total GULP energy -312224.280635 kJ/mol
# GULP energy per Si atom -5575.433583 kJ/mol
# Density = 1.999628 g / cm^3
# Si number density = 20.041898 Si / 1000 Ang^3
#
#
#
# Elastic Constant Matrix: (Units=GPa)
#
#
# Indices 1 2 3 4 5 6 
#
# 1 45.4400 12.0219 -1.7782 0.0000 0.0000 0.0000
# 2 12.0219 105.6334 -0.0443 0.0000 0.0000 0.0000
# 3 -1.7782 -0.0443 19.0944 0.0000 0.0000 0.0000
# 4 0.0000 0.0000 0.0000 26.9012 0.0000 0.0000
# 5 0.0000 0.0000 0.0000 0.0000 21.9833 0.0000
# 6 0.0000 0.0000 0.0000 0.0000 0.0000 31.6297
#
#
#
# Elastic Compliance Matrix: (Units=1/GPa)
#
#
# Indices 1 2 3 4 5 6 
#
# 1 0.022775 -0.002591 0.002115 0.000000 0.000000 0.000000
# 2 -0.002591 0.009761 -0.000219 0.000000 0.000000 0.000000
# 3 0.002115 -0.000219 0.052568 0.000000 0.000000 0.000000
# 4 0.000000 0.000000 0.000000 0.037173 0.000000 0.000000
# 5 0.000000 0.000000 0.000000 0.000000 0.045489 0.000000
# 6 0.000000 0.000000 0.000000 0.000000 0.000000 0.031616
#
#
# Mechanical properties :
#
#
# Convention : Reuss Voigt Hill
#
# Bulk Modulus (GPa) = 11.94530 21.17408 16.55969
# Shear Modulus (GPa) = 21.86490 26.76742 24.31616
#
# Velocity S-wave (km/s) = 3.30655 3.65851 3.48698
# Velocity P-wave (km/s) = 4.53330 5.33237 4.94899
#
# Compressibility (1/GPa) = 0.08371494
#
# Stress axis : x y z
#
# Youngs Moduli (GPa) = 43.90718 102.44329 19.02308
#
# Poissons Ratio (x) = 0.26544 -0.04023
# Poissons Ratio (y) = 0.11377 0.00416
# Poissons Ratio (z) = -0.09286 0.02240
#
# Static dielectric constant tensor:
#      x y z
#    x 1.715650 0.000000 0.000000 
#    y 0.000000 1.703060 0.000000 
#    z 0.000000 0.000000 1.730910 
# 
# From -- ./inp_files/17215.got.cif
#   From: 2010.05.17/outbox.cif.g08.bks.cpg/sg62_9_cif.got.tgz:17215.got - 2010.06.03 15:25:27.
