data_PCOD9462198
_publ_section_title
;
Structure prediction by ZEFSAII (Michael W. Deem and Ramdas Pophale) SiO2 
 PCOD9462198
Probable space group: P N M A
;
_chemical_formula_sum "Si O2"
_cell_formula_units_Z 64
_cell_length_a 8.597389
_cell_length_b 12.938662
_cell_length_c 28.836856
_cell_angle_alpha 90.000000
_cell_angle_beta 90.000000
_cell_angle_gamma 90.000000
_cell_volume 3207.774672
_symmetry_space_group_name_H-M "P N M A"
_symmetry_group_IT_number 62
_symmetry_cell_setting 'orthorhombic'
loop_
_space_group_symop_operation_xyz
x,y,z
1/2-x,-y,1/2+z
1/2+x,1/2-y,1/2-z
-x,1/2+y,-z
-x,-y,-z
1/2+x,y,1/2-z
1/2-x,1/2+y,1/2+z
x,1/2-y,z
loop_
_atom_site_type_symbol
_atom_site_label
_atom_site_fract_x
_atom_site_fract_y
_atom_site_fract_z
Si Si1 0.107228 0.132818 0.603991
Si Si2 0.255474 0.131987 0.859406
Si Si3 0.183347 0.582899 0.816174
Si Si4 0.808324 0.491138 0.962900
Si Si5 0.113126 0.132084 0.959922
Si Si6 0.574825 0.131450 0.381309
Si Si7 0.534917 0.454543 0.237479
Si Si8 0.257948 0.469226 0.684753
O O1 0.112690 0.250000 0.586800
O O2 0.231652 0.118091 0.646127
O O3 0.933288 0.114746 0.623415
O O4 0.160722 0.053866 0.564183
O O5 0.244889 0.250000 0.841213
O O6 0.150238 0.124535 0.905493
O O7 0.201030 0.041045 0.825332
O O8 0.350399 0.610188 0.795280
O O9 0.102792 0.624737 0.862447
O O10 0.065178 0.608818 0.774655
O O11 0.895060 0.573520 0.929342
O O12 0.934709 0.400096 0.968805
O O13 0.784358 0.551260 0.010762
O O14 0.143553 0.250000 0.974043
O O15 0.621688 0.250000 0.383782
O O16 0.677118 0.066897 0.344278
O O17 0.410911 0.510218 0.205499
O O18 0.630963 0.534369 0.270353
#
# Coordination Sequence:
#
# PCOD9462198 Si02
#       8
#     8   8   8   8   8   8   8   8
#     4  10  20  35  55  80 111 147 185 219 267 328
#     4  10  20  35  56  80 110 147 182 217 266 329
#     4  10  18  36  53  77 110 144 177 227 272 320
#     4  10  20  35  57  83 113 145 176 231 273 316
#     4  10  20  35  57  85 111 144 185 221 270 327
#     4  10  20  35  56  80 106 141 182 226 275 327
#     4   9  18  33  55  76 106 142 178 222 281 316
#     4   9  18  34  52  75 107 142 173 227 272 320
#
# _framework density 19.951525
#
# number of rings (size 3 to 8) (size 9 to 14) (size 15 to 20)
#    0.000    2.250    2.500    0.750    0.000    0.500 
#    0.000   14.375    0.000    0.000    0.000    0.000 
#    0.000    0.000    0.000    0.000    0.000    0.000 
#
# Total GULP energy -356515.528945 kJ/mol
# GULP energy per Si atom -5570.555140 kJ/mol
# Density = 1.990611 g / cm^3
# Si number density = 19.951525 Si / 1000 Ang^3
#
#
#
# Elastic Constant Matrix: (Units=GPa)
#
#
# Indices 1 2 3 4 5 6 
#
# 1 66.0007 12.5665 0.8946 0.0000 0.0000 0.0000
# 2 12.5665 67.1557 6.0538 0.0000 0.0000 0.0000
# 3 0.8946 6.0538 41.0022 0.0000 0.0000 0.0000
# 4 0.0000 0.0000 0.0000 2.3412 0.0000 0.0000
# 5 0.0000 0.0000 0.0000 0.0000 23.0676 0.0000
# 6 0.0000 0.0000 0.0000 0.0000 0.0000 15.0873
#
#
#
# Elastic Compliance Matrix: (Units=1/GPa)
#
#
# Indices 1 2 3 4 5 6 
#
# 1 0.015711 -0.002948 0.000092 0.000000 0.000000 0.000000
# 2 -0.002948 0.015645 -0.002246 0.000000 0.000000 0.000000
# 3 0.000092 -0.002246 0.024718 0.000000 0.000000 0.000000
# 4 0.000000 0.000000 0.000000 0.427138 0.000000 0.000000
# 5 0.000000 0.000000 0.000000 0.000000 0.043351 0.000000
# 6 0.000000 0.000000 0.000000 0.000000 0.000000 0.066281
#
#
# Mechanical properties :
#
#
# Convention : Reuss Voigt Hill
#
# Bulk Modulus (GPa) = 21.79978 23.68760 22.74369
# Shear Modulus (GPa) = 8.08618 18.40879 13.24749
#
# Velocity S-wave (km/s) = 2.01537 3.04085 2.57958
# Velocity P-wave (km/s) = 4.04546 4.92213 4.50517
#
# Compressibility (1/GPa) = 0.04587202
#
# Stress axis : x y z
#
# Youngs Moduli (GPa) = 63.64776 63.91860 40.45558
#
# Poissons Ratio (x) = 0.18845 -0.00374
# Poissons Ratio (y) = 0.18766 0.09085
# Poissons Ratio (z) = -0.00589 0.14353
#
# Static dielectric constant tensor:
#      x y z
#    x 1.743930 0.000000 0.000000 
#    y 0.000000 1.677490 0.000000 
#    z 0.000000 0.000000 1.746060 
# 
# From -- ./inp_files/32243.got.cif
#   From: 2010.05.17/outbox.cif.g08.bks.cpg/sg62_17_cif.got.tgz:32243.got - 2010.06.03 15:25:27.
