data_PCOD9462629
_publ_section_title
;
Structure prediction by ZEFSAII (Michael W. Deem and Ramdas Pophale) SiO2 
 PCOD9462629
Probable space group: P N M A
;
_chemical_formula_sum "Si O2"
_cell_formula_units_Z 64
_cell_length_a 14.794923
_cell_length_b 8.474490
_cell_length_c 31.184961
_cell_angle_alpha 90.000000
_cell_angle_beta 90.000000
_cell_angle_gamma 90.000000
_cell_volume 3909.952542
_symmetry_space_group_name_H-M "P N M A"
_symmetry_group_IT_number 62
_symmetry_cell_setting 'orthorhombic'
loop_
_space_group_symop_operation_xyz
x,y,z
1/2-x,-y,1/2+z
1/2+x,1/2-y,1/2-z
-x,1/2+y,-z
-x,-y,-z
1/2+x,y,1/2-z
1/2-x,1/2+y,1/2+z
x,1/2-y,z
loop_
_atom_site_type_symbol
_atom_site_label
_atom_site_fract_x
_atom_site_fract_y
_atom_site_fract_z
Si Si1 0.158172 0.935206 0.635534
Si Si2 0.010331 0.569751 0.315669
Si Si3 0.804881 0.435961 0.631087
Si Si4 0.980561 0.932542 0.775441
Si Si5 0.395067 0.938636 0.048666
Si Si6 0.676151 0.441093 0.705151
Si Si7 0.893756 0.441465 0.545723
Si Si8 0.216506 0.937940 0.207858
O O1 0.139652 0.750000 0.638857
O O2 0.164164 0.983583 0.585923
O O3 0.240922 0.979973 0.666293
O O4 0.073830 0.033076 0.654293
O O5 0.003531 0.750000 0.299187
O O6 0.102187 0.555992 0.342122
O O7 0.010361 0.453892 0.275719
O O8 0.784096 0.250000 0.625008
O O9 0.728341 0.501126 0.662753
O O10 0.829202 0.500024 0.584072
O O11 0.972010 0.750000 0.786938
O O12 0.888830 0.021906 0.787819
O O13 0.073297 0.002779 0.793824
O O14 0.389935 0.750000 0.052005
O O15 0.501180 0.985530 0.054704
O O16 0.369783 0.993127 0.000927
O O17 0.679081 0.250000 0.704912
O O18 0.729651 0.489602 0.748754
O O19 0.891446 0.250000 0.544846
O O20 0.228779 0.750000 0.204181
#
# Coordination Sequence:
#
# PCOD9462629 Si02
#       8
#     8   8   8   8   8   8   8   8
#     4  12  23  34  50  77 107 138 177 221 267 309
#     4  11  19  33  52  73 103 142 182 215 254 310
#     4   9  17  32  53  75  99 135 179 217 252 300
#     4  12  24  36  50  75 109 139 174 224 267 301
#     4  10  19  32  50  73 104 140 174 210 258 318
#     4  10  20  35  55  75  99 138 182 215 255 311
#     4   9  17  31  50  74 104 135 171 217 260 303
#     4  11  22  37  57  75 100 141 183 217 257 313
#
# _framework density 16.368485
#
# number of rings (size 3 to 8) (size 9 to 14) (size 15 to 20)
#    0.000    1.500    3.750    3.375    0.000    1.000 
#    0.000    0.625    0.000    0.000    0.000    0.875 
#    0.000    0.000    0.000    0.000    0.000    0.000 
#
# Total GULP energy -357187.929011 kJ/mol
# GULP energy per Si atom -5581.061391 kJ/mol
# Density = 1.633123 g / cm^3
# Si number density = 16.368485 Si / 1000 Ang^3
#
#
#
# Elastic Constant Matrix: (Units=GPa)
#
#
# Indices 1 2 3 4 5 6 
#
# 1 63.0193 4.9562 23.5744 0.0000 0.0000 0.0000
# 2 4.9562 29.2008 7.8871 0.0000 0.0000 0.0000
# 3 23.5744 7.8871 98.5924 0.0000 0.0000 0.0000
# 4 0.0000 0.0000 0.0000 19.5711 0.0000 0.0000
# 5 0.0000 0.0000 0.0000 0.0000 16.5773 0.0000
# 6 0.0000 0.0000 0.0000 0.0000 0.0000 13.0213
#
#
#
# Elastic Compliance Matrix: (Units=1/GPa)
#
#
# Indices 1 2 3 4 5 6 
#
# 1 0.017528 -0.001884 -0.004040 0.000000 0.000000 0.000000
# 2 -0.001884 0.035204 -0.002366 0.000000 0.000000 0.000000
# 3 -0.004040 -0.002366 0.011298 0.000000 0.000000 0.000000
# 4 0.000000 0.000000 0.000000 0.051096 0.000000 0.000000
# 5 0.000000 0.000000 0.000000 0.000000 0.060324 0.000000
# 6 0.000000 0.000000 0.000000 0.000000 0.000000 0.076797
#
#
# Mechanical properties :
#
#
# Convention : Reuss Voigt Hill
#
# Bulk Modulus (GPa) = 21.07461 29.29421 25.18441
# Shear Modulus (GPa) = 17.56587 20.12694 18.84640
#
# Velocity S-wave (km/s) = 3.27945 3.51039 3.39689
# Velocity P-wave (km/s) = 5.21946 5.86225 5.55017
#
# Compressibility (1/GPa) = 0.04745047
#
# Stress axis : x y z
#
# Youngs Moduli (GPa) = 57.05252 28.40561 88.51027
#
# Poissons Ratio (x) = 0.05351 0.35761
# Poissons Ratio (y) = 0.10747 0.20940
# Poissons Ratio (z) = 0.23051 0.06720
#
# Static dielectric constant tensor:
#      x y z
#    x 1.537510 0.000000 0.000000 
#    y 0.000000 1.554130 0.000000 
#    z 0.000000 0.000000 1.562130 
# 
# From -- ./inp_files/32724.got.cif
#   From: 2010.05.17/outbox.cif.g08.bks.cpg/sg62_17_cif.got.tgz:32724.got - 2010.06.03 15:25:27.
