data_PCOD9462869
_publ_section_title
;
Structure prediction by ZEFSAII (Michael W. Deem and Ramdas Pophale) SiO2 
 PCOD9462869
Probable space group: P N M A
;
_chemical_formula_sum "Si O2"
_cell_formula_units_Z 40
_cell_length_a 16.289495
_cell_length_b 8.650852
_cell_length_c 16.051246
_cell_angle_alpha 90.000000
_cell_angle_beta 90.000000
_cell_angle_gamma 90.000000
_cell_volume 2261.909651
_symmetry_space_group_name_H-M "P N M A"
_symmetry_group_IT_number 62
_symmetry_cell_setting 'orthorhombic'
loop_
_space_group_symop_operation_xyz
x,y,z
1/2-x,-y,1/2+z
1/2+x,1/2-y,1/2-z
-x,1/2+y,-z
-x,-y,-z
1/2+x,y,1/2-z
1/2-x,1/2+y,1/2+z
x,1/2-y,z
loop_
_atom_site_type_symbol
_atom_site_label
_atom_site_fract_x
_atom_site_fract_y
_atom_site_fract_z
Si Si1 0.960669 0.565625 0.371838
Si Si2 0.120708 0.436864 0.453029
Si Si3 0.562223 0.935405 0.430190
Si Si4 0.440869 0.434795 0.307054
Si Si5 0.193221 0.562099 0.943571
O O1 0.960125 0.750000 0.364165
O O2 0.906247 0.522902 0.452554
O O3 0.929995 0.492198 0.286384
O O4 0.052417 0.508132 0.392855
O O5 0.117260 0.250000 0.445730
O O6 0.213343 0.490211 0.436007
O O7 0.557624 0.750000 0.427336
O O8 0.650699 0.980047 0.468083
O O9 0.500000 0.000000 0.500000
O O10 0.526731 0.002761 0.344928
O O11 0.442829 0.250000 0.309873
O O12 0.367271 0.488121 0.368772
O O13 0.194274 0.750000 0.941402
#
# Coordination Sequence:
#
# PCOD9462869 Si02
#       5
#     8   8   8   8   8
#     4  10  20  34  53  76 102 136 174 212 257 305
#     4   9  18  36  57  73  99 137 174 210 257 308
#     4   9  16  29  50  75 105 135 167 204 254 308
#     4  10  19  33  53  76 105 138 173 211 258 307
#     4   8  16  32  54  77 102 134 168 210 257 304
#
# _framework density 17.684172
#
# number of rings (size 3 to 8) (size 9 to 14) (size 15 to 20)
#    0.000    2.800    0.000    3.000    0.000    0.800 
#    3.600    6.000    0.000    0.000    0.000    0.000 
#    0.000    0.000    0.000    0.000    0.000    0.000 
#
# Total GULP energy -222839.295785 kJ/mol
# GULP energy per Si atom -5570.982395 kJ/mol
# Density = 1.764392 g / cm^3
# Si number density = 17.684172 Si / 1000 Ang^3
#
#
#
# Elastic Constant Matrix: (Units=GPa)
#
#
# Indices 1 2 3 4 5 6 
#
# 1 121.7098 22.5709 42.1131 0.0000 0.0000 0.0000
# 2 22.5709 33.4319 25.0739 0.0000 0.0000 0.0000
# 3 42.1131 25.0739 86.5706 0.0000 0.0000 0.0000
# 4 0.0000 0.0000 0.0000 31.3494 0.0000 0.0000
# 5 0.0000 0.0000 0.0000 0.0000 11.6445 0.0000
# 6 0.0000 0.0000 0.0000 0.0000 0.0000 20.0235
#
#
#
# Elastic Compliance Matrix: (Units=1/GPa)
#
#
# Indices 1 2 3 4 5 6 
#
# 1 0.010297 -0.004082 -0.003827 0.000000 0.000000 0.000000
# 2 -0.004082 0.039830 -0.009551 0.000000 0.000000 0.000000
# 3 -0.003827 -0.009551 0.016179 0.000000 0.000000 0.000000
# 4 0.000000 0.000000 0.000000 0.031899 0.000000 0.000000
# 5 0.000000 0.000000 0.000000 0.000000 0.085877 0.000000
# 6 0.000000 0.000000 0.000000 0.000000 0.000000 0.049941
#
#
# Mechanical properties :
#
#
# Convention : Reuss Voigt Hill
#
# Bulk Modulus (GPa) = 31.85937 46.80312 39.33124
# Shear Modulus (GPa) = 17.89514 22.73378 20.31446
#
# Velocity S-wave (km/s) = 3.18454 3.58934 3.39298
# Velocity P-wave (km/s) = 5.61930 6.61070 6.13506
#
# Compressibility (1/GPa) = 0.03138794
#
# Stress axis : x y z
#
# Youngs Moduli (GPa) = 97.11149 25.10650 61.80799
#
# Poissons Ratio (x) = 0.10248 0.23654
# Poissons Ratio (y) = 0.39640 0.59030
# Poissons Ratio (z) = 0.37165 0.23978
#
# Static dielectric constant tensor:
#      x y z
#    x 1.612920 0.000000 0.000000 
#    y 0.000000 1.594530 0.000000 
#    z 0.000000 0.000000 1.546950 
# 
# From -- ./inp_files/18642.got.cif
#   From: 2010.05.17/outbox.cif.g08.bks.cpg/sg62_10_cif.got.tgz:18642.got - 2010.06.03 15:25:27.
