data_PCOD9462798
_publ_section_title
;
Structure prediction by ZEFSAII (Michael W. Deem and Ramdas Pophale) SiO2 
 PCOD9462798
Probable space group: P N M A
;
_chemical_formula_sum "Si O2"
_cell_formula_units_Z 64
_cell_length_a 13.053546
_cell_length_b 8.409702
_cell_length_c 28.610903
_cell_angle_alpha 90.000000
_cell_angle_beta 90.000000
_cell_angle_gamma 90.000000
_cell_volume 3140.802845
_symmetry_space_group_name_H-M "P N M A"
_symmetry_group_IT_number 62
_symmetry_cell_setting 'orthorhombic'
loop_
_space_group_symop_operation_xyz
x,y,z
1/2-x,-y,1/2+z
1/2+x,1/2-y,1/2-z
-x,1/2+y,-z
-x,-y,-z
1/2+x,y,1/2-z
1/2-x,1/2+y,1/2+z
x,1/2-y,z
loop_
_atom_site_type_symbol
_atom_site_label
_atom_site_fract_x
_atom_site_fract_y
_atom_site_fract_z
Si Si1 0.084093 0.066074 0.435103
Si Si2 0.344667 0.434488 0.294932
Si Si3 0.350763 0.443896 0.559617
Si Si4 0.803810 0.056924 0.041723
Si Si5 0.544533 0.439981 0.619812
Si Si6 0.422365 0.938526 0.198822
Si Si7 0.371994 0.940990 0.092911
Si Si8 0.139946 0.566322 0.336335
O O1 0.071354 0.250000 0.446866
O O2 0.184619 0.005728 0.462378
O O3 0.120971 0.043143 0.381301
O O4 0.972167 0.988556 0.436795
O O5 0.321022 0.250000 0.301182
O O6 0.435981 0.482737 0.329997
O O7 0.372242 0.472110 0.241766
O O8 0.246572 0.533584 0.311763
O O9 0.350872 0.250000 0.560837
O O10 0.362761 0.489453 0.505484
O O11 0.442174 0.496669 0.593250
O O12 0.238118 0.498135 0.575475
O O13 0.804053 0.250000 0.046140
O O14 0.860176 0.984418 0.086308
O O15 0.540160 0.250000 0.625177
O O16 0.399938 0.750000 0.203226
O O17 0.387945 0.991048 0.146957
O O18 0.545064 0.958486 0.198510
O O19 0.369866 0.750000 0.092681
O O20 0.133713 0.750000 0.352761
#
# Coordination Sequence:
#
# PCOD9462798 Si02
#       8
#     8   8   8   8   8   8   8   8
#     4  10  19  32  55  85 117 149 187 236 288 339
#     4  12  24  37  57  86 117 149 187 238 297 350
#     4   9  20  38  59  84 116 156 196 240 293 346
#     4  10  20  36  58  85 118 153 191 242 299 345
#     4  11  22  37  59  84 114 153 202 246 285 345
#     4   9  20  37  58  84 110 146 193 238 285 344
#     4   9  19  38  60  81 113 155 197 240 289 346
#     4  10  20  37  60  82 109 147 191 236 281 337
#
# _framework density 20.376954999999999
#
# number of rings (size 3 to 8) (size 9 to 14) (size 15 to 20)
#    0.000    2.000    1.250    3.375    0.000    4.500 
#    0.000    5.000    0.000    0.000    0.000    0.000 
#    0.000    0.000    0.000    0.000    0.000    0.000 
#
# Total GULP energy -357379.280878 kJ/mol
# GULP energy per Si atom -5584.051264 kJ/mol
# Density = 2.033058 g / cm^3
# Si number density = 20.376955 Si / 1000 Ang^3
#
#
#
# Elastic Constant Matrix: (Units=GPa)
#
#
# Indices 1 2 3 4 5 6 
#
# 1 82.1069 2.2386 7.8480 0.0000 0.0000 0.0000
# 2 2.2386 12.3527 1.7035 0.0000 0.0000 0.0000
# 3 7.8480 1.7035 40.1198 0.0000 0.0000 0.0000
# 4 0.0000 0.0000 0.0000 11.8631 0.0000 0.0000
# 5 0.0000 0.0000 0.0000 0.0000 22.4142 0.0000
# 6 0.0000 0.0000 0.0000 0.0000 0.0000 18.1805
#
#
#
# Elastic Compliance Matrix: (Units=1/GPa)
#
#
# Indices 1 2 3 4 5 6 
#
# 1 0.012457 -0.001933 -0.002355 0.000000 0.000000 0.000000
# 2 -0.001933 0.081730 -0.003092 0.000000 0.000000 0.000000
# 3 -0.002355 -0.003092 0.025517 0.000000 0.000000 0.000000
# 4 0.000000 0.000000 0.000000 0.084295 0.000000 0.000000
# 5 0.000000 0.000000 0.000000 0.000000 0.044615 0.000000
# 6 0.000000 0.000000 0.000000 0.000000 0.000000 0.055004
#
#
# Mechanical properties :
#
#
# Convention : Reuss Voigt Hill
#
# Bulk Modulus (GPa) = 9.52878 17.57329 13.55103
# Shear Modulus (GPa) = 14.14989 18.67750 16.41370
#
# Velocity S-wave (km/s) = 2.63802 3.03082 2.84122
# Velocity P-wave (km/s) = 3.73701 4.57063 4.17468
#
# Compressibility (1/GPa) = 0.10494526
#
# Stress axis : x y z
#
# Youngs Moduli (GPa) = 80.27608 12.23534 39.18913
#
# Poissons Ratio (x) = 0.02365 0.09228
# Poissons Ratio (y) = 0.15515 0.12118
# Poissons Ratio (z) = 0.18903 0.03784
#
# Static dielectric constant tensor:
#      x y z
#    x 1.733990 0.000000 0.000000 
#    y 0.000000 1.699070 0.000000 
#    z 0.000000 0.000000 1.703700 
# 
# From -- ./inp_files/32433.got.cif
#   From: 2010.05.17/outbox.cif.g08.bks.cpg/sg62_17_cif.got.tgz:32433.got - 2010.06.03 15:25:27.
