data_PCOD9462893
_publ_section_title
;
Structure prediction by ZEFSAII (Michael W. Deem and Ramdas Pophale) SiO2 
 PCOD9462893
Probable space group: P N M A
;
_chemical_formula_sum "Si O2"
_cell_formula_units_Z 48
_cell_length_a 8.580842
_cell_length_b 31.270681
_cell_length_c 9.238321
_cell_angle_alpha 90.000000
_cell_angle_beta 90.000000
_cell_angle_gamma 90.000000
_cell_volume 2478.907338
_symmetry_space_group_name_H-M "P N M A"
_symmetry_group_IT_number 62
_symmetry_cell_setting 'orthorhombic'
loop_
_space_group_symop_operation_xyz
x,y,z
1/2-x,-y,1/2+z
1/2+x,1/2-y,1/2-z
-x,1/2+y,-z
-x,-y,-z
1/2+x,y,1/2-z
1/2-x,1/2+y,1/2+z
x,1/2-y,z
loop_
_atom_site_type_symbol
_atom_site_label
_atom_site_fract_x
_atom_site_fract_y
_atom_site_fract_z
Si Si1 0.072293 0.543206 0.560912
Si Si2 0.299508 0.334563 0.114971
Si Si3 0.469908 0.201709 0.377452
Si Si4 0.592608 0.881044 0.446219
Si Si5 0.268392 0.110102 0.861855
Si Si6 0.735541 0.421135 0.205022
O O1 0.149149 0.568507 0.427991
O O2 0.203132 0.541889 0.687336
O O3 0.000000 0.500000 0.500000
O O4 0.932262 0.569750 0.636725
O O5 0.428893 0.313584 0.215150
O O6 0.239870 0.377699 0.198760
O O7 0.154606 0.302844 0.104414
O O8 0.342656 0.351027 0.955974
O O9 0.416857 0.250000 0.401684
O O10 0.397776 0.166365 0.484685
O O11 0.414927 0.889406 0.398306
O O12 0.700164 0.885543 0.306587
O O13 0.647004 0.913075 0.572244
#
# Coordination Sequence:
#
# PCOD9462893 Si02
#       6
#     8   8   8   8   8   8
#     4  11  23  38  59  86 112 141 183 232 273 317
#     4   9  18  34  57  77 104 141 180 220 269 331
#     4  10  19  33  53  81 108 139 182 230 272 317
#     4  10  21  37  59  79 110 150 185 222 272 336
#     4  10  20  37  56  81 108 146 187 221 273 333
#     4  10  20  39  59  80 110 147 183 219 270 334
#
# _framework density 19.363371999999998
#
# number of rings (size 3 to 8) (size 9 to 14) (size 15 to 20)
#    0.000    2.000    0.000    6.500    0.000    4.000 
#    0.000    6.667    0.000    0.000    0.000    0.000 
#    0.000    0.000    0.000    0.000    0.000    0.000 
#
# Total GULP energy -267928.858751 kJ/mol
# GULP energy per Si atom -5581.851224 kJ/mol
# Density = 1.931930 g / cm^3
# Si number density = 19.363372 Si / 1000 Ang^3
#
#
#
# Elastic Constant Matrix: (Units=GPa)
#
#
# Indices 1 2 3 4 5 6 
#
# 1 28.2065 -9.7541 1.1798 0.0000 0.0000 0.0000
# 2 -9.7541 27.9432 1.3745 0.0000 0.0000 0.0000
# 3 1.1798 1.3745 105.3315 0.0000 0.0000 0.0000
# 4 0.0000 0.0000 0.0000 11.8473 0.0000 0.0000
# 5 0.0000 0.0000 0.0000 0.0000 35.1477 0.0000
# 6 0.0000 0.0000 0.0000 0.0000 0.0000 12.1471
#
#
#
# Elastic Compliance Matrix: (Units=1/GPa)
#
#
# Indices 1 2 3 4 5 6 
#
# 1 0.040363 0.014121 -0.000636 0.000000 0.000000 0.000000
# 2 0.014121 0.040750 -0.000690 0.000000 0.000000 0.000000
# 3 -0.000636 -0.000690 0.009510 0.000000 0.000000 0.000000
# 4 0.000000 0.000000 0.000000 0.084408 0.000000 0.000000
# 5 0.000000 0.000000 0.000000 0.000000 0.028451 0.000000
# 6 0.000000 0.000000 0.000000 0.000000 0.000000 0.082324
#
#
# Mechanical properties :
#
#
# Convention : Reuss Voigt Hill
#
# Bulk Modulus (GPa) = 8.60502 16.34240 12.47371
# Shear Modulus (GPa) = 16.72496 23.07380 19.89938
#
# Velocity S-wave (km/s) = 2.94214 3.45573 3.20923
# Velocity P-wave (km/s) = 3.99940 4.93771 4.49311
#
# Compressibility (1/GPa) = 0.11621124
#
# Stress axis : x y z
#
# Youngs Moduli (GPa) = 24.77546 24.53988 105.15284
#
# Poissons Ratio (x) = -0.34652 0.06692
# Poissons Ratio (y) = -0.34985 0.07255
# Poissons Ratio (z) = 0.01577 0.01693
#
# Static dielectric constant tensor:
#      x y z
#    x 1.703130 0.000000 0.000000 
#    y 0.000000 1.690490 0.000000 
#    z 0.000000 0.000000 1.670730 
# 
# From -- ./inp_files/4498.got.cif
#   From: 2010.05.17/outbox.cif.g08.bks.cpg/sg62_3_cif.got.tgz:4498.got - 2010.06.03 15:25:27.
