data_PCOD9462258
_publ_section_title
;
Structure prediction by ZEFSAII (Michael W. Deem and Ramdas Pophale) SiO2 
 PCOD9462258
Probable space group: P N M A
;
_chemical_formula_sum "Si O2"
_cell_formula_units_Z 44
_cell_length_a 11.212785
_cell_length_b 17.073610
_cell_length_c 8.537986
_cell_angle_alpha 90.000000
_cell_angle_beta 90.000000
_cell_angle_gamma 90.000000
_cell_volume 1634.535247
_symmetry_space_group_name_H-M "P N M A"
_symmetry_group_IT_number 62
_symmetry_cell_setting 'orthorhombic'
loop_
_space_group_symop_operation_xyz
x,y,z
1/2-x,-y,1/2+z
1/2+x,1/2-y,1/2-z
-x,1/2+y,-z
-x,-y,-z
1/2+x,y,1/2-z
1/2-x,1/2+y,1/2+z
x,1/2-y,z
loop_
_atom_site_type_symbol
_atom_site_label
_atom_site_fract_x
_atom_site_fract_y
_atom_site_fract_z
Si Si1 0.566487 0.250000 0.653942
Si Si2 0.663733 0.664200 0.929223
Si Si3 0.913739 0.998074 0.824347
Si Si4 0.518451 0.667119 0.641903
Si Si5 0.931069 0.614482 0.382810
Si Si6 0.747958 0.000504 0.057206
O O1 0.494468 0.183341 0.542907
O O2 0.619669 0.319644 0.767835
O O3 0.719823 0.750000 0.972621
O O4 0.640471 0.661648 0.742343
O O5 0.728877 0.587335 0.989713
O O6 0.535426 0.656746 0.015399
O O7 0.945256 0.907849 0.812826
O O8 0.785657 0.008781 0.737025
O O9 0.880627 0.022533 0.001876
O O10 0.002215 0.049090 0.721693
O O11 0.464808 0.750000 0.704953
O O12 0.842058 0.566294 0.492659
#
# Coordination Sequence:
#
# PCOD9462258 Si02
#       6
#     4   8   8   8   8   8
#     4  10  24  34  66  92 120 162 208 260 316 344
#     4  10  18  40  68  85 120 165 205 243 315 386
#     4  11  23  41  64  92 129 163 211 261 310 382
#     4   9  20  38  59  92 119 158 205 249 311 365
#     4  11  21  43  64  93 123 168 207 261 313 376
#     4  11  24  39  65  96 122 170 209 255 323 369
#
# _framework density 26.918968
#
# number of rings (size 3 to 8) (size 9 to 14) (size 15 to 20)
#    0.545    1.091    4.545    1.091    2.545    2.909 
#    0.000    0.909    0.000    0.000    0.000    0.000 
#    0.000    0.000    0.000    0.000    0.000    0.000 
#
# Total GULP energy -245110.649444 kJ/mol
# GULP energy per Si atom -5570.696578 kJ/mol
# Density = 2.685770 g / cm^3
# Si number density = 26.918968 Si / 1000 Ang^3
#
#
#
# Elastic Constant Matrix: (Units=GPa)
#
#
# Indices 1 2 3 4 5 6 
#
# 1 33.7286 39.6152 -2.0941 0.0000 0.0000 0.0000
# 2 39.6152 179.0517 38.1808 0.0000 0.0000 0.0000
# 3 -2.0941 38.1808 90.5062 0.0000 0.0000 0.0000
# 4 0.0000 0.0000 0.0000 31.5906 0.0000 0.0000
# 5 0.0000 0.0000 0.0000 0.0000 40.1557 0.0000
# 6 0.0000 0.0000 0.0000 0.0000 0.0000 -59.4944
#
#
#
# Elastic Compliance Matrix: (Units=1/GPa)
#
#
# Indices 1 2 3 4 5 6 
#
# 1 0.042347 -0.010525 0.005420 0.000000 0.000000 0.000000
# 2 -0.010525 0.008753 -0.003936 0.000000 0.000000 0.000000
# 3 0.005420 -0.003936 0.012835 0.000000 0.000000 0.000000
# 4 0.000000 0.000000 0.000000 0.031655 0.000000 0.000000
# 5 0.000000 0.000000 0.000000 0.000000 0.024903 0.000000
# 6 0.000000 0.000000 0.000000 0.000000 0.000000 -0.016808
#
#
# Mechanical properties :
#
#
# Convention : Reuss Voigt Hill
#
# Bulk Modulus (GPa) = 21.80916 50.52115 36.16516
# Shear Modulus (GPa) = 36.48285 17.62269 27.05277
#
# Velocity S-wave (km/s) = 3.68541 2.56140 3.17357
# Velocity P-wave (km/s) = 5.12143 5.24941 5.18582
#
# Compressibility (1/GPa) = 0.04585229
#
# Stress axis : x y z
#
# Youngs Moduli (GPa) = 23.61452 114.24738 77.91312
#
# Poissons Ratio (x) = 1.20245 -0.42228
# Poissons Ratio (y) = 0.24854 0.30667
# Poissons Ratio (z) = -0.12799 0.44968
#
# Static dielectric constant tensor:
#      x y z
#    x 2.202500 0.000000 0.000000 
#    y 0.000000 2.055610 0.000000 
#    z 0.000000 0.000000 2.218580 
# 
# From -- ./inp_files/6316.got.cif
#   From: 2010.05.17/outbox.cif.g08.bks.cpg/sg62_4_cif.got.tgz:6316.got - 2010.06.03 15:25:27.
