data_PCOD9462472
_publ_section_title
;
Structure prediction by ZEFSAII (Michael W. Deem and Ramdas Pophale) SiO2 
 PCOD9462472
Probable space group: P N M A
;
_chemical_formula_sum "Si O2"
_cell_formula_units_Z 48
_cell_length_a 7.972885
_cell_length_b 14.171314
_cell_length_c 22.941416
_cell_angle_alpha 90.000000
_cell_angle_beta 90.000000
_cell_angle_gamma 90.000000
_cell_volume 2592.064720
_symmetry_space_group_name_H-M "P N M A"
_symmetry_group_IT_number 62
_symmetry_cell_setting 'orthorhombic'
loop_
_space_group_symop_operation_xyz
x,y,z
1/2-x,-y,1/2+z
1/2+x,1/2-y,1/2-z
-x,1/2+y,-z
-x,-y,-z
1/2+x,y,1/2-z
1/2-x,1/2+y,1/2+z
x,1/2-y,z
loop_
_atom_site_type_symbol
_atom_site_label
_atom_site_fract_x
_atom_site_fract_y
_atom_site_fract_z
Si Si1 0.707096 0.037092 0.611348
Si Si2 0.696446 0.358194 0.837983
Si Si3 0.430954 0.641095 0.282877
Si Si4 0.200435 0.142213 0.450971
Si Si5 0.166017 0.534929 0.057889
Si Si6 0.174478 0.857877 0.497349
O O1 0.682596 0.075675 0.676102
O O2 0.810844 0.107308 0.569400
O O3 0.779877 0.932829 0.601044
O O4 0.519172 0.036177 0.584132
O O5 0.663457 0.250000 0.857000
O O6 0.575186 0.385062 0.785043
O O7 0.708349 0.427264 0.892442
O O8 0.881483 0.360035 0.808288
O O9 0.370386 0.750000 0.286435
O O10 0.235074 0.250000 0.434903
O O11 0.319177 0.105738 0.503258
O O12 0.014412 0.136163 0.478454
O O13 0.219551 0.432821 0.034723
O O14 0.232311 0.750000 0.502074
#
# Coordination Sequence:
#
# PCOD9462472 Si02
#       6
#     8   8   8   8   8   8
#     4  10  19  31  49  71  95 123 155 192 231 274
#     4   9  18  31  47  69  95 122 152 186 227 274
#     4   9  18  31  47  69  95 122 152 186 227 274
#     4  10  20  32  47  69  96 125 156 190 230 276
#     4  10  19  31  49  71  95 123 155 192 231 274
#     4  10  20  32  47  69  96 125 156 190 230 276
#
# _framework density 18.518055
#
# number of rings (size 3 to 8) (size 9 to 14) (size 15 to 20)
#    0.000    2.333    0.000    5.000    0.000    6.667 
#    0.000    3.333    0.000    1.000    0.000    0.000 
#    0.000    0.000    0.000    0.000    0.000    0.000 
#
# Total GULP energy -268005.189577 kJ/mol
# GULP energy per Si atom -5583.441450 kJ/mol
# Density = 1.847591 g / cm^3
# Si number density = 18.518055 Si / 1000 Ang^3
#
#
#
# Elastic Constant Matrix: (Units=GPa)
#
#
# Indices 1 2 3 4 5 6 
#
# 1 46.5346 18.3203 -1.9544 0.0000 0.0000 0.0000
# 2 18.3203 95.6019 11.1738 0.0000 0.0000 0.0000
# 3 -1.9544 11.1738 34.2604 0.0000 0.0000 0.0000
# 4 0.0000 0.0000 0.0000 20.6192 0.0000 0.0000
# 5 0.0000 0.0000 0.0000 0.0000 24.7707 0.0000
# 6 0.0000 0.0000 0.0000 0.0000 0.0000 17.7351
#
#
#
# Elastic Compliance Matrix: (Units=1/GPa)
#
#
# Indices 1 2 3 4 5 6 
#
# 1 0.023521 -0.004849 0.002923 0.000000 0.000000 0.000000
# 2 -0.004849 0.011874 -0.004149 0.000000 0.000000 0.000000
# 3 0.002923 -0.004149 0.030708 0.000000 0.000000 0.000000
# 4 0.000000 0.000000 0.000000 0.048499 0.000000 0.000000
# 5 0.000000 0.000000 0.000000 0.000000 0.040370 0.000000
# 6 0.000000 0.000000 0.000000 0.000000 0.000000 0.056385
#
#
# Mechanical properties :
#
#
# Convention : Reuss Voigt Hill
#
# Bulk Modulus (GPa) = 18.53451 25.71959 22.12705
# Shear Modulus (GPa) = 20.70459 22.54883 21.62671
#
# Velocity S-wave (km/s) = 3.34739 3.49329 3.42112
# Velocity P-wave (km/s) = 4.99706 5.49453 5.25169
#
# Compressibility (1/GPa) = 0.05395342
#
# Stress axis : x y z
#
# Youngs Moduli (GPa) = 42.51490 84.21591 32.56458
#
# Poissons Ratio (x) = 0.40837 -0.09520
# Poissons Ratio (y) = 0.20616 0.13512
# Poissons Ratio (z) = -0.12428 0.34944
#
# Static dielectric constant tensor:
#      x y z
#    x 1.706320 0.000000 0.000000 
#    y 0.000000 1.622400 0.000000 
#    z 0.000000 0.000000 1.637020 
# 
# From -- ./inp_files/25849.got.cif
#   From: 2010.05.17/outbox.cif.g08.bks.cpg/sg62_13_cif.got.tgz:25849.got - 2010.06.03 15:25:27.
