data_PCOD9462744
_publ_section_title
;
Structure prediction by ZEFSAII (Michael W. Deem and Ramdas Pophale) SiO2 
 PCOD9462744
Probable space group: P N M A
;
_chemical_formula_sum "Si O2"
_cell_formula_units_Z 48
_cell_length_a 20.370375
_cell_length_b 8.775052
_cell_length_c 15.342215
_cell_angle_alpha 90.000000
_cell_angle_beta 90.000000
_cell_angle_gamma 90.000000
_cell_volume 2742.437806
_symmetry_space_group_name_H-M "P N M A"
_symmetry_group_IT_number 62
_symmetry_cell_setting 'orthorhombic'
loop_
_space_group_symop_operation_xyz
x,y,z
1/2-x,-y,1/2+z
1/2+x,1/2-y,1/2-z
-x,1/2+y,-z
-x,-y,-z
1/2+x,y,1/2-z
1/2-x,1/2+y,1/2+z
x,1/2-y,z
loop_
_atom_site_type_symbol
_atom_site_label
_atom_site_fract_x
_atom_site_fract_y
_atom_site_fract_z
Si Si1 0.984950 0.933027 0.235514
Si Si2 0.817029 0.565442 0.390256
Si Si3 0.165994 0.432117 0.806112
Si Si4 0.444161 0.065914 0.562760
Si Si5 0.696413 0.933638 0.511300
Si Si6 0.960622 0.431385 0.419249
O O1 0.986804 0.750000 0.248987
O O2 0.911871 0.969524 0.199103
O O3 0.037217 0.975951 0.161754
O O4 0.992058 0.014243 0.327826
O O5 0.823098 0.750000 0.393303
O O6 0.805469 0.524894 0.288600
O O7 0.758056 0.516991 0.452994
O O8 0.886318 0.494777 0.417927
O O9 0.171443 0.250000 0.815650
O O10 0.197840 0.509460 0.889641
O O11 0.446747 0.250000 0.557759
O O12 0.372452 0.015052 0.531534
O O13 0.500000 0.000000 0.500000
O O14 0.696207 0.750000 0.511300
O O15 0.960071 0.250000 0.423902
O O16 0.000000 0.500000 0.500000
#
# Coordination Sequence:
#
# PCOD9462744 Si02
#       6
#     8   8   8   8   8   8
#     4   9  18  34  54  79 112 146 181 222 270 323
#     4   9  20  39  56  76 112 148 182 225 277 327
#     4   9  17  32  54  75 103 145 183 221 271 325
#     4  10  19  32  53  82 114 146 181 221 271 323
#     4  10  20  34  55  80 110 145 181 228 274 321
#     4  11  22  38  61  84 107 140 184 229 277 331
#
# _framework density 17.502676000000001
#
# number of rings (size 3 to 8) (size 9 to 14) (size 15 to 20)
#    0.000    2.333    1.667    2.500    0.000    4.000 
#    3.000    0.000    0.000    0.000    0.000    0.000 
#    0.000    0.000    0.000    0.000    0.000    0.000 
#
# Total GULP energy -267798.579994 kJ/mol
# GULP energy per Si atom -5579.137083 kJ/mol
# Density = 1.746284 g / cm^3
# Si number density = 17.502676 Si / 1000 Ang^3
#
#
#
# Elastic Constant Matrix: (Units=GPa)
#
#
# Indices 1 2 3 4 5 6 
#
# 1 95.8446 34.1023 99.2486 0.0000 0.0000 0.0000
# 2 34.1023 31.3278 49.9618 0.0000 0.0000 0.0000
# 3 99.2486 49.9618 184.7938 0.0000 0.0000 0.0000
# 4 0.0000 0.0000 0.0000 34.6006 0.0000 0.0000
# 5 0.0000 0.0000 0.0000 0.0000 34.9736 0.0000
# 6 0.0000 0.0000 0.0000 0.0000 0.0000 21.1308
#
#
#
# Elastic Compliance Matrix: (Units=1/GPa)
#
#
# Indices 1 2 3 4 5 6 
#
# 1 0.025268 -0.010307 -0.010784 0.000000 0.000000 0.000000
# 2 -0.010307 0.060322 -0.010773 0.000000 0.000000 0.000000
# 3 -0.010784 -0.010773 0.014116 0.000000 0.000000 0.000000
# 4 0.000000 0.000000 0.000000 0.028901 0.000000 0.000000
# 5 0.000000 0.000000 0.000000 0.000000 0.028593 0.000000
# 6 0.000000 0.000000 0.000000 0.000000 0.000000 0.047324
#
#
# Mechanical properties :
#
#
# Convention : Reuss Voigt Hill
#
# Bulk Modulus (GPa) = 27.79569 75.39906 51.59737
# Shear Modulus (GPa) = 17.84146 26.71789 22.27967
#
# Velocity S-wave (km/s) = 3.19620 3.91129 3.57168
# Velocity P-wave (km/s) = 5.43472 7.97306 6.82297
#
# Compressibility (1/GPa) = 0.03597681
#
# Stress axis : x y z
#
# Youngs Moduli (GPa) = 39.57528 16.57779 70.84094
#
# Poissons Ratio (x) = 0.17087 0.76397
# Poissons Ratio (y) = 0.40791 0.76318
# Poissons Ratio (z) = 0.42679 0.17859
#
# Static dielectric constant tensor:
#      x y z
#    x 1.578830 0.000000 0.000000 
#    y 0.000000 1.592020 0.000000 
#    z 0.000000 0.000000 1.588680 
# 
# From -- ./inp_files/19586.got.cif
#   From: 2010.05.17/outbox.cif.g08.bks.cpg/sg62_10_cif.got.tgz:19586.got - 2010.06.03 15:25:27.
