data_PCOD9462183
_publ_section_title
;
Structure prediction by ZEFSAII (Michael W. Deem and Ramdas Pophale) SiO2 
 PCOD9462183
Probable space group: P N M A
;
_chemical_formula_sum "Si O2"
_cell_formula_units_Z 64
_cell_length_a 31.700420
_cell_length_b 8.395837
_cell_length_c 12.256134
_cell_angle_alpha 90.000000
_cell_angle_beta 90.000000
_cell_angle_gamma 90.000000
_cell_volume 3261.989173
_symmetry_space_group_name_H-M "P N M A"
_symmetry_group_IT_number 62
_symmetry_cell_setting 'orthorhombic'
loop_
_space_group_symop_operation_xyz
x,y,z
1/2-x,-y,1/2+z
1/2+x,1/2-y,1/2-z
-x,1/2+y,-z
-x,-y,-z
1/2+x,y,1/2-z
1/2-x,1/2+y,1/2+z
x,1/2-y,z
loop_
_atom_site_type_symbol
_atom_site_label
_atom_site_fract_x
_atom_site_fract_y
_atom_site_fract_z
Si Si1 0.452321 0.942615 0.252975
Si Si2 0.955884 0.441354 0.723462
Si Si3 0.707761 0.058837 0.213775
Si Si4 0.569030 0.442137 0.994418
Si Si5 0.801634 0.559237 0.256526
Si Si6 0.872169 0.056778 0.849589
Si Si7 0.125000 0.559693 0.898972
Si Si8 0.334063 0.556196 0.008358
O O1 0.450309 0.750000 0.255481
O O2 0.500228 0.994194 0.278380
O O3 0.443417 0.991930 0.127587
O O4 0.416229 0.004655 0.332678
O O5 0.955138 0.250000 0.728868
O O6 0.956210 0.488789 0.596342
O O7 0.913243 0.500194 0.781733
O O8 0.708879 0.250000 0.214961
O O9 0.753764 0.994609 0.241431
O O10 0.670895 0.002378 0.294727
O O11 0.694437 0.004047 0.092407
O O12 0.566163 0.250000 0.998819
O O13 0.617708 0.491192 0.010859
O O14 0.803405 0.750000 0.256638
O O15 0.833352 0.498998 0.163727
O O16 0.818359 0.500767 0.374078
O O17 0.871910 0.250000 0.846832
O O18 0.875475 0.004763 0.975412
O O19 0.125588 0.750000 0.899763
O O20 0.333552 0.750000 0.010186
#
# Coordination Sequence:
#
# PCOD9462183 Si02
#       8
#     8   8   8   8   8   8   8   8
#     4  10  21  38  60  86 119 155 194 243 299 353
#     4  10  21  37  59  88 118 153 197 243 292 354
#     4  11  23  40  62  91 119 152 198 240 285 354
#     4  10  18  35  59  86 120 154 187 234 298 354
#     4  11  23  42  64  88 120 157 192 239 301 352
#     4  10  23  42  59  82 120 159 195 245 301 344
#     4  11  24  41  60  84 117 157 201 247 292 346
#     4   9  19  37  61  85 118 154 185 234 296 345
#
# _framework density 19.61993
#
# number of rings (size 3 to 8) (size 9 to 14) (size 15 to 20)
#    0.000    1.750    2.500    1.500    1.750    2.500 
#    0.000    1.875    0.000    0.000    0.000    0.000 
#    0.000    0.000    0.000    0.000    0.000    0.000 
#
# Total GULP energy -357512.422213 kJ/mol
# GULP energy per Si atom -5586.131597 kJ/mol
# Density = 1.957527 g / cm^3
# Si number density = 19.619930 Si / 1000 Ang^3
#
#
#
# Elastic Constant Matrix: (Units=GPa)
#
#
# Indices 1 2 3 4 5 6 
#
# 1 114.1084 16.8646 40.9032 0.0000 0.0000 0.0000
# 2 16.8646 17.2348 17.4891 0.0000 0.0000 0.0000
# 3 40.9032 17.4891 124.3415 0.0000 0.0000 0.0000
# 4 0.0000 0.0000 0.0000 23.7459 0.0000 0.0000
# 5 0.0000 0.0000 0.0000 0.0000 14.1427 0.0000
# 6 0.0000 0.0000 0.0000 0.0000 0.0000 63.7795
#
#
#
# Elastic Compliance Matrix: (Units=1/GPa)
#
#
# Indices 1 2 3 4 5 6 
#
# 1 0.010835 -0.008148 -0.002418 0.000000 0.000000 0.000000
# 2 -0.008148 0.073810 -0.007701 0.000000 0.000000 0.000000
# 3 -0.002418 -0.007701 0.009921 0.000000 0.000000 0.000000
# 4 0.000000 0.000000 0.000000 0.042113 0.000000 0.000000
# 5 0.000000 0.000000 0.000000 0.000000 0.070708 0.000000
# 6 0.000000 0.000000 0.000000 0.000000 0.000000 0.015679
#
#
# Mechanical properties :
#
#
# Convention : Reuss Voigt Hill
#
# Bulk Modulus (GPa) = 17.23224 45.13317 31.18271
# Shear Modulus (GPa) = 17.92475 32.36213 25.14344
#
# Velocity S-wave (km/s) = 3.02586 4.06575 3.58372
# Velocity P-wave (km/s) = 4.58365 6.71521 5.74909
#
# Compressibility (1/GPa) = 0.05803077
#
# Stress axis : x y z
#
# Youngs Moduli (GPa) = 92.29668 13.54828 100.79593
#
# Poissons Ratio (x) = 0.11039 0.24373
# Poissons Ratio (y) = 0.75204 0.77626
# Poissons Ratio (z) = 0.22318 0.10434
#
# Static dielectric constant tensor:
#      x y z
#    x 1.679770 0.000000 0.000000 
#    y 0.000000 1.680000 0.000000 
#    z 0.000000 0.000000 1.673260 
# 
# From -- ./inp_files/15827.got.cif
#   From: 2010.05.17/outbox.cif.g08.bks.cpg/sg62_8_cif.got.tgz:15827.got - 2010.06.03 15:25:27.
