data_PCOD9462589
_publ_section_title
;
Structure prediction by ZEFSAII (Michael W. Deem and Ramdas Pophale) SiO2 
 PCOD9462589
Probable space group: P N M A
;
_chemical_formula_sum "Si O2"
_cell_formula_units_Z 48
_cell_length_a 14.559575
_cell_length_b 7.668949
_cell_length_c 17.947750
_cell_angle_alpha 90.000000
_cell_angle_beta 90.000000
_cell_angle_gamma 90.000000
_cell_volume 2003.985427
_symmetry_space_group_name_H-M "P N M A"
_symmetry_group_IT_number 62
_symmetry_cell_setting 'orthorhombic'
loop_
_space_group_symop_operation_xyz
x,y,z
1/2-x,-y,1/2+z
1/2+x,1/2-y,1/2-z
-x,1/2+y,-z
-x,-y,-z
1/2+x,y,1/2-z
1/2-x,1/2+y,1/2+z
x,1/2-y,z
loop_
_atom_site_type_symbol
_atom_site_label
_atom_site_fract_x
_atom_site_fract_y
_atom_site_fract_z
Si Si1 0.170262 0.035977 0.487835
Si Si2 0.681331 0.948834 0.251799
Si Si3 0.550246 0.046111 0.382483
Si Si4 0.128984 0.961543 0.955005
Si Si5 0.844490 0.547232 0.343247
Si Si6 0.958789 0.947600 0.633237
O O1 0.165949 0.250000 0.487697
O O2 0.265369 0.985795 0.447955
O O3 0.172184 0.976765 0.573385
O O4 0.081824 0.972660 0.442475
O O5 0.692958 0.750000 0.225394
O O6 0.777534 0.027480 0.280507
O O7 0.614008 0.951033 0.323518
O O8 0.626939 0.049950 0.188739
O O9 0.548505 0.250000 0.361379
O O10 0.445441 0.981850 0.393550
O O11 0.594477 0.027016 0.464504
O O12 0.125159 0.750000 0.957127
O O13 0.817092 0.750000 0.346588
O O14 0.952964 0.536917 0.330963
O O15 0.987971 0.750000 0.619376
#
# Coordination Sequence:
#
# PCOD9462589 Si02
#       6
#     8   8   8   8   8   8
#     4   9  18  37  62  87 117 158 200 242 295 353
#     4  11  23  41  63  84 118 164 205 247 301 366
#     4  10  19  31  54  88 120 152 197 246 294 348
#     4   9  17  33  56  84 119 156 191 235 295 356
#     4  10  21  41  66  86 113 159 206 245 297 361
#     4  11  24  39  60  91 124 154 196 253 306 358
#
# _framework density 23.952269000000001
#
# number of rings (size 3 to 8) (size 9 to 14) (size 15 to 20)
#    0.000    2.000    1.667    2.000    0.000    3.333 
#    0.000    4.167    0.000    0.000    0.000    0.000 
#    0.000    0.000    0.000    0.000    0.000    0.000 
#
# Total GULP energy -268283.793619 kJ/mol
# GULP energy per Si atom -5589.245700 kJ/mol
# Density = 2.389775 g / cm^3
# Si number density = 23.952269 Si / 1000 Ang^3
#
#
#
# Elastic Constant Matrix: (Units=GPa)
#
#
# Indices 1 2 3 4 5 6 
#
# 1 150.7472 2.3056 40.4246 0.0000 0.0000 0.0000
# 2 2.3056 57.7121 -6.3054 0.0000 0.0000 0.0000
# 3 40.4246 -6.3054 24.6257 0.0000 0.0000 0.0000
# 4 0.0000 0.0000 0.0000 14.7644 0.0000 0.0000
# 5 0.0000 0.0000 0.0000 0.0000 28.7877 0.0000
# 6 0.0000 0.0000 0.0000 0.0000 0.0000 5.9377
#
#
#
# Elastic Compliance Matrix: (Units=1/GPa)
#
#
# Indices 1 2 3 4 5 6 
#
# 1 0.012265 -0.002767 -0.020842 0.000000 0.000000 0.000000
# 2 -0.002767 0.018450 0.009267 0.000000 0.000000 0.000000
# 3 -0.020842 0.009267 0.077195 0.000000 0.000000 0.000000
# 4 0.000000 0.000000 0.000000 0.067731 0.000000 0.000000
# 5 0.000000 0.000000 0.000000 0.000000 0.034737 0.000000
# 6 0.000000 0.000000 0.000000 0.000000 0.000000 0.168416
#
#
# Mechanical properties :
#
#
# Convention : Reuss Voigt Hill
#
# Bulk Modulus (GPa) = 12.62235 33.99273 23.30754
# Shear Modulus (GPa) = 11.52371 23.00864 17.26617
#
# Velocity S-wave (km/s) = 2.19580 3.10272 2.68779
# Velocity P-wave (km/s) = 3.42198 5.20178 4.40276
#
# Compressibility (1/GPa) = 0.07922455
#
# Stress axis : x y z
#
# Youngs Moduli (GPa) = 81.53223 54.19941 12.95421
#
# Poissons Ratio (x) = 0.14998 0.27000
# Poissons Ratio (y) = 0.22561 -0.12004
# Poissons Ratio (z) = 1.69933 -0.50225
#
# Static dielectric constant tensor:
#      x y z
#    x 1.937670 0.000000 0.000000 
#    y 0.000000 1.853440 0.000000 
#    z 0.000000 0.000000 1.911640 
# 
# From -- ./inp_files/23717.got.cif
#   From: 2010.05.17/outbox.cif.g08.bks.cpg/sg62_12_cif.got.tgz:23717.got - 2010.06.03 15:25:27.
