data_PCOD9462677
_publ_section_title
;
Structure prediction by ZEFSAII (Michael W. Deem and Ramdas Pophale) SiO2 
 PCOD9462677
Probable space group: P N M A
;
_chemical_formula_sum "Si O2"
_cell_formula_units_Z 48
_cell_length_a 30.691347
_cell_length_b 7.539397
_cell_length_c 10.432438
_cell_angle_alpha 90.000000
_cell_angle_beta 90.000000
_cell_angle_gamma 90.000000
_cell_volume 2414.006161
_symmetry_space_group_name_H-M "P N M A"
_symmetry_group_IT_number 62
_symmetry_cell_setting 'orthorhombic'
loop_
_space_group_symop_operation_xyz
x,y,z
1/2-x,-y,1/2+z
1/2+x,1/2-y,1/2-z
-x,1/2+y,-z
-x,-y,-z
1/2+x,y,1/2-z
1/2-x,1/2+y,1/2+z
x,1/2-y,z
loop_
_atom_site_type_symbol
_atom_site_label
_atom_site_fract_x
_atom_site_fract_y
_atom_site_fract_z
Si Si1 0.116873 0.965228 0.507522
Si Si2 0.286071 0.963697 0.715194
Si Si3 0.975534 0.963147 0.868848
Si Si4 0.616349 0.041493 0.289954
Si Si5 0.471175 0.462534 0.125051
Si Si6 0.715020 0.962484 0.987019
O O1 0.117156 0.750000 0.508292
O O2 0.077819 0.027849 0.598220
O O3 0.165739 0.027645 0.538977
O O4 0.107229 0.022427 0.361800
O O5 0.287616 0.750000 0.704251
O O6 0.335131 0.033253 0.689075
O O7 0.250728 0.030619 0.613263
O O8 0.274901 0.001532 0.863631
O O9 0.972462 0.750000 0.853507
O O10 0.925915 0.032485 0.861936
O O11 0.004030 0.032339 0.749715
O O12 0.000000 0.000000 0.000000
O O13 0.619223 0.250000 0.320924
O O14 0.468098 0.250000 0.138757
O O15 0.500000 0.500000 0.000000
O O16 0.713866 0.750000 0.972623
#
# Coordination Sequence:
#
# PCOD9462677 Si02
#       6
#     8   8   8   8   8   8
#     4   9  17  30  51  75  97 123 160 203 245 287
#     4   9  18  33  53  74  98 129 162 201 246 290
#     4  10  21  35  49  70 101 133 163 199 242 290
#     4   9  17  32  52  71  96 129 165 199 239 290
#     4  10  19  32  52  75  97 125 162 202 241 284
#     4   9  18  33  51  73 101 128 159 201 245 290
#
# _framework density 19.883959999999998
#
# number of rings (size 3 to 8) (size 9 to 14) (size 15 to 20)
#    0.000    2.667    1.667    0.000    0.000    2.000 
#    3.000    0.000    0.000    0.000    0.000    0.000 
#    0.000    0.000    0.000    0.000    0.000    0.000 
#
# Total GULP energy -267706.411960 kJ/mol
# GULP energy per Si atom -5577.216916 kJ/mol
# Density = 1.983870 g / cm^3
# Si number density = 19.883960 Si / 1000 Ang^3
#
#
#
# Elastic Constant Matrix: (Units=GPa)
#
#
# Indices 1 2 3 4 5 6 
#
# 1 193.3485 4.4545 112.3738 0.0000 0.0000 0.0000
# 2 4.4545 47.6168 -7.1093 0.0000 0.0000 0.0000
# 3 112.3738 -7.1093 127.8037 0.0000 0.0000 0.0000
# 4 0.0000 0.0000 0.0000 21.5627 0.0000 0.0000
# 5 0.0000 0.0000 0.0000 0.0000 38.7361 0.0000
# 6 0.0000 0.0000 0.0000 0.0000 0.0000 36.0280
#
#
#
# Elastic Compliance Matrix: (Units=1/GPa)
#
#
# Indices 1 2 3 4 5 6 
#
# 1 0.010856 -0.002461 -0.009682 0.000000 0.000000 0.000000
# 2 -0.002461 0.021735 0.003373 0.000000 0.000000 0.000000
# 3 -0.009682 0.003373 0.016525 0.000000 0.000000 0.000000
# 4 0.000000 0.000000 0.000000 0.046376 0.000000 0.000000
# 5 0.000000 0.000000 0.000000 0.000000 0.025816 0.000000
# 6 0.000000 0.000000 0.000000 0.000000 0.000000 0.027756
#
#
# Mechanical properties :
#
#
# Convention : Reuss Voigt Hill
#
# Bulk Modulus (GPa) = 31.67003 65.35632 48.51318
# Shear Modulus (GPa) = 28.22779 36.53538 32.38159
#
# Velocity S-wave (km/s) = 3.77188 4.29118 4.03988
# Velocity P-wave (km/s) = 5.91028 7.58238 6.79794
#
# Compressibility (1/GPa) = 0.03157559
#
# Stress axis : x y z
#
# Youngs Moduli (GPa) = 92.11475 46.00906 60.51274
#
# Poissons Ratio (x) = 0.11324 0.58590
# Poissons Ratio (y) = 0.22671 -0.20411
# Poissons Ratio (z) = 0.89188 -0.15519
#
# Static dielectric constant tensor:
#      x y z
#    x 1.734190 0.000000 0.000000 
#    y 0.000000 1.728460 0.000000 
#    z 0.000000 0.000000 1.644780 
# 
# From -- ./inp_files/9767.got.cif
#   From: 2010.05.17/outbox.cif.g08.bks.cpg/sg62_5_cif.got.tgz:9767.got - 2010.06.03 15:25:27.
