data_PCOD9462676
_publ_section_title
;
Structure prediction by ZEFSAII (Michael W. Deem and Ramdas Pophale) SiO2 
 PCOD9462676
Probable space group: P N M A
;
_chemical_formula_sum "Si O2"
_cell_formula_units_Z 56
_cell_length_a 16.897804
_cell_length_b 7.579903
_cell_length_c 20.808670
_cell_angle_alpha 90.000000
_cell_angle_beta 90.000000
_cell_angle_gamma 90.000000
_cell_volume 2665.251763
_symmetry_space_group_name_H-M "P N M A"
_symmetry_group_IT_number 62
_symmetry_cell_setting 'orthorhombic'
loop_
_space_group_symop_operation_xyz
x,y,z
1/2-x,-y,1/2+z
1/2+x,1/2-y,1/2-z
-x,1/2+y,-z
-x,-y,-z
1/2+x,y,1/2-z
1/2-x,1/2+y,1/2+z
x,1/2-y,z
loop_
_atom_site_type_symbol
_atom_site_label
_atom_site_fract_x
_atom_site_fract_y
_atom_site_fract_z
Si Si1 0.931767 0.038476 0.948972
Si Si2 0.842385 0.965425 0.352135
Si Si3 0.744626 0.966848 0.476596
Si Si4 0.314131 0.537126 0.292411
Si Si5 0.493469 0.965624 0.317306
Si Si6 0.483355 0.042356 0.824878
Si Si7 0.322306 0.545123 0.892471
O O1 0.925081 0.250000 0.943656
O O2 0.846230 0.973682 0.971785
O O3 0.958722 0.971036 0.879079
O O4 0.000000 0.000000 0.000000
O O5 0.840573 0.750000 0.353321
O O6 0.791820 0.022949 0.413003
O O7 0.809275 0.018781 0.282175
O O8 0.934029 0.025587 0.354006
O O9 0.744154 0.750000 0.478090
O O10 0.787252 0.030345 0.541420
O O11 0.312323 0.750000 0.292883
O O12 0.400741 0.483323 0.318584
O O13 0.243487 0.474893 0.337195
O O14 0.495622 0.750000 0.319063
O O15 0.526597 0.025736 0.248133
O O16 0.497276 0.250000 0.816748
O O17 0.405991 0.023547 0.867480
O O18 0.335776 0.750000 0.904467
#
# Coordination Sequence:
#
# PCOD9462676 Si02
#       7
#     8   8   8   8   8   8   8
#     4  10  19  32  52  75 104 137 168 205 253 307
#     4   8  16  33  56  79  99 127 176 225 259 300
#     4   9  19  33  50  74 104 141 173 204 254 315
#     4   9  17  32  56  79 100 129 170 220 261 294
#     4   8  16  31  53  80 100 122 168 221 258 296
#     4   9  18  34  56  79  98 126 175 226 262 293
#     4  11  22  33  47  74 110 141 171 203 253 320
#
# _framework density 21.011149
#
# number of rings (size 3 to 8) (size 9 to 14) (size 15 to 20)
#    0.000    2.857    0.000    3.000    2.000    0.571 
#    0.000    4.286    0.000    3.429    0.000    0.000 
#    0.000    0.000    0.000    0.000    0.000    0.000 
#
# Total GULP energy -312547.123351 kJ/mol
# GULP energy per Si atom -5581.198631 kJ/mol
# Density = 2.096333 g / cm^3
# Si number density = 21.011149 Si / 1000 Ang^3
#
#
#
# Elastic Constant Matrix: (Units=GPa)
#
#
# Indices 1 2 3 4 5 6 
#
# 1 100.3916 -5.0529 94.4658 0.0000 0.0000 0.0000
# 2 -5.0529 37.8317 -5.2868 0.0000 0.0000 0.0000
# 3 94.4658 -5.2868 149.4513 0.0000 0.0000 0.0000
# 4 0.0000 0.0000 0.0000 4.6387 0.0000 0.0000
# 5 0.0000 0.0000 0.0000 0.0000 36.4116 0.0000
# 6 0.0000 0.0000 0.0000 0.0000 0.0000 8.0677
#
#
#
# Elastic Compliance Matrix: (Units=1/GPa)
#
#
# Indices 1 2 3 4 5 6 
#
# 1 0.024628 0.001120 -0.015528 0.000000 0.000000 0.000000
# 2 0.001120 0.026615 0.000234 0.000000 0.000000 0.000000
# 3 -0.015528 0.000234 0.016514 0.000000 0.000000 0.000000
# 4 0.000000 0.000000 0.000000 0.215578 0.000000 0.000000
# 5 0.000000 0.000000 0.000000 0.000000 0.027464 0.000000
# 6 0.000000 0.000000 0.000000 0.000000 0.000000 0.123952
#
#
# Mechanical properties :
#
#
# Convention : Reuss Voigt Hill
#
# Bulk Modulus (GPa) = 25.37480 50.65855 38.01668
# Shear Modulus (GPa) = 10.49899 23.39349 16.94624
#
# Velocity S-wave (km/s) = 2.23779 3.34036 2.84304
# Velocity P-wave (km/s) = 4.33359 6.24820 5.37680
#
# Compressibility (1/GPa) = 0.03940917
#
# Stress axis : x y z
#
# Youngs Moduli (GPa) = 40.60339 37.57273 60.55386
#
# Poissons Ratio (x) = -0.04206 0.94026
# Poissons Ratio (y) = -0.04546 -0.01416
# Poissons Ratio (z) = 0.63048 -0.00879
#
# Static dielectric constant tensor:
#      x y z
#    x 1.727950 0.000000 0.000000 
#    y 0.000000 1.819610 0.000000 
#    z 0.000000 0.000000 1.744100 
# 
# From -- ./inp_files/27273.got.cif
#   From: 2010.05.17/outbox.cif.g08.bks.cpg/sg62_14_cif.got.tgz:27273.got - 2010.06.03 15:25:27.
