data_PCOD9462016
_publ_section_title
;
Structure prediction by ZEFSAII (Michael W. Deem and Ramdas Pophale) SiO2 
 PCOD9462016
Probable space group: P N M A
;
_chemical_formula_sum "Si O2"
_cell_formula_units_Z 48
_cell_length_a 22.582454
_cell_length_b 7.914199
_cell_length_c 12.682623
_cell_angle_alpha 90.000000
_cell_angle_beta 90.000000
_cell_angle_gamma 90.000000
_cell_volume 2266.664190
_symmetry_space_group_name_H-M "P N M A"
_symmetry_group_IT_number 62
_symmetry_cell_setting 'orthorhombic'
loop_
_space_group_symop_operation_xyz
x,y,z
1/2-x,-y,1/2+z
1/2+x,1/2-y,1/2-z
-x,1/2+y,-z
-x,-y,-z
1/2+x,y,1/2-z
1/2-x,1/2+y,1/2+z
x,1/2-y,z
loop_
_atom_site_type_symbol
_atom_site_label
_atom_site_fract_x
_atom_site_fract_y
_atom_site_fract_z
Si Si1 0.931215 0.950651 0.514844
Si Si2 0.301335 0.952897 0.583262
Si Si3 0.859674 0.045939 0.137767
Si Si4 0.491663 0.453040 0.378790
Si Si5 0.173800 0.546371 0.637034
Si Si6 0.604712 0.457346 0.245383
O O1 0.931131 0.750000 0.522131
O O2 0.903094 0.016003 0.625164
O O3 0.886969 0.999721 0.420932
O O4 0.000000 0.000000 0.500000
O O5 0.299332 0.750000 0.592130
O O6 0.233880 0.016965 0.582296
O O7 0.339239 0.013480 0.684521
O O8 0.334238 0.992406 0.474400
O O9 0.860294 0.250000 0.137180
O O10 0.926956 0.984739 0.152819
O O11 0.824787 0.989503 0.241316
O O12 0.500000 0.500000 0.500000
O O13 0.491643 0.250000 0.369942
O O14 0.545944 0.513344 0.308259
O O15 0.175258 0.750000 0.636976
O O16 0.606079 0.250000 0.244541
#
# Coordination Sequence:
#
# PCOD9462016 Si02
#       6
#     8   8   8   8   8   8
#     4  11  23  41  66  91 121 159 203 249 302 364
#     4  10  21  38  60  86 116 155 199 246 295 351
#     4  10  21  37  59  84 116 155 194 243 299 355
#     4  10  18  32  54  81 111 145 186 233 286 343
#     4  10  23  41  61  86 120 159 200 245 298 355
#     4   9  19  36  59  85 117 156 194 239 298 356
#
# _framework density 21.176494000000002
#
# number of rings (size 3 to 8) (size 9 to 14) (size 15 to 20)
#    0.000    2.000    1.667    1.500    2.333    4.000 
#    0.000    5.000    0.000    0.000    0.000    0.000 
#    0.000    0.000    0.000    0.000    0.000    0.000 
#
# Total GULP energy -267984.399154 kJ/mol
# GULP energy per Si atom -5583.008316 kJ/mol
# Density = 2.112830 g / cm^3
# Si number density = 21.176494 Si / 1000 Ang^3
#
#
#
# Elastic Constant Matrix: (Units=GPa)
#
#
# Indices 1 2 3 4 5 6 
#
# 1 141.0203 13.4446 47.4156 0.0000 0.0000 0.0000
# 2 13.4446 20.1015 6.6554 0.0000 0.0000 0.0000
# 3 47.4156 6.6554 125.4027 0.0000 0.0000 0.0000
# 4 0.0000 0.0000 0.0000 23.3297 0.0000 0.0000
# 5 0.0000 0.0000 0.0000 0.0000 22.3396 0.0000
# 6 0.0000 0.0000 0.0000 0.0000 0.0000 19.7484
#
#
#
# Elastic Compliance Matrix: (Units=1/GPa)
#
#
# Indices 1 2 3 4 5 6 
#
# 1 0.008544 -0.004728 -0.002980 0.000000 0.000000 0.000000
# 2 -0.004728 0.053254 -0.001039 0.000000 0.000000 0.000000
# 3 -0.002980 -0.001039 0.009156 0.000000 0.000000 0.000000
# 4 0.000000 0.000000 0.000000 0.042864 0.000000 0.000000
# 5 0.000000 0.000000 0.000000 0.000000 0.044764 0.000000
# 6 0.000000 0.000000 0.000000 0.000000 0.000000 0.050637
#
#
# Mechanical properties :
#
#
# Convention : Reuss Voigt Hill
#
# Bulk Modulus (GPa) = 18.70512 46.83953 32.77233
# Shear Modulus (GPa) = 20.44736 27.68412 24.06574
#
# Velocity S-wave (km/s) = 3.11073 3.61959 3.37476
# Velocity P-wave (km/s) = 4.66415 6.29565 5.54029
#
# Compressibility (1/GPa) = 0.05346129
#
# Stress axis : x y z
#
# Youngs Moduli (GPa) = 117.04480 18.77806 109.21788
#
# Poissons Ratio (x) = 0.08878 0.32542
# Poissons Ratio (y) = 0.55337 0.11344
# Poissons Ratio (z) = 0.34874 0.01950
#
# Static dielectric constant tensor:
#      x y z
#    x 1.788340 0.000000 0.000000 
#    y 0.000000 1.776730 0.000000 
#    z 0.000000 0.000000 1.756750 
# 
# From -- ./inp_files/15128.got.cif
#   From: 2010.05.17/outbox.cif.g08.bks.cpg/sg62_8_cif.got.tgz:15128.got - 2010.06.03 15:25:27.
