data_PCOD9462862
_publ_section_title
;
Structure prediction by ZEFSAII (Michael W. Deem and Ramdas Pophale) SiO2 
 PCOD9462862
Probable space group: P N M A
;
_chemical_formula_sum "Si O2"
_cell_formula_units_Z 56
_cell_length_a 19.719533
_cell_length_b 8.581860
_cell_length_c 18.375972
_cell_angle_alpha 90.000000
_cell_angle_beta 90.000000
_cell_angle_gamma 90.000000
_cell_volume 3109.770730
_symmetry_space_group_name_H-M "P N M A"
_symmetry_group_IT_number 62
_symmetry_cell_setting 'orthorhombic'
loop_
_space_group_symop_operation_xyz
x,y,z
1/2-x,-y,1/2+z
1/2+x,1/2-y,1/2-z
-x,1/2+y,-z
-x,-y,-z
1/2+x,y,1/2-z
1/2-x,1/2+y,1/2+z
x,1/2-y,z
loop_
_atom_site_type_symbol
_atom_site_label
_atom_site_fract_x
_atom_site_fract_y
_atom_site_fract_z
Si Si1 0.105861 0.064064 0.111569
Si Si2 0.359562 0.437114 0.451666
Si Si3 0.751214 0.435886 0.350929
Si Si4 0.285210 0.937312 0.988807
Si Si5 0.386327 0.937637 0.190444
Si Si6 0.964146 0.563612 0.166303
Si Si7 0.928573 0.938179 0.472693
O O1 0.104761 0.250000 0.100016
O O2 0.172065 0.027104 0.160944
O O3 0.036206 0.009853 0.146749
O O4 0.116733 0.984490 0.032903
O O5 0.362830 0.250000 0.445021
O O6 0.280595 0.489482 0.443359
O O7 0.409249 0.513692 0.393819
O O8 0.757618 0.250000 0.356362
O O9 0.767732 0.512701 0.428903
O O10 0.810175 0.498246 0.299041
O O11 0.285681 0.750000 0.984888
O O12 0.363058 0.990017 0.979194
O O13 0.382536 0.750000 0.189936
O O14 0.435514 0.986825 0.255290
O O15 0.413661 0.987044 0.110920
O O16 0.970889 0.750000 0.165958
O O17 0.930212 0.750000 0.473761
O O18 0.000000 0.000000 0.500000
#
# Coordination Sequence:
#
# PCOD9462862 Si02
#       7
#     8   8   8   8   8   8   8
#     4  10  20  34  52  77 105 133 169 212 252 299
#     4  10  19  33  53  75 101 136 173 212 255 301
#     4   9  17  30  52  76  95 120 161 207 246 289
#     4   8  16  31  50  71  98 129 160 195 243 300
#     4   9  20  37  53  70  99 136 171 205 251 309
#     4  11  22  35  51  73 103 139 173 209 252 302
#     4   9  17  32  53  76  98 125 164 208 252 300
#
# _framework density 18.007757999999999
#
# number of rings (size 3 to 8) (size 9 to 14) (size 15 to 20)
#    0.000    2.571    0.000    3.000    0.000    5.714 
#    0.000    1.429    0.000    6.857    0.000    0.000 
#    0.000    0.000    0.000    0.000    0.000    0.000 
#
# Total GULP energy -311980.213677 kJ/mol
# GULP energy per Si atom -5571.075244 kJ/mol
# Density = 1.796677 g / cm^3
# Si number density = 18.007758 Si / 1000 Ang^3
#
#
#
# Elastic Constant Matrix: (Units=GPa)
#
#
# Indices 1 2 3 4 5 6 
#
# 1 183.2197 10.5570 45.8023 0.0000 0.0000 0.0000
# 2 10.5570 15.5309 2.6376 0.0000 0.0000 0.0000
# 3 45.8023 2.6376 45.3258 0.0000 0.0000 0.0000
# 4 0.0000 0.0000 0.0000 18.5019 0.0000 0.0000
# 5 0.0000 0.0000 0.0000 0.0000 16.4516 0.0000
# 6 0.0000 0.0000 0.0000 0.0000 0.0000 30.2117
#
#
#
# Elastic Compliance Matrix: (Units=1/GPa)
#
#
# Indices 1 2 3 4 5 6 
#
# 1 0.007525 -0.003862 -0.007380 0.000000 0.000000 0.000000
# 2 -0.003862 0.067012 0.000003 0.000000 0.000000 0.000000
# 3 -0.007380 0.000003 0.029520 0.000000 0.000000 0.000000
# 4 0.000000 0.000000 0.000000 0.054048 0.000000 0.000000
# 5 0.000000 0.000000 0.000000 0.000000 0.060784 0.000000
# 6 0.000000 0.000000 0.000000 0.000000 0.000000 0.033100
#
#
# Mechanical properties :
#
#
# Convention : Reuss Voigt Hill
#
# Bulk Modulus (GPa) = 12.25792 40.23003 26.24397
# Shear Modulus (GPa) = 16.57494 25.37169 20.97331
#
# Velocity S-wave (km/s) = 3.03716 3.75764 3.41645
# Velocity P-wave (km/s) = 4.37274 6.41992 5.49255
#
# Compressibility (1/GPa) = 0.08157991
#
# Stress axis : x y z
#
# Youngs Moduli (GPa) = 132.88599 14.92261 33.87590
#
# Poissons Ratio (x) = 0.05763 0.24999
# Poissons Ratio (y) = 0.51320 -0.00010
# Poissons Ratio (z) = 0.98065 -0.00004
#
# Static dielectric constant tensor:
#      x y z
#    x 1.658970 0.000000 0.000000 
#    y 0.000000 1.613360 0.000000 
#    z 0.000000 0.000000 1.587110 
# 
# From -- ./inp_files/27559.got.cif
#   From: 2010.05.17/outbox.cif.g08.bks.cpg/sg62_14_cif.got.tgz:27559.got - 2010.06.03 15:25:27.
