data_PCOD9462610
_publ_section_title
;
Structure prediction by ZEFSAII (Michael W. Deem and Ramdas Pophale) SiO2 
 PCOD9462610
Probable space group: P N M A
;
_chemical_formula_sum "Si O2"
_cell_formula_units_Z 56
_cell_length_a 18.138477
_cell_length_b 7.607576
_cell_length_c 20.202507
_cell_angle_alpha 90.000000
_cell_angle_beta 90.000000
_cell_angle_gamma 90.000000
_cell_volume 2787.740755
_symmetry_space_group_name_H-M "P N M A"
_symmetry_group_IT_number 62
_symmetry_cell_setting 'orthorhombic'
loop_
_space_group_symop_operation_xyz
x,y,z
1/2-x,-y,1/2+z
1/2+x,1/2-y,1/2-z
-x,1/2+y,-z
-x,-y,-z
1/2+x,y,1/2-z
1/2-x,1/2+y,1/2+z
x,1/2-y,z
loop_
_atom_site_type_symbol
_atom_site_label
_atom_site_fract_x
_atom_site_fract_y
_atom_site_fract_z
Si Si1 0.193231 0.960418 0.964018
Si Si2 0.285244 0.464263 0.614176
Si Si3 0.120603 0.464876 0.593255
Si Si4 0.572837 0.533608 0.310389
Si Si5 0.476230 0.043126 0.832877
Si Si6 0.468209 0.543614 0.427645
Si Si7 0.856356 0.962634 0.557708
O O1 0.198064 0.750000 0.967251
O O2 0.271302 0.022327 0.934794
O O3 0.118329 0.002047 0.926380
O O4 0.189175 0.021309 0.040557
O O5 0.285439 0.250000 0.613984
O O6 0.200331 0.518887 0.621607
O O7 0.345015 0.521054 0.667766
O O8 0.119533 0.250000 0.592991
O O9 0.117963 0.517729 0.515976
O O10 0.051015 0.529981 0.634700
O O11 0.573210 0.750000 0.309517
O O12 0.547850 0.471562 0.238294
O O13 0.516880 0.470343 0.367619
O O14 0.490273 0.250000 0.822677
O O15 0.410778 0.025350 0.885718
O O16 0.500000 0.500000 0.500000
O O17 0.475801 0.750000 0.421293
O O18 0.857296 0.750000 0.558938
#
# Coordination Sequence:
#
# PCOD9462610 Si02
#       7
#     8   8   8   8   8   8   8
#     4   9  17  32  53  74  97 128 170 208 246 301
#     4   8  13  27  49  69  92 128 166 197 239 296
#     4   8  15  28  50  74  95 127 170 205 240 294
#     4   9  18  31  47  71 103 134 164 202 249 303
#     4  10  19  32  49  76 104 127 166 214 252 289
#     4  11  20  32  52  76 102 132 170 213 257 302
#     4   9  18  33  53  74  98 135 170 202 251 308
#
# _framework density 20.087952000000001
#
# number of rings (size 3 to 8) (size 9 to 14) (size 15 to 20)
#    0.000    2.857    1.429    2.571    0.000    0.571 
#    2.571    1.429    0.000    0.857    0.000    0.000 
#    0.000    0.000    0.000    0.000    0.000    0.000 
#
# Total GULP energy -312346.338977 kJ/mol
# GULP energy per Si atom -5577.613196 kJ/mol
# Density = 2.004223 g / cm^3
# Si number density = 20.087952 Si / 1000 Ang^3
#
#
#
# Elastic Constant Matrix: (Units=GPa)
#
#
# Indices 1 2 3 4 5 6 
#
# 1 180.3852 -3.6977 121.2650 0.0000 0.0000 0.0000
# 2 -3.6977 35.4986 -0.3563 0.0000 0.0000 0.0000
# 3 121.2650 -0.3563 147.5904 0.0000 0.0000 0.0000
# 4 0.0000 0.0000 0.0000 7.8838 0.0000 0.0000
# 5 0.0000 0.0000 0.0000 0.0000 19.4431 0.0000
# 6 0.0000 0.0000 0.0000 0.0000 0.0000 17.9302
#
#
#
# Elastic Compliance Matrix: (Units=1/GPa)
#
#
# Indices 1 2 3 4 5 6 
#
# 1 0.012434 0.001193 -0.010213 0.000000 0.000000 0.000000
# 2 0.001193 0.028285 -0.000912 0.000000 0.000000 0.000000
# 3 -0.010213 -0.000912 0.015165 0.000000 0.000000 0.000000
# 4 0.000000 0.000000 0.000000 0.126842 0.000000 0.000000
# 5 0.000000 0.000000 0.000000 0.000000 0.051432 0.000000
# 6 0.000000 0.000000 0.000000 0.000000 0.000000 0.055772
#
#
# Mechanical properties :
#
#
# Convention : Reuss Voigt Hill
#
# Bulk Modulus (GPa) = 27.76272 66.43291 47.09782
# Shear Modulus (GPa) = 15.53752 25.46898 20.50325
#
# Velocity S-wave (km/s) = 2.78416 3.56458 3.19826
# Velocity P-wave (km/s) = 4.91792 7.07704 6.09387
#
# Compressibility (1/GPa) = 0.03601952
#
# Stress axis : x y z
#
# Youngs Moduli (GPa) = 80.42344 35.35420 65.94131
#
# Poissons Ratio (x) = -0.04217 0.67349
# Poissons Ratio (y) = -0.09592 0.06012
# Poissons Ratio (z) = 0.82140 0.03223
#
# Static dielectric constant tensor:
#      x y z
#    x 1.713270 0.000000 0.000000 
#    y 0.000000 1.772880 0.000000 
#    z 0.000000 0.000000 1.682450 
# 
# From -- ./inp_files/27569.got.cif
#   From: 2010.05.17/outbox.cif.g08.bks.cpg/sg62_14_cif.got.tgz:27569.got - 2010.06.03 15:25:27.
