data_PCOD9462556
_publ_section_title
;
Structure prediction by ZEFSAII (Michael W. Deem and Ramdas Pophale) SiO2 
 PCOD9462556
Probable space group: P N M A
;
_chemical_formula_sum "Si O2"
_cell_formula_units_Z 64
_cell_length_a 19.855364
_cell_length_b 8.872077
_cell_length_c 19.402265
_cell_angle_alpha 90.000000
_cell_angle_beta 90.000000
_cell_angle_gamma 90.000000
_cell_volume 3417.870373
_symmetry_space_group_name_H-M "P N M A"
_symmetry_group_IT_number 62
_symmetry_cell_setting 'orthorhombic'
loop_
_space_group_symop_operation_xyz
x,y,z
1/2-x,-y,1/2+z
1/2+x,1/2-y,1/2-z
-x,1/2+y,-z
-x,-y,-z
1/2+x,y,1/2-z
1/2-x,1/2+y,1/2+z
x,1/2-y,z
loop_
_atom_site_type_symbol
_atom_site_label
_atom_site_fract_x
_atom_site_fract_y
_atom_site_fract_z
Si Si1 0.884938 0.928763 0.975025
Si Si2 0.902539 0.926380 0.452138
Si Si3 0.542460 0.568925 0.348471
Si Si4 0.032215 0.426018 0.395098
Si Si5 0.733149 0.930815 0.995405
Si Si6 0.247114 0.570456 0.852791
Si Si7 0.605850 0.430910 0.637559
Si Si8 0.872144 0.430380 0.717919
O O1 0.893185 0.750000 0.965675
O O2 0.806168 0.966922 0.963287
O O3 0.932994 0.012232 0.922313
O O4 0.898442 0.961608 0.055322
O O5 0.898622 0.750000 0.434470
O O6 0.931518 0.937837 0.530299
O O7 0.829389 0.001666 0.454079
O O8 0.957137 0.010147 0.404939
O O9 0.541046 0.750000 0.349811
O O10 0.465946 0.521058 0.332033
O O11 0.595077 0.521322 0.290147
O O12 0.031678 0.250000 0.375833
O O13 0.075184 0.521096 0.341112
O O14 0.727370 0.750000 0.001034
O O15 0.734261 0.999450 0.072547
O O16 0.250116 0.750000 0.857902
O O17 0.171915 0.514638 0.835755
O O18 0.301957 0.509672 0.799362
O O19 0.615060 0.250000 0.645637
O O20 0.863626 0.250000 0.717208
#
# Coordination Sequence:
#
# PCOD9462556 Si02
#       8
#     8   8   8   8   8   8   8   8
#     4   9  19  34  56  84 112 143 178 226 285 328
#     4  10  19  31  51  80 111 143 184 229 276 323
#     4  10  22  38  58  83 111 147 186 225 276 334
#     4  10  20  33  51  77 108 144 185 228 275 325
#     4  10  19  33  54  81 113 146 180 225 277 327
#     4  11  21  34  55  84 109 140 183 225 271 325
#     4   9  19  38  60  84 112 141 181 230 277 327
#     4  11  22  37  56  79 111 150 188 227 273 328
#
# _framework density 18.725111999999999
#
# number of rings (size 3 to 8) (size 9 to 14) (size 15 to 20)
#    0.000    2.000    1.250    3.750    0.000    5.000 
#    0.000    1.250    0.000    1.500    0.000    0.000 
#    0.000    0.000    0.000    0.000    0.000    0.000 
#
# Total GULP energy -357381.746151 kJ/mol
# GULP energy per Si atom -5584.089784 kJ/mol
# Density = 1.868249 g / cm^3
# Si number density = 18.725112 Si / 1000 Ang^3
#
#
#
# Elastic Constant Matrix: (Units=GPa)
#
#
# Indices 1 2 3 4 5 6 
#
# 1 142.5206 38.4132 23.6654 0.0000 0.0000 0.0000
# 2 38.4132 53.4090 10.1678 0.0000 0.0000 0.0000
# 3 23.6654 10.1678 19.4004 0.0000 0.0000 0.0000
# 4 0.0000 0.0000 0.0000 15.3216 0.0000 0.0000
# 5 0.0000 0.0000 0.0000 0.0000 22.9731 0.0000
# 6 0.0000 0.0000 0.0000 0.0000 0.0000 33.0322
#
#
#
# Elastic Compliance Matrix: (Units=1/GPa)
#
#
# Indices 1 2 3 4 5 6 
#
# 1 0.010042 -0.005432 -0.009402 0.000000 0.000000 0.000000
# 2 -0.005432 0.023737 -0.005814 0.000000 0.000000 0.000000
# 3 -0.009402 -0.005814 0.066062 0.000000 0.000000 0.000000
# 4 0.000000 0.000000 0.000000 0.065267 0.000000 0.000000
# 5 0.000000 0.000000 0.000000 0.000000 0.043529 0.000000
# 6 0.000000 0.000000 0.000000 0.000000 0.000000 0.030274
#
#
# Mechanical properties :
#
#
# Convention : Reuss Voigt Hill
#
# Bulk Modulus (GPa) = 17.08135 39.98029 28.53082
# Shear Modulus (GPa) = 16.68203 23.80429 20.24316
#
# Velocity S-wave (km/s) = 2.98802 3.56933 3.29153
# Velocity P-wave (km/s) = 4.58762 6.19551 5.45117
#
# Compressibility (1/GPa) = 0.05854337
#
# Stress axis : x y z
#
# Youngs Moduli (GPa) = 99.58178 42.12752 15.13731
#
# Poissons Ratio (x) = 0.22886 0.14233
# Poissons Ratio (y) = 0.54097 0.08801
# Poissons Ratio (z) = 0.93631 0.24493
#
# Static dielectric constant tensor:
#      x y z
#    x 1.661690 0.000000 0.000000 
#    y 0.000000 1.623180 0.000000 
#    z 0.000000 0.000000 1.628060 
# 
# From -- ./inp_files/27653.got.cif
#   From: 2010.05.17/outbox.cif.g08.bks.cpg/sg62_14_cif.got.tgz:27653.got - 2010.06.03 15:25:27.
