data_PCOD9462353
_publ_section_title
;
Structure prediction by ZEFSAII (Michael W. Deem and Ramdas Pophale) SiO2 
 PCOD9462353
Probable space group: P N M A
;
_chemical_formula_sum "Si O2"
_cell_formula_units_Z 64
_cell_length_a 20.439131
_cell_length_b 7.476609
_cell_length_c 21.002113
_cell_angle_alpha 90.000000
_cell_angle_beta 90.000000
_cell_angle_gamma 90.000000
_cell_volume 3209.446105
_symmetry_space_group_name_H-M "P N M A"
_symmetry_group_IT_number 62
_symmetry_cell_setting 'orthorhombic'
loop_
_space_group_symop_operation_xyz
x,y,z
1/2-x,-y,1/2+z
1/2+x,1/2-y,1/2-z
-x,1/2+y,-z
-x,-y,-z
1/2+x,y,1/2-z
1/2-x,1/2+y,1/2+z
x,1/2-y,z
loop_
_atom_site_type_symbol
_atom_site_label
_atom_site_fract_x
_atom_site_fract_y
_atom_site_fract_z
Si Si1 0.066172 0.955626 0.086154
Si Si2 0.580043 0.962805 0.553936
Si Si3 0.068950 0.468631 0.727270
Si Si4 0.424297 0.468908 0.726363
Si Si5 0.090056 0.963200 0.448315
Si Si6 0.827072 0.535533 0.168727
Si Si7 0.321338 0.468999 0.833843
Si Si8 0.944378 0.535750 0.414416
O O1 0.088608 0.750000 0.086676
O O2 0.086239 0.033409 0.154127
O O3 0.088423 0.032981 0.018199
O O4 0.986934 0.958895 0.082836
O O5 0.568924 0.750000 0.549680
O O6 0.639590 0.997131 0.600931
O O7 0.069637 0.250000 0.728455
O O8 0.124006 0.531469 0.776379
O O9 0.079350 0.526991 0.654401
O O10 0.996335 0.522830 0.749589
O O11 0.424901 0.250000 0.725183
O O12 0.368751 0.523156 0.776102
O O13 0.087351 0.750000 0.439936
O O14 0.145110 0.028392 0.399910
O O15 0.018053 0.033399 0.428437
O O16 0.098233 0.996412 0.523227
O O17 0.824551 0.750000 0.175423
O O18 0.753017 0.468953 0.172920
O O19 0.320284 0.250000 0.833895
O O20 0.948991 0.750000 0.410279
#
# Coordination Sequence:
#
# PCOD9462353 Si02
#       8
#     8   8   8   8   8   8   8   8
#     4   9  17  30  51  74  96 123 160 201 240 281
#     4  10  19  30  46  73 103 128 155 193 243 291
#     4   9  15  26  47  71  93 118 155 202 241 272
#     4   9  14  26  49  73  94 118 155 205 245 272
#     4   9  16  28  45  67  93 119 150 189 231 281
#     4  10  19  32  50  71  94 126 166 200 236 286
#     4   9  17  29  48  72  95 124 162 200 238 285
#     4   9  16  27  46  70  92 116 150 193 238 277
#
# _framework density 19.941134999999999
#
# number of rings (size 3 to 8) (size 9 to 14) (size 15 to 20)
#    0.000    2.750    2.500    0.375    0.000    0.500 
#    0.000    2.500    0.000    4.500    0.000    0.000 
#    0.000    0.000    0.000    0.000    0.000    0.000 
#
# Total GULP energy -356995.627018 kJ/mol
# GULP energy per Si atom -5578.056672 kJ/mol
# Density = 1.989575 g / cm^3
# Si number density = 19.941135 Si / 1000 Ang^3
#
#
#
# Elastic Constant Matrix: (Units=GPa)
#
#
# Indices 1 2 3 4 5 6 
#
# 1 138.6034 1.6745 108.6682 0.0000 0.0000 0.0000
# 2 1.6745 57.3329 -0.0960 0.0000 0.0000 0.0000
# 3 108.6682 -0.0960 210.7374 0.0000 0.0000 0.0000
# 4 0.0000 0.0000 0.0000 14.0086 0.0000 0.0000
# 5 0.0000 0.0000 0.0000 0.0000 26.4586 0.0000
# 6 0.0000 0.0000 0.0000 0.0000 0.0000 4.2258
#
#
#
# Elastic Compliance Matrix: (Units=1/GPa)
#
#
# Indices 1 2 3 4 5 6 
#
# 1 0.012119 -0.000364 -0.006249 0.000000 0.000000 0.000000
# 2 -0.000364 0.017453 0.000196 0.000000 0.000000 0.000000
# 3 -0.006249 0.000196 0.007968 0.000000 0.000000 0.000000
# 4 0.000000 0.000000 0.000000 0.071385 0.000000 0.000000
# 5 0.000000 0.000000 0.000000 0.000000 0.037795 0.000000
# 6 0.000000 0.000000 0.000000 0.000000 0.000000 0.236640
#
#
# Mechanical properties :
#
#
# Convention : Reuss Voigt Hill
#
# Bulk Modulus (GPa) = 40.47948 69.68524 55.08236
# Shear Modulus (GPa) = 12.36307 28.70040 20.53174
#
# Velocity S-wave (km/s) = 2.49264 3.79787 3.21225
# Velocity P-wave (km/s) = 5.35050 7.36567 6.43743
#
# Compressibility (1/GPa) = 0.02470388
#
# Stress axis : x y z
#
# Youngs Moduli (GPa) = 82.51604 57.29688 125.50441
#
# Poissons Ratio (x) = 0.02088 0.78432
# Poissons Ratio (y) = 0.03007 -0.02458
# Poissons Ratio (z) = 0.51567 -0.01122
#
# Static dielectric constant tensor:
#      x y z
#    x 1.656670 0.000000 0.000000 
#    y 0.000000 1.772970 0.000000 
#    z 0.000000 0.000000 1.723050 
# 
# From -- ./inp_files/27951.got.cif
#   From: 2010.05.17/outbox.cif.g08.bks.cpg/sg62_14_cif.got.tgz:27951.got - 2010.06.03 15:25:27.
