data_PCOD9462794
_publ_section_title
;
Structure prediction by ZEFSAII (Michael W. Deem and Ramdas Pophale) SiO2 
 PCOD9462794
Probable space group: P N M A
;
_chemical_formula_sum "Si O2"
_cell_formula_units_Z 64
_cell_length_a 11.775033
_cell_length_b 8.940703
_cell_length_c 33.656681
_cell_angle_alpha 90.000000
_cell_angle_beta 90.000000
_cell_angle_gamma 90.000000
_cell_volume 3543.276858
_symmetry_space_group_name_H-M "P N M A"
_symmetry_group_IT_number 62
_symmetry_cell_setting 'orthorhombic'
loop_
_space_group_symop_operation_xyz
x,y,z
1/2-x,-y,1/2+z
1/2+x,1/2-y,1/2-z
-x,1/2+y,-z
-x,-y,-z
1/2+x,y,1/2-z
1/2-x,1/2+y,1/2+z
x,1/2-y,z
loop_
_atom_site_type_symbol
_atom_site_label
_atom_site_fract_x
_atom_site_fract_y
_atom_site_fract_z
Si Si1 0.791946 0.930204 0.864812
Si Si2 0.821680 0.428419 0.590034
Si Si3 0.585590 0.070209 0.446136
Si Si4 0.096817 0.071660 0.285016
Si Si5 0.333414 0.428727 0.473931
Si Si6 0.470852 0.429269 0.133085
Si Si7 0.195853 0.429281 0.828342
Si Si8 0.946022 0.071167 0.799510
O O1 0.797282 0.750000 0.860526
O O2 0.865403 0.973324 0.903437
O O3 0.660467 0.971285 0.870974
O O4 0.845459 0.004611 0.826090
O O5 0.824828 0.250000 0.586058
O O6 0.768854 0.501828 0.551026
O O7 0.944426 0.490335 0.602670
O O8 0.739066 0.466772 0.627382
O O9 0.595570 0.250000 0.450020
O O10 0.453061 0.031273 0.452237
O O11 0.654134 0.993753 0.481888
O O12 0.099189 0.250000 0.280002
O O13 0.015085 0.035777 0.322381
O O14 0.220198 0.011849 0.298049
O O15 0.058158 0.994605 0.244626
O O16 0.324379 0.250000 0.475034
O O17 0.481310 0.250000 0.127769
O O18 0.208468 0.250000 0.823335
O O19 0.065916 0.469294 0.820104
O O20 0.937655 0.250000 0.798012
#
# Coordination Sequence:
#
# PCOD9462794 Si02
#       8
#     8   8   8   8   8   8   8   8
#     4  10  21  38  58  81 110 144 183 224 275 332
#     4  10  19  34  57  81 107 142 184 225 271 325
#     4   9  19  35  55  82 114 146 180 225 276 328
#     4  10  21  36  55  78 105 139 181 225 270 320
#     4  10  19  32  55  84 114 145 181 225 275 327
#     4   9  20  38  57  78 107 142 181 227 274 323
#     4   9  20  37  54  77 107 139 177 224 272 321
#     4  11  23  36  54  80 109 141 178 222 273 328
#
# _framework density 18.062374999999999
#
# number of rings (size 3 to 8) (size 9 to 14) (size 15 to 20)
#    0.000    2.250    0.000    2.250    1.750    3.500 
#    0.000    0.625    0.000    0.000    0.000    0.000 
#    0.000    0.000    0.000    0.000    0.000    0.000 
#
# Total GULP energy -357357.971799 kJ/mol
# GULP energy per Si atom -5583.718309 kJ/mol
# Density = 1.802126 g / cm^3
# Si number density = 18.062375 Si / 1000 Ang^3
#
#
#
# Elastic Constant Matrix: (Units=GPa)
#
#
# Indices 1 2 3 4 5 6 
#
# 1 47.5431 10.9929 5.0507 0.0000 0.0000 0.0000
# 2 10.9929 15.5093 12.5095 0.0000 0.0000 0.0000
# 3 5.0507 12.5095 48.3345 0.0000 0.0000 0.0000
# 4 0.0000 0.0000 0.0000 27.4789 0.0000 0.0000
# 5 0.0000 0.0000 0.0000 0.0000 15.4453 0.0000
# 6 0.0000 0.0000 0.0000 0.0000 0.0000 25.3006
#
#
#
# Elastic Compliance Matrix: (Units=1/GPa)
#
#
# Indices 1 2 3 4 5 6 
#
# 1 0.025400 -0.020047 0.002534 0.000000 0.000000 0.000000
# 2 -0.020047 0.097311 -0.023090 0.000000 0.000000 0.000000
# 3 0.002534 -0.023090 0.026400 0.000000 0.000000 0.000000
# 4 0.000000 0.000000 0.000000 0.036392 0.000000 0.000000
# 5 0.000000 0.000000 0.000000 0.000000 0.064745 0.000000
# 6 0.000000 0.000000 0.000000 0.000000 0.000000 0.039525
#
#
# Mechanical properties :
#
#
# Convention : Reuss Voigt Hill
#
# Bulk Modulus (GPa) = 14.72654 18.72145 16.72399
# Shear Modulus (GPa) = 12.70281 19.16720 15.93500
#
# Velocity S-wave (km/s) = 2.65481 3.26109 2.97344
# Velocity P-wave (km/s) = 4.19144 4.95651 4.58995
#
# Compressibility (1/GPa) = 0.06790463
#
# Stress axis : x y z
#
# Youngs Moduli (GPa) = 39.37069 10.27631 37.87818
#
# Poissons Ratio (x) = 0.20601 -0.09599
# Poissons Ratio (y) = 0.78927 0.87462
# Poissons Ratio (z) = -0.09978 0.23728
#
# Static dielectric constant tensor:
#      x y z
#    x 1.605060 0.000000 0.000000 
#    y 0.000000 1.595570 0.000000 
#    z 0.000000 0.000000 1.595060 
# 
# From -- ./inp_files/32485.got.cif
#   From: 2010.05.17/outbox.cif.g08.bks.cpg/sg62_17_cif.got.tgz:32485.got - 2010.06.03 15:25:27.
