data_PCOD9462060
_publ_section_title
;
Structure prediction by ZEFSAII (Michael W. Deem and Ramdas Pophale) SiO2 
 PCOD9462060
Probable space group: P N M A
;
_chemical_formula_sum "Si O2"
_cell_formula_units_Z 64
_cell_length_a 14.565725
_cell_length_b 17.358850
_cell_length_c 12.443975
_cell_angle_alpha 90.000000
_cell_angle_beta 90.000000
_cell_angle_gamma 90.000000
_cell_volume 3146.387344
_symmetry_space_group_name_H-M "P N M A"
_symmetry_group_IT_number 62
_symmetry_cell_setting 'orthorhombic'
loop_
_space_group_symop_operation_xyz
x,y,z
1/2-x,-y,1/2+z
1/2+x,1/2-y,1/2-z
-x,1/2+y,-z
-x,-y,-z
1/2+x,y,1/2-z
1/2-x,1/2+y,1/2+z
x,1/2-y,z
loop_
_atom_site_type_symbol
_atom_site_label
_atom_site_fract_x
_atom_site_fract_y
_atom_site_fract_z
Si Si1 0.570290 0.373934 0.144076
Si Si2 0.639178 0.904244 0.895494
Si Si3 0.463320 0.920425 0.445501
Si Si4 0.804745 0.834094 0.448242
Si Si5 0.389403 0.444232 0.860196
Si Si6 0.655372 0.569166 0.368023
Si Si7 0.344018 0.617866 0.632175
Si Si8 0.097649 0.431806 0.712373
O O1 0.459784 0.368060 0.136095
O O2 0.601619 0.463305 0.133661
O O3 0.607398 0.350762 0.261016
O O4 0.622419 0.336189 0.044357
O O5 0.735632 0.863544 0.867743
O O6 0.636219 0.989005 0.839547
O O7 0.638618 0.914392 0.023999
O O8 0.559625 0.890407 0.399061
O O9 0.406431 0.867435 0.527144
O O10 0.403273 0.939027 0.340352
O O11 0.500000 0.000000 0.500000
O O12 0.762546 0.750000 0.442575
O O13 0.727387 0.899428 0.453872
O O14 0.852610 0.858344 0.337169
O O15 0.328511 0.416707 0.759364
O O16 0.493773 0.423224 0.830393
O O17 0.652121 0.476317 0.369540
#
# Coordination Sequence:
#
# PCOD9462060 Si02
#       8
#     8   8   8   8   8   8   8   8
#     4  10  20  35  52  83 117 148 195 236 298 351
#     4  11  17  30  56  87 118 142 176 253 308 343
#     4   9  19  34  54  86 125 145 179 242 315 359
#     4  12  23  37  56  82 120 165 202 234 280 367
#     4   9  16  31  56  80 116 143 178 253 304 332
#     4   9  19  34  52  85 118 149 190 238 297 360
#     4  10  20  31  57  90 112 149 182 253 313 348
#     4  10  18  33  53  84 121 149 190 238 294 356
#
# _framework density 20.340789999999998
#
# number of rings (size 3 to 8) (size 9 to 14) (size 15 to 20)
#    0.000    2.000    3.750    3.000    1.750    3.000 
#    0.000    2.500    0.000    3.750    0.000    0.000 
#    0.000    0.000    0.000    0.000    0.000    0.000 
#
# Total GULP energy -356393.513947 kJ/mol
# GULP energy per Si atom -5568.648655 kJ/mol
# Density = 2.029449 g / cm^3
# Si number density = 20.340790 Si / 1000 Ang^3
#
#
#
# Elastic Constant Matrix: (Units=GPa)
#
#
# Indices 1 2 3 4 5 6 
#
# 1 100.3665 6.9688 50.4587 0.0000 0.0000 0.0000
# 2 6.9688 20.3598 1.3220 0.0000 0.0000 0.0000
# 3 50.4587 1.3220 134.4437 0.0000 0.0000 0.0000
# 4 0.0000 0.0000 0.0000 -5.3801 0.0000 0.0000
# 5 0.0000 0.0000 0.0000 0.0000 25.7696 0.0000
# 6 0.0000 0.0000 0.0000 0.0000 0.0000 0.2478
#
#
#
# Elastic Compliance Matrix: (Units=1/GPa)
#
#
# Indices 1 2 3 4 5 6 
#
# 1 0.012599 -0.004008 -0.004689 0.000000 0.000000 0.000000
# 2 -0.004008 0.050423 0.001008 0.000000 0.000000 0.000000
# 3 -0.004689 0.001008 0.009188 0.000000 0.000000 0.000000
# 4 0.000000 0.000000 0.000000 -0.185868 0.000000 0.000000
# 5 0.000000 0.000000 0.000000 0.000000 0.038805 0.000000
# 6 0.000000 0.000000 0.000000 0.000000 0.000000 4.034956
#
#
# Mechanical properties :
#
#
# Convention : Reuss Voigt Hill
#
# Bulk Modulus (GPa) = 17.59556 41.40766 29.50161
# Shear Modulus (GPa) = 1.25174 17.22215 9.23695
#
# Velocity S-wave (km/s) = 0.78532 2.91293 2.13330
# Velocity P-wave (km/s) = 3.08082 5.63158 4.53906
#
# Compressibility (1/GPa) = 0.05683252
#
# Stress axis : x y z
#
# Youngs Moduli (GPa) = 79.36954 19.83229 108.83641
#
# Poissons Ratio (x) = 0.07949 0.51037
# Poissons Ratio (y) = 0.31811 -0.10976
# Poissons Ratio (z) = 0.37219 -0.02000
#
# Static dielectric constant tensor:
#      x y z
#    x 1.812100 0.000000 0.000000 
#    y 0.000000 1.672560 0.000000 
#    z 0.000000 0.000000 1.595440 
# 
# From -- ./inp_files/13618.got.cif
#   From: 2010.05.17/outbox.cif.g08.bks.cpg/sg62_7_cif.got.tgz:13618.got - 2010.06.03 15:25:27.
