data_PCOD9462906
_publ_section_title
;
Structure prediction by ZEFSAII (Michael W. Deem and Ramdas Pophale) SiO2 
 PCOD9462906
Probable space group: P N M A
;
_chemical_formula_sum "Si O2"
_cell_formula_units_Z 48
_cell_length_a 9.518840
_cell_length_b 8.868840
_cell_length_c 32.599647
_cell_angle_alpha 90.000000
_cell_angle_beta 90.000000
_cell_angle_gamma 90.000000
_cell_volume 2752.097047
_symmetry_space_group_name_H-M "P N M A"
_symmetry_group_IT_number 62
_symmetry_cell_setting 'orthorhombic'
loop_
_space_group_symop_operation_xyz
x,y,z
1/2-x,-y,1/2+z
1/2+x,1/2-y,1/2-z
-x,1/2+y,-z
-x,-y,-z
1/2+x,y,1/2-z
1/2-x,1/2+y,1/2+z
x,1/2-y,z
loop_
_atom_site_type_symbol
_atom_site_label
_atom_site_fract_x
_atom_site_fract_y
_atom_site_fract_z
Si Si1 0.087465 0.070222 0.963397
Si Si2 0.918860 0.928522 0.622270
Si Si3 0.600125 0.429700 0.716572
Si Si4 0.582254 0.930069 0.037942
Si Si5 0.911232 0.569223 0.712963
Si Si6 0.889263 0.930521 0.125806
O O1 0.080385 0.250000 0.967558
O O2 0.252396 0.027082 0.965210
O O3 0.035500 0.032188 0.917105
O O4 0.000000 0.000000 0.000000
O O5 0.931318 0.750000 0.616262
O O6 0.974305 0.967736 0.667735
O O7 0.974141 0.011569 0.581846
O O8 0.755584 0.977377 0.625126
O O9 0.597610 0.250000 0.723484
O O10 0.760346 0.488527 0.717185
O O11 0.510790 0.513444 0.750871
O O12 0.543368 0.458620 0.670148
O O13 0.573707 0.750000 0.036985
O O14 0.500000 0.000000 0.000000
O O15 0.891538 0.750000 0.714364
O O16 0.855784 0.750000 0.124288
#
# Coordination Sequence:
#
# PCOD9462906 Si02
#       6
#     8   8   8   8   8   8
#     4   9  18  32  50  73  99 126 159 199 242 288
#     4   9  17  30  50  73  97 129 166 201 244 299
#     4  10  19  33  54  76  99 132 172 209 248 300
#     4  10  20  34  52  74 100 130 166 207 247 291
#     4  10  20  34  52  76 105 133 164 208 258 303
#     4   8  16  31  49  70  97 128 164 204 242 289
#
# _framework density 17.441246
#
# number of rings (size 3 to 8) (size 9 to 14) (size 15 to 20)
#    0.000    2.667    0.000    3.000    0.000    6.000 
#    0.000    1.667    0.000    4.000    0.000    0.000 
#    0.000    0.000    0.000    0.000    0.000    0.000 
#
# Total GULP energy -267316.374688 kJ/mol
# GULP energy per Si atom -5569.091139 kJ/mol
# Density = 1.740155 g / cm^3
# Si number density = 17.441246 Si / 1000 Ang^3
#
#
#
# Elastic Constant Matrix: (Units=GPa)
#
#
# Indices 1 2 3 4 5 6 
#
# 1 30.4973 16.7514 50.5176 0.0000 0.0000 0.0000
# 2 16.7514 40.8794 53.3049 0.0000 0.0000 0.0000
# 3 50.5176 53.3049 190.1784 0.0000 0.0000 0.0000
# 4 0.0000 0.0000 0.0000 34.3256 0.0000 0.0000
# 5 0.0000 0.0000 0.0000 0.0000 32.9212 0.0000
# 6 0.0000 0.0000 0.0000 0.0000 0.0000 25.9654
#
#
#
# Elastic Compliance Matrix: (Units=1/GPa)
#
#
# Indices 1 2 3 4 5 6 
#
# 1 0.059456 -0.005941 -0.014128 0.000000 0.000000 0.000000
# 2 -0.005941 0.039146 -0.009394 0.000000 0.000000 0.000000
# 3 -0.014128 -0.009394 0.011644 0.000000 0.000000 0.000000
# 4 0.000000 0.000000 0.000000 0.029133 0.000000 0.000000
# 5 0.000000 0.000000 0.000000 0.000000 0.030376 0.000000
# 6 0.000000 0.000000 0.000000 0.000000 0.000000 0.038513
#
#
# Mechanical properties :
#
#
# Convention : Reuss Voigt Hill
#
# Bulk Modulus (GPa) = 19.48572 55.85587 37.67079
# Shear Modulus (GPa) = 17.58699 28.04118 22.81408
#
# Velocity S-wave (km/s) = 3.17891 4.01403 3.62063
# Velocity P-wave (km/s) = 4.96693 7.31969 6.25493
#
# Compressibility (1/GPa) = 0.05131965
#
# Stress axis : x y z
#
# Youngs Moduli (GPa) = 16.81916 25.54525 85.87956
#
# Poissons Ratio (x) = 0.15177 1.21333
# Poissons Ratio (y) = 0.09992 0.80676
# Poissons Ratio (z) = 0.23763 0.23998
#
# Static dielectric constant tensor:
#      x y z
#    x 1.566640 0.000000 0.000000 
#    y 0.000000 1.581390 0.000000 
#    z 0.000000 0.000000 1.644460 
# 
# From -- ./inp_files/31943.got.cif
#   From: 2010.05.17/outbox.cif.g08.bks.cpg/sg62_16_cif.got.tgz:31943.got - 2010.06.03 15:25:27.
