data_PCOD9462578
_publ_section_title
;
Structure prediction by ZEFSAII (Michael W. Deem and Ramdas Pophale) SiO2 
 PCOD9462578
Probable space group: P N M A
;
_chemical_formula_sum "Si O2"
_cell_formula_units_Z 56
_cell_length_a 9.381308
_cell_length_b 24.006945
_cell_length_c 12.686921
_cell_angle_alpha 90.000000
_cell_angle_beta 90.000000
_cell_angle_gamma 90.000000
_cell_volume 2857.304517
_symmetry_space_group_name_H-M "P N M A"
_symmetry_group_IT_number 62
_symmetry_cell_setting 'orthorhombic'
loop_
_space_group_symop_operation_xyz
x,y,z
1/2-x,-y,1/2+z
1/2+x,1/2-y,1/2-z
-x,1/2+y,-z
-x,-y,-z
1/2+x,y,1/2-z
1/2-x,1/2+y,1/2+z
x,1/2-y,z
loop_
_atom_site_type_symbol
_atom_site_label
_atom_site_fract_x
_atom_site_fract_y
_atom_site_fract_z
Si Si1 0.015584 0.596414 0.557397
Si Si2 0.239121 0.923875 0.078634
Si Si3 0.807226 0.957558 0.972230
Si Si4 0.719170 0.021796 0.702973
Si Si5 0.556118 0.686113 0.116592
Si Si6 0.035819 0.058202 0.230491
Si Si7 0.779367 0.314438 0.830279
O O1 0.139186 0.549987 0.553347
O O2 0.070658 0.646739 0.484551
O O3 0.869043 0.579278 0.501988
O O4 0.982462 0.604971 0.680567
O O5 0.296710 0.939806 0.194905
O O6 0.167222 0.863652 0.092275
O O7 0.149146 0.977631 0.044783
O O8 0.888945 0.925670 0.879209
O O9 0.813834 0.945717 0.095734
O O10 0.614508 0.969313 0.705684
O O11 0.873337 0.992384 0.715028
O O12 0.581117 0.750000 0.086401
O O13 0.660010 0.672963 0.214126
O O14 0.392609 0.682214 0.158923
O O15 0.819768 0.250000 0.854726
#
# Coordination Sequence:
#
# PCOD9462578 Si02
#       7
#     8   8   8   8   8   8   8
#     4  11  19  36  56  77 112 147 181 221 281 334
#     4  10  19  31  53  78 107 148 177 218 275 337
#     4  11  21  33  52  78 109 146 188 222 272 324
#     4  11  21  34  51  77 110 143 186 220 270 327
#     4   9  19  35  60  83 108 144 186 228 279 331
#     4  11  21  35  52  75 108 144 182 225 265 327
#     4   9  18  33  51  80 109 139 178 225 271 322
#
# _framework density 19.598890000000001
#
# number of rings (size 3 to 8) (size 9 to 14) (size 15 to 20)
#    0.000    1.714    4.286    2.571    0.000    3.429 
#    0.000    1.429    0.000    0.857    0.000    1.000 
#    0.000    0.000    0.000    0.000    0.000    0.000 
#
# Total GULP energy -312220.055856 kJ/mol
# GULP energy per Si atom -5575.358140 kJ/mol
# Density = 1.955428 g / cm^3
# Si number density = 19.598890 Si / 1000 Ang^3
#
#
#
# Elastic Constant Matrix: (Units=GPa)
#
#
# Indices 1 2 3 4 5 6 
#
# 1 29.2318 4.2937 10.0557 0.0000 0.0000 0.0000
# 2 4.2937 64.7349 14.3999 0.0000 0.0000 0.0000
# 3 10.0557 14.3999 124.9320 0.0000 0.0000 0.0000
# 4 0.0000 0.0000 0.0000 29.4250 0.0000 0.0000
# 5 0.0000 0.0000 0.0000 0.0000 31.6149 0.0000
# 6 0.0000 0.0000 0.0000 0.0000 0.0000 16.6686
#
#
#
# Elastic Compliance Matrix: (Units=1/GPa)
#
#
# Indices 1 2 3 4 5 6 
#
# 1 0.035377 -0.001758 -0.002645 0.000000 0.000000 0.000000
# 2 -0.001758 0.015941 -0.001696 0.000000 0.000000 0.000000
# 3 -0.002645 -0.001696 0.008413 0.000000 0.000000 0.000000
# 4 0.000000 0.000000 0.000000 0.033985 0.000000 0.000000
# 5 0.000000 0.000000 0.000000 0.000000 0.031631 0.000000
# 6 0.000000 0.000000 0.000000 0.000000 0.000000 0.059993
#
#
# Mechanical properties :
#
#
# Convention : Reuss Voigt Hill
#
# Bulk Modulus (GPa) = 21.03772 30.71082 25.87427
# Shear Modulus (GPa) = 23.43210 28.21833 25.82522
#
# Velocity S-wave (km/s) = 3.46147 3.79858 3.63393
# Velocity P-wave (km/s) = 5.17041 5.91123 5.55319
#
# Compressibility (1/GPa) = 0.04753366
#
# Stress axis : x y z
#
# Youngs Moduli (GPa) = 28.26668 62.72942 118.86777
#
# Poissons Ratio (x) = 0.11029 0.31439
# Poissons Ratio (y) = 0.04970 0.20159
# Poissons Ratio (z) = 0.07476 0.10638
#
# Static dielectric constant tensor:
#      x y z
#    x 1.709200 0.000000 0.000000 
#    y 0.000000 1.718980 0.000000 
#    z 0.000000 0.000000 1.726200 
# 
# From -- ./inp_files/12519.got.cif
#   From: 2010.05.17/outbox.cif.g08.bks.cpg/sg62_7_cif.got.tgz:12519.got - 2010.06.03 15:25:27.
