data_PCOD9462773
_publ_section_title
;
Structure prediction by ZEFSAII (Michael W. Deem and Ramdas Pophale) SiO2 
 PCOD9462773
Probable space group: P N M A
;
_chemical_formula_sum "Si O2"
_cell_formula_units_Z 64
_cell_length_a 21.532332
_cell_length_b 8.696062
_cell_length_c 17.173425
_cell_angle_alpha 90.000000
_cell_angle_beta 90.000000
_cell_angle_gamma 90.000000
_cell_volume 3215.663623
_symmetry_space_group_name_H-M "P N M A"
_symmetry_group_IT_number 62
_symmetry_cell_setting 'orthorhombic'
loop_
_space_group_symop_operation_xyz
x,y,z
1/2-x,-y,1/2+z
1/2+x,1/2-y,1/2-z
-x,1/2+y,-z
-x,-y,-z
1/2+x,y,1/2-z
1/2-x,1/2+y,1/2+z
x,1/2-y,z
loop_
_atom_site_type_symbol
_atom_site_label
_atom_site_fract_x
_atom_site_fract_y
_atom_site_fract_z
Si Si1 0.878062 0.567109 0.208526
Si Si2 0.671753 0.932077 0.556036
Si Si3 0.805417 0.432346 0.603315
Si Si4 0.123556 0.934290 0.550557
Si Si5 0.776912 0.930420 0.332787
Si Si6 0.392024 0.935699 0.772682
Si Si7 0.348777 0.930697 0.610767
Si Si8 0.023920 0.565168 0.668668
O O1 0.886109 0.750000 0.205068
O O2 0.872864 0.496726 0.123297
O O3 0.812213 0.537361 0.252088
O O4 0.930845 0.496188 0.263529
O O5 0.674910 0.750000 0.560813
O O6 0.740787 0.998292 0.572837
O O7 0.649099 0.982171 0.470728
O O8 0.796652 0.250000 0.610195
O O9 0.858488 0.464104 0.538239
O O10 0.832250 0.497698 0.683417
O O11 0.133367 0.750000 0.563766
O O12 0.056212 0.973837 0.586069
O O13 0.171898 0.030923 0.601884
O O14 0.759661 0.750000 0.335682
O O15 0.718843 0.035563 0.352685
O O16 0.388317 0.750000 0.776191
O O17 0.393810 0.978684 0.681416
O O18 0.454391 0.990145 0.815804
O O19 0.356207 0.750000 0.595651
O O20 0.022656 0.750000 0.673945
#
# Coordination Sequence:
#
# PCOD9462773 Si02
#       8
#     8   8   8   8   8   8   8   8
#     4  10  21  37  59  87 116 148 190 239 288 342
#     4  12  24  38  59  87 116 149 189 237 292 350
#     4  11  22  36  57  88 123 154 189 235 289 348
#     4   9  18  33  56  83 115 154 188 231 284 334
#     4  10  19  32  54  83 112 145 184 228 281 342
#     4  10  23  40  59  83 115 157 199 242 288 340
#     4  11  22  37  56  80 113 150 188 236 294 343
#     4   9  19  39  61  83 114 155 204 243 281 338
#
# _framework density 19.90258
#
# number of rings (size 3 to 8) (size 9 to 14) (size 15 to 20)
#    0.000    1.750    1.250    3.375    0.000    6.000 
#    0.000    0.625    0.000    0.000    0.000    0.000 
#    0.000    0.000    0.000    0.000    0.000    0.000 
#
# Total GULP energy -357435.298416 kJ/mol
# GULP energy per Si atom -5584.926538 kJ/mol
# Density = 1.985728 g / cm^3
# Si number density = 19.902580 Si / 1000 Ang^3
#
#
#
# Elastic Constant Matrix: (Units=GPa)
#
#
# Indices 1 2 3 4 5 6 
#
# 1 34.0408 -4.1176 -6.6801 0.0000 0.0000 0.0000
# 2 -4.1176 10.6517 15.4234 0.0000 0.0000 0.0000
# 3 -6.6801 15.4234 87.6979 0.0000 0.0000 0.0000
# 4 0.0000 0.0000 0.0000 29.6314 0.0000 0.0000
# 5 0.0000 0.0000 0.0000 0.0000 20.3356 0.0000
# 6 0.0000 0.0000 0.0000 0.0000 0.0000 15.4048
#
#
#
# Elastic Compliance Matrix: (Units=1/GPa)
#
#
# Indices 1 2 3 4 5 6 
#
# 1 0.030825 0.011426 0.000339 0.000000 0.000000 0.000000
# 2 0.011426 0.130192 -0.022027 0.000000 0.000000 0.000000
# 3 0.000339 -0.022027 0.015302 0.000000 0.000000 0.000000
# 4 0.000000 0.000000 0.000000 0.033748 0.000000 0.000000
# 5 0.000000 0.000000 0.000000 0.000000 0.049175 0.000000
# 6 0.000000 0.000000 0.000000 0.000000 0.000000 0.064915
#
#
# Mechanical properties :
#
#
# Convention : Reuss Voigt Hill
#
# Bulk Modulus (GPa) = 6.41870 15.73799 11.07835
# Shear Modulus (GPa) = 12.60674 21.59200 17.09937
#
# Velocity S-wave (km/s) = 2.51952 3.29733 2.93431
# Velocity P-wave (km/s) = 3.41995 4.73510 4.13021
#
# Compressibility (1/GPa) = 0.15579475
#
# Stress axis : x y z
#
# Youngs Moduli (GPa) = 32.44121 7.68097 65.34932
#
# Poissons Ratio (x) = -0.08776 -0.02212
# Poissons Ratio (y) = -0.37066 1.43942
# Poissons Ratio (z) = -0.01098 0.16919
#
# Static dielectric constant tensor:
#      x y z
#    x 1.703680 0.000000 0.000000 
#    y 0.000000 1.661420 0.000000 
#    z 0.000000 0.000000 1.718880 
# 
# From -- ./inp_files/20957.got.cif
#   From: 2010.05.17/outbox.cif.g08.bks.cpg/sg62_11_cif.got.tgz:20957.got - 2010.06.03 15:25:27.
