data_PCOD9462946
_publ_section_title
;
Structure prediction by ZEFSAII (Michael W. Deem and Ramdas Pophale) SiO2 
 PCOD9462946
Probable space group: P N M A
;
_chemical_formula_sum "Si O2"
_cell_formula_units_Z 48
_cell_length_a 11.237676
_cell_length_b 13.012597
_cell_length_c 19.400345
_cell_angle_alpha 90.000000
_cell_angle_beta 90.000000
_cell_angle_gamma 90.000000
_cell_volume 2836.938621
_symmetry_space_group_name_H-M "P N M A"
_symmetry_group_IT_number 62
_symmetry_cell_setting 'orthorhombic'
loop_
_space_group_symop_operation_xyz
x,y,z
1/2-x,-y,1/2+z
1/2+x,1/2-y,1/2-z
-x,1/2+y,-z
-x,-y,-z
1/2+x,y,1/2-z
1/2-x,1/2+y,1/2+z
x,1/2-y,z
loop_
_atom_site_type_symbol
_atom_site_label
_atom_site_fract_x
_atom_site_fract_y
_atom_site_fract_z
Si Si1 0.701858 0.127840 0.824084
Si Si2 0.578990 0.132886 0.037114
Si Si3 0.541443 0.922721 0.102781
Si Si4 0.791891 0.629722 0.168914
Si Si5 0.417938 0.869777 0.465200
Si Si6 0.817938 0.057960 0.960824
O O1 0.730589 0.250000 0.826663
O O2 0.566904 0.112082 0.849398
O O3 0.712236 0.087129 0.746235
O O4 0.783219 0.072863 0.881139
O O5 0.579623 0.250000 0.061383
O O6 0.547379 0.045780 0.092446
O O7 0.487019 0.120919 0.973351
O O8 0.707457 0.103297 0.004299
O O9 0.664454 0.883650 0.133262
O O10 0.819481 0.750000 0.178403
O O11 0.886154 0.591392 0.112308
O O12 0.386292 0.750000 0.470435
O O13 0.558246 0.884829 0.476540
O O14 0.343046 0.941094 0.516658
#
# Coordination Sequence:
#
# PCOD9462946 Si02
#       6
#     8   8   8   8   8   8
#     4  10  21  34  53  78 107 140 169 210 265 314
#     4  10  19  33  55  77 102 137 173 215 261 305
#     4  10  19  34  51  78 104 132 172 216 257 309
#     4  10  20  33  52  79 106 133 167 214 263 308
#     4  10  20  33  53  80 106 136 175 214 259 305
#     4  10  19  35  52  78 106 140 172 212 259 309
#
# _framework density 16.919647999999999
#
# number of rings (size 3 to 8) (size 9 to 14) (size 15 to 20)
#    0.000    2.000    1.667    4.000    2.333    0.000 
#    0.000    0.000    0.000    2.000    0.000    0.000 
#    0.000    0.000    0.000    0.000    0.000    0.000 
#
# Total GULP energy -267636.645901 kJ/mol
# GULP energy per Si atom -5575.763456 kJ/mol
# Density = 1.688114 g / cm^3
# Si number density = 16.919648 Si / 1000 Ang^3
#
#
#
# Elastic Constant Matrix: (Units=GPa)
#
#
# Indices 1 2 3 4 5 6 
#
# 1 32.7662 -1.5150 7.5129 0.0000 0.0000 0.0000
# 2 -1.5150 79.4628 24.9907 0.0000 0.0000 0.0000
# 3 7.5129 24.9907 74.7528 0.0000 0.0000 0.0000
# 4 0.0000 0.0000 0.0000 17.4319 0.0000 0.0000
# 5 0.0000 0.0000 0.0000 0.0000 9.0944 0.0000
# 6 0.0000 0.0000 0.0000 0.0000 0.0000 14.2863
#
#
#
# Elastic Compliance Matrix: (Units=1/GPa)
#
#
# Indices 1 2 3 4 5 6 
#
# 1 0.031463 0.001782 -0.003758 0.000000 0.000000 0.000000
# 2 0.001782 0.014164 -0.004914 0.000000 0.000000 0.000000
# 3 -0.003758 -0.004914 0.015398 0.000000 0.000000 0.000000
# 4 0.000000 0.000000 0.000000 0.057366 0.000000 0.000000
# 5 0.000000 0.000000 0.000000 0.000000 0.109957 0.000000
# 6 0.000000 0.000000 0.000000 0.000000 0.000000 0.069997
#
#
# Mechanical properties :
#
#
# Convention : Reuss Voigt Hill
#
# Bulk Modulus (GPa) = 21.16648 27.66211 24.41430
# Shear Modulus (GPa) = 15.24973 18.56208 16.90591
#
# Velocity S-wave (km/s) = 3.00543 3.31580 3.16442
# Velocity P-wave (km/s) = 4.95788 5.57171 5.27374
#
# Compressibility (1/GPa) = 0.04724450
#
# Stress axis : x y z
#
# Youngs Moduli (GPa) = 31.78311 70.60166 64.94361
#
# Poissons Ratio (x) = -0.12579 0.24404
# Poissons Ratio (y) = -0.05663 0.31915
# Poissons Ratio (z) = 0.11943 0.34695
#
# Static dielectric constant tensor:
#      x y z
#    x 1.580980 0.000000 0.000000 
#    y 0.000000 1.583970 0.000000 
#    z 0.000000 0.000000 1.582460 
# 
# From -- ./inp_files/26553.got.cif
#   From: 2010.05.17/outbox.cif.g08.bks.cpg/sg62_14_cif.got.tgz:26553.got - 2010.06.03 15:25:27.
