data_PCOD9462286
_publ_section_title
;
Structure prediction by ZEFSAII (Michael W. Deem and Ramdas Pophale) SiO2 
 PCOD9462286
Probable space group: P N M A
;
_chemical_formula_sum "Si O2"
_cell_formula_units_Z 56
_cell_length_a 19.668370
_cell_length_b 7.677398
_cell_length_c 18.526498
_cell_angle_alpha 90.000000
_cell_angle_beta 90.000000
_cell_angle_gamma 90.000000
_cell_volume 2797.536482
_symmetry_space_group_name_H-M "P N M A"
_symmetry_group_IT_number 62
_symmetry_cell_setting 'orthorhombic'
loop_
_space_group_symop_operation_xyz
x,y,z
1/2-x,-y,1/2+z
1/2+x,1/2-y,1/2-z
-x,1/2+y,-z
-x,-y,-z
1/2+x,y,1/2-z
1/2-x,1/2+y,1/2+z
x,1/2-y,z
loop_
_atom_site_type_symbol
_atom_site_label
_atom_site_fract_x
_atom_site_fract_y
_atom_site_fract_z
Si Si1 0.428821 0.452092 0.405826
Si Si2 0.926352 0.538948 0.926442
Si Si3 0.645583 0.448869 0.836143
Si Si4 0.806160 0.550977 0.186704
Si Si5 0.077302 0.456920 0.520255
Si Si6 0.722723 0.038481 0.419168
Si Si7 0.789143 0.458072 0.567485
O O1 0.421433 0.250000 0.385512
O O2 0.504886 0.515789 0.386351
O O3 0.426871 0.467759 0.492253
O O4 0.367296 0.553476 0.370708
O O5 0.929072 0.750000 0.931717
O O6 0.853106 0.491168 0.895751
O O7 0.621014 0.250000 0.823990
O O8 0.660236 0.532199 0.758135
O O9 0.599156 0.528667 0.900323
O O10 0.719892 0.451763 0.871695
O O11 0.787902 0.750000 0.207393
O O12 0.741716 0.472694 0.143031
O O13 0.083175 0.250000 0.526054
O O14 0.134240 0.508030 0.460568
O O15 0.000000 0.500000 0.500000
O O16 0.729649 0.250000 0.415315
O O17 0.740233 0.985299 0.501437
O O18 0.782514 0.250000 0.572608
#
# Coordination Sequence:
#
# PCOD9462286 Si02
#       7
#     8   8   8   8   8   8   8
#     4  10  19  28  46  74 103 134 169 207 242 293
#     4   9  17  31  47  69 100 134 168 203 250 298
#     4   9  20  35  53  76 102 133 171 217 262 308
#     4  10  19  35  53  72 104 140 170 208 263 318
#     4  10  20  36  57  81 106 135 177 225 266 313
#     4   9  16  30  51  72  97 131 166 205 251 302
#     4   9  17  31  54  77  98 133 172 209 258 312
#
# _framework density 20.017612
#
# number of rings (size 3 to 8) (size 9 to 14) (size 15 to 20)
#    0.000    2.571    1.429    0.857    0.000    2.857 
#    0.000    1.429    0.000    5.143    0.000    0.000 
#    0.000    0.000    0.000    0.000    0.000    0.000 
#
# Total GULP energy -311781.845335 kJ/mol
# GULP energy per Si atom -5567.532952 kJ/mol
# Density = 1.997205 g / cm^3
# Si number density = 20.017612 Si / 1000 Ang^3
#
#
#
# Elastic Constant Matrix: (Units=GPa)
#
#
# Indices 1 2 3 4 5 6 
#
# 1 127.1748 -1.1764 39.4108 0.0000 0.0000 0.0000
# 2 -1.1764 35.2009 4.3258 0.0000 0.0000 0.0000
# 3 39.4108 4.3258 100.8261 0.0000 0.0000 0.0000
# 4 0.0000 0.0000 0.0000 10.9418 0.0000 0.0000
# 5 0.0000 0.0000 0.0000 0.0000 16.2650 0.0000
# 6 0.0000 0.0000 0.0000 0.0000 0.0000 19.4772
#
#
#
# Elastic Compliance Matrix: (Units=1/GPa)
#
#
# Indices 1 2 3 4 5 6 
#
# 1 0.008966 0.000734 -0.003536 0.000000 0.000000 0.000000
# 2 0.000734 0.028619 -0.001515 0.000000 0.000000 0.000000
# 3 -0.003536 -0.001515 0.011365 0.000000 0.000000 0.000000
# 4 0.000000 0.000000 0.000000 0.091392 0.000000 0.000000
# 5 0.000000 0.000000 0.000000 0.000000 0.061482 0.000000
# 6 0.000000 0.000000 0.000000 0.000000 0.000000 0.051342
#
#
# Mechanical properties :
#
#
# Convention : Reuss Voigt Hill
#
# Bulk Modulus (GPa) = 24.80363 38.70248 31.75305
# Shear Modulus (GPa) = 18.16606 24.04624 21.10615
#
# Velocity S-wave (km/s) = 3.01575 3.46967 3.25064
# Velocity P-wave (km/s) = 4.95420 5.95212 5.47594
#
# Compressibility (1/GPa) = 0.04031668
#
# Stress axis : x y z
#
# Youngs Moduli (GPa) = 111.53513 34.94174 87.98773
#
# Poissons Ratio (x) = -0.02565 0.31113
# Poissons Ratio (y) = -0.08188 0.13329
# Poissons Ratio (z) = 0.39439 0.05293
#
# Static dielectric constant tensor:
#      x y z
#    x 1.738950 0.000000 0.000000 
#    y 0.000000 1.746910 0.000000 
#    z 0.000000 0.000000 1.751830 
# 
# From -- ./inp_files/24641.got.cif
#   From: 2010.05.17/outbox.cif.g08.bks.cpg/sg62_13_cif.got.tgz:24641.got - 2010.06.03 15:25:27.
