data_PCOD9462903
_publ_section_title
;
Structure prediction by ZEFSAII (Michael W. Deem and Ramdas Pophale) SiO2 
 PCOD9462903
Probable space group: P N M A
;
_chemical_formula_sum "Si O2"
_cell_formula_units_Z 48
_cell_length_a 9.233794
_cell_length_b 15.408425
_cell_length_c 19.602891
_cell_angle_alpha 90.000000
_cell_angle_beta 90.000000
_cell_angle_gamma 90.000000
_cell_volume 2789.064484
_symmetry_space_group_name_H-M "P N M A"
_symmetry_group_IT_number 62
_symmetry_cell_setting 'orthorhombic'
loop_
_space_group_symop_operation_xyz
x,y,z
1/2-x,-y,1/2+z
1/2+x,1/2-y,1/2-z
-x,1/2+y,-z
-x,-y,-z
1/2+x,y,1/2-z
1/2-x,1/2+y,1/2+z
x,1/2-y,z
loop_
_atom_site_type_symbol
_atom_site_label
_atom_site_fract_x
_atom_site_fract_y
_atom_site_fract_z
Si Si1 0.848092 0.529973 0.470483
Si Si2 0.602776 0.417404 0.512787
Si Si3 0.369232 0.846530 0.156912
Si Si4 0.620930 0.584734 0.249206
Si Si5 0.148888 0.848048 0.936682
Si Si6 0.870804 0.989628 0.157895
O O1 0.746624 0.444345 0.472456
O O2 0.863159 0.576768 0.398250
O O3 0.769938 0.601724 0.518522
O O4 0.000000 0.500000 0.500000
O O5 0.500000 0.500000 0.500000
O O6 0.500138 0.345166 0.481121
O O7 0.632674 0.421891 0.593600
O O8 0.368335 0.750000 0.126083
O O9 0.229183 0.858297 0.204956
O O10 0.513366 0.860035 0.201728
O O11 0.513305 0.530584 0.298000
O O12 0.727956 0.526833 0.202797
O O13 0.190263 0.750000 0.918916
O O14 0.125109 0.913921 0.873614
#
# Coordination Sequence:
#
# PCOD9462903 Si02
#       6
#     8   8   8   8   8   8
#     4  10  19  33  54  76 101 132 165 205 259 310
#     4   8  16  32  52  72  95 129 166 198 243 305
#     4  11  20  32  49  75 103 129 164 208 248 292
#     4  10  20  33  51  70  99 139 168 195 243 307
#     4  10  19  34  54  76  99 130 171 216 253 292
#     4   9  18  34  52  71  96 131 170 200 243 306
#
# _framework density 17.210070999999999
#
# number of rings (size 3 to 8) (size 9 to 14) (size 15 to 20)
#    0.000    2.667    0.000    6.000    0.000    0.000 
#    0.000    8.333    0.000    0.000    0.000    0.000 
#    0.000    0.000    0.000    0.000    0.000    0.000 
#
# Total GULP energy -267211.564593 kJ/mol
# GULP energy per Si atom -5566.907596 kJ/mol
# Density = 1.717090 g / cm^3
# Si number density = 17.210071 Si / 1000 Ang^3
#
#
#
# Elastic Constant Matrix: (Units=GPa)
#
#
# Indices 1 2 3 4 5 6 
#
# 1 134.0938 34.3109 41.6096 0.0000 0.0000 0.0000
# 2 34.3109 80.8393 27.7507 0.0000 0.0000 0.0000
# 3 41.6096 27.7507 86.8754 0.0000 0.0000 0.0000
# 4 0.0000 0.0000 0.0000 13.5161 0.0000 0.0000
# 5 0.0000 0.0000 0.0000 0.0000 30.1766 0.0000
# 6 0.0000 0.0000 0.0000 0.0000 0.0000 3.1151
#
#
#
# Elastic Compliance Matrix: (Units=1/GPa)
#
#
# Indices 1 2 3 4 5 6 
#
# 1 0.009257 -0.002703 -0.003570 0.000000 0.000000 0.000000
# 2 -0.002703 0.014683 -0.003395 0.000000 0.000000 0.000000
# 3 -0.003570 -0.003395 0.014305 0.000000 0.000000 0.000000
# 4 0.000000 0.000000 0.000000 0.073986 0.000000 0.000000
# 5 0.000000 0.000000 0.000000 0.000000 0.033138 0.000000
# 6 0.000000 0.000000 0.000000 0.000000 0.000000 0.321017
#
#
# Mechanical properties :
#
#
# Convention : Reuss Voigt Hill
#
# Bulk Modulus (GPa) = 52.88907 56.57232 54.73070
# Shear Modulus (GPa) = 10.16204 22.57072 16.36638
#
# Velocity S-wave (km/s) = 2.43260 3.62537 3.08714
# Velocity P-wave (km/s) = 6.21999 7.10404 6.67666
#
# Compressibility (1/GPa) = 0.01890750
#
# Stress axis : x y z
#
# Youngs Moduli (GPa) = 108.02602 68.10482 69.90414
#
# Poissons Ratio (x) = 0.18412 0.24957
# Poissons Ratio (y) = 0.29204 0.23736
# Poissons Ratio (z) = 0.38567 0.23125
#
# Static dielectric constant tensor:
#      x y z
#    x 1.599230 0.000000 0.000000 
#    y 0.000000 1.601890 0.000000 
#    z 0.000000 0.000000 1.616970 
# 
# From -- ./inp_files/22332.got.cif
#   From: 2010.05.17/outbox.cif.g08.bks.cpg/sg62_12_cif.got.tgz:22332.got - 2010.06.03 15:25:27.
