data_PCOD9462988
_publ_section_title
;
Structure prediction by ZEFSAII (Michael W. Deem and Ramdas Pophale) SiO2 
 PCOD9462988
Probable space group: P N M A
;
_chemical_formula_sum "Si O2"
_cell_formula_units_Z 64
_cell_length_a 19.927918
_cell_length_b 17.864448
_cell_length_c 9.873893
_cell_angle_alpha 90.000000
_cell_angle_beta 90.000000
_cell_angle_gamma 90.000000
_cell_volume 3515.118298
_symmetry_space_group_name_H-M "P N M A"
_symmetry_group_IT_number 62
_symmetry_cell_setting 'orthorhombic'
loop_
_space_group_symop_operation_xyz
x,y,z
1/2-x,-y,1/2+z
1/2+x,1/2-y,1/2-z
-x,1/2+y,-z
-x,-y,-z
1/2+x,y,1/2-z
1/2-x,1/2+y,1/2+z
x,1/2-y,z
loop_
_atom_site_type_symbol
_atom_site_label
_atom_site_fract_x
_atom_site_fract_y
_atom_site_fract_z
Si Si1 0.387570 0.838117 0.278238
Si Si2 0.512956 0.159579 0.948504
Si Si3 0.246812 0.585609 0.276993
Si Si4 0.204915 0.526319 0.999270
Si Si5 0.504799 0.160794 0.259297
Si Si6 0.063141 0.056376 0.017411
Si Si7 0.103669 0.838842 0.249749
Si Si8 0.875478 0.336181 0.060351
O O1 0.399820 0.750000 0.305751
O O2 0.418347 0.856242 0.130865
O O3 0.309096 0.857387 0.282029
O O4 0.425160 0.890036 0.387591
O O5 0.506816 0.250000 0.953967
O O6 0.453814 0.131540 0.849379
O O7 0.508141 0.135079 0.103590
O O8 0.257144 0.527543 0.397489
O O9 0.175273 0.625835 0.282676
O O10 0.246007 0.542405 0.134380
O O11 0.184854 0.605476 0.931717
O O12 0.132548 0.489110 0.032801
O O13 0.521293 0.250000 0.267944
O O14 0.550751 0.109851 0.354422
O O15 0.430494 0.152462 0.323588
O O16 0.000000 0.000000 0.000000
O O17 0.107773 0.750000 0.270249
O O18 0.091090 0.848711 0.088623
O O19 0.852883 0.250000 0.063272
#
# Coordination Sequence:
#
# PCOD9462988 Si02
#       8
#     8   8   8   8   8   8   8   8
#     4  10  21  39  61  85 115 156 198 241 289 346
#     4   9  19  33  55  87 116 141 187 246 290 330
#     4  10  22  37  57  79 116 153 187 235 287 351
#     4  10  22  38  55  80 114 148 191 233 289 342
#     4  10  19  33  55  85 117 147 184 240 293 336
#     4  11  21  36  58  84 117 151 193 240 285 352
#     4   9  17  33  56  83 108 144 193 235 276 337
#     4   9  17  32  57  79 103 142 189 233 277 334
#
# _framework density 18.207070000000002
#
# number of rings (size 3 to 8) (size 9 to 14) (size 15 to 20)
#    0.000    2.250    1.250    1.500    1.750    4.500 
#    0.000    0.625    0.000    3.750    0.000    0.000 
#    0.000    0.000    0.000    0.000    0.000    0.000 
#
# Total GULP energy -356996.443236 kJ/mol
# GULP energy per Si atom -5578.069426 kJ/mol
# Density = 1.816563 g / cm^3
# Si number density = 18.207070 Si / 1000 Ang^3
#
#
#
# Elastic Constant Matrix: (Units=GPa)
#
#
# Indices 1 2 3 4 5 6 
#
# 1 38.4911 6.0813 9.0718 0.0000 0.0000 0.0000
# 2 6.0813 52.9151 26.4074 0.0000 0.0000 0.0000
# 3 9.0718 26.4074 85.6108 0.0000 0.0000 0.0000
# 4 0.0000 0.0000 0.0000 26.1987 0.0000 0.0000
# 5 0.0000 0.0000 0.0000 0.0000 23.3606 0.0000
# 6 0.0000 0.0000 0.0000 0.0000 0.0000 10.3564
#
#
#
# Elastic Compliance Matrix: (Units=1/GPa)
#
#
# Indices 1 2 3 4 5 6 
#
# 1 0.026818 -0.001967 -0.002235 0.000000 0.000000 0.000000
# 2 -0.001967 0.022481 -0.006726 0.000000 0.000000 0.000000
# 3 -0.002235 -0.006726 0.013992 0.000000 0.000000 0.000000
# 4 0.000000 0.000000 0.000000 0.038170 0.000000 0.000000
# 5 0.000000 0.000000 0.000000 0.000000 0.042807 0.000000
# 6 0.000000 0.000000 0.000000 0.000000 0.000000 0.096558
#
#
# Mechanical properties :
#
#
# Convention : Reuss Voigt Hill
#
# Bulk Modulus (GPa) = 24.13404 28.90423 26.51914
# Shear Modulus (GPa) = 18.08363 21.01358 19.54860
#
# Velocity S-wave (km/s) = 3.15496 3.40096 3.28026
# Velocity P-wave (km/s) = 5.15323 5.59748 5.37994
#
# Compressibility (1/GPa) = 0.04143524
#
# Stress axis : x y z
#
# Youngs Moduli (GPa) = 37.28907 44.48231 71.46776
#
# Poissons Ratio (x) = 0.08748 0.15974
# Poissons Ratio (y) = 0.07333 0.48069
# Poissons Ratio (z) = 0.08335 0.29919
#
# Static dielectric constant tensor:
#      x y z
#    x 1.611340 0.000000 0.000000 
#    y 0.000000 1.636040 0.000000 
#    z 0.000000 0.000000 1.618580 
# 
# From -- ./inp_files/8102.got.cif
#   From: 2010.05.17/outbox.cif.g08.bks.cpg/sg62_5_cif.got.tgz:8102.got - 2010.06.03 15:25:27.
