data_PCOD9462956
_publ_section_title
;
Structure prediction by ZEFSAII (Michael W. Deem and Ramdas Pophale) SiO2 
 PCOD9462956
Probable space group: P N M A
;
_chemical_formula_sum "Si O2"
_cell_formula_units_Z 48
_cell_length_a 17.044076
_cell_length_b 10.557077
_cell_length_c 12.473443
_cell_angle_alpha 90.000000
_cell_angle_beta 90.000000
_cell_angle_gamma 90.000000
_cell_volume 2244.416734
_symmetry_space_group_name_H-M "P N M A"
_symmetry_group_IT_number 62
_symmetry_cell_setting 'orthorhombic'
loop_
_space_group_symop_operation_xyz
x,y,z
1/2-x,-y,1/2+z
1/2+x,1/2-y,1/2-z
-x,1/2+y,-z
-x,-y,-z
1/2+x,y,1/2-z
1/2-x,1/2+y,1/2+z
x,1/2-y,z
loop_
_atom_site_type_symbol
_atom_site_label
_atom_site_fract_x
_atom_site_fract_y
_atom_site_fract_z
Si Si1 0.957870 0.897673 0.922487
Si Si2 0.693371 0.616630 0.667593
Si Si3 0.867254 0.097316 0.480277
Si Si4 0.029867 0.607197 0.704773
Si Si5 0.303731 0.479156 0.561625
Si Si6 0.812202 0.106846 0.706209
O O1 0.984048 0.750000 0.933868
O O2 0.865529 0.906555 0.946633
O O3 0.972365 0.939305 0.798329
O O4 0.000000 0.000000 0.000000
O O5 0.733256 0.750000 0.696699
O O6 0.611681 0.612024 0.728831
O O7 0.682309 0.608216 0.540880
O O8 0.744574 0.495910 0.693269
O O9 0.861288 0.250000 0.461831
O O10 0.939638 0.049660 0.407283
O O11 0.785801 0.030480 0.443246
O O12 0.872868 0.077917 0.608992
O O13 0.001948 0.750000 0.679641
O O14 0.328766 0.405405 0.668507
O O15 0.785306 0.250000 0.684417
#
# Coordination Sequence:
#
# PCOD9462956 Si02
#       6
#     8   8   8   8   8   8
#     4  11  23  37  57  86 117 152 193 237 290 348
#     4  10  19  33  55  79 110 148 181 221 279 337
#     4   9  18  34  55  79 109 147 187 228 281 337
#     4   9  17  34  55  77 108 147 183 223 281 342
#     4  11  20  33  54  85 116 145 183 236 286 338
#     4  10  21  34  54  84 112 143 188 239 284 328
#
# _framework density 21.386403000000001
#
# number of rings (size 3 to 8) (size 9 to 14) (size 15 to 20)
#    0.000    2.000    3.333    1.000    0.000    2.000 
#    0.000    0.833    0.000    0.000    0.000    0.000 
#    0.000    0.000    0.000    0.000    0.000    0.000 
#
# Total GULP energy -267282.997130 kJ/mol
# GULP energy per Si atom -5568.395774 kJ/mol
# Density = 2.133773 g / cm^3
# Si number density = 21.386403 Si / 1000 Ang^3
#
#
#
# Elastic Constant Matrix: (Units=GPa)
#
#
# Indices 1 2 3 4 5 6 
#
# 1 25.3658 12.9740 -0.9260 0.0000 0.0000 0.0000
# 2 12.9740 87.7636 17.8395 0.0000 0.0000 0.0000
# 3 -0.9260 17.8395 135.0714 0.0000 0.0000 0.0000
# 4 0.0000 0.0000 0.0000 24.4642 0.0000 0.0000
# 5 0.0000 0.0000 0.0000 0.0000 25.8188 0.0000
# 6 0.0000 0.0000 0.0000 0.0000 0.0000 16.0227
#
#
#
# Elastic Compliance Matrix: (Units=1/GPa)
#
#
# Indices 1 2 3 4 5 6 
#
# 1 0.042824 -0.006567 0.001161 0.000000 0.000000 0.000000
# 2 -0.006567 0.012716 -0.001724 0.000000 0.000000 0.000000
# 3 0.001161 -0.001724 0.007639 0.000000 0.000000 0.000000
# 4 0.000000 0.000000 0.000000 0.040876 0.000000 0.000000
# 5 0.000000 0.000000 0.000000 0.000000 0.038731 0.000000
# 6 0.000000 0.000000 0.000000 0.000000 0.000000 0.062411
#
#
# Mechanical properties :
#
#
# Convention : Reuss Voigt Hill
#
# Bulk Modulus (GPa) = 20.44214 34.21954 27.33084
# Shear Modulus (GPa) = 21.20761 27.81537 24.51149
#
# Velocity S-wave (km/s) = 3.15245 3.61031 3.38912
# Velocity P-wave (km/s) = 4.77805 5.78052 5.30303
#
# Compressibility (1/GPa) = 0.04891856
#
# Stress axis : x y z
#
# Youngs Moduli (GPa) = 23.35127 78.64417 130.90377
#
# Poissons Ratio (x) = 0.51643 -0.15196
# Poissons Ratio (y) = 0.15334 0.22573
# Poissons Ratio (z) = -0.02711 0.13561
#
# Static dielectric constant tensor:
#      x y z
#    x 1.776050 0.000000 0.000000 
#    y 0.000000 1.761680 0.000000 
#    z 0.000000 0.000000 1.873360 
# 
# From -- ./inp_files/14700.got.cif
#   From: 2010.05.17/outbox.cif.g08.bks.cpg/sg62_8_cif.got.tgz:14700.got - 2010.06.03 15:25:27.
