data_PCOD9462507
_publ_section_title
;
Structure prediction by ZEFSAII (Michael W. Deem and Ramdas Pophale) SiO2 
 PCOD9462507
Probable space group: P N M A
;
_chemical_formula_sum "Si O2"
_cell_formula_units_Z 64
_cell_length_a 19.856024
_cell_length_b 8.857065
_cell_length_c 19.875025
_cell_angle_alpha 90.000000
_cell_angle_beta 90.000000
_cell_angle_gamma 90.000000
_cell_volume 3495.343039
_symmetry_space_group_name_H-M "P N M A"
_symmetry_group_IT_number 62
_symmetry_cell_setting 'orthorhombic'
loop_
_space_group_symop_operation_xyz
x,y,z
1/2-x,-y,1/2+z
1/2+x,1/2-y,1/2-z
-x,1/2+y,-z
-x,-y,-z
1/2+x,y,1/2-z
1/2-x,1/2+y,1/2+z
x,1/2-y,z
loop_
_atom_site_type_symbol
_atom_site_label
_atom_site_fract_x
_atom_site_fract_y
_atom_site_fract_z
Si Si1 0.350992 0.068444 0.543714
Si Si2 0.995945 0.569461 0.735882
Si Si3 0.022446 0.429881 0.112520
Si Si4 0.780033 0.932348 0.379837
Si Si5 0.355621 0.569005 0.253955
Si Si6 0.965317 0.069935 0.601048
Si Si7 0.599882 0.930475 0.964253
Si Si8 0.364771 0.431653 0.395436
O O1 0.353617 0.250000 0.543831
O O2 0.293757 0.018681 0.596083
O O3 0.333771 0.023009 0.467041
O O4 0.423514 0.009087 0.565843
O O5 0.001520 0.750000 0.730356
O O6 0.071425 0.500714 0.735330
O O7 0.965351 0.532930 0.808876
O O8 0.954892 0.502654 0.673693
O O9 0.028218 0.250000 0.103990
O O10 0.944515 0.469903 0.099622
O O11 0.783009 0.750000 0.383890
O O12 0.803199 0.974549 0.304585
O O13 0.834197 0.000200 0.431301
O O14 0.361626 0.750000 0.255078
O O15 0.337681 0.509077 0.328091
O O16 0.972046 0.250000 0.607189
O O17 0.910254 0.037013 0.543545
O O18 0.035254 0.002134 0.572840
O O19 0.598339 0.750000 0.955074
O O20 0.360035 0.250000 0.387221
#
# Coordination Sequence:
#
# PCOD9462507 Si02
#       8
#     8   8   8   8   8   8   8   8
#     4  10  21  37  56  78 106 143 178 217 273 328
#     4  10  19  32  52  79 109 139 175 218 267 318
#     4   9  19  34  53  80 108 133 172 227 273 319
#     4  10  21  36  53  76 108 142 181 221 262 319
#     4  10  19  32  53  79 104 135 174 218 265 311
#     4  10  19  31  49  77 108 138 178 223 266 312
#     4  10  20  32  50  75 104 141 180 220 267 313
#     4   9  19  36  57  80 106 135 175 222 269 323
#
# _framework density 18.310077
#
# number of rings (size 3 to 8) (size 9 to 14) (size 15 to 20)
#    0.000    2.250    1.250    2.625    0.000    5.500 
#    0.000    1.250    0.000    6.000    0.000    0.000 
#    0.000    0.000    0.000    0.000    0.000    0.000 
#
# Total GULP energy -357069.014995 kJ/mol
# GULP energy per Si atom -5579.203359 kJ/mol
# Density = 1.826840 g / cm^3
# Si number density = 18.310077 Si / 1000 Ang^3
#
#
#
# Elastic Constant Matrix: (Units=GPa)
#
#
# Indices 1 2 3 4 5 6 
#
# 1 32.8056 10.3972 28.1885 0.0000 0.0000 0.0000
# 2 10.3972 22.5571 36.0721 0.0000 0.0000 0.0000
# 3 28.1885 36.0721 138.0103 0.0000 0.0000 0.0000
# 4 0.0000 0.0000 0.0000 32.6265 0.0000 0.0000
# 5 0.0000 0.0000 0.0000 0.0000 25.5861 0.0000
# 6 0.0000 0.0000 0.0000 0.0000 0.0000 13.7343
#
#
#
# Elastic Compliance Matrix: (Units=1/GPa)
#
#
# Indices 1 2 3 4 5 6 
#
# 1 0.037952 -0.008757 -0.005463 0.000000 0.000000 0.000000
# 2 -0.008757 0.078189 -0.018648 0.000000 0.000000 0.000000
# 3 -0.005463 -0.018648 0.013236 0.000000 0.000000 0.000000
# 4 0.000000 0.000000 0.000000 0.030650 0.000000 0.000000
# 5 0.000000 0.000000 0.000000 0.000000 0.039084 0.000000
# 6 0.000000 0.000000 0.000000 0.000000 0.000000 0.072810
#
#
# Mechanical properties :
#
#
# Convention : Reuss Voigt Hill
#
# Bulk Modulus (GPa) = 15.71322 38.07654 26.89488
# Shear Modulus (GPa) = 13.93264 22.30373 18.11819
#
# Velocity S-wave (km/s) = 2.76148 3.49393 3.14908
# Velocity P-wave (km/s) = 4.33222 6.09240 5.28609
#
# Compressibility (1/GPa) = 0.06364067
#
# Stress axis : x y z
#
# Youngs Moduli (GPa) = 26.34908 12.78957 75.55380
#
# Poissons Ratio (x) = 0.11200 0.41273
# Poissons Ratio (y) = 0.23075 1.40891
# Poissons Ratio (z) = 0.14394 0.23850
#
# Static dielectric constant tensor:
#      x y z
#    x 1.598670 0.000000 0.000000 
#    y 0.000000 1.610480 0.000000 
#    z 0.000000 0.000000 1.667060 
# 
# From -- ./inp_files/27725.got.cif
#   From: 2010.05.17/outbox.cif.g08.bks.cpg/sg62_14_cif.got.tgz:27725.got - 2010.06.03 15:25:27.
