data_PCOD9462361
_publ_section_title
;
Structure prediction by ZEFSAII (Michael W. Deem and Ramdas Pophale) SiO2 
 PCOD9462361
Probable space group: P N M A
;
_chemical_formula_sum "Si O2"
_cell_formula_units_Z 64
_cell_length_a 19.949164
_cell_length_b 7.638215
_cell_length_c 20.822829
_cell_angle_alpha 90.000000
_cell_angle_beta 90.000000
_cell_angle_gamma 90.000000
_cell_volume 3172.899469
_symmetry_space_group_name_H-M "P N M A"
_symmetry_group_IT_number 62
_symmetry_cell_setting 'orthorhombic'
loop_
_space_group_symop_operation_xyz
x,y,z
1/2-x,-y,1/2+z
1/2+x,1/2-y,1/2-z
-x,1/2+y,-z
-x,-y,-z
1/2+x,y,1/2-z
1/2-x,1/2+y,1/2+z
x,1/2-y,z
loop_
_atom_site_type_symbol
_atom_site_label
_atom_site_fract_x
_atom_site_fract_y
_atom_site_fract_z
Si Si1 0.050720 0.462284 0.748275
Si Si2 0.398175 0.954356 0.603781
Si Si3 0.097559 0.540268 0.253280
Si Si4 0.743899 0.952430 0.449446
Si Si5 0.690939 0.965880 0.578890
Si Si6 0.545323 0.955949 0.601057
Si Si7 0.822906 0.546161 0.329850
Si Si8 0.239907 0.455319 0.290601
O O1 0.054972 0.250000 0.751378
O O2 0.055558 0.525388 0.821884
O O3 0.110588 0.529221 0.703485
O O4 0.976675 0.510544 0.723778
O O5 0.394595 0.750000 0.586165
O O6 0.471560 0.028710 0.584595
O O7 0.395318 0.967401 0.681126
O O8 0.332392 0.044427 0.576568
O O9 0.099669 0.750000 0.248464
O O10 0.160414 0.480709 0.294906
O O11 0.763931 0.750000 0.456829
O O12 0.737287 0.028135 0.520600
O O13 0.791979 0.031984 0.394996
O O14 0.690112 0.750000 0.578501
O O15 0.613875 0.025772 0.570622
O O16 0.720376 0.021731 0.647341
O O17 0.541838 0.750000 0.586499
O O18 0.837666 0.750000 0.342833
O O19 0.766315 0.540057 0.274789
O O20 0.254382 0.250000 0.284625
#
# Coordination Sequence:
#
# PCOD9462361 Si02
#       8
#     8   8   8   8   8   8   8   8
#     4   9  18  31  49  74 100 126 163 208 253 298
#     4  10  19  30  47  72 101 131 167 205 245 292
#     4  10  19  32  50  73 101 130 162 205 255 302
#     4  10  20  34  51  70 100 137 170 203 247 303
#     4   9  19  34  50  71  99 136 172 203 247 299
#     4   9  17  31  48  68  98 134 168 203 242 291
#     4  10  19  32  52  76  99 128 168 209 251 296
#     4  11  20  32  53  76 100 130 168 210 250 294
#
# _framework density 20.170826000000002
#
# number of rings (size 3 to 8) (size 9 to 14) (size 15 to 20)
#    0.000    2.250    2.500    1.125    0.000    1.500 
#    0.000    1.875    0.000    0.750    0.000    0.000 
#    0.000    0.000    0.000    0.000    0.000    0.500 
#
# Total GULP energy -357119.845255 kJ/mol
# GULP energy per Si atom -5579.997582 kJ/mol
# Density = 2.012492 g / cm^3
# Si number density = 20.170826 Si / 1000 Ang^3
#
#
#
# Elastic Constant Matrix: (Units=GPa)
#
#
# Indices 1 2 3 4 5 6 
#
# 1 70.5623 -8.8007 -5.0583 0.0000 0.0000 0.0000
# 2 -8.8007 46.8230 -5.0644 0.0000 0.0000 0.0000
# 3 -5.0583 -5.0644 27.0962 0.0000 0.0000 0.0000
# 4 0.0000 0.0000 0.0000 9.6856 0.0000 0.0000
# 5 0.0000 0.0000 0.0000 0.0000 20.6144 0.0000
# 6 0.0000 0.0000 0.0000 0.0000 0.0000 8.8036
#
#
#
# Elastic Compliance Matrix: (Units=1/GPa)
#
#
# Indices 1 2 3 4 5 6 
#
# 1 0.014804 0.003145 0.003351 0.000000 0.000000 0.000000
# 2 0.003145 0.022466 0.004786 0.000000 0.000000 0.000000
# 3 0.003351 0.004786 0.038426 0.000000 0.000000 0.000000
# 4 0.000000 0.000000 0.000000 0.103246 0.000000 0.000000
# 5 0.000000 0.000000 0.000000 0.000000 0.048510 0.000000
# 6 0.000000 0.000000 0.000000 0.000000 0.000000 0.113590
#
#
# Mechanical properties :
#
#
# Convention : Reuss Voigt Hill
#
# Bulk Modulus (GPa) = 10.17697 11.84832 11.01265
# Shear Modulus (GPa) = 14.23566 18.71437 16.47501
#
# Velocity S-wave (km/s) = 2.65949 3.04928 2.86103
# Velocity P-wave (km/s) = 3.80616 4.27600 4.04790
#
# Compressibility (1/GPa) = 0.09826110
#
# Stress axis : x y z
#
# Youngs Moduli (GPa) = 67.54757 44.51209 26.02423
#
# Poissons Ratio (x) = -0.13999 -0.08722
# Poissons Ratio (y) = -0.21244 -0.12455
# Poissons Ratio (z) = -0.22638 -0.21304
#
# Static dielectric constant tensor:
#      x y z
#    x 1.745920 0.000000 0.000000 
#    y 0.000000 1.765350 0.000000 
#    z 0.000000 0.000000 1.714610 
# 
# From -- ./inp_files/27964.got.cif
#   From: 2010.05.17/outbox.cif.g08.bks.cpg/sg62_14_cif.got.tgz:27964.got - 2010.06.03 15:25:27.
