data_PCOD9462398
_publ_section_title
;
Structure prediction by ZEFSAII (Michael W. Deem and Ramdas Pophale) SiO2 
 PCOD9462398
Probable space group: P N M A
;
_chemical_formula_sum "Si O2"
_cell_formula_units_Z 56
_cell_length_a 21.726405
_cell_length_b 7.414474
_cell_length_c 13.669682
_cell_angle_alpha 90.000000
_cell_angle_beta 90.000000
_cell_angle_gamma 90.000000
_cell_volume 2202.047228
_symmetry_space_group_name_H-M "P N M A"
_symmetry_group_IT_number 62
_symmetry_cell_setting 'orthorhombic'
loop_
_space_group_symop_operation_xyz
x,y,z
1/2-x,-y,1/2+z
1/2+x,1/2-y,1/2-z
-x,1/2+y,-z
-x,-y,-z
1/2+x,y,1/2-z
1/2-x,1/2+y,1/2+z
x,1/2-y,z
loop_
_atom_site_type_symbol
_atom_site_label
_atom_site_fract_x
_atom_site_fract_y
_atom_site_fract_z
Si Si1 0.013256 0.528565 0.302940
Si Si2 0.243218 0.537024 0.521004
Si Si3 0.136320 0.536712 0.930879
Si Si4 0.858703 0.030222 0.616612
Si Si5 0.245310 0.544517 0.232894
Si Si6 0.451537 0.035432 0.586465
Si Si7 0.118329 0.046095 0.720940
O O1 0.010322 0.750000 0.303627
O O2 0.071054 0.472199 0.369190
O O3 0.031038 0.466430 0.192946
O O4 0.943540 0.466990 0.326105
O O5 0.241491 0.750000 0.536404
O O6 0.291125 0.497166 0.434146
O O7 0.176392 0.476768 0.482743
O O8 0.269097 0.447472 0.617869
O O9 0.124959 0.750000 0.923513
O O10 0.104737 0.448017 0.837600
O O11 0.109671 0.466277 0.033190
O O12 0.859819 0.250000 0.619366
O O13 0.812627 0.972418 0.705356
O O14 0.254582 0.750000 0.268890
O O15 0.313967 0.457312 0.223905
O O16 0.444871 0.250000 0.599896
O O17 0.500000 0.000000 0.500000
O O18 0.126262 0.250000 0.683987
#
# Coordination Sequence:
#
# PCOD9462398 Si02
#       7
#     8   8   8   8   8   8   8
#     4   9  17  31  53  78 106 144 186 225 272 331
#     4  11  22  37  58  83 109 145 194 238 277 330
#     4  11  21  33  53  81 114 146 179 227 284 332
#     4   9  18  35  57  80 111 146 185 230 279 333
#     4  10  20  37  58  81 112 148 187 233 284 331
#     4  10  19  30  49  77 108 141 177 219 272 334
#     4  10  19  34  57  81 108 145 187 226 270 336
#
# _framework density 25.430883000000001
#
# number of rings (size 3 to 8) (size 9 to 14) (size 15 to 20)
#    0.000    2.000    2.857    1.714    0.000    3.429 
#    0.000    0.714    0.000    3.429    0.000    0.000 
#    0.000    0.000    0.000    0.000    0.000    0.000 
#
# Total GULP energy -312619.353343 kJ/mol
# GULP energy per Si atom -5582.488453 kJ/mol
# Density = 2.537300 g / cm^3
# Si number density = 25.430883 Si / 1000 Ang^3
#
#
#
# Elastic Constant Matrix: (Units=GPa)
#
#
# Indices 1 2 3 4 5 6 
#
# 1 142.8746 1.2456 -20.4662 0.0000 0.0000 0.0000
# 2 1.2456 98.8179 3.0382 0.0000 0.0000 0.0000
# 3 -20.4662 3.0382 17.4158 0.0000 0.0000 0.0000
# 4 0.0000 0.0000 0.0000 19.4825 0.0000 0.0000
# 5 0.0000 0.0000 0.0000 0.0000 36.2729 0.0000
# 6 0.0000 0.0000 0.0000 0.0000 0.0000 -1.4140
#
#
#
# Elastic Compliance Matrix: (Units=1/GPa)
#
#
# Indices 1 2 3 4 5 6 
#
# 1 0.008433 -0.000413 0.009982 0.000000 0.000000 0.000000
# 2 -0.000413 0.010194 -0.002264 0.000000 0.000000 0.000000
# 3 0.009982 -0.002264 0.069544 0.000000 0.000000 0.000000
# 4 0.000000 0.000000 0.000000 0.051328 0.000000 0.000000
# 5 0.000000 0.000000 0.000000 0.000000 0.027569 0.000000
# 6 0.000000 0.000000 0.000000 0.000000 0.000000 -0.707215
#
#
# Mechanical properties :
#
#
# Convention : Reuss Voigt Hill
#
# Bulk Modulus (GPa) = 9.72952 25.19370 17.46161
# Shear Modulus (GPa) = -9.60621 29.22102 9.80740
#
# Velocity S-wave (km/s) = -1.94566 3.39342 1.96593
# Velocity P-wave (km/s) = 1.10148 5.02812 3.46906
#
# Compressibility (1/GPa) = 0.10277995
#
# Stress axis : x y z
#
# Youngs Moduli (GPa) = 118.58773 98.09268 14.37941
#
# Poissons Ratio (x) = 0.04053 -0.14353
# Poissons Ratio (y) = 0.04900 0.03255
# Poissons Ratio (z) = -1.18370 0.22208
#
# Static dielectric constant tensor:
#      x y z
#    x 2.117590 0.000000 0.000000 
#    y 0.000000 1.759060 0.000000 
#    z 0.000000 0.000000 2.026810 
# 
# From -- ./inp_files/20440.got.cif
#   From: 2010.05.17/outbox.cif.g08.bks.cpg/sg62_11_cif.got.tgz:20440.got - 2010.06.03 15:25:27.
