data_PCOD9462597
_publ_section_title
;
Structure prediction by ZEFSAII (Michael W. Deem and Ramdas Pophale) SiO2 
 PCOD9462597
Probable space group: P N M A
;
_chemical_formula_sum "Si O2"
_cell_formula_units_Z 48
_cell_length_a 5.045185
_cell_length_b 19.089418
_cell_length_c 26.034206
_cell_angle_alpha 90.000000
_cell_angle_beta 90.000000
_cell_angle_gamma 90.000000
_cell_volume 2507.345147
_symmetry_space_group_name_H-M "P N M A"
_symmetry_group_IT_number 62
_symmetry_cell_setting 'orthorhombic'
loop_
_space_group_symop_operation_xyz
x,y,z
1/2-x,-y,1/2+z
1/2+x,1/2-y,1/2-z
-x,1/2+y,-z
-x,-y,-z
1/2+x,y,1/2-z
1/2-x,1/2+y,1/2+z
x,1/2-y,z
loop_
_atom_site_type_symbol
_atom_site_label
_atom_site_fract_x
_atom_site_fract_y
_atom_site_fract_z
Si Si1 0.838054 0.169935 0.592444
Si Si2 0.364319 0.965941 0.364030
Si Si3 0.665626 0.669300 0.477744
Si Si4 0.138108 0.455663 0.455521
Si Si5 0.670491 0.329010 0.284028
Si Si6 0.129108 0.955175 0.648331
O O1 0.834885 0.250000 0.611283
O O2 0.740080 0.112819 0.633132
O O3 0.628076 0.165626 0.545486
O O4 0.126395 0.154270 0.568676
O O5 0.335663 0.994818 0.422883
O O6 0.658979 0.982376 0.347317
O O7 0.154700 0.014820 0.333693
O O8 0.715145 0.750000 0.494117
O O9 0.722993 0.612165 0.520937
O O10 0.000000 0.500000 0.500000
O O11 0.925304 0.436814 0.411362
O O12 0.370637 0.335575 0.264297
O O13 0.707354 0.250000 0.304641
O O14 0.756757 0.388631 0.322968
#
# Coordination Sequence:
#
# PCOD9462597 Si02
#       6
#     8   8   8   8   8   8
#     4  10  19  32  47  66  96 140 186 221 251 307
#     4  10  20  33  50  74 106 137 178 229 266 322
#     4  10  20  30  43  64  93 136 189 226 256 302
#     4  10  20  32  50  71 107 150 179 219 278 325
#     4  10  21  40  64  84 111 148 184 233 294 342
#     4  10  22  34  53  83 105 138 184 230 265 340
#
# _framework density 19.143756
#
# number of rings (size 3 to 8) (size 9 to 14) (size 15 to 20)
#    1.000    1.000    1.667    3.000    2.333    2.000 
#    0.000    0.833    0.000    0.000    0.000    0.000 
#    0.000   13.333    0.000    0.000    0.000    0.000 
#
# Total GULP energy -267621.194399 kJ/mol
# GULP energy per Si atom -5575.441550 kJ/mol
# Density = 1.910018 g / cm^3
# Si number density = 19.143756 Si / 1000 Ang^3
#
#
#
# Elastic Constant Matrix: (Units=GPa)
#
#
# Indices 1 2 3 4 5 6 
#
# 1 49.1731 -18.2457 -7.7326 0.0000 0.0000 0.0000
# 2 -18.2457 92.8511 14.4298 0.0000 0.0000 0.0000
# 3 -7.7326 14.4298 12.8812 0.0000 0.0000 0.0000
# 4 0.0000 0.0000 0.0000 29.7815 0.0000 0.0000
# 5 0.0000 0.0000 0.0000 0.0000 14.0187 0.0000
# 6 0.0000 0.0000 0.0000 0.0000 0.0000 26.1964
#
#
#
# Elastic Compliance Matrix: (Units=1/GPa)
#
#
# Indices 1 2 3 4 5 6 
#
# 1 0.023077 0.002884 0.010623 0.000000 0.000000 0.000000
# 2 0.002884 0.013401 -0.013280 0.000000 0.000000 0.000000
# 3 0.010623 -0.013280 0.098887 0.000000 0.000000 0.000000
# 4 0.000000 0.000000 0.000000 0.033578 0.000000 0.000000
# 5 0.000000 0.000000 0.000000 0.000000 0.071333 0.000000
# 6 0.000000 0.000000 0.000000 0.000000 0.000000 0.038173
#
#
# Mechanical properties :
#
#
# Convention : Reuss Voigt Hill
#
# Bulk Modulus (GPa) = 7.36290 14.64537 11.00414
# Shear Modulus (GPa) = 15.46703 25.09625 20.28164
#
# Velocity S-wave (km/s) = 2.84551 3.62461 3.25843
# Velocity P-wave (km/s) = 3.82758 5.01836 4.46286
#
# Compressibility (1/GPa) = 0.13581596
#
# Stress axis : x y z
#
# Youngs Moduli (GPa) = 43.33351 74.62398 10.11259
#
# Poissons Ratio (x) = -0.21521 -0.10742
# Poissons Ratio (y) = -0.12497 0.13430
# Poissons Ratio (z) = -0.46031 0.99104
#
# Static dielectric constant tensor:
#      x y z
#    x 1.677770 0.000000 0.000000 
#    y 0.000000 1.684720 0.000000 
#    z 0.000000 0.000000 1.654590 
# 
# From -- ./inp_files/30459.got.cif
#   From: 2010.05.17/outbox.cif.g08.bks.cpg/sg62_16_cif.got.tgz:30459.got - 2010.06.03 15:25:27.
