data_PCOD9462789
_publ_section_title
;
Structure prediction by ZEFSAII (Michael W. Deem and Ramdas Pophale) SiO2 
 PCOD9462789
Probable space group: P N M A
;
_chemical_formula_sum "Si O2"
_cell_formula_units_Z 56
_cell_length_a 18.228168
_cell_length_b 18.934759
_cell_length_c 8.671237
_cell_angle_alpha 90.000000
_cell_angle_beta 90.000000
_cell_angle_gamma 90.000000
_cell_volume 2992.842489
_symmetry_space_group_name_H-M "P N M A"
_symmetry_group_IT_number 62
_symmetry_cell_setting 'orthorhombic'
loop_
_space_group_symop_operation_xyz
x,y,z
1/2-x,-y,1/2+z
1/2+x,1/2-y,1/2-z
-x,1/2+y,-z
-x,-y,-z
1/2+x,y,1/2-z
1/2-x,1/2+y,1/2+z
x,1/2-y,z
loop_
_atom_site_type_symbol
_atom_site_label
_atom_site_fract_x
_atom_site_fract_y
_atom_site_fract_z
Si Si1 0.581089 0.915635 0.905353
Si Si2 0.794032 0.459759 0.836475
Si Si3 0.939278 0.664702 0.474891
Si Si4 0.062370 0.555965 0.952359
Si Si5 0.011457 0.670804 0.171464
Si Si6 0.664905 0.669227 0.136554
Si Si7 0.343889 0.958019 0.949889
O O1 0.579602 0.938260 0.727938
O O2 0.508322 0.870106 0.937853
O O3 0.646465 0.865290 0.970470
O O4 0.590808 0.986535 0.008823
O O5 0.789576 0.386980 0.736989
O O6 0.813307 0.520773 0.715691
O O7 0.862126 0.455828 0.954721
O O8 0.719447 0.471762 0.926344
O O9 0.938327 0.750000 0.487211
O O10 0.870101 0.622187 0.537557
O O11 0.951166 0.644746 0.294025
O O12 0.027600 0.627340 0.020252
O O13 0.000000 0.500000 0.000000
O O14 0.992413 0.750000 0.129930
O O15 0.086386 0.670957 0.273377
O O16 0.691680 0.750000 0.128484
#
# Coordination Sequence:
#
# PCOD9462789 Si02
#       7
#     8   8   8   8   8   8   8
#     4  10  19  32  55  82 110 144 187 234 282 335
#     4  10  22  36  55  79 109 148 187 229 280 337
#     4  10  20  36  58  82 110 145 184 229 283 338
#     4  11  20  32  52  81 111 142 183 232 277 326
#     4   8  16  30  48  72 101 134 172 214 264 321
#     4   8  16  33  53  74 103 137 177 225 274 326
#     4  11  21  37  56  80 112 150 191 235 282 339
#
# _framework density 18.711310000000001
#
# number of rings (size 3 to 8) (size 9 to 14) (size 15 to 20)
#    0.000    2.286    0.000    5.143    0.000    1.714 
#    0.000    0.000    0.000    9.429    0.000    0.000 
#    0.000    0.000    0.000    0.000    0.000    0.000 
#
# Total GULP energy -312127.052706 kJ/mol
# GULP energy per Si atom -5573.697370 kJ/mol
# Density = 1.866872 g / cm^3
# Si number density = 18.711310 Si / 1000 Ang^3
#
#
#
# Elastic Constant Matrix: (Units=GPa)
#
#
# Indices 1 2 3 4 5 6 
#
# 1 50.2671 21.0128 16.3966 0.0000 0.0000 0.0000
# 2 21.0128 60.2202 6.4981 0.0000 0.0000 0.0000
# 3 16.3966 6.4981 76.0053 0.0000 0.0000 0.0000
# 4 0.0000 0.0000 0.0000 23.6285 0.0000 0.0000
# 5 0.0000 0.0000 0.0000 0.0000 18.3078 0.0000
# 6 0.0000 0.0000 0.0000 0.0000 0.0000 13.4592
#
#
#
# Elastic Compliance Matrix: (Units=1/GPa)
#
#
# Indices 1 2 3 4 5 6 
#
# 1 0.024824 -0.008159 -0.004658 0.000000 0.000000 0.000000
# 2 -0.008159 0.019442 0.000098 0.000000 0.000000 0.000000
# 3 -0.004658 0.000098 0.014153 0.000000 0.000000 0.000000
# 4 0.000000 0.000000 0.000000 0.042322 0.000000 0.000000
# 5 0.000000 0.000000 0.000000 0.000000 0.054621 0.000000
# 6 0.000000 0.000000 0.000000 0.000000 0.000000 0.074299
#
#
# Mechanical properties :
#
#
# Convention : Reuss Voigt Hill
#
# Bulk Modulus (GPa) = 30.32002 30.47862 30.39932
# Shear Modulus (GPa) = 18.79044 20.58478 19.68761
#
# Velocity S-wave (km/s) = 3.17240 3.32041 3.24725
# Velocity P-wave (km/s) = 5.44592 5.56996 5.50829
#
# Compressibility (1/GPa) = 0.03298151
#
# Stress axis : x y z
#
# Youngs Moduli (GPa) = 40.28403 51.43451 70.65441
#
# Poissons Ratio (x) = 0.41967 0.32908
# Poissons Ratio (y) = 0.32869 -0.00692
# Poissons Ratio (z) = 0.18763 -0.00504
#
# Static dielectric constant tensor:
#      x y z
#    x 1.658490 0.000000 0.000000 
#    y 0.000000 1.687570 0.000000 
#    z 0.000000 0.000000 1.645540 
# 
# From -- ./inp_files/8807.got.cif
#   From: 2010.05.17/outbox.cif.g08.bks.cpg/sg62_5_cif.got.tgz:8807.got - 2010.06.03 15:25:27.
