data_PCOD9462500
_publ_section_title
;
Structure prediction by ZEFSAII (Michael W. Deem and Ramdas Pophale) SiO2 
 PCOD9462500
Probable space group: P N M A
;
_chemical_formula_sum "Si O2"
_cell_formula_units_Z 64
_cell_length_a 14.619729
_cell_length_b 9.356767
_cell_length_c 25.407253
_cell_angle_alpha 90.000000
_cell_angle_beta 90.000000
_cell_angle_gamma 90.000000
_cell_volume 3475.544468
_symmetry_space_group_name_H-M "P N M A"
_symmetry_group_IT_number 62
_symmetry_cell_setting 'orthorhombic'
loop_
_space_group_symop_operation_xyz
x,y,z
1/2-x,-y,1/2+z
1/2+x,1/2-y,1/2-z
-x,1/2+y,-z
-x,-y,-z
1/2+x,y,1/2-z
1/2-x,1/2+y,1/2+z
x,1/2-y,z
loop_
_atom_site_type_symbol
_atom_site_label
_atom_site_fract_x
_atom_site_fract_y
_atom_site_fract_z
Si Si1 0.635527 0.921247 0.418986
Si Si2 0.572363 0.416892 0.199248
Si Si3 0.623678 0.411639 0.664948
Si Si4 0.132418 0.588195 0.732049
Si Si5 0.459117 0.415638 0.424828
Si Si6 0.665259 0.083131 0.310466
Si Si7 0.238110 0.583103 0.981512
Si Si8 0.177323 0.913094 0.390075
O O1 0.629490 0.750000 0.417360
O O2 0.719352 0.959602 0.458082
O O3 0.542424 0.986162 0.443166
O O4 0.644919 0.988578 0.361341
O O5 0.598931 0.250000 0.193263
O O6 0.462716 0.426482 0.201331
O O7 0.613796 0.462167 0.256335
O O8 0.613066 0.504473 0.150837
O O9 0.586605 0.250000 0.661826
O O10 0.633535 0.468497 0.723452
O O11 0.563062 0.524568 0.633256
O O12 0.723152 0.411169 0.637993
O O13 0.132166 0.750000 0.755617
O O14 0.225948 0.576766 0.699905
O O15 0.485992 0.250000 0.425252
O O16 0.363096 0.428345 0.455266
O O17 0.640238 0.250000 0.319933
O O18 0.264267 0.750000 0.979301
O O19 0.306000 0.491247 0.945719
O O20 0.147497 0.750000 0.397560
#
# Coordination Sequence:
#
# PCOD9462500 Si02
#       8
#     8   8   8   8   8   8   8   8
#     4  11  22  35  52  77 109 143 182 226 274 325
#     4  10  20  35  56  79 106 141 179 222 268 317
#     4  10  19  31  49  76 108 140 175 219 267 314
#     4  10  20  34  54  79 106 143 187 221 264 326
#     4  10  19  32  52  76 106 144 182 220 267 325
#     4  10  21  36  54  79 112 148 183 220 266 328
#     4   9  20  36  54  76 105 144 183 223 272 324
#     4  10  20  33  53  80 107 136 175 220 267 318
#
# _framework density 18.414380999999999
#
# number of rings (size 3 to 8) (size 9 to 14) (size 15 to 20)
#    0.000    2.000    1.250    2.625    0.000    5.000 
#    0.000    0.000    0.000    0.750    0.000    0.000 
#    0.000    0.000    0.000    0.000    0.000    0.000 
#
# Total GULP energy -357067.578542 kJ/mol
# GULP energy per Si atom -5579.180915 kJ/mol
# Density = 1.837247 g / cm^3
# Si number density = 18.414381 Si / 1000 Ang^3
#
#
#
# Elastic Constant Matrix: (Units=GPa)
#
#
# Indices 1 2 3 4 5 6 
#
# 1 54.5869 10.6282 8.8028 0.0000 0.0000 0.0000
# 2 10.6282 49.8510 9.0906 0.0000 0.0000 0.0000
# 3 8.8028 9.0906 31.0661 0.0000 0.0000 0.0000
# 4 0.0000 0.0000 0.0000 24.5808 0.0000 0.0000
# 5 0.0000 0.0000 0.0000 0.0000 21.0286 0.0000
# 6 0.0000 0.0000 0.0000 0.0000 0.0000 20.8675
#
#
#
# Elastic Compliance Matrix: (Units=1/GPa)
#
#
# Indices 1 2 3 4 5 6 
#
# 1 0.019717 -0.003364 -0.004602 0.000000 0.000000 0.000000
# 2 -0.003364 0.021765 -0.005416 0.000000 0.000000 0.000000
# 3 -0.004602 -0.005416 0.035078 0.000000 0.000000 0.000000
# 4 0.000000 0.000000 0.000000 0.040682 0.000000 0.000000
# 5 0.000000 0.000000 0.000000 0.000000 0.047554 0.000000
# 6 0.000000 0.000000 0.000000 0.000000 0.000000 0.047921
#
#
# Mechanical properties :
#
#
# Convention : Reuss Voigt Hill
#
# Bulk Modulus (GPa) = 20.08227 21.39412 20.73819
# Shear Modulus (GPa) = 19.52514 20.42754 19.97634
#
# Velocity S-wave (km/s) = 3.25979 3.33427 3.29724
# Velocity P-wave (km/s) = 5.00976 5.14456 5.07761
#
# Compressibility (1/GPa) = 0.04979517
#
# Stress axis : x y z
#
# Youngs Moduli (GPa) = 50.71859 45.94615 28.50766
#
# Poissons Ratio (x) = 0.15458 0.13120
# Poissons Ratio (y) = 0.17063 0.15438
# Poissons Ratio (z) = 0.23343 0.24882
#
# Static dielectric constant tensor:
#      x y z
#    x 1.642510 0.000000 0.000000 
#    y 0.000000 1.626180 0.000000 
#    z 0.000000 0.000000 1.641510 
# 
# From -- ./inp_files/29762.got.cif
#   From: 2010.05.17/outbox.cif.g08.bks.cpg/sg62_15_cif.got.tgz:29762.got - 2010.06.03 15:25:27.
