data_PCOD9462419
_publ_section_title
;
Structure prediction by ZEFSAII (Michael W. Deem and Ramdas Pophale) SiO2 
 PCOD9462419
Probable space group: P N M A
;
_chemical_formula_sum "Si O2"
_cell_formula_units_Z 64
_cell_length_a 23.980354
_cell_length_b 14.595447
_cell_length_c 9.778628
_cell_angle_alpha 90.000000
_cell_angle_beta 90.000000
_cell_angle_gamma 90.000000
_cell_volume 3422.558776
_symmetry_space_group_name_H-M "P N M A"
_symmetry_group_IT_number 62
_symmetry_cell_setting 'orthorhombic'
loop_
_space_group_symop_operation_xyz
x,y,z
1/2-x,-y,1/2+z
1/2+x,1/2-y,1/2-z
-x,1/2+y,-z
-x,-y,-z
1/2+x,y,1/2-z
1/2-x,1/2+y,1/2+z
x,1/2-y,z
loop_
_atom_site_type_symbol
_atom_site_label
_atom_site_fract_x
_atom_site_fract_y
_atom_site_fract_z
Si Si1 0.118464 0.642012 0.229476
Si Si2 0.842954 0.482973 0.198911
Si Si3 0.270384 0.859495 0.400233
Si Si4 0.434850 0.008171 0.523349
Si Si5 0.360404 0.649257 0.640813
Si Si6 0.338071 0.650492 0.957921
Si Si7 0.347648 0.054812 0.997330
Si Si8 0.710314 0.852625 0.477042
O O1 0.111256 0.750000 0.237819
O O2 0.079266 0.597319 0.114629
O O3 0.114201 0.601188 0.381332
O O4 0.180482 0.622176 0.165385
O O5 0.849180 0.428505 0.340531
O O6 0.808580 0.422056 0.092014
O O7 0.807410 0.578262 0.204291
O O8 0.901754 0.495023 0.120913
O O9 0.261280 0.750000 0.364011
O O10 0.310145 0.860120 0.533987
O O11 0.213969 0.912288 0.446209
O O12 0.500000 0.000000 0.500000
O O13 0.406208 0.927047 0.610934
O O14 0.385617 0.750000 0.621459
O O15 0.336073 0.645125 0.793072
O O16 0.364000 0.750000 0.993339
O O17 0.362848 0.553097 0.996654
O O18 0.276325 0.649891 0.019797
O O19 0.690081 0.750000 0.509896
#
# Coordination Sequence:
#
# PCOD9462419 Si02
#       8
#     8   8   8   8   8   8   8   8
#     4  10  22  38  57  84 117 153 191 231 282 344
#     4  10  22  35  55  84 115 148 191 238 279 335
#     4  10  21  33  52  81 118 156 189 219 263 328
#     4  10  21  41  64  84 103 141 193 250 299 342
#     4   9  18  35  56  82 110 142 186 231 276 333
#     4  10  19  30  52  80 113 150 180 220 271 329
#     4  12  22  33  54  83 119 156 181 224 277 343
#     4   9  18  33  53  78 112 152 190 221 261 327
#
# _framework density 18.699459999999998
#
# number of rings (size 3 to 8) (size 9 to 14) (size 15 to 20)
#    0.000    2.000    2.500    1.125    1.750    3.000 
#    0.000    0.625    0.000    0.000    0.000    0.000 
#    0.000    0.000    0.000    0.000    0.000    0.000 
#
# Total GULP energy -356495.763515 kJ/mol
# GULP energy per Si atom -5570.246305 kJ/mol
# Density = 1.865690 g / cm^3
# Si number density = 18.699460 Si / 1000 Ang^3
#
#
#
# Elastic Constant Matrix: (Units=GPa)
#
#
# Indices 1 2 3 4 5 6 
#
# 1 72.8972 17.8299 31.4379 0.0000 0.0000 0.0000
# 2 17.8299 97.5897 38.9960 0.0000 0.0000 0.0000
# 3 31.4379 38.9960 107.6345 0.0000 0.0000 0.0000
# 4 0.0000 0.0000 0.0000 18.9284 0.0000 0.0000
# 5 0.0000 0.0000 0.0000 0.0000 5.0578 0.0000
# 6 0.0000 0.0000 0.0000 0.0000 0.0000 4.5059
#
#
#
# Elastic Compliance Matrix: (Units=1/GPa)
#
#
# Indices 1 2 3 4 5 6 
#
# 1 0.015818 -0.001221 -0.004178 0.000000 0.000000 0.000000
# 2 -0.001221 0.012076 -0.004019 0.000000 0.000000 0.000000
# 3 -0.004178 -0.004019 0.011967 0.000000 0.000000 0.000000
# 4 0.000000 0.000000 0.000000 0.052831 0.000000 0.000000
# 5 0.000000 0.000000 0.000000 0.000000 0.197716 0.000000
# 6 0.000000 0.000000 0.000000 0.000000 0.000000 0.221929
#
#
# Mechanical properties :
#
#
# Convention : Reuss Voigt Hill
#
# Bulk Modulus (GPa) = 47.55841 50.51657 49.03749
# Shear Modulus (GPa) = 9.29056 18.35559 13.82308
#
# Velocity S-wave (km/s) = 2.23140 3.13647 2.72182
# Velocity P-wave (km/s) = 5.66808 6.33957 6.01321
#
# Compressibility (1/GPa) = 0.02102677
#
# Stress axis : x y z
#
# Youngs Moduli (GPa) = 63.21791 82.81053 83.56353
#
# Poissons Ratio (x) = 0.10107 0.34913
# Poissons Ratio (y) = 0.07716 0.33580
# Poissons Ratio (z) = 0.26412 0.33278
#
# Static dielectric constant tensor:
#      x y z
#    x 1.627560 0.000000 0.000000 
#    y 0.000000 1.720300 0.000000 
#    z 0.000000 0.000000 1.683130 
# 
# From -- ./inp_files/9500.got.cif
#   From: 2010.05.17/outbox.cif.g08.bks.cpg/sg62_5_cif.got.tgz:9500.got - 2010.06.03 15:25:27.
