data_PCOD9462239
_publ_section_title
;
Structure prediction by ZEFSAII (Michael W. Deem and Ramdas Pophale) SiO2 
 PCOD9462239
Probable space group: P N M A
;
_chemical_formula_sum "Si O2"
_cell_formula_units_Z 36
_cell_length_a 12.939547
_cell_length_b 12.718109
_cell_length_c 10.572772
_cell_angle_alpha 90.000000
_cell_angle_beta 90.000000
_cell_angle_gamma 90.000000
_cell_volume 1739.924815
_symmetry_space_group_name_H-M "P N M A"
_symmetry_group_IT_number 62
_symmetry_cell_setting 'orthorhombic'
loop_
_space_group_symop_operation_xyz
x,y,z
1/2-x,-y,1/2+z
1/2+x,1/2-y,1/2-z
-x,1/2+y,-z
-x,-y,-z
1/2+x,y,1/2-z
1/2-x,1/2+y,1/2+z
x,1/2-y,z
loop_
_atom_site_type_symbol
_atom_site_label
_atom_site_fract_x
_atom_site_fract_y
_atom_site_fract_z
Si Si1 0.951761 0.475219 0.708663
Si Si2 0.839193 0.519915 0.448412
Si Si3 0.151786 0.371156 0.108641
Si Si4 0.673620 0.250000 0.618342
Si Si5 0.913200 0.250000 0.672590
Si Si6 0.365251 0.750000 0.086329
O O1 0.875956 0.486168 0.587305
O O2 0.930476 0.565282 0.809885
O O3 0.928385 0.356312 0.752204
O O4 0.064641 0.483449 0.648003
O O5 0.751817 0.445289 0.393036
O O6 0.814262 0.643438 0.461332
O O7 0.167576 0.250000 0.155690
O O8 0.130485 0.349283 0.960030
O O9 0.799317 0.250000 0.610775
O O10 0.646947 0.250000 0.762922
O O11 0.008682 0.250000 0.570086
#
# Coordination Sequence:
#
# PCOD9462239 Si02
#       6
#     8   8   8   4   4   4
#     4  10  20  37  61  90 112 156 198 239 295 347
#     4  10  21  36  61  86 117 152 200 245 283 354
#     4  10  22  36  60  81 119 158 186 245 299 350
#     4  10  20  39  55  84 119 155 187 240 309 336
#     4  10  18  38  60  81 117 153 194 236 294 344
#     4  10  22  35  63  87 112 156 203 240 287 358
#
# _framework density 20.690550999999999
#
# number of rings (size 3 to 8) (size 9 to 14) (size 15 to 20)
#    0.667    1.333    2.222    1.333    1.556    0.889 
#    0.000    4.444    4.889    0.000    0.000    0.000 
#    0.000    0.000    0.000    0.000    0.000    0.000 
#
# Total GULP energy -200662.637110 kJ/mol
# GULP energy per Si atom -5573.962142 kJ/mol
# Density = 2.064346 g / cm^3
# Si number density = 20.690551 Si / 1000 Ang^3
#
#
#
# Elastic Constant Matrix: (Units=GPa)
#
#
# Indices 1 2 3 4 5 6 
#
# 1 12.0132 25.3170 10.9283 0.0000 0.0000 0.0000
# 2 25.3170 173.2938 17.7403 0.0000 0.0000 0.0000
# 3 10.9283 17.7403 36.0521 0.0000 0.0000 0.0000
# 4 0.0000 0.0000 0.0000 36.8679 0.0000 0.0000
# 5 0.0000 0.0000 0.0000 0.0000 16.9689 0.0000
# 6 0.0000 0.0000 0.0000 0.0000 0.0000 29.2258
#
#
#
# Elastic Compliance Matrix: (Units=1/GPa)
#
#
# Indices 1 2 3 4 5 6 
#
# 1 0.159119 -0.019280 -0.038746 0.000000 0.000000 0.000000
# 2 -0.019280 0.008413 0.001705 0.000000 0.000000 0.000000
# 3 -0.038746 0.001705 0.038644 0.000000 0.000000 0.000000
# 4 0.000000 0.000000 0.000000 0.027124 0.000000 0.000000
# 5 0.000000 0.000000 0.000000 0.000000 0.058931 0.000000
# 6 0.000000 0.000000 0.000000 0.000000 0.000000 0.034216
#
#
# Mechanical properties :
#
#
# Convention : Reuss Voigt Hill
#
# Bulk Modulus (GPa) = 10.69137 36.59224 23.64180
# Shear Modulus (GPa) = 10.63224 27.77075 19.20150
#
# Velocity S-wave (km/s) = 2.26933 3.66757 3.04967
# Velocity P-wave (km/s) = 3.47058 5.97149 4.88383
#
# Compressibility (1/GPa) = 0.09353342
#
# Stress axis : x y z
#
# Youngs Moduli (GPa) = 6.28459 118.86812 25.87741
#
# Poissons Ratio (x) = 2.29175 1.00264
# Poissons Ratio (y) = 0.12117 -0.04411
# Poissons Ratio (z) = 0.24350 -0.20261
#
# Static dielectric constant tensor:
#      x y z
#    x 1.765800 0.000000 0.000000 
#    y 0.000000 1.807380 0.000000 
#    z 0.000000 0.000000 1.730260 
# 
# From -- ./inp_files/12953.got.cif
#   From: 2010.05.17/outbox.cif.g08.bks.cpg/sg62_7_cif.got.tgz:12953.got - 2010.06.03 15:25:27.
