data_PCOD9462436
_publ_section_title
;
Structure prediction by ZEFSAII (Michael W. Deem and Ramdas Pophale) SiO2 
 PCOD9462436
Probable space group: P N M A
;
_chemical_formula_sum "Si O2"
_cell_formula_units_Z 48
_cell_length_a 8.444212
_cell_length_b 24.136080
_cell_length_c 10.440699
_cell_angle_alpha 90.000000
_cell_angle_beta 90.000000
_cell_angle_gamma 90.000000
_cell_volume 2127.920705
_symmetry_space_group_name_H-M "P N M A"
_symmetry_group_IT_number 62
_symmetry_cell_setting 'orthorhombic'
loop_
_space_group_symop_operation_xyz
x,y,z
1/2-x,-y,1/2+z
1/2+x,1/2-y,1/2-z
-x,1/2+y,-z
-x,-y,-z
1/2+x,y,1/2-z
1/2-x,1/2+y,1/2+z
x,1/2-y,z
loop_
_atom_site_type_symbol
_atom_site_label
_atom_site_fract_x
_atom_site_fract_y
_atom_site_fract_z
Si Si1 0.123890 0.450409 0.485601
Si Si2 0.568164 0.250000 0.833118
Si Si3 0.946721 0.860284 0.975845
Si Si4 0.422219 0.250000 0.558356
Si Si5 0.445911 0.030973 0.368664
Si Si6 0.889056 0.070921 0.801310
Si Si7 0.401990 0.358010 0.949842
O O1 0.258364 0.462736 0.379779
O O2 0.232889 0.440129 0.612998
O O3 0.000000 0.500000 0.500000
O O4 0.023875 0.394452 0.467286
O O5 0.544813 0.250000 0.679215
O O6 0.751056 0.250000 0.874705
O O7 0.484701 0.303962 0.892607
O O8 0.761954 0.846418 0.979391
O O9 0.047950 0.804472 0.974190
O O10 0.002594 0.889552 0.109040
O O11 0.982376 0.907770 0.871776
O O12 0.500000 0.000000 0.500000
O O13 0.517325 0.986042 0.274467
O O14 0.857500 0.102785 0.670844
#
# Coordination Sequence:
#
# PCOD9462436 Si02
#       7
#     8   4   8   4   8   8   8
#     4  10  19  32  49  67  92 127 173 208 246 295
#     4  12  24  32  46  70 106 135 170 199 244 294
#     4  10  19  32  47  64  96 129 168 202 245 287
#     4  12  22  34  44  68  98 139 170 201 240 296
#     4   8  17  33  47  62  92 131 164 208 251 289
#     4  10  19  31  47  67  94 130 164 209 252 292
#     4  12  21  32  51  75 100 137 172 209 245 300
#
# _framework density 22.557230000000001
#
# number of rings (size 3 to 8) (size 9 to 14) (size 15 to 20)
#    0.000    2.000    1.667    7.500    0.000    0.000 
#    0.000    0.000    0.000    0.000    0.000    0.000 
#    0.000    1.333    0.000   68.750    0.000   36.500 
#
# Total GULP energy -268387.376518 kJ/mol
# GULP energy per Si atom -5591.403677 kJ/mol
# Density = 2.250589 g / cm^3
# Si number density = 22.557230 Si / 1000 Ang^3
#
#
#
# Elastic Constant Matrix: (Units=GPa)
#
#
# Indices 1 2 3 4 5 6 
#
# 1 137.7314 33.9977 13.1242 0.0000 0.0000 0.0000
# 2 33.9977 160.5421 12.0668 0.0000 0.0000 0.0000
# 3 13.1242 12.0668 28.6249 0.0000 0.0000 0.0000
# 4 0.0000 0.0000 0.0000 3.5797 0.0000 0.0000
# 5 0.0000 0.0000 0.0000 0.0000 25.0538 0.0000
# 6 0.0000 0.0000 0.0000 0.0000 0.0000 38.1240
#
#
#
# Elastic Compliance Matrix: (Units=1/GPa)
#
#
# Indices 1 2 3 4 5 6 
#
# 1 0.007905 -0.001447 -0.003014 0.000000 0.000000 0.000000
# 2 -0.001447 0.006698 -0.002160 0.000000 0.000000 0.000000
# 3 -0.003014 -0.002160 0.037227 0.000000 0.000000 0.000000
# 4 0.000000 0.000000 0.000000 0.279350 0.000000 0.000000
# 5 0.000000 0.000000 0.000000 0.000000 0.039914 0.000000
# 6 0.000000 0.000000 0.000000 0.000000 0.000000 0.026230
#
#
# Mechanical properties :
#
#
# Convention : Reuss Voigt Hill
#
# Bulk Modulus (GPa) = 25.91546 49.47506 37.69526
# Shear Modulus (GPa) = 11.80835 31.19882 21.50358
#
# Velocity S-wave (km/s) = 2.29046 3.72303 3.09089
# Velocity P-wave (km/s) = 4.30217 6.36098 5.43004
#
# Compressibility (1/GPa) = 0.03858700
#
# Stress axis : x y z
#
# Youngs Moduli (GPa) = 126.50187 149.30360 26.86217
#
# Poissons Ratio (x) = 0.21611 0.08097
# Poissons Ratio (y) = 0.18311 0.05802
# Poissons Ratio (z) = 0.38130 0.32246
#
# Static dielectric constant tensor:
#      x y z
#    x 1.852020 0.000000 0.000000 
#    y 0.000000 1.852380 0.000000 
#    z 0.000000 0.000000 1.903600 
# 
# From -- ./inp_files/17095.got.cif
#   From: 2010.05.17/outbox.cif.g08.bks.cpg/sg62_9_cif.got.tgz:17095.got - 2010.06.03 15:25:27.
