data_PCOD9462469
_publ_section_title
;
Structure prediction by ZEFSAII (Michael W. Deem and Ramdas Pophale) SiO2 
 PCOD9462469
Probable space group: P N M A
;
_chemical_formula_sum "Si O2"
_cell_formula_units_Z 64
_cell_length_a 24.080145
_cell_length_b 8.563477
_cell_length_c 19.756502
_cell_angle_alpha 90.000000
_cell_angle_beta 90.000000
_cell_angle_gamma 90.000000
_cell_volume 4073.983691
_symmetry_space_group_name_H-M "P N M A"
_symmetry_group_IT_number 62
_symmetry_cell_setting 'orthorhombic'
loop_
_space_group_symop_operation_xyz
x,y,z
1/2-x,-y,1/2+z
1/2+x,1/2-y,1/2-z
-x,1/2+y,-z
-x,-y,-z
1/2+x,y,1/2-z
1/2-x,1/2+y,1/2+z
x,1/2-y,z
loop_
_atom_site_type_symbol
_atom_site_label
_atom_site_fract_x
_atom_site_fract_y
_atom_site_fract_z
Si Si1 0.745910 0.063058 0.000389
Si Si2 0.725189 0.063263 0.642331
Si Si3 0.731721 0.938984 0.350471
Si Si4 0.335602 0.060236 0.775680
Si Si5 0.061293 0.561433 0.361920
Si Si6 0.120210 0.938976 0.501691
Si Si7 0.062262 0.938273 0.642204
Si Si8 0.336726 0.062783 0.232734
O O1 0.746860 0.250000 0.003214
O O2 0.776477 0.996750 0.066104
O O3 0.682068 0.006433 0.001534
O O4 0.771529 0.011859 0.928352
O O5 0.723855 0.250000 0.643159
O O6 0.784683 0.013880 0.675002
O O7 0.678587 0.999796 0.693186
O O8 0.734286 0.750000 0.348685
O O9 0.682449 0.988657 0.299678
O O10 0.788487 0.001653 0.317379
O O11 0.336829 0.250000 0.776384
O O12 0.393830 0.006464 0.806220
O O13 0.060114 0.750000 0.360731
O O14 0.085173 0.514638 0.435538
O O15 0.999655 0.500519 0.350853
O O16 0.124841 0.750000 0.501586
O O17 0.089252 0.987705 0.570452
O O18 0.060534 0.750000 0.641684
O O19 0.104400 0.987540 0.701626
O O20 0.334744 0.250000 0.233269
#
# Coordination Sequence:
#
# PCOD9462469 Si02
#       8
#     8   8   8   8   8   8   8   8
#     4  11  20  29  47  75 100 126 162 199 236 291
#     4  10  19  33  51  68  96 128 158 197 245 293
#     4   9  18  31  48  70  97 126 158 196 244 292
#     4   8  15  30  48  66  89 121 156 195 238 280
#     4  10  19  31  49  67  90 128 172 202 229 284
#     4  10  19  33  46  64  97 135 167 197 237 278
#     4  10  21  33  46  66  98 132 162 202 245 281
#     4  10  19  32  49  70  95 124 161 201 242 287
#
# _framework density 15.709440000000001
#
# number of rings (size 3 to 8) (size 9 to 14) (size 15 to 20)
#    0.000    2.250    2.500    2.250    0.000    2.500 
#    0.000    0.625    0.000    0.000    0.000    0.875 
#    0.000    0.000    0.000    0.000    0.000    0.000 
#
# Total GULP energy -356911.090052 kJ/mol
# GULP energy per Si atom -5576.735782 kJ/mol
# Density = 1.567368 g / cm^3
# Si number density = 15.709440 Si / 1000 Ang^3
#
#
#
# Elastic Constant Matrix: (Units=GPa)
#
#
# Indices 1 2 3 4 5 6 
#
# 1 101.6205 20.1108 76.0085 0.0000 0.0000 0.0000
# 2 20.1108 15.0989 28.4222 0.0000 0.0000 0.0000
# 3 76.0085 28.4222 152.9937 0.0000 0.0000 0.0000
# 4 0.0000 0.0000 0.0000 17.3591 0.0000 0.0000
# 5 0.0000 0.0000 0.0000 0.0000 21.2445 0.0000
# 6 0.0000 0.0000 0.0000 0.0000 0.0000 22.6033
#
#
#
# Elastic Compliance Matrix: (Units=1/GPa)
#
#
# Indices 1 2 3 4 5 6 
#
# 1 0.016610 -0.010134 -0.006369 0.000000 0.000000 0.000000
# 2 -0.010134 0.108027 -0.015034 0.000000 0.000000 0.000000
# 3 -0.006369 -0.015034 0.012494 0.000000 0.000000 0.000000
# 4 0.000000 0.000000 0.000000 0.057607 0.000000 0.000000
# 5 0.000000 0.000000 0.000000 0.000000 0.047071 0.000000
# 6 0.000000 0.000000 0.000000 0.000000 0.000000 0.044241
#
#
# Mechanical properties :
#
#
# Convention : Reuss Voigt Hill
#
# Bulk Modulus (GPa) = 13.50322 57.64399 35.57360
# Shear Modulus (GPa) = 13.37576 21.91947 17.64762
#
# Velocity S-wave (km/s) = 2.92112 3.73943 3.35532
# Velocity P-wave (km/s) = 4.47119 7.44433 6.14042
#
# Compressibility (1/GPa) = 0.07405643
#
# Stress axis : x y z
#
# Youngs Moduli (GPa) = 60.20412 9.25691 80.04123
#
# Poissons Ratio (x) = 0.09381 0.50982
# Poissons Ratio (y) = 0.61009 1.20335
# Poissons Ratio (z) = 0.38347 0.13917
#
# Static dielectric constant tensor:
#      x y z
#    x 1.497080 0.000000 0.000000 
#    y 0.000000 1.532850 0.000000 
#    z 0.000000 0.000000 1.541340 
# 
# From -- ./inp_files/24949.got.cif
#   From: 2010.05.17/outbox.cif.g08.bks.cpg/sg62_13_cif.got.tgz:24949.got - 2010.06.03 15:25:27.
