data_PCOD9462241
_publ_section_title
;
Structure prediction by ZEFSAII (Michael W. Deem and Ramdas Pophale) SiO2 
 PCOD9462241
Probable space group: P N M A
;
_chemical_formula_sum "Si O2"
_cell_formula_units_Z 48
_cell_length_a 29.225778
_cell_length_b 8.537228
_cell_length_c 9.159950
_cell_angle_alpha 90.000000
_cell_angle_beta 90.000000
_cell_angle_gamma 90.000000
_cell_volume 2285.472838
_symmetry_space_group_name_H-M "P N M A"
_symmetry_group_IT_number 62
_symmetry_cell_setting 'orthorhombic'
loop_
_space_group_symop_operation_xyz
x,y,z
1/2-x,-y,1/2+z
1/2+x,1/2-y,1/2-z
-x,1/2+y,-z
-x,-y,-z
1/2+x,y,1/2-z
1/2-x,1/2+y,1/2+z
x,1/2-y,z
loop_
_atom_site_type_symbol
_atom_site_label
_atom_site_fract_x
_atom_site_fract_y
_atom_site_fract_z
Si Si1 0.749042 0.999985 0.997660
Si Si2 0.686744 0.071920 0.759166
Si Si3 0.413464 0.936346 0.349589
Si Si4 0.415904 0.064609 0.673846
Si Si5 0.996988 0.065188 0.337115
Si Si6 0.686765 0.571781 0.235838
O O1 0.785073 0.918458 0.107552
O O2 0.712452 0.044890 0.124760
O O3 0.712420 0.955634 0.870576
O O4 0.785281 0.080923 0.887901
O O5 0.688054 0.250000 0.822101
O O6 0.635007 0.025902 0.726113
O O7 0.413559 0.750000 0.376780
O O8 0.416976 0.023940 0.503214
O O9 0.455749 0.982671 0.248764
O O10 0.423383 0.250000 0.694262
O O11 0.365278 0.027290 0.733807
O O12 0.455660 0.972345 0.755467
O O13 0.988732 0.250000 0.339182
O O14 0.000000 0.000000 0.500000
O O15 0.688510 0.750000 0.173245
#
# Coordination Sequence:
#
# PCOD9462241 Si02
#       6
#     8   8   8   8   8   8
#     4  10  18  38  60  88 126 172 218 264 328 364
#     4  10  22  39  60  91 130 169 219 268 320 382
#     4  11  23  44  69  98 133 176 219 270 324 389
#     4  11  23  44  69  98 133 176 219 270 324 389
#     4  12  27  48  71 102 130 166 212 268 333 396
#     4  10  22  39  60  91 130 169 219 268 320 382
#
# _framework density 21.002217999999999
#
# number of rings (size 3 to 8) (size 9 to 14) (size 15 to 20)
#    0.000    1.333    1.667    5.000    2.333    0.000 
#    0.000   18.333    0.000    0.000    0.000    0.000 
#    0.000    0.000    0.000    0.000    0.000    0.000 
#
# Total GULP energy -267319.030957 kJ/mol
# GULP energy per Si atom -5569.146478 kJ/mol
# Density = 2.095442 g / cm^3
# Si number density = 21.002218 Si / 1000 Ang^3
#
#
#
# Elastic Constant Matrix: (Units=GPa)
#
#
# Indices 1 2 3 4 5 6 
#
# 1 146.3974 -4.2601 48.1734 0.0000 0.0000 0.0000
# 2 -4.2601 24.6594 6.4193 0.0000 0.0000 0.0000
# 3 48.1734 6.4193 104.5664 0.0000 0.0000 0.0000
# 4 0.0000 0.0000 0.0000 26.3448 0.0000 0.0000
# 5 0.0000 0.0000 0.0000 0.0000 37.4170 0.0000
# 6 0.0000 0.0000 0.0000 0.0000 0.0000 -203.0153
#
#
#
# Elastic Compliance Matrix: (Units=1/GPa)
#
#
# Indices 1 2 3 4 5 6 
#
# 1 0.008193 0.002437 -0.003924 0.000000 0.000000 0.000000
# 2 0.002437 0.041936 -0.003697 0.000000 0.000000 0.000000
# 3 -0.003924 -0.003697 0.011598 0.000000 0.000000 0.000000
# 4 0.000000 0.000000 0.000000 0.037958 0.000000 0.000000
# 5 0.000000 0.000000 0.000000 0.000000 0.026726 0.000000
# 6 0.000000 0.000000 0.000000 0.000000 0.000000 -0.004926
#
#
# Mechanical properties :
#
#
# Convention : Reuss Voigt Hill
#
# Bulk Modulus (GPa) = 19.47107 41.80984 30.64045
# Shear Modulus (GPa) = 33.56314 -12.83132 10.36591
#
# Velocity S-wave (km/s) = 4.00193 -2.47442 2.22404
# Velocity P-wave (km/s) = 5.53579 3.43320 4.60608
#
# Compressibility (1/GPa) = 0.05135826
#
# Stress axis : x y z
#
# Youngs Moduli (GPa) = 122.05730 23.84595 86.22128
#
# Poissons Ratio (x) = -0.05811 0.33834
# Poissons Ratio (y) = -0.29744 0.31877
# Poissons Ratio (z) = 0.47896 0.08816
#
# Static dielectric constant tensor:
#      x y z
#    x 1.734310 0.000000 0.000000 
#    y 0.000000 1.811470 0.000000 
#    z 0.000000 0.000000 1.726000 
# 
# From -- ./inp_files/10287.got.cif
#   From: 2010.05.17/outbox.cif.g08.bks.cpg/sg62_6_cif.got.tgz:10287.got - 2010.06.03 15:25:27.
