data_PCOD9462834
_publ_section_title
;
Structure prediction by ZEFSAII (Michael W. Deem and Ramdas Pophale) SiO2 
 PCOD9462834
Probable space group: P N M A
;
_chemical_formula_sum "Si O2"
_cell_formula_units_Z 64
_cell_length_a 14.482233
_cell_length_b 8.769086
_cell_length_c 31.018314
_cell_angle_alpha 90.000000
_cell_angle_beta 90.000000
_cell_angle_gamma 90.000000
_cell_volume 3939.200150
_symmetry_space_group_name_H-M "P N M A"
_symmetry_group_IT_number 62
_symmetry_cell_setting 'orthorhombic'
loop_
_space_group_symop_operation_xyz
x,y,z
1/2-x,-y,1/2+z
1/2+x,1/2-y,1/2-z
-x,1/2+y,-z
-x,-y,-z
1/2+x,y,1/2-z
1/2-x,1/2+y,1/2+z
x,1/2-y,z
loop_
_atom_site_type_symbol
_atom_site_label
_atom_site_fract_x
_atom_site_fract_y
_atom_site_fract_z
Si Si1 0.697350 0.429481 0.869495
Si Si2 0.484135 0.568713 0.269886
Si Si3 0.231230 0.430225 0.782012
Si Si4 0.170777 0.426121 0.363481
Si Si5 0.389228 0.432598 0.046489
Si Si6 0.605965 0.065457 0.046320
Si Si7 0.665888 0.068406 0.301744
Si Si8 0.529389 0.923974 0.822142
O O1 0.714516 0.250000 0.871091
O O2 0.673737 0.494717 0.916562
O O3 0.778507 0.512802 0.843584
O O4 0.605835 0.465655 0.841539
O O5 0.495307 0.750000 0.263399
O O6 0.378508 0.540101 0.283552
O O7 0.564857 0.507381 0.300290
O O8 0.496526 0.479554 0.225156
O O9 0.245406 0.250000 0.775247
O O10 0.275883 0.481051 0.827091
O O11 0.278341 0.514285 0.741263
O O12 0.203014 0.250000 0.362358
O O13 0.167802 0.482034 0.412800
O O14 0.063318 0.425033 0.349834
O O15 0.383294 0.250000 0.048857
O O16 0.497608 0.475158 0.053623
O O17 0.365462 0.492003 0.998847
O O18 0.609593 0.250000 0.043484
O O19 0.658612 0.250000 0.300711
O O20 0.565793 0.750000 0.821611
#
# Coordination Sequence:
#
# PCOD9462834 Si02
#       8
#     8   8   8   8   8   8   8   8
#     4  12  23  35  52  76 106 143 181 219 265 316
#     4  11  23  38  53  74 106 141 178 223 266 309
#     4  11  23  36  53  77 106 139 178 219 263 316
#     4  10  20  34  52  75 106 142 179 217 259 309
#     4  10  19  33  51  75 106 138 175 217 263 316
#     4   9  18  33  50  74 106 139 175 215 261 311
#     4  12  24  37  55  76 103 139 181 224 264 314
#     4  11  20  32  51  76 106 142 180 219 259 307
#
# _framework density 16.246952
#
# number of rings (size 3 to 8) (size 9 to 14) (size 15 to 20)
#    0.000    1.250    3.750    3.750    0.000    3.000 
#    0.000    0.000    0.000    0.000    0.000    0.875 
#    0.000    0.000    0.000    0.000    0.000    0.000 
#
# Total GULP energy -357393.951800 kJ/mol
# GULP energy per Si atom -5584.280497 kJ/mol
# Density = 1.620997 g / cm^3
# Si number density = 16.246952 Si / 1000 Ang^3
#
#
#
# Elastic Constant Matrix: (Units=GPa)
#
#
# Indices 1 2 3 4 5 6 
#
# 1 37.4807 15.4650 4.6657 0.0000 0.0000 0.0000
# 2 15.4650 60.4762 18.7501 0.0000 0.0000 0.0000
# 3 4.6657 18.7501 81.4595 0.0000 0.0000 0.0000
# 4 0.0000 0.0000 0.0000 26.2380 0.0000 0.0000
# 5 0.0000 0.0000 0.0000 0.0000 19.8036 0.0000
# 6 0.0000 0.0000 0.0000 0.0000 0.0000 34.2455
#
#
#
# Elastic Compliance Matrix: (Units=1/GPa)
#
#
# Indices 1 2 3 4 5 6 
#
# 1 0.029828 -0.007643 0.000051 0.000000 0.000000 0.000000
# 2 -0.007643 0.019765 -0.004112 0.000000 0.000000 0.000000
# 3 0.000051 -0.004112 0.013220 0.000000 0.000000 0.000000
# 4 0.000000 0.000000 0.000000 0.038113 0.000000 0.000000
# 5 0.000000 0.000000 0.000000 0.000000 0.050496 0.000000
# 6 0.000000 0.000000 0.000000 0.000000 0.000000 0.029201
#
#
# Mechanical properties :
#
#
# Convention : Reuss Voigt Hill
#
# Bulk Modulus (GPa) = 25.37817 28.57533 26.97675
# Shear Modulus (GPa) = 23.02404 25.42646 24.22525
#
# Velocity S-wave (km/s) = 3.76856 3.96030 3.86562
# Velocity P-wave (km/s) = 5.88135 6.20792 6.04684
#
# Compressibility (1/GPa) = 0.03940394
#
# Stress axis : x y z
#
# Youngs Moduli (GPa) = 33.52578 50.59510 75.64572
#
# Poissons Ratio (x) = 0.38672 -0.00385
# Poissons Ratio (y) = 0.25625 0.31103
# Poissons Ratio (z) = -0.00171 0.20803
#
# Static dielectric constant tensor:
#      x y z
#    x 1.538220 0.000000 0.000000 
#    y 0.000000 1.554980 0.000000 
#    z 0.000000 0.000000 1.550530 
# 
# From -- ./inp_files/32713.got.cif
#   From: 2010.05.17/outbox.cif.g08.bks.cpg/sg62_17_cif.got.tgz:32713.got - 2010.06.03 15:25:27.
