data_PCOD9462615
_publ_section_title
;
Structure prediction by ZEFSAII (Michael W. Deem and Ramdas Pophale) SiO2 
 PCOD9462615
Probable space group: P N M A
;
_chemical_formula_sum "Si O2"
_cell_formula_units_Z 56
_cell_length_a 19.968993
_cell_length_b 7.492299
_cell_length_c 18.438573
_cell_angle_alpha 90.000000
_cell_angle_beta 90.000000
_cell_angle_gamma 90.000000
_cell_volume 2758.662508
_symmetry_space_group_name_H-M "P N M A"
_symmetry_group_IT_number 62
_symmetry_cell_setting 'orthorhombic'
loop_
_space_group_symop_operation_xyz
x,y,z
1/2-x,-y,1/2+z
1/2+x,1/2-y,1/2-z
-x,1/2+y,-z
-x,-y,-z
1/2+x,y,1/2-z
1/2-x,1/2+y,1/2+z
x,1/2-y,z
loop_
_atom_site_type_symbol
_atom_site_label
_atom_site_fract_x
_atom_site_fract_y
_atom_site_fract_z
Si Si1 0.108450 0.038404 0.119056
Si Si2 0.354055 0.465597 0.452658
Si Si3 0.752052 0.468370 0.356806
Si Si4 0.289731 0.955182 0.977650
Si Si5 0.389781 0.040530 0.194057
Si Si6 0.963235 0.469253 0.165236
Si Si7 0.926462 0.962098 0.470405
O O1 0.106552 0.250000 0.132083
O O2 0.176295 0.972603 0.158128
O O3 0.037240 0.966121 0.144458
O O4 0.120176 0.012073 0.033165
O O5 0.350414 0.250000 0.449665
O O6 0.277624 0.533194 0.441707
O O7 0.407779 0.524754 0.393586
O O8 0.753048 0.250000 0.360231
O O9 0.770133 0.537725 0.437048
O O10 0.813366 0.528822 0.306682
O O11 0.295003 0.750000 0.952412
O O12 0.364810 0.034067 0.979988
O O13 0.383784 0.250000 0.209841
O O14 0.438212 0.969295 0.256003
O O15 0.417567 0.023830 0.112504
O O16 0.965356 0.250000 0.163433
O O17 0.917354 0.750000 0.468790
O O18 0.000000 0.000000 0.500000
#
# Coordination Sequence:
#
# PCOD9462615 Si02
#       7
#     8   8   8   8   8   8   8
#     4   9  16  27  43  66  91 117 151 190 225 263
#     4   9  16  28  45  66  91 121 153 186 223 269
#     4   8  14  25  43  62  81 109 147 183 218 261
#     4   8  15  27  44  65  87 110 142 180 219 262
#     4   9  17  31  47  64  88 121 154 185 224 270
#     4   9  17  28  44  66  94 121 149 187 229 270
#     4  10  19  32  50  71  91 115 149 191 231 269
#
# _framework density 20.299693000000001
#
# number of rings (size 3 to 8) (size 9 to 14) (size 15 to 20)
#    0.000    3.143    0.000    0.857    0.000    0.571 
#    0.000    2.857    0.000    6.857    0.000    6.000 
#    0.000    0.000    0.000    0.000    0.000    0.000 
#
# Total GULP energy -311829.570115 kJ/mol
# GULP energy per Si atom -5568.385181 kJ/mol
# Density = 2.025349 g / cm^3
# Si number density = 20.299693 Si / 1000 Ang^3
#
#
#
# Elastic Constant Matrix: (Units=GPa)
#
#
# Indices 1 2 3 4 5 6 
#
# 1 240.1333 -0.5115 70.1856 0.0000 0.0000 0.0000
# 2 -0.5115 54.8393 -10.0617 0.0000 0.0000 0.0000
# 3 70.1856 -10.0617 52.8725 0.0000 0.0000 0.0000
# 4 0.0000 0.0000 0.0000 3.2323 0.0000 0.0000
# 5 0.0000 0.0000 0.0000 0.0000 18.1231 0.0000
# 6 0.0000 0.0000 0.0000 0.0000 0.0000 1.9630
#
#
#
# Elastic Compliance Matrix: (Units=1/GPa)
#
#
# Indices 1 2 3 4 5 6 
#
# 1 0.006952 -0.001687 -0.009549 0.000000 0.000000 0.000000
# 2 -0.001687 0.019304 0.005913 0.000000 0.000000 0.000000
# 3 -0.009549 0.005913 0.032715 0.000000 0.000000 0.000000
# 4 0.000000 0.000000 0.000000 0.309378 0.000000 0.000000
# 5 0.000000 0.000000 0.000000 0.000000 0.055178 0.000000
# 6 0.000000 0.000000 0.000000 0.000000 0.000000 0.509415
#
#
# Mechanical properties :
#
#
# Convention : Reuss Voigt Hill
#
# Bulk Modulus (GPa) = 20.69336 51.89669 36.29502
# Shear Modulus (GPa) = 5.20998 23.87919 14.54459
#
# Velocity S-wave (km/s) = 1.60378 3.43349 2.67964
# Velocity P-wave (km/s) = 3.69399 6.42956 5.24332
#
# Compressibility (1/GPa) = 0.04832468
#
# Stress axis : x y z
#
# Youngs Moduli (GPa) = 143.84785 51.80191 30.56715
#
# Poissons Ratio (x) = 0.08740 0.29189
# Poissons Ratio (y) = 0.24270 -0.18075
# Poissons Ratio (z) = 1.37364 -0.30632
#
# Static dielectric constant tensor:
#      x y z
#    x 1.797170 0.000000 0.000000 
#    y 0.000000 1.994970 0.000000 
#    z 0.000000 0.000000 1.677730 
# 
# From -- ./inp_files/27520.got.cif
#   From: 2010.05.17/outbox.cif.g08.bks.cpg/sg62_14_cif.got.tgz:27520.got - 2010.06.03 15:25:27.
