data_PCOD9462731
_publ_section_title
;
Structure prediction by ZEFSAII (Michael W. Deem and Ramdas Pophale) SiO2 
 PCOD9462731
Probable space group: P N M A
;
_chemical_formula_sum "Si O2"
_cell_formula_units_Z 64
_cell_length_a 17.821563
_cell_length_b 7.715810
_cell_length_c 22.274817
_cell_angle_alpha 90.000000
_cell_angle_beta 90.000000
_cell_angle_gamma 90.000000
_cell_volume 3062.960948
_symmetry_space_group_name_H-M "P N M A"
_symmetry_group_IT_number 62
_symmetry_cell_setting 'orthorhombic'
loop_
_space_group_symop_operation_xyz
x,y,z
1/2-x,-y,1/2+z
1/2+x,1/2-y,1/2-z
-x,1/2+y,-z
-x,-y,-z
1/2+x,y,1/2-z
1/2-x,1/2+y,1/2+z
x,1/2-y,z
loop_
_atom_site_type_symbol
_atom_site_label
_atom_site_fract_x
_atom_site_fract_y
_atom_site_fract_z
Si Si1 0.160929 0.958999 0.219843
Si Si2 0.931000 0.549225 0.416638
Si Si3 0.647599 0.044064 0.474449
Si Si4 0.965007 0.541913 0.870380
Si Si5 0.131241 0.549340 0.888204
Si Si6 0.726273 0.039781 0.883178
Si Si7 0.292737 0.046731 0.849105
Si Si8 0.092697 0.962046 0.446165
O O1 0.166250 0.750000 0.221227
O O2 0.224325 0.021237 0.173010
O O3 0.177282 0.026732 0.286310
O O4 0.081592 0.003005 0.189612
O O5 0.936104 0.750000 0.398545
O O6 0.858824 0.472701 0.383368
O O7 0.910068 0.536335 0.487088
O O8 0.015617 0.480945 0.413108
O O9 0.638398 0.250000 0.481764
O O10 0.584806 0.978263 0.427085
O O11 0.640175 0.963934 0.539879
O O12 0.727430 0.011755 0.442582
O O13 0.968558 0.750000 0.877027
O O14 0.049730 0.474176 0.871620
O O15 0.131767 0.750000 0.870606
O O16 0.204001 0.468413 0.857505
O O17 0.724146 0.250000 0.882356
O O18 0.311829 0.250000 0.848041
O O19 0.336645 0.978673 0.907282
O O20 0.091744 0.750000 0.452225
#
# Coordination Sequence:
#
# PCOD9462731 Si02
#       8
#     8   8   8   8   8   8   8   8
#     4   9  19  36  55  76 102 135 175 216 259 308
#     4   9  17  30  49  73  98 128 166 205 251 303
#     4  10  19  32  53  80 109 139 169 211 265 314
#     4   9  20  37  55  77 106 140 176 214 261 315
#     4  11  22  35  53  79 108 139 175 216 262 316
#     4   9  17  31  51  75 103 134 170 211 253 307
#     4  10  21  37  53  76 106 138 177 218 264 312
#     4   9  18  32  49  70 101 132 161 206 256 303
#
# _framework density 20.894815000000001
#
# number of rings (size 3 to 8) (size 9 to 14) (size 15 to 20)
#    0.000    2.500    0.000    1.875    0.000    5.000 
#    2.250    0.000    0.000    0.000    0.000    0.000 
#    0.000    0.000    0.000    0.000    0.000    0.000 
#
# Total GULP energy -357135.676618 kJ/mol
# GULP energy per Si atom -5580.244947 kJ/mol
# Density = 2.084726 g / cm^3
# Si number density = 20.894815 Si / 1000 Ang^3
#
#
#
# Elastic Constant Matrix: (Units=GPa)
#
#
# Indices 1 2 3 4 5 6 
#
# 1 85.9812 -7.3053 5.5935 0.0000 0.0000 0.0000
# 2 -7.3053 30.9974 -8.4755 0.0000 0.0000 0.0000
# 3 5.5935 -8.4755 49.7791 0.0000 0.0000 0.0000
# 4 0.0000 0.0000 0.0000 12.4582 0.0000 0.0000
# 5 0.0000 0.0000 0.0000 0.0000 6.8946 0.0000
# 6 0.0000 0.0000 0.0000 0.0000 0.0000 19.9524
#
#
#
# Elastic Compliance Matrix: (Units=1/GPa)
#
#
# Indices 1 2 3 4 5 6 
#
# 1 0.011907 0.002559 -0.000902 0.000000 0.000000 0.000000
# 2 0.002559 0.034386 0.005567 0.000000 0.000000 0.000000
# 3 -0.000902 0.005567 0.021138 0.000000 0.000000 0.000000
# 4 0.000000 0.000000 0.000000 0.080268 0.000000 0.000000
# 5 0.000000 0.000000 0.000000 0.000000 0.145041 0.000000
# 6 0.000000 0.000000 0.000000 0.000000 0.000000 0.050119
#
#
# Mechanical properties :
#
#
# Convention : Reuss Voigt Hill
#
# Bulk Modulus (GPa) = 12.21308 16.26479 14.23893
# Shear Modulus (GPa) = 14.05665 19.65739 16.85702
#
# Velocity S-wave (km/s) = 2.59653 3.07054 2.84343
# Velocity P-wave (km/s) = 3.85318 4.51353 4.19636
#
# Compressibility (1/GPa) = 0.08187945
#
# Stress axis : x y z
#
# Youngs Moduli (GPa) = 83.98711 29.08145 47.30818
#
# Poissons Ratio (x) = -0.07443 0.04268
# Poissons Ratio (y) = -0.21496 -0.26337
# Poissons Ratio (z) = 0.07577 -0.16190
#
# Static dielectric constant tensor:
#      x y z
#    x 1.769770 0.000000 0.000000 
#    y 0.000000 1.799430 0.000000 
#    z 0.000000 0.000000 1.723100 
# 
# From -- ./inp_files/27692.got.cif
#   From: 2010.05.17/outbox.cif.g08.bks.cpg/sg62_14_cif.got.tgz:27692.got - 2010.06.03 15:25:27.
