data_PCOD9462842
_publ_section_title
;
Structure prediction by ZEFSAII (Michael W. Deem and Ramdas Pophale) SiO2 
 PCOD9462842
Probable space group: P N M A
;
_chemical_formula_sum "Si O2"
_cell_formula_units_Z 64
_cell_length_a 13.073921
_cell_length_b 9.541536
_cell_length_c 28.204421
_cell_angle_alpha 90.000000
_cell_angle_beta 90.000000
_cell_angle_gamma 90.000000
_cell_volume 3518.368617
_symmetry_space_group_name_H-M "P N M A"
_symmetry_group_IT_number 62
_symmetry_cell_setting 'orthorhombic'
loop_
_space_group_symop_operation_xyz
x,y,z
1/2-x,-y,1/2+z
1/2+x,1/2-y,1/2-z
-x,1/2+y,-z
-x,-y,-z
1/2+x,y,1/2-z
1/2-x,1/2+y,1/2+z
x,1/2-y,z
loop_
_atom_site_type_symbol
_atom_site_label
_atom_site_fract_x
_atom_site_fract_y
_atom_site_fract_z
Si Si1 0.158782 0.080920 0.935928
Si Si2 0.614402 0.915922 0.089490
Si Si3 0.139686 0.911520 0.677315
Si Si4 0.303989 0.918252 0.542051
Si Si5 0.079474 0.911828 0.565944
Si Si6 0.663262 0.914627 0.294683
Si Si7 0.448081 0.413732 0.801150
Si Si8 0.049437 0.917399 0.112075
O O1 0.162740 0.250000 0.930674
O O2 0.271802 0.030369 0.921748
O O3 0.062198 0.033019 0.905151
O O4 0.144459 0.051340 0.991501
O O5 0.608850 0.750000 0.078108
O O6 0.596854 0.931574 0.146061
O O7 0.521968 0.994734 0.062908
O O8 0.147177 0.750000 0.690963
O O9 0.114635 0.917445 0.621181
O O10 0.242886 0.992284 0.688741
O O11 0.046479 0.988995 0.702764
O O12 0.307602 0.750000 0.551019
O O13 0.183235 0.955533 0.539047
O O14 0.363770 0.001670 0.582448
O O15 0.056404 0.750000 0.553938
O O16 0.691247 0.750000 0.297621
O O17 0.629502 0.945305 0.241212
O O18 0.571713 0.937223 0.332320
O O19 0.477653 0.250000 0.796496
O O20 0.057548 0.750000 0.102423
#
# Coordination Sequence:
#
# PCOD9462842 Si02
#       8
#     8   8   8   8   8   8   8   8
#     4   9  19  34  52  75 105 139 173 214 266 315
#     4   9  18  34  54  75 102 137 174 214 260 314
#     4  10  19  33  52  74 103 137 170 212 261 309
#     4  10  19  34  54  75 103 139 174 213 265 318
#     4   9  18  32  51  74 101 134 170 212 259 306
#     4  10  20  33  53  79 104 134 174 219 263 311
#     4   9  19  34  53  77 103 136 174 215 265 314
#     4  10  20  34  53  78 106 135 175 222 260 308
#
# _framework density 18.190249000000001
#
# number of rings (size 3 to 8) (size 9 to 14) (size 15 to 20)
#    0.000    2.500    1.250    0.750    0.000    3.000 
#    0.000    5.000    0.000    0.000    0.000    0.000 
#    0.000    0.000    0.000    0.000    0.000    0.000 
#
# Total GULP energy -356926.580200 kJ/mol
# GULP energy per Si atom -5576.977816 kJ/mol
# Density = 1.814885 g / cm^3
# Si number density = 18.190249 Si / 1000 Ang^3
#
#
#
# Elastic Constant Matrix: (Units=GPa)
#
#
# Indices 1 2 3 4 5 6 
#
# 1 85.1552 28.5199 11.2137 0.0000 0.0000 0.0000
# 2 28.5199 25.8969 16.9609 0.0000 0.0000 0.0000
# 3 11.2137 16.9609 27.7497 0.0000 0.0000 0.0000
# 4 0.0000 0.0000 0.0000 12.0243 0.0000 0.0000
# 5 0.0000 0.0000 0.0000 0.0000 19.4921 0.0000
# 6 0.0000 0.0000 0.0000 0.0000 0.0000 22.7545
#
#
#
# Elastic Compliance Matrix: (Units=1/GPa)
#
#
# Indices 1 2 3 4 5 6 
#
# 1 0.019842 -0.027681 0.008901 0.000000 0.000000 0.000000
# 2 -0.027681 0.103008 -0.051773 0.000000 0.000000 0.000000
# 3 0.008901 -0.051773 0.064084 0.000000 0.000000 0.000000
# 4 0.000000 0.000000 0.000000 0.083165 0.000000 0.000000
# 5 0.000000 0.000000 0.000000 0.000000 0.051303 0.000000
# 6 0.000000 0.000000 0.000000 0.000000 0.000000 0.043947
#
#
# Mechanical properties :
#
#
# Convention : Reuss Voigt Hill
#
# Bulk Modulus (GPa) = 21.82149 28.02119 24.92134
# Shear Modulus (GPa) = 9.58345 16.32799 12.95572
#
# Velocity S-wave (km/s) = 2.29780 2.99929 2.67167
# Velocity P-wave (km/s) = 4.36602 5.23758 4.82154
#
# Compressibility (1/GPa) = 0.04582638
#
# Stress axis : x y z
#
# Youngs Moduli (GPa) = 50.39795 9.70798 15.60452
#
# Poissons Ratio (x) = 0.26873 -0.13889
# Poissons Ratio (y) = 1.39508 0.80790
# Poissons Ratio (z) = -0.44858 0.50262
#
# Static dielectric constant tensor:
#      x y z
#    x 1.616970 0.000000 0.000000 
#    y 0.000000 1.604500 0.000000 
#    z 0.000000 0.000000 1.633060 
# 
# From -- ./inp_files/32612.got.cif
#   From: 2010.05.17/outbox.cif.g08.bks.cpg/sg62_17_cif.got.tgz:32612.got - 2010.06.03 15:25:27.
