data_PCOD9462916
_publ_section_title
;
Structure prediction by ZEFSAII (Michael W. Deem and Ramdas Pophale) SiO2 
 PCOD9462916
Probable space group: P N M A
;
_chemical_formula_sum "Si O2"
_cell_formula_units_Z 48
_cell_length_a 20.381630
_cell_length_b 20.079585
_cell_length_c 5.490700
_cell_angle_alpha 90.000000
_cell_angle_beta 90.000000
_cell_angle_gamma 90.000000
_cell_volume 2247.094628
_symmetry_space_group_name_H-M "P N M A"
_symmetry_group_IT_number 62
_symmetry_cell_setting 'orthorhombic'
loop_
_space_group_symop_operation_xyz
x,y,z
1/2-x,-y,1/2+z
1/2+x,1/2-y,1/2-z
-x,1/2+y,-z
-x,-y,-z
1/2+x,y,1/2-z
1/2-x,1/2+y,1/2+z
x,1/2-y,z
loop_
_atom_site_type_symbol
_atom_site_label
_atom_site_fract_x
_atom_site_fract_y
_atom_site_fract_z
Si Si1 0.021412 0.577277 0.542777
Si Si2 0.936561 0.452788 0.957619
Si Si3 0.752964 0.250000 0.270810
Si Si4 0.751694 0.890426 0.824108
Si Si5 0.321236 0.979993 0.354237
Si Si6 0.620526 0.380052 0.000560
Si Si7 0.329075 0.750000 0.228881
O O1 0.066767 0.583438 0.780163
O O2 0.000000 0.500000 0.500000
O O3 0.954013 0.616747 0.588592
O O4 0.053807 0.591942 0.280460
O O5 0.872829 0.499640 0.936269
O O6 0.000000 0.500000 0.000000
O O7 0.786990 0.178518 0.309954
O O8 0.701461 0.250000 0.500931
O O9 0.724538 0.250000 0.993663
O O10 0.717915 0.953065 0.697844
O O11 0.822100 0.874664 0.699642
O O12 0.770542 0.921048 0.084321
O O13 0.364712 0.948781 0.141296
O O14 0.629845 0.317038 0.821431
#
# Coordination Sequence:
#
# PCOD9462916 Si02
#       7
#     8   8   4   8   8   8   4
#     4  10  19  33  54  78 109 144 180 229 284 342
#     4  10  20  33  52  83 109 147 180 235 287 335
#     4  10  22  40  56  76 126 158 188 226 313 363
#     4  11  23  36  56  90 118 155 193 252 300 359
#     4  12  21  33  59  86 116 146 203 248 287 353
#     4  11  21  36  56  84 118 145 196 245 301 349
#     4  10  22  36  58  84 112 160 188 242 299 361
#
# _framework density 21.360918000000002
#
# number of rings (size 3 to 8) (size 9 to 14) (size 15 to 20)
#    0.000    1.333    6.667    2.000    0.000    0.000 
#    0.000    0.000    0.000    2.000    0.000    0.000 
#    0.000    0.000    0.000    0.000    0.000    0.000 
#
# Total GULP energy -267510.970125 kJ/mol
# GULP energy per Si atom -5573.145211 kJ/mol
# Density = 2.131230 g / cm^3
# Si number density = 21.360918 Si / 1000 Ang^3
#
#
#
# Elastic Constant Matrix: (Units=GPa)
#
#
# Indices 1 2 3 4 5 6 
#
# 1 24.6810 10.8485 11.0200 0.0000 0.0000 0.0000
# 2 10.8485 111.1411 14.2969 0.0000 0.0000 0.0000
# 3 11.0200 14.2969 110.0798 0.0000 0.0000 0.0000
# 4 0.0000 0.0000 0.0000 29.0855 0.0000 0.0000
# 5 0.0000 0.0000 0.0000 0.0000 25.6838 0.0000
# 6 0.0000 0.0000 0.0000 0.0000 0.0000 21.1812
#
#
#
# Elastic Compliance Matrix: (Units=1/GPa)
#
#
# Indices 1 2 3 4 5 6 
#
# 1 0.043925 -0.003785 -0.003906 0.000000 0.000000 0.000000
# 2 -0.003785 0.009477 -0.000852 0.000000 0.000000 0.000000
# 3 -0.003906 -0.000852 0.009586 0.000000 0.000000 0.000000
# 4 0.000000 0.000000 0.000000 0.034381 0.000000 0.000000
# 5 0.000000 0.000000 0.000000 0.000000 0.038935 0.000000
# 6 0.000000 0.000000 0.000000 0.000000 0.000000 0.047212
#
#
# Mechanical properties :
#
#
# Convention : Reuss Voigt Hill
#
# Bulk Modulus (GPa) = 21.78558 35.35918 28.57238
# Shear Modulus (GPa) = 23.15875 29.17254 26.16564
#
# Velocity S-wave (km/s) = 3.29624 3.69954 3.50370
# Velocity P-wave (km/s) = 4.97070 5.90237 5.45646
#
# Compressibility (1/GPa) = 0.04590193
#
# Stress axis : x y z
#
# Youngs Moduli (GPa) = 22.76629 105.52291 104.31933
#
# Poissons Ratio (x) = 0.39941 0.40744
# Poissons Ratio (y) = 0.08617 0.08887
# Poissons Ratio (z) = 0.08892 0.08989
#
# Static dielectric constant tensor:
#      x y z
#    x 1.797000 0.000000 0.000000 
#    y 0.000000 1.812390 0.000000 
#    z 0.000000 0.000000 1.966890 
# 
# From -- ./inp_files/2214.got.cif
#   From: 2010.05.17/outbox.cif.g08.bks.cpg/sg62_2_cif.got.tgz:2214.got - 2010.06.03 15:25:27.
