data_PCOD9462188
_publ_section_title
;
Structure prediction by ZEFSAII (Michael W. Deem and Ramdas Pophale) SiO2 
 PCOD9462188
Probable space group: P N M A
;
_chemical_formula_sum "Si O2"
_cell_formula_units_Z 64
_cell_length_a 15.830141
_cell_length_b 7.666418
_cell_length_c 24.013195
_cell_angle_alpha 90.000000
_cell_angle_beta 90.000000
_cell_angle_gamma 90.000000
_cell_volume 2914.252821
_symmetry_space_group_name_H-M "P N M A"
_symmetry_group_IT_number 62
_symmetry_cell_setting 'orthorhombic'
loop_
_space_group_symop_operation_xyz
x,y,z
1/2-x,-y,1/2+z
1/2+x,1/2-y,1/2-z
-x,1/2+y,-z
-x,-y,-z
1/2+x,y,1/2-z
1/2-x,1/2+y,1/2+z
x,1/2-y,z
loop_
_atom_site_type_symbol
_atom_site_label
_atom_site_fract_x
_atom_site_fract_y
_atom_site_fract_z
Si Si1 0.347753 0.539274 0.247199
Si Si2 0.237684 0.048767 0.918874
Si Si3 0.381609 0.547003 0.630203
Si Si4 0.590178 0.951616 0.129360
Si Si5 0.069385 0.461416 0.859456
Si Si6 0.846307 0.954726 0.745913
Si Si7 0.243445 0.048928 0.542959
Si Si8 0.096743 0.464401 0.624054
O O1 0.345617 0.750000 0.246807
O O2 0.412997 0.486410 0.295360
O O3 0.253894 0.478019 0.262894
O O4 0.372306 0.479871 0.185413
O O5 0.238653 0.250000 0.898713
O O6 0.325114 0.967587 0.896720
O O7 0.150793 0.976029 0.894165
O O8 0.238099 0.044712 0.985262
O O9 0.356870 0.750000 0.631012
O O10 0.480698 0.530522 0.618816
O O11 0.366056 0.475014 0.692459
O O12 0.322582 0.459487 0.584657
O O13 0.587358 0.750000 0.110786
O O14 0.498802 0.026198 0.114616
O O15 0.603114 0.957498 0.195874
O O16 0.064764 0.250000 0.861984
O O17 0.867290 0.750000 0.744624
O O18 0.226525 0.250000 0.528678
O O19 0.163005 0.979614 0.577262
O O20 0.097203 0.250000 0.624748
#
# Coordination Sequence:
#
# PCOD9462188 Si02
#       8
#     8   8   8   8   8   8   8   8
#     4  10  18  35  61  88 117 153 194 236 286 348
#     4  10  22  40  61  86 117 153 196 243 295 346
#     4  11  24  40  59  87 121 157 192 239 299 350
#     4  10  20  39  64  87 116 156 196 238 285 346
#     4  10  21  38  62  90 115 152 198 239 289 350
#     4  11  22  35  56  89 124 154 187 235 295 351
#     4  11  23  40  62  86 115 154 201 247 289 345
#     4   9  19  35  61  91 115 147 196 241 281 338
#
# _framework density 21.961031999999999
#
# number of rings (size 3 to 8) (size 9 to 14) (size 15 to 20)
#    0.000    1.750    2.500    1.875    0.000    5.000 
#    0.000    1.875    0.000    0.000    0.000    0.000 
#    0.000    0.000    0.000    0.000    0.000    0.000 
#
# Total GULP energy -357747.679967 kJ/mol
# GULP energy per Si atom -5589.807499 kJ/mol
# Density = 2.191105 g / cm^3
# Si number density = 21.961032 Si / 1000 Ang^3
#
#
#
# Elastic Constant Matrix: (Units=GPa)
#
#
# Indices 1 2 3 4 5 6 
#
# 1 119.4718 -8.5785 23.1480 0.0000 0.0000 0.0000
# 2 -8.5785 43.5232 -7.6441 0.0000 0.0000 0.0000
# 3 23.1480 -7.6441 86.3940 0.0000 0.0000 0.0000
# 4 0.0000 0.0000 0.0000 13.5558 0.0000 0.0000
# 5 0.0000 0.0000 0.0000 0.0000 5.4064 0.0000
# 6 0.0000 0.0000 0.0000 0.0000 0.0000 -6.1534
#
#
#
# Elastic Compliance Matrix: (Units=1/GPa)
#
#
# Indices 1 2 3 4 5 6 
#
# 1 0.008907 0.001358 -0.002266 0.000000 0.000000 0.000000
# 2 0.001358 0.023546 0.001720 0.000000 0.000000 0.000000
# 3 -0.002266 0.001720 0.012334 0.000000 0.000000 0.000000
# 4 0.000000 0.000000 0.000000 0.073769 0.000000 0.000000
# 5 0.000000 0.000000 0.000000 0.000000 0.184967 0.000000
# 6 0.000000 0.000000 0.000000 0.000000 0.000000 -0.162511
#
#
# Mechanical properties :
#
#
# Convention : Reuss Voigt Hill
#
# Bulk Modulus (GPa) = 21.54783 29.24886 25.39834
# Shear Modulus (GPa) = 32.28723 18.72599 25.50661
#
# Velocity S-wave (km/s) = 3.83849 2.92326 3.41170
# Velocity P-wave (km/s) = 5.42941 4.97407 5.20672
#
# Compressibility (1/GPa) = 0.04640839
#
# Stress axis : x y z
#
# Youngs Moduli (GPa) = 112.27428 42.47037 81.07507
#
# Poissons Ratio (x) = -0.05765 0.18374
# Poissons Ratio (y) = -0.15241 -0.13942
# Poissons Ratio (z) = 0.25445 -0.07303
#
# Static dielectric constant tensor:
#      x y z
#    x 1.798290 0.000000 0.000000 
#    y 0.000000 1.827210 0.000000 
#    z 0.000000 0.000000 1.767720 
# 
# From -- ./inp_files/29909.got.cif
#   From: 2010.05.17/outbox.cif.g08.bks.cpg/sg62_15_cif.got.tgz:29909.got - 2010.06.03 15:25:27.
