data_PCOD9462019
_publ_section_title
;
Structure prediction by ZEFSAII (Michael W. Deem and Ramdas Pophale) SiO2 
 PCOD9462019
Probable space group: P N M A
;
_chemical_formula_sum "Si O2"
_cell_formula_units_Z 64
_cell_length_a 20.355170
_cell_length_b 7.772294
_cell_length_c 20.941562
_cell_angle_alpha 90.000000
_cell_angle_beta 90.000000
_cell_angle_gamma 90.000000
_cell_volume 3313.088415
_symmetry_space_group_name_H-M "P N M A"
_symmetry_group_IT_number 62
_symmetry_cell_setting 'orthorhombic'
loop_
_space_group_symop_operation_xyz
x,y,z
1/2-x,-y,1/2+z
1/2+x,1/2-y,1/2-z
-x,1/2+y,-z
-x,-y,-z
1/2+x,y,1/2-z
1/2-x,1/2+y,1/2+z
x,1/2-y,z
loop_
_atom_site_type_symbol
_atom_site_label
_atom_site_fract_x
_atom_site_fract_y
_atom_site_fract_z
Si Si1 0.272902 0.950351 0.443670
Si Si2 0.542626 0.547395 0.376198
Si Si3 0.409061 0.548073 0.221999
Si Si4 0.309977 0.461209 0.826300
Si Si5 0.732838 0.042327 0.800259
Si Si6 0.552610 0.960524 0.229065
Si Si7 0.318217 0.955048 0.576466
Si Si8 0.400377 0.050466 0.369500
O O1 0.254939 0.750000 0.451423
O O2 0.221443 0.023443 0.392433
O O3 0.281270 0.026909 0.514075
O O4 0.344536 0.961779 0.411050
O O5 0.529750 0.750000 0.372623
O O6 0.558926 0.487253 0.303572
O O7 0.606943 0.517712 0.417978
O O8 0.474073 0.464359 0.397010
O O9 0.410916 0.750000 0.205825
O O10 0.341694 0.475112 0.193514
O O11 0.481196 0.477353 0.205637
O O12 0.402806 0.530480 0.298754
O O13 0.308702 0.250000 0.826789
O O14 0.265074 0.516224 0.766347
O O15 0.384306 0.515229 0.811069
O O16 0.729650 0.250000 0.796374
O O17 0.778969 0.998452 0.859389
O O18 0.552354 0.750000 0.228857
O O19 0.321513 0.750000 0.570540
O O20 0.382985 0.250000 0.363224
#
# Coordination Sequence:
#
# PCOD9462019 Si02
#       8
#     8   8   8   8   8   8   8   8
#     4  10  21  37  53  71 103 144 178 215 262 319
#     4  10  19  34  54  74 102 141 178 210 252 315
#     4   9  17  31  52  77 105 137 174 215 261 315
#     4   9  15  29  54  78  96 127 179 220 253 304
#     4  10  18  32  55  77 100 137 178 216 260 314
#     4   8  14  26  50  79  97 120 168 219 252 290
#     4  11  23  35  50  76 107 137 173 220 272 313
#     4  11  21  32  50  78 108 137 172 217 263 308
#
# _framework density 19.317322999999998
#
# number of rings (size 3 to 8) (size 9 to 14) (size 15 to 20)
#    0.000    2.250    2.500    2.625    0.000    2.000 
#    0.000    0.000    0.000    0.750    0.000    0.000 
#    0.000    0.000    0.000    0.000    0.000    0.125 
#
# Total GULP energy -357041.950729 kJ/mol
# GULP energy per Si atom -5578.780480 kJ/mol
# Density = 1.927336 g / cm^3
# Si number density = 19.317323 Si / 1000 Ang^3
#
#
#
# Elastic Constant Matrix: (Units=GPa)
#
#
# Indices 1 2 3 4 5 6 
#
# 1 61.8528 -2.1389 1.4881 0.0000 0.0000 0.0000
# 2 -2.1389 28.7423 -11.9270 0.0000 0.0000 0.0000
# 3 1.4881 -11.9270 23.1191 0.0000 0.0000 0.0000
# 4 0.0000 0.0000 0.0000 11.1680 0.0000 0.0000
# 5 0.0000 0.0000 0.0000 0.0000 17.0382 0.0000
# 6 0.0000 0.0000 0.0000 0.0000 0.0000 10.1219
#
#
#
# Elastic Compliance Matrix: (Units=1/GPa)
#
#
# Indices 1 2 3 4 5 6 
#
# 1 0.016214 0.000984 -0.000536 0.000000 0.000000 0.000000
# 2 0.000984 0.044329 0.022806 0.000000 0.000000 0.000000
# 3 -0.000536 0.022806 0.055054 0.000000 0.000000 0.000000
# 4 0.000000 0.000000 0.000000 0.089542 0.000000 0.000000
# 5 0.000000 0.000000 0.000000 0.000000 0.058692 0.000000
# 6 0.000000 0.000000 0.000000 0.000000 0.000000 0.098795
#
#
# Mechanical properties :
#
#
# Convention : Reuss Voigt Hill
#
# Bulk Modulus (GPa) = 6.16885 9.83985 8.00435
# Shear Modulus (GPa) = 13.50792 16.08509 14.79650
#
# Velocity S-wave (km/s) = 2.64723 2.88874 2.77062
# Velocity P-wave (km/s) = 3.54177 4.02881 3.79311
#
# Compressibility (1/GPa) = 0.16210489
#
# Stress axis : x y z
#
# Youngs Moduli (GPa) = 61.67383 22.55879 18.16394
#
# Poissons Ratio (x) = -0.02220 0.00973
# Poissons Ratio (y) = -0.06070 -0.41424
# Poissons Ratio (z) = 0.03305 -0.51447
#
# Static dielectric constant tensor:
#      x y z
#    x 1.710070 0.000000 0.000000 
#    y 0.000000 1.704960 0.000000 
#    z 0.000000 0.000000 1.664280 
# 
# From -- ./inp_files/24825.got.cif
#   From: 2010.05.17/outbox.cif.g08.bks.cpg/sg62_13_cif.got.tgz:24825.got - 2010.06.03 15:25:27.
