data_PCOD9462427
_publ_section_title
;
Structure prediction by ZEFSAII (Michael W. Deem and Ramdas Pophale) SiO2 
 PCOD9462427
Probable space group: P N M A
;
_chemical_formula_sum "Si O2"
_cell_formula_units_Z 40
_cell_length_a 7.324774
_cell_length_b 13.757713
_cell_length_c 24.684423
_cell_angle_alpha 90.000000
_cell_angle_beta 90.000000
_cell_angle_gamma 90.000000
_cell_volume 2487.502093
_symmetry_space_group_name_H-M "P N M A"
_symmetry_group_IT_number 62
_symmetry_cell_setting 'orthorhombic'
loop_
_space_group_symop_operation_xyz
x,y,z
1/2-x,-y,1/2+z
1/2+x,1/2-y,1/2-z
-x,1/2+y,-z
-x,-y,-z
1/2+x,y,1/2-z
1/2-x,1/2+y,1/2+z
x,1/2-y,z
loop_
_atom_site_type_symbol
_atom_site_label
_atom_site_fract_x
_atom_site_fract_y
_atom_site_fract_z
Si Si1 0.035614 0.140061 0.205804
Si Si2 0.412834 0.866980 0.590123
Si Si3 0.309944 0.950978 0.933314
Si Si4 0.609088 0.138918 0.177279
Si Si5 0.114311 0.863134 0.496934
O O1 0.107376 0.250000 0.214961
O O2 0.134751 0.100748 0.151990
O O3 0.036818 0.096392 0.265949
O O4 0.826446 0.145078 0.187508
O O5 0.445680 0.750000 0.593404
O O6 0.599584 0.918616 0.571603
O O7 0.255568 0.882271 0.546330
O O8 0.407303 0.923108 0.876844
O O9 0.415286 0.891013 0.979960
O O10 0.333152 0.063023 0.949356
O O11 0.540324 0.250000 0.167824
O O12 0.123946 0.750000 0.482645
#
# Coordination Sequence:
#
# PCOD9462427 Si02
#       5
#     8   8   8   8   8
#     4   8  15  24  38  62  89 114 137 167 217 273
#     4   9  17  30  46  67  95 119 142 179 223 269
#     4  10  19  31  45  66  94 118 149 185 219 260
#     4   9  16  26  41  63  90 115 139 174 221 268
#     4  10  20  31  47  66  88 122 155 182 220 263
#
# _framework density 16.080389
#
# number of rings (size 3 to 8) (size 9 to 14) (size 15 to 20)
#    0.000    2.800    0.000    3.600    2.800    0.000 
#    0.000    0.000    0.000    0.000    0.000    5.600 
#    0.000    0.000    0.000    0.000    0.000    0.000 
#
# Total GULP energy -222734.684147 kJ/mol
# GULP energy per Si atom -5568.367104 kJ/mol
# Density = 1.604379 g / cm^3
# Si number density = 16.080389 Si / 1000 Ang^3
#
#
#
# Elastic Constant Matrix: (Units=GPa)
#
#
# Indices 1 2 3 4 5 6 
#
# 1 34.4706 17.8811 9.3841 0.0000 0.0000 0.0000
# 2 17.8811 77.3545 54.6276 0.0000 0.0000 0.0000
# 3 9.3841 54.6276 98.7106 0.0000 0.0000 0.0000
# 4 0.0000 0.0000 0.0000 24.7505 0.0000 0.0000
# 5 0.0000 0.0000 0.0000 0.0000 24.2938 0.0000
# 6 0.0000 0.0000 0.0000 0.0000 0.0000 11.5768
#
#
#
# Elastic Compliance Matrix: (Units=1/GPa)
#
#
# Indices 1 2 3 4 5 6 
#
# 1 0.033154 -0.008927 0.001788 0.000000 0.000000 0.000000
# 2 -0.008927 0.023625 -0.012226 0.000000 0.000000 0.000000
# 3 0.001788 -0.012226 0.016726 0.000000 0.000000 0.000000
# 4 0.000000 0.000000 0.000000 0.040403 0.000000 0.000000
# 5 0.000000 0.000000 0.000000 0.000000 0.041163 0.000000
# 6 0.000000 0.000000 0.000000 0.000000 0.000000 0.086380
#
#
# Mechanical properties :
#
#
# Convention : Reuss Voigt Hill
#
# Bulk Modulus (GPa) = 28.75452 41.59127 35.17289
# Shear Modulus (GPa) = 17.13672 20.70039 18.91855
#
# Velocity S-wave (km/s) = 3.26803 3.59180 3.43373
# Velocity P-wave (km/s) = 5.67103 6.56674 6.13525
#
# Compressibility (1/GPa) = 0.03477714
#
# Stress axis : x y z
#
# Youngs Moduli (GPa) = 30.16225 42.32867 59.78581
#
# Poissons Ratio (x) = 0.37786 -0.10692
# Poissons Ratio (y) = 0.26925 0.73091
# Poissons Ratio (z) = -0.05394 0.51749
#
# Static dielectric constant tensor:
#      x y z
#    x 1.594000 0.000000 0.000000 
#    y 0.000000 1.506930 0.000000 
#    z 0.000000 0.000000 1.602890 
# 
# From -- ./inp_files/22073.got.cif
#   From: 2010.05.17/outbox.cif.g08.bks.cpg/sg62_12_cif.got.tgz:22073.got - 2010.06.03 15:25:27.
