data_PCOD9462832
_publ_section_title
;
Structure prediction by ZEFSAII (Michael W. Deem and Ramdas Pophale) SiO2 
 PCOD9462832
Probable space group: P N M A
;
_chemical_formula_sum "Si O2"
_cell_formula_units_Z 64
_cell_length_a 27.417114
_cell_length_b 23.743858
_cell_length_c 5.499003
_cell_angle_alpha 90.000000
_cell_angle_beta 90.000000
_cell_angle_gamma 90.000000
_cell_volume 3579.785304
_symmetry_space_group_name_H-M "P N M A"
_symmetry_group_IT_number 62
_symmetry_cell_setting 'orthorhombic'
loop_
_space_group_symop_operation_xyz
x,y,z
1/2-x,-y,1/2+z
1/2+x,1/2-y,1/2-z
-x,1/2+y,-z
-x,-y,-z
1/2+x,y,1/2-z
1/2-x,1/2+y,1/2+z
x,1/2-y,z
loop_
_atom_site_type_symbol
_atom_site_label
_atom_site_fract_x
_atom_site_fract_y
_atom_site_fract_z
Si Si1 0.265962 0.315730 0.822591
Si Si2 0.625134 0.483496 0.927098
Si Si3 0.990757 0.066901 0.952319
Si Si4 0.699440 0.517380 0.302815
Si Si5 0.886819 0.421310 0.079313
Si Si6 0.327030 0.183745 0.318931
Si Si7 0.527813 0.440720 0.048635
Si Si8 0.203981 0.078837 0.850010
O O1 0.252932 0.250000 0.829151
O O2 0.294823 0.325228 0.566650
O O3 0.219969 0.356993 0.843009
O O4 0.298448 0.327480 0.064982
O O5 0.598119 0.532193 0.777735
O O6 0.652328 0.436673 0.766826
O O7 0.669114 0.515837 0.056960
O O8 0.584542 0.455217 0.095006
O O9 0.021164 0.086739 0.718048
O O10 0.933644 0.079139 0.905007
O O11 0.006284 0.090595 0.216744
O O12 0.000000 0.000000 0.000000
O O13 0.663043 0.551302 0.477799
O O14 0.704389 0.453089 0.391506
O O15 0.751341 0.546640 0.285676
O O16 0.871760 0.359737 0.167400
O O17 0.340485 0.250000 0.318279
O O18 0.500000 0.500000 0.000000
#
# Coordination Sequence:
#
# PCOD9462832 Si02
#       8
#     8   8   8   8   8   8   8   8
#     4  10  22  40  57  73 106 149 189 226 259 313
#     4  11  22  32  50  77 111 149 175 223 270 333
#     4  10  19  33  51  75 103 138 176 212 254 325
#     4  11  21  32  46  77 115 144 176 213 274 335
#     4  11  21  32  56  76 108 149 175 221 280 326
#     4  10  22  37  55  79 105 140 185 225 265 321
#     4  10  19  34  49  71 110 135 179 210 259 316
#     4  11  22  32  49  78 110 145 182 217 270 325
#
# _framework density 17.878169
#
# number of rings (size 3 to 8) (size 9 to 14) (size 15 to 20)
#    0.000    1.500    5.000    2.250    5.250    0.000 
#    0.000    0.000    0.000    0.000    0.000    1.750 
#    0.000    0.000    0.000    0.000    0.000    0.000 
#
# Total GULP energy -356443.525274 kJ/mol
# GULP energy per Si atom -5569.430082 kJ/mol
# Density = 1.783748 g / cm^3
# Si number density = 17.878169 Si / 1000 Ang^3
#
#
#
# Elastic Constant Matrix: (Units=GPa)
#
#
# Indices 1 2 3 4 5 6 
#
# 1 68.7833 25.5421 5.8092 0.0000 0.0000 0.0000
# 2 25.5421 64.3471 6.4319 0.0000 0.0000 0.0000
# 3 5.8092 6.4319 85.3499 0.0000 0.0000 0.0000
# 4 0.0000 0.0000 0.0000 6.6679 0.0000 0.0000
# 5 0.0000 0.0000 0.0000 0.0000 7.6241 0.0000
# 6 0.0000 0.0000 0.0000 0.0000 0.0000 13.2243
#
#
#
# Elastic Compliance Matrix: (Units=1/GPa)
#
#
# Indices 1 2 3 4 5 6 
#
# 1 0.017088 -0.006717 -0.000657 0.000000 0.000000 0.000000
# 2 -0.006717 0.018299 -0.000922 0.000000 0.000000 0.000000
# 3 -0.000657 -0.000922 0.011831 0.000000 0.000000 0.000000
# 4 0.000000 0.000000 0.000000 0.149972 0.000000 0.000000
# 5 0.000000 0.000000 0.000000 0.000000 0.131163 0.000000
# 6 0.000000 0.000000 0.000000 0.000000 0.000000 0.075619
#
#
# Mechanical properties :
#
#
# Convention : Reuss Voigt Hill
#
# Bulk Modulus (GPa) = 32.65191 32.67184 32.66188
# Shear Modulus (GPa) = 11.60707 17.54974 14.57840
#
# Velocity S-wave (km/s) = 2.55077 3.13650 2.85867
# Velocity P-wave (km/s) = 5.19408 5.60635 5.40415
#
# Compressibility (1/GPa) = 0.03062608
#
# Stress axis : x y z
#
# Youngs Moduli (GPa) = 58.51941 54.64700 84.52617
#
# Poissons Ratio (x) = 0.36709 0.05552
# Poissons Ratio (y) = 0.39310 0.07792
# Poissons Ratio (z) = 0.03844 0.05037
#
# Static dielectric constant tensor:
#      x y z
#    x 1.610390 0.000000 0.000000 
#    y 0.000000 1.585760 0.000000 
#    z 0.000000 0.000000 1.687980 
# 
# From -- ./inp_files/3352.got.cif
#   From: 2010.05.17/outbox.cif.g08.bks.cpg/sg62_2_cif.got.tgz:3352.got - 2010.06.03 15:25:27.
