data_PCOD9462268
_publ_section_title
;
Structure prediction by ZEFSAII (Michael W. Deem and Ramdas Pophale) SiO2 
 PCOD9462268
Probable space group: P N M A
;
_chemical_formula_sum "Si O2"
_cell_formula_units_Z 48
_cell_length_a 20.299803
_cell_length_b 13.064740
_cell_length_c 8.706901
_cell_angle_alpha 90.000000
_cell_angle_beta 90.000000
_cell_angle_gamma 90.000000
_cell_volume 2309.171565
_symmetry_space_group_name_H-M "P N M A"
_symmetry_group_IT_number 62
_symmetry_cell_setting 'orthorhombic'
loop_
_space_group_symop_operation_xyz
x,y,z
1/2-x,-y,1/2+z
1/2+x,1/2-y,1/2-z
-x,1/2+y,-z
-x,-y,-z
1/2+x,y,1/2-z
1/2-x,1/2+y,1/2+z
x,1/2-y,z
loop_
_atom_site_type_symbol
_atom_site_label
_atom_site_fract_x
_atom_site_fract_y
_atom_site_fract_z
Si Si1 0.949968 0.565684 0.596295
Si Si2 0.297861 0.028555 0.391061
Si Si3 0.321099 0.750000 0.640986
Si Si4 0.833417 0.978604 0.761728
Si Si5 0.474076 0.250000 0.258420
Si Si6 0.882094 0.636390 0.293808
Si Si7 0.952571 0.750000 0.067967
Si Si8 0.818860 0.250000 0.257978
O O1 0.905682 0.494960 0.705600
O O2 0.902333 0.613294 0.466517
O O3 0.000000 0.500000 0.500000
O O4 0.989149 0.651280 0.689961
O O5 0.223123 0.993719 0.358477
O O6 0.307037 0.145216 0.336428
O O7 0.316008 0.016142 0.568527
O O8 0.341077 0.953258 0.284641
O O9 0.333772 0.645131 0.729227
O O10 0.380299 0.750000 0.516763
O O11 0.241053 0.750000 0.614339
O O12 0.490682 0.250000 0.441521
O O13 0.397321 0.250000 0.209526
O O14 0.849226 0.750000 0.293407
O O15 0.946369 0.654444 0.184474
#
# Coordination Sequence:
#
# PCOD9462268 Si02
#       8
#     8   8   4   8   4   8   4   4
#     4  12  24  40  63  94 134 178 218 273 327 398
#     4  11  22  43  65 100 130 172 219 279 341 388
#     4  10  18  42  67  88 119 174 214 268 327 386
#     4  11  22  41  67  93 131 172 226 267 333 404
#     4  12  21  43  63  92 131 179 218 258 339 393
#     4  10  21  40  65  98 122 167 229 272 318 394
#     4  10  19  38  72  89 117 167 225 273 314 396
#     4  10  26  37  64  99 141 166 211 275 334 397
#
# _framework density 20.786676
#
# number of rings (size 3 to 8) (size 9 to 14) (size 15 to 20)
#    0.500    0.667    4.167    2.000    0.000    2.667 
#    4.500    4.167    0.000    0.000    0.000    0.000 
#    0.000    0.000    0.000    0.000    0.000    0.000 
#
# Total GULP energy -267587.860395 kJ/mol
# GULP energy per Si atom -5574.747092 kJ/mol
# Density = 2.073936 g / cm^3
# Si number density = 20.786676 Si / 1000 Ang^3
#
#
#
# Elastic Constant Matrix: (Units=GPa)
#
#
# Indices 1 2 3 4 5 6 
#
# 1 101.9172 -1.2231 23.4524 0.0000 0.0000 0.0000
# 2 -1.2231 78.4618 2.7063 0.0000 0.0000 0.0000
# 3 23.4524 2.7063 84.4411 0.0000 0.0000 0.0000
# 4 0.0000 0.0000 0.0000 16.0600 0.0000 0.0000
# 5 0.0000 0.0000 0.0000 0.0000 35.1699 0.0000
# 6 0.0000 0.0000 0.0000 0.0000 0.0000 16.7213
#
#
#
# Elastic Compliance Matrix: (Units=1/GPa)
#
#
# Indices 1 2 3 4 5 6 
#
# 1 0.010487 0.000264 -0.002921 0.000000 0.000000 0.000000
# 2 0.000264 0.012766 -0.000483 0.000000 0.000000 0.000000
# 3 -0.002921 -0.000483 0.012669 0.000000 0.000000 0.000000
# 4 0.000000 0.000000 0.000000 0.062266 0.000000 0.000000
# 5 0.000000 0.000000 0.000000 0.000000 0.028433 0.000000
# 6 0.000000 0.000000 0.000000 0.000000 0.000000 0.059804
#
#
# Mechanical properties :
#
#
# Convention : Reuss Voigt Hill
#
# Bulk Modulus (GPa) = 33.73419 34.96570 34.34994
# Shear Modulus (GPa) = 24.68083 29.58255 27.13169
#
# Velocity S-wave (km/s) = 3.44952 3.77656 3.61674
# Velocity P-wave (km/s) = 5.66829 5.98951 5.83111
#
# Compressibility (1/GPa) = 0.02964352
#
# Stress axis : x y z
#
# Youngs Moduli (GPa) = 95.35387 78.33423 78.93060
#
# Poissons Ratio (x) = -0.02070 0.23057
# Poissons Ratio (y) = -0.02520 0.03809
# Poissons Ratio (z) = 0.27854 0.03780
#
# Static dielectric constant tensor:
#      x y z
#    x 1.829640 0.000000 0.000000 
#    y 0.000000 1.754810 0.000000 
#    z 0.000000 0.000000 1.767070 
# 
# From -- ./inp_files/7690.got.cif
#   From: 2010.05.17/outbox.cif.g08.bks.cpg/sg62_4_cif.got.tgz:7690.got - 2010.06.03 15:25:27.
