data_PCOD9462532
_publ_section_title
;
Structure prediction by ZEFSAII (Michael W. Deem and Ramdas Pophale) SiO2 
 PCOD9462532
Probable space group: P N M A
;
_chemical_formula_sum "Si O2"
_cell_formula_units_Z 56
_cell_length_a 21.357840
_cell_length_b 8.931710
_cell_length_c 14.640335
_cell_angle_alpha 90.000000
_cell_angle_beta 90.000000
_cell_angle_gamma 90.000000
_cell_volume 2792.820070
_symmetry_space_group_name_H-M "P N M A"
_symmetry_group_IT_number 62
_symmetry_cell_setting 'orthorhombic'
loop_
_space_group_symop_operation_xyz
x,y,z
1/2-x,-y,1/2+z
1/2+x,1/2-y,1/2-z
-x,1/2+y,-z
-x,-y,-z
1/2+x,y,1/2-z
1/2-x,1/2+y,1/2+z
x,1/2-y,z
loop_
_atom_site_type_symbol
_atom_site_label
_atom_site_fract_x
_atom_site_fract_y
_atom_site_fract_z
Si Si1 0.022224 0.568407 0.282979
Si Si2 0.146944 0.068754 0.353460
Si Si3 0.615111 0.426270 0.747996
Si Si4 0.248318 0.571156 0.703714
Si Si5 0.041357 0.924535 0.077438
Si Si6 0.764387 0.924715 0.489461
Si Si7 0.134235 0.919496 0.929827
O O1 0.026481 0.750000 0.286797
O O2 0.077925 0.497899 0.340999
O O3 0.036391 0.515681 0.178986
O O4 0.949131 0.528726 0.299368
O O5 0.144644 0.250000 0.350461
O O6 0.195403 0.019835 0.271988
O O7 0.175639 0.025899 0.452157
O O8 0.623795 0.250000 0.761214
O O9 0.679252 0.510193 0.770658
O O10 0.605676 0.463922 0.640738
O O11 0.247602 0.750000 0.708979
O O12 0.254155 0.517555 0.599183
O O13 0.024632 0.750000 0.082051
O O14 0.109706 0.937076 0.032770
O O15 0.000000 0.000000 0.000000
O O16 0.771724 0.750000 0.462495
O O17 0.708376 0.930958 0.563096
O O18 0.117020 0.750000 0.900355
#
# Coordination Sequence:
#
# PCOD9462532 Si02
#       7
#     8   8   8   8   8   8   8
#     4  10  22  38  56  84 121 157 200 247 294 352
#     4  10  22  40  62  88 121 157 196 245 301 357
#     4  11  22  37  59  86 118 157 199 243 293 352
#     4  11  23  41  63  91 121 155 203 249 296 358
#     4  10  19  31  50  79 114 152 188 232 289 350
#     4  10  21  40  62  87 119 154 196 248 302 353
#     4  10  19  34  57  82 117 156 190 239 298 352
#
# _framework density 20.051417000000001
#
# number of rings (size 3 to 8) (size 9 to 14) (size 15 to 20)
#    0.000    1.714    2.857    1.714    0.000    5.143 
#    0.000    0.714    0.000    0.000    0.000    0.000 
#    0.000    0.000    0.000    0.000    0.000    0.000 
#
# Total GULP energy -312296.321115 kJ/mol
# GULP energy per Si atom -5576.720020 kJ/mol
# Density = 2.000578 g / cm^3
# Si number density = 20.051417 Si / 1000 Ang^3
#
#
#
# Elastic Constant Matrix: (Units=GPa)
#
#
# Indices 1 2 3 4 5 6 
#
# 1 86.7710 26.2956 3.6342 0.0000 0.0000 0.0000
# 2 26.2956 27.6079 12.3052 0.0000 0.0000 0.0000
# 3 3.6342 12.3052 27.1465 0.0000 0.0000 0.0000
# 4 0.0000 0.0000 0.0000 30.0864 0.0000 0.0000
# 5 0.0000 0.0000 0.0000 0.0000 29.1159 0.0000
# 6 0.0000 0.0000 0.0000 0.0000 0.0000 30.9464
#
#
#
# Elastic Compliance Matrix: (Units=1/GPa)
#
#
# Indices 1 2 3 4 5 6 
#
# 1 0.017034 -0.019058 0.006358 0.000000 0.000000 0.000000
# 2 -0.019058 0.066715 -0.027690 0.000000 0.000000 0.000000
# 3 0.006358 -0.027690 0.048537 0.000000 0.000000 0.000000
# 4 0.000000 0.000000 0.000000 0.033238 0.000000 0.000000
# 5 0.000000 0.000000 0.000000 0.000000 0.034346 0.000000
# 6 0.000000 0.000000 0.000000 0.000000 0.000000 0.032314
#
#
# Mechanical properties :
#
#
# Convention : Reuss Voigt Hill
#
# Bulk Modulus (GPa) = 19.41465 25.11059 22.26262
# Shear Modulus (GPa) = 15.14547 24.64911 19.89729
#
# Velocity S-wave (km/s) = 2.75131 3.50993 3.15352
# Velocity P-wave (km/s) = 4.44931 5.38298 4.93826
#
# Compressibility (1/GPa) = 0.05150750
#
# Stress axis : x y z
#
# Youngs Moduli (GPa) = 58.70700 14.98906 20.60264
#
# Poissons Ratio (x) = 0.28566 -0.13100
# Poissons Ratio (y) = 1.11884 0.57048
# Poissons Ratio (z) = -0.37328 0.41505
#
# Static dielectric constant tensor:
#      x y z
#    x 1.789580 0.000000 0.000000 
#    y 0.000000 1.686970 0.000000 
#    z 0.000000 0.000000 1.755130 
# 
# From -- ./inp_files/20383.got.cif
#   From: 2010.05.17/outbox.cif.g08.bks.cpg/sg62_11_cif.got.tgz:20383.got - 2010.06.03 15:25:27.
