data_PCOD9462234
_publ_section_title
;
Structure prediction by ZEFSAII (Michael W. Deem and Ramdas Pophale) SiO2 
 PCOD9462234
Probable space group: P N M A
;
_chemical_formula_sum "Si O2"
_cell_formula_units_Z 52
_cell_length_a 21.835232
_cell_length_b 14.248516
_cell_length_c 7.705728
_cell_angle_alpha 90.000000
_cell_angle_beta 90.000000
_cell_angle_gamma 90.000000
_cell_volume 2397.403418
_symmetry_space_group_name_H-M "P N M A"
_symmetry_group_IT_number 62
_symmetry_cell_setting 'orthorhombic'
loop_
_space_group_symop_operation_xyz
x,y,z
1/2-x,-y,1/2+z
1/2+x,1/2-y,1/2-z
-x,1/2+y,-z
-x,-y,-z
1/2+x,y,1/2-z
1/2-x,1/2+y,1/2+z
x,1/2-y,z
loop_
_atom_site_type_symbol
_atom_site_label
_atom_site_fract_x
_atom_site_fract_y
_atom_site_fract_z
Si Si1 0.975080 0.939974 0.209553
Si Si2 0.821263 0.566029 0.664695
Si Si3 0.030502 0.750000 0.615352
Si Si4 0.602573 0.531147 0.405121
Si Si5 0.472308 0.750000 0.514148
Si Si6 0.186888 0.860175 0.879793
Si Si7 0.394607 0.750000 0.851171
Si Si8 0.395963 0.063361 0.067243
O O1 0.047117 0.962422 0.233081
O O2 0.937690 0.973664 0.377385
O O3 0.973575 0.839425 0.112971
O O4 0.939637 0.005171 0.069382
O O5 0.847384 0.548116 0.858861
O O6 0.750810 0.584088 0.626227
O O7 0.856215 0.658889 0.604377
O O8 0.847882 0.473364 0.574149
O O9 0.062292 0.843939 0.546887
O O10 0.024857 0.750000 0.830618
O O11 0.960171 0.750000 0.556868
O O12 0.644061 0.619987 0.452879
O O13 0.413959 0.750000 0.645362
O O14 0.198469 0.750000 0.859374
O O15 0.148003 0.901611 0.722401
#
# Coordination Sequence:
#
# PCOD9462234 Si02
#       8
#     8   8   4   8   4   8   4   8
#     4  10  20  36  64  97 123 157 216 256 314 366
#     4  12  23  43  62  93 133 166 208 256 332 376
#     4  10  20  39  61  90 124 164 204 247 321 378
#     4  10  21  38  63  91 124 166 208 265 301 380
#     4  10  18  37  63  93 124 170 205 250 301 394
#     4  11  23  42  67  87 119 176 220 258 306 379
#     4  10  22  36  64  91 124 170 201 251 316 386
#     4  11  24  40  66  96 127 164 210 273 315 381
#
# _framework density 21.690135000000001
#
# number of rings (size 3 to 8) (size 9 to 14) (size 15 to 20)
#    0.462    0.923    3.077    4.615    1.077    3.077 
#    1.385    0.000    0.000    0.000    0.000    0.000 
#    0.000    0.000    0.000    0.000    0.000    0.000 
#
# Total GULP energy -289702.571701 kJ/mol
# GULP energy per Si atom -5571.203302 kJ/mol
# Density = 2.164077 g / cm^3
# Si number density = 21.690135 Si / 1000 Ang^3
#
#
#
# Elastic Constant Matrix: (Units=GPa)
#
#
# Indices 1 2 3 4 5 6 
#
# 1 132.6577 30.6780 12.4970 0.0000 0.0000 0.0000
# 2 30.6780 96.4769 8.1117 0.0000 0.0000 0.0000
# 3 12.4970 8.1117 30.6367 0.0000 0.0000 0.0000
# 4 0.0000 0.0000 0.0000 46.0210 0.0000 0.0000
# 5 0.0000 0.0000 0.0000 0.0000 22.0618 0.0000
# 6 0.0000 0.0000 0.0000 0.0000 0.0000 42.5693
#
#
#
# Elastic Compliance Matrix: (Units=1/GPa)
#
#
# Indices 1 2 3 4 5 6 
#
# 1 0.008360 -0.002426 -0.002768 0.000000 0.000000 0.000000
# 2 -0.002426 0.011305 -0.002004 0.000000 0.000000 0.000000
# 3 -0.002768 -0.002004 0.034300 0.000000 0.000000 0.000000
# 4 0.000000 0.000000 0.000000 0.021729 0.000000 0.000000
# 5 0.000000 0.000000 0.000000 0.000000 0.045327 0.000000
# 6 0.000000 0.000000 0.000000 0.000000 0.000000 0.023491
#
#
# Mechanical properties :
#
#
# Convention : Reuss Voigt Hill
#
# Bulk Modulus (GPa) = 25.27131 40.26052 32.76591
# Shear Modulus (GPa) = 29.05336 36.02939 32.54138
#
# Velocity S-wave (km/s) = 3.66385 4.08008 3.87755
# Velocity P-wave (km/s) = 5.43827 6.38733 5.93181
#
# Compressibility (1/GPa) = 0.03957056
#
# Stress axis : x y z
#
# Youngs Moduli (GPa) = 119.61898 88.45681 29.15435
#
# Poissons Ratio (x) = 0.21456 0.08069
# Poissons Ratio (y) = 0.29015 0.05842
# Poissons Ratio (z) = 0.33109 0.17725
#
# Static dielectric constant tensor:
#      x y z
#    x 1.753800 0.000000 0.000000 
#    y 0.000000 1.779080 0.000000 
#    z 0.000000 0.000000 1.962260 
# 
# From -- ./inp_files/8689.got.cif
#   From: 2010.05.17/outbox.cif.g08.bks.cpg/sg62_5_cif.got.tgz:8689.got - 2010.06.03 15:25:27.
