data_PCOD9462902
_publ_section_title
;
Structure prediction by ZEFSAII (Michael W. Deem and Ramdas Pophale) SiO2 
 PCOD9462902
Probable space group: P N M A
;
_chemical_formula_sum "Si O2"
_cell_formula_units_Z 56
_cell_length_a 8.708308
_cell_length_b 20.395739
_cell_length_c 16.900807
_cell_angle_alpha 90.000000
_cell_angle_beta 90.000000
_cell_angle_gamma 90.000000
_cell_volume 3001.792506
_symmetry_space_group_name_H-M "P N M A"
_symmetry_group_IT_number 62
_symmetry_cell_setting 'orthorhombic'
loop_
_space_group_symop_operation_xyz
x,y,z
1/2-x,-y,1/2+z
1/2+x,1/2-y,1/2-z
-x,1/2+y,-z
-x,-y,-z
1/2+x,y,1/2-z
1/2-x,1/2+y,1/2+z
x,1/2-y,z
loop_
_atom_site_type_symbol
_atom_site_label
_atom_site_fract_x
_atom_site_fract_y
_atom_site_fract_z
Si Si1 0.351142 0.423362 0.422500
Si Si2 0.402244 0.571344 0.361143
Si Si3 0.154662 0.485358 0.548930
Si Si4 0.132514 0.395891 0.277633
Si Si5 0.214132 0.538215 0.209691
Si Si6 0.170528 0.121320 0.023880
Si Si7 0.837675 0.323587 0.338557
O O1 0.398562 0.498203 0.400335
O O2 0.245789 0.430227 0.500026
O O3 0.251950 0.397707 0.349855
O O4 0.500198 0.380867 0.439973
O O5 0.286457 0.569038 0.287853
O O6 0.574250 0.578394 0.328519
O O7 0.350326 0.621245 0.429462
O O8 0.154387 0.469272 0.642022
O O9 0.254402 0.551127 0.544161
O O10 0.000000 0.500000 0.500000
O O11 0.144277 0.467103 0.235604
O O12 0.191552 0.343098 0.214660
O O13 0.968600 0.375480 0.313063
O O14 0.281415 0.169859 0.070903
O O15 0.890705 0.250000 0.322625
#
# Coordination Sequence:
#
# PCOD9462902 Si02
#       7
#     8   8   8   8   8   8   8
#     4  10  19  33  54  75 112 155 179 216 273 342
#     4  10  20  31  49  79 112 145 178 216 267 342
#     4  11  20  31  52  82 117 151 184 216 269 343
#     4  11  22  36  55  81 113 149 190 232 285 337
#     4  11  20  33  53  81 117 152 180 215 275 346
#     4  11  20  38  51  74 113 149 187 231 280 325
#     4  12  24  39  58  78 104 147 198 247 286 328
#
# _framework density 18.655519999999999
#
# number of rings (size 3 to 8) (size 9 to 14) (size 15 to 20)
#    0.000    1.143    4.286    4.714    6.000    0.000 
#    0.000    0.714    0.000    0.000    0.000    1.000 
#    0.000    0.000    0.000    0.000    0.000    0.000 
#
# Total GULP energy -312611.681716 kJ/mol
# GULP energy per Si atom -5582.351459 kJ/mol
# Density = 1.861306 g / cm^3
# Si number density = 18.655520 Si / 1000 Ang^3
#
#
#
# Elastic Constant Matrix: (Units=GPa)
#
#
# Indices 1 2 3 4 5 6 
#
# 1 99.5033 9.5247 52.3720 0.0000 0.0000 0.0000
# 2 9.5247 23.6577 24.4677 0.0000 0.0000 0.0000
# 3 52.3720 24.4677 128.7224 0.0000 0.0000 0.0000
# 4 0.0000 0.0000 0.0000 12.1829 0.0000 0.0000
# 5 0.0000 0.0000 0.0000 0.0000 38.5553 0.0000
# 6 0.0000 0.0000 0.0000 0.0000 0.0000 10.0425
#
#
#
# Elastic Compliance Matrix: (Units=1/GPa)
#
#
# Indices 1 2 3 4 5 6 
#
# 1 0.012790 0.000290 -0.005259 0.000000 0.000000 0.000000
# 2 0.000290 0.052619 -0.010120 0.000000 0.000000 0.000000
# 3 -0.005259 -0.010120 0.011832 0.000000 0.000000 0.000000
# 4 0.000000 0.000000 0.000000 0.082082 0.000000 0.000000
# 5 0.000000 0.000000 0.000000 0.000000 0.025937 0.000000
# 6 0.000000 0.000000 0.000000 0.000000 0.000000 0.099577
#
#
# Mechanical properties :
#
#
# Convention : Reuss Voigt Hill
#
# Bulk Modulus (GPa) = 21.24807 47.17912 34.21360
# Shear Modulus (GPa) = 15.11931 23.19074 19.15502
#
# Velocity S-wave (km/s) = 2.84992 3.52959 3.20781
# Velocity P-wave (km/s) = 4.71634 6.47729 5.66565
#
# Compressibility (1/GPa) = 0.04706309
#
# Stress axis : x y z
#
# Youngs Moduli (GPa) = 78.18546 19.00447 84.51778
#
# Poissons Ratio (x) = -0.00550 0.44446
# Poissons Ratio (y) = -0.02264 0.85530
# Poissons Ratio (z) = 0.41116 0.19232
#
# Static dielectric constant tensor:
#      x y z
#    x 1.700090 0.000000 0.000000 
#    y 0.000000 1.623880 0.000000 
#    z 0.000000 0.000000 1.707690 
# 
# From -- ./inp_files/22505.got.cif
#   From: 2010.05.17/outbox.cif.g08.bks.cpg/sg62_12_cif.got.tgz:22505.got - 2010.06.03 15:25:27.
