data_PCOD9462348
_publ_section_title
;
Structure prediction by ZEFSAII (Michael W. Deem and Ramdas Pophale) SiO2 
 PCOD9462348
Probable space group: P N M A
;
_chemical_formula_sum "Si O2"
_cell_formula_units_Z 64
_cell_length_a 19.716214
_cell_length_b 8.730603
_cell_length_c 23.980270
_cell_angle_alpha 90.000000
_cell_angle_beta 90.000000
_cell_angle_gamma 90.000000
_cell_volume 4127.830278
_symmetry_space_group_name_H-M "P N M A"
_symmetry_group_IT_number 62
_symmetry_cell_setting 'orthorhombic'
loop_
_space_group_symop_operation_xyz
x,y,z
1/2-x,-y,1/2+z
1/2+x,1/2-y,1/2-z
-x,1/2+y,-z
-x,-y,-z
1/2+x,y,1/2-z
1/2-x,1/2+y,1/2+z
x,1/2-y,z
loop_
_atom_site_type_symbol
_atom_site_label
_atom_site_fract_x
_atom_site_fract_y
_atom_site_fract_z
Si Si1 0.646848 0.433747 0.230025
Si Si2 0.279083 0.435047 0.331819
Si Si3 0.145130 0.935004 0.064041
Si Si4 0.498937 0.065164 0.618042
Si Si5 0.767094 0.933281 0.839349
Si Si6 0.365616 0.434780 0.436612
Si Si7 0.644647 0.066292 0.775253
Si Si8 0.003953 0.934366 0.247710
O O1 0.641017 0.250000 0.230278
O O2 0.701701 0.477504 0.182857
O O3 0.681666 0.480210 0.288954
O O4 0.572805 0.504160 0.225730
O O5 0.283948 0.250000 0.326202
O O6 0.307947 0.479143 0.391948
O O7 0.325564 0.508794 0.283877
O O8 0.149381 0.750000 0.066336
O O9 0.071791 0.979670 0.089214
O O10 0.202740 0.003764 0.103488
O O11 0.148893 0.984452 0.999732
O O12 0.503459 0.250000 0.616980
O O13 0.499068 0.015414 0.682746
O O14 0.563087 0.998200 0.585661
O O15 0.764589 0.750000 0.839878
O O16 0.693893 0.997710 0.822041
O O17 0.369724 0.250000 0.436892
O O18 0.648210 0.250000 0.776839
O O19 0.565996 0.018583 0.777297
O O20 0.006358 0.750000 0.247490
#
# Coordination Sequence:
#
# PCOD9462348 Si02
#       8
#     8   8   8   8   8   8   8   8
#     4   9  18  30  46  66  90 120 153 190 235 278
#     4   9  18  32  46  67  95 122 158 198 232 275
#     4  10  20  33  48  67  94 131 166 197 234 275
#     4  10  19  31  44  65  98 129 164 198 226 272
#     4  10  20  33  48  69  93 122 158 198 238 277
#     4  10  20  32  48  68  94 130 167 199 233 273
#     4  10  19  31  48  68  92 122 154 190 237 283
#     4  10  19  30  46  70  96 124 154 190 233 280
#
# _framework density 15.504512999999999
#
# number of rings (size 3 to 8) (size 9 to 14) (size 15 to 20)
#    0.000    2.250    2.500    1.875    0.000    4.500 
#    0.000    0.000    0.000    0.000    0.000    0.875 
#    0.000    0.000    0.000    0.000    0.000    0.000 
#
# Total GULP energy -356937.917418 kJ/mol
# GULP energy per Si atom -5577.154960 kJ/mol
# Density = 1.546922 g / cm^3
# Si number density = 15.504513 Si / 1000 Ang^3
#
#
#
# Elastic Constant Matrix: (Units=GPa)
#
#
# Indices 1 2 3 4 5 6 
#
# 1 147.8584 31.0504 68.0486 0.0000 0.0000 0.0000
# 2 31.0504 11.7891 21.5235 0.0000 0.0000 0.0000
# 3 68.0486 21.5235 93.4642 0.0000 0.0000 0.0000
# 4 0.0000 0.0000 0.0000 15.8317 0.0000 0.0000
# 5 0.0000 0.0000 0.0000 0.0000 20.1509 0.0000
# 6 0.0000 0.0000 0.0000 0.0000 0.0000 26.2733
#
#
#
# Elastic Compliance Matrix: (Units=1/GPa)
#
#
# Indices 1 2 3 4 5 6 
#
# 1 0.015700 -0.035340 -0.003292 0.000000 0.000000 0.000000
# 2 -0.035340 0.225906 -0.026293 0.000000 0.000000 0.000000
# 3 -0.003292 -0.026293 0.019151 0.000000 0.000000 0.000000
# 4 0.000000 0.000000 0.000000 0.063164 0.000000 0.000000
# 5 0.000000 0.000000 0.000000 0.000000 0.049626 0.000000
# 6 0.000000 0.000000 0.000000 0.000000 0.000000 0.038062
#
#
# Mechanical properties :
#
#
# Convention : Reuss Voigt Hill
#
# Bulk Modulus (GPa) = 7.63902 54.92855 31.28379
# Shear Modulus (GPa) = 8.54563 21.28380 14.91471
#
# Velocity S-wave (km/s) = 2.35025 3.70908 3.10491
# Velocity P-wave (km/s) = 3.50750 7.33808 5.75109
#
# Compressibility (1/GPa) = 0.13090676
#
# Stress axis : x y z
#
# Youngs Moduli (GPa) = 63.69502 4.42662 52.21565
#
# Poissons Ratio (x) = 0.15643 0.17191
# Poissons Ratio (y) = 2.25096 1.37292
# Poissons Ratio (z) = 0.20971 0.11639
#
# Static dielectric constant tensor:
#      x y z
#    x 1.510930 0.000000 0.000000 
#    y 0.000000 1.525740 0.000000 
#    z 0.000000 0.000000 1.504910 
# 
# From -- ./inp_files/27958.got.cif
#   From: 2010.05.17/outbox.cif.g08.bks.cpg/sg62_14_cif.got.tgz:27958.got - 2010.06.03 15:25:27.
