data_PCOD9462117
_publ_section_title
;
Structure prediction by ZEFSAII (Michael W. Deem and Ramdas Pophale) SiO2 
 PCOD9462117
Probable space group: P N M A
;
_chemical_formula_sum "Si O2"
_cell_formula_units_Z 40
_cell_length_a 5.170893
_cell_length_b 16.043446
_cell_length_c 25.874396
_cell_angle_alpha 90.000000
_cell_angle_beta 90.000000
_cell_angle_gamma 90.000000
_cell_volume 2146.512533
_symmetry_space_group_name_H-M "P N M A"
_symmetry_group_IT_number 62
_symmetry_cell_setting 'orthorhombic'
loop_
_space_group_symop_operation_xyz
x,y,z
1/2-x,-y,1/2+z
1/2+x,1/2-y,1/2-z
-x,1/2+y,-z
-x,-y,-z
1/2+x,y,1/2-z
1/2-x,1/2+y,1/2+z
x,1/2-y,z
loop_
_atom_site_type_symbol
_atom_site_label
_atom_site_fract_x
_atom_site_fract_y
_atom_site_fract_z
Si Si1 0.352343 0.571538 0.397456
Si Si2 0.259117 0.348231 0.216015
Si Si3 0.398908 0.405859 0.004930
Si Si4 0.182067 0.250000 0.537303
Si Si5 0.185595 0.250000 0.892946
Si Si6 0.347030 0.041166 0.115526
O O1 0.306008 0.595869 0.458009
O O2 0.340980 0.659371 0.367062
O O3 0.624813 0.528131 0.389421
O O4 0.121906 0.507098 0.384389
O O5 0.480600 0.364301 0.258603
O O6 0.274565 0.250000 0.202453
O O7 0.309396 0.404430 0.166341
O O8 0.314365 0.401472 0.064305
O O9 0.500000 0.500000 0.000000
O O10 0.608269 0.333689 0.993958
O O11 0.460586 0.250000 0.563201
O O12 0.972214 0.250000 0.583366
#
# Coordination Sequence:
#
# PCOD9462117 Si02
#       6
#     8   8   8   4   4   8
#     4  10  20  34  53  83 112 152 181 227 268 342
#     4  10  22  41  61  82 112 145 188 245 292 332
#     4   9  19  33  50  76 116 146 184 230 270 325
#     4  10  20  30  48  72 102 158 186 214 262 320
#     4  10  18  34  50  72 114 146 186 206 262 316
#     4  11  21  34  58  81 109 144 191 227 291 333
#
# _framework density 18.634878
#
# number of rings (size 3 to 8) (size 9 to 14) (size 15 to 20)
#    0.000    2.000    0.000    5.400    1.400    4.800 
#    0.000    0.000    2.200    0.000    0.000   14.000 
#    0.000    0.000    0.000    0.000    0.000    0.000 
#
# Total GULP energy -222983.236525 kJ/mol
# GULP energy per Si atom -5574.580913 kJ/mol
# Density = 1.859246 g / cm^3
# Si number density = 18.634878 Si / 1000 Ang^3
#
#
#
# Elastic Constant Matrix: (Units=GPa)
#
#
# Indices 1 2 3 4 5 6 
#
# 1 45.0617 1.8408 -15.8583 0.0000 0.0000 0.0000
# 2 1.8408 69.9279 14.9558 0.0000 0.0000 0.0000
# 3 -15.8583 14.9558 48.7956 0.0000 0.0000 0.0000
# 4 0.0000 0.0000 0.0000 12.7416 0.0000 0.0000
# 5 0.0000 0.0000 0.0000 0.0000 12.6710 0.0000
# 6 0.0000 0.0000 0.0000 0.0000 0.0000 32.7305
#
#
#
# Elastic Compliance Matrix: (Units=1/GPa)
#
#
# Indices 1 2 3 4 5 6 
#
# 1 0.025497 -0.002615 0.009088 0.000000 0.000000 0.000000
# 2 -0.002615 0.015572 -0.005623 0.000000 0.000000 0.000000
# 3 0.009088 -0.005623 0.025170 0.000000 0.000000 0.000000
# 4 0.000000 0.000000 0.000000 0.078483 0.000000 0.000000
# 5 0.000000 0.000000 0.000000 0.000000 0.078920 0.000000
# 6 0.000000 0.000000 0.000000 0.000000 0.000000 0.030553
#
#
# Mechanical properties :
#
#
# Convention : Reuss Voigt Hill
#
# Bulk Modulus (GPa) = 14.71891 18.40687 16.56289
# Shear Modulus (GPa) = 18.17252 22.48510 20.32881
#
# Velocity S-wave (km/s) = 3.12619 3.47740 3.30646
# Velocity P-wave (km/s) = 4.57673 5.10120 4.84606
#
# Compressibility (1/GPa) = 0.06793983
#
# Stress axis : x y z
#
# Youngs Moduli (GPa) = 39.22060 64.21871 39.72919
#
# Poissons Ratio (x) = 0.16792 -0.36105
# Poissons Ratio (y) = 0.10255 0.22338
# Poissons Ratio (z) = -0.35643 0.36107
#
# Static dielectric constant tensor:
#      x y z
#    x 1.640750 0.000000 0.000000 
#    y 0.000000 1.722000 0.000000 
#    z 0.000000 0.000000 1.643150 
# 
# From -- ./inp_files/28254.got.cif
#   From: 2010.05.17/outbox.cif.g08.bks.cpg/sg62_15_cif.got.tgz:28254.got - 2010.06.03 15:25:27.
