data_PCOD9462863
_publ_section_title
;
Structure prediction by ZEFSAII (Michael W. Deem and Ramdas Pophale) SiO2 
 PCOD9462863
Probable space group: P N M A
;
_chemical_formula_sum "Si O2"
_cell_formula_units_Z 48
_cell_length_a 16.687577
_cell_length_b 9.070401
_cell_length_c 18.777551
_cell_angle_alpha 90.000000
_cell_angle_beta 90.000000
_cell_angle_gamma 90.000000
_cell_volume 2842.226736
_symmetry_space_group_name_H-M "P N M A"
_symmetry_group_IT_number 62
_symmetry_cell_setting 'orthorhombic'
loop_
_space_group_symop_operation_xyz
x,y,z
1/2-x,-y,1/2+z
1/2+x,1/2-y,1/2-z
-x,1/2+y,-z
-x,-y,-z
1/2+x,y,1/2-z
1/2-x,1/2+y,1/2+z
x,1/2-y,z
loop_
_atom_site_type_symbol
_atom_site_label
_atom_site_fract_x
_atom_site_fract_y
_atom_site_fract_z
Si Si1 0.170980 0.077130 0.841181
Si Si2 0.064012 0.422629 0.715185
Si Si3 0.003839 0.074653 0.923354
Si Si4 0.335152 0.574263 0.841183
Si Si5 0.922649 0.576138 0.797602
Si Si6 0.018789 0.924249 0.425581
O O1 0.190138 0.250000 0.851068
O O2 0.145631 0.054991 0.758322
O O3 0.090579 0.044721 0.886545
O O4 0.246906 0.980014 0.860699
O O5 0.040572 0.250000 0.729963
O O6 0.000513 0.531514 0.751265
O O7 0.054225 0.443547 0.631122
O O8 0.995669 0.250000 0.929028
O O9 0.935640 0.011214 0.870613
O O10 0.000000 0.000000 0.000000
O O11 0.343848 0.750000 0.849055
O O12 0.351869 0.537799 0.757570
O O13 0.402869 0.494108 0.888209
O O14 0.920838 0.750000 0.812015
O O15 0.031035 0.750000 0.435050
O O16 0.000000 0.000000 0.500000
#
# Coordination Sequence:
#
# PCOD9462863 Si02
#       6
#     8   8   8   8   8   8
#     4   9  18  33  52  74  99 128 165 209 254 299
#     4   8  16  31  50  71  95 126 164 202 243 294
#     4  10  20  34  53  76 102 134 170 207 251 303
#     4  10  20  33  51  76 102 130 167 209 253 301
#     4   9  17  30  49  72  97 126 163 204 242 289
#     4  10  19  33  53  75 102 136 171 209 253 302
#
# _framework density 16.888166999999999
#
# number of rings (size 3 to 8) (size 9 to 14) (size 15 to 20)
#    0.000    2.667    0.000    3.000    0.000    6.000 
#    0.000    1.667    0.000    4.000    0.000    0.000 
#    0.000    0.000    0.000    0.000    0.000    0.000 
#
# Total GULP energy -267271.645440 kJ/mol
# GULP energy per Si atom -5568.159280 kJ/mol
# Density = 1.684973 g / cm^3
# Si number density = 16.888167 Si / 1000 Ang^3
#
#
#
# Elastic Constant Matrix: (Units=GPa)
#
#
# Indices 1 2 3 4 5 6 
#
# 1 58.6626 40.2247 34.7323 0.0000 0.0000 0.0000
# 2 40.2247 70.5134 62.2086 0.0000 0.0000 0.0000
# 3 34.7323 62.2086 134.0289 0.0000 0.0000 0.0000
# 4 0.0000 0.0000 0.0000 32.7302 0.0000 0.0000
# 5 0.0000 0.0000 0.0000 0.0000 12.6975 0.0000
# 6 0.0000 0.0000 0.0000 0.0000 0.0000 23.8908
#
#
#
# Elastic Compliance Matrix: (Units=1/GPa)
#
#
# Indices 1 2 3 4 5 6 
#
# 1 0.028004 -0.016211 0.000267 0.000000 0.000000 0.000000
# 2 -0.016211 0.033399 -0.011301 0.000000 0.000000 0.000000
# 3 0.000267 -0.011301 0.012637 0.000000 0.000000 0.000000
# 4 0.000000 0.000000 0.000000 0.030553 0.000000 0.000000
# 5 0.000000 0.000000 0.000000 0.000000 0.078756 0.000000
# 6 0.000000 0.000000 0.000000 0.000000 0.000000 0.041857
#
#
# Mechanical properties :
#
#
# Convention : Reuss Voigt Hill
#
# Bulk Modulus (GPa) = 51.14816 59.72623 55.43720
# Shear Modulus (GPa) = 17.46949 22.26631 19.86790
#
# Velocity S-wave (km/s) = 3.21973 3.63499 3.43365
# Velocity P-wave (km/s) = 6.64638 7.28424 6.97261
#
# Compressibility (1/GPa) = 0.01955105
#
# Stress axis : x y z
#
# Youngs Moduli (GPa) = 35.70905 29.94067 79.13096
#
# Poissons Ratio (x) = 0.48536 -0.02113
# Poissons Ratio (y) = 0.57887 0.89428
# Poissons Ratio (z) = -0.00954 0.33837
#
# Static dielectric constant tensor:
#      x y z
#    x 1.566890 0.000000 0.000000 
#    y 0.000000 1.567320 0.000000 
#    z 0.000000 0.000000 1.589110 
# 
# From -- ./inp_files/24214.got.cif
#   From: 2010.05.17/outbox.cif.g08.bks.cpg/sg62_13_cif.got.tgz:24214.got - 2010.06.03 15:25:27.
