data_PCOD9462802
_publ_section_title
;
Structure prediction by ZEFSAII (Michael W. Deem and Ramdas Pophale) SiO2 
 PCOD9462802
Probable space group: P N M A
;
_chemical_formula_sum "Si O2"
_cell_formula_units_Z 56
_cell_length_a 12.194160
_cell_length_b 15.708820
_cell_length_c 15.158039
_cell_angle_alpha 90.000000
_cell_angle_beta 90.000000
_cell_angle_gamma 90.000000
_cell_volume 2903.611265
_symmetry_space_group_name_H-M "P N M A"
_symmetry_group_IT_number 62
_symmetry_cell_setting 'orthorhombic'
loop_
_space_group_symop_operation_xyz
x,y,z
1/2-x,-y,1/2+z
1/2+x,1/2-y,1/2-z
-x,1/2+y,-z
-x,-y,-z
1/2+x,y,1/2-z
1/2-x,1/2+y,1/2+z
x,1/2-y,z
loop_
_atom_site_type_symbol
_atom_site_label
_atom_site_fract_x
_atom_site_fract_y
_atom_site_fract_z
Si Si1 0.024134 0.082747 0.437775
Si Si2 0.607766 0.496535 0.437882
Si Si3 0.415216 0.486663 0.768839
Si Si4 0.271261 0.654158 0.045317
Si Si5 0.914855 0.842082 0.285172
Si Si6 0.234991 0.655732 0.328774
Si Si7 0.285828 0.153099 0.035172
O O1 0.119905 0.134594 0.487544
O O2 0.905307 0.126906 0.427880
O O3 0.072168 0.059674 0.341394
O O4 0.000000 0.000000 0.500000
O O5 0.500000 0.500000 0.500000
O O6 0.574603 0.494653 0.334366
O O7 0.681053 0.580210 0.460850
O O8 0.690214 0.415759 0.448008
O O9 0.507229 0.419684 0.798347
O O10 0.307590 0.429884 0.783974
O O11 0.230864 0.750000 0.026074
O O12 0.316496 0.653058 0.145305
O O13 0.967400 0.750000 0.299711
O O14 0.865207 0.845709 0.187309
O O15 0.203318 0.750000 0.293205
O O16 0.200455 0.653014 0.429457
O O17 0.257687 0.250000 0.062390
#
# Coordination Sequence:
#
# PCOD9462802 Si02
#       7
#     8   8   8   8   8   8   8
#     4  12  21  39  66  97 124 160 217 270 326 372
#     4  12  26  43  63  94 135 180 216 253 317 395
#     4  12  22  35  60  87 127 164 208 260 317 372
#     4  11  22  41  67  96 131 164 207 271 329 382
#     4  10  19  32  55  91 125 156 200 259 330 388
#     4  10  19  33  58  91 120 153 199 256 328 383
#     4  11  23  44  67  91 128 173 219 270 318 374
#
# _framework density 19.286327
#
# number of rings (size 3 to 8) (size 9 to 14) (size 15 to 20)
#    0.000    0.857    5.714    1.714    0.000    3.429 
#    0.000    1.429    0.000    0.000    0.000    0.000 
#    0.000    0.000    0.000    0.000    0.000    0.000 
#
# Total GULP energy -312142.498202 kJ/mol
# GULP energy per Si atom -5573.973182 kJ/mol
# Density = 1.924243 g / cm^3
# Si number density = 19.286327 Si / 1000 Ang^3
#
#
#
# Elastic Constant Matrix: (Units=GPa)
#
#
# Indices 1 2 3 4 5 6 
#
# 1 83.9285 56.9497 26.3029 0.0000 0.0000 0.0000
# 2 56.9497 130.0096 39.5292 0.0000 0.0000 0.0000
# 3 26.3029 39.5292 104.5527 0.0000 0.0000 0.0000
# 4 0.0000 0.0000 0.0000 49.5808 0.0000 0.0000
# 5 0.0000 0.0000 0.0000 0.0000 30.3137 0.0000
# 6 0.0000 0.0000 0.0000 0.0000 0.0000 22.6382
#
#
#
# Elastic Compliance Matrix: (Units=1/GPa)
#
#
# Indices 1 2 3 4 5 6 
#
# 1 0.017209 -0.007030 -0.001671 0.000000 0.000000 0.000000
# 2 -0.007030 0.011563 -0.002603 0.000000 0.000000 0.000000
# 3 -0.001671 -0.002603 0.010969 0.000000 0.000000 0.000000
# 4 0.000000 0.000000 0.000000 0.020169 0.000000 0.000000
# 5 0.000000 0.000000 0.000000 0.000000 0.032988 0.000000
# 6 0.000000 0.000000 0.000000 0.000000 0.000000 0.044173
#
#
# Mechanical properties :
#
#
# Convention : Reuss Voigt Hill
#
# Bulk Modulus (GPa) = 58.37097 62.67271 60.52184
# Shear Modulus (GPa) = 30.23141 33.55382 31.89262
#
# Velocity S-wave (km/s) = 3.96347 4.17558 4.07091
# Velocity P-wave (km/s) = 7.16077 7.47086 7.31746
#
# Compressibility (1/GPa) = 0.01713180
#
# Stress axis : x y z
#
# Youngs Moduli (GPa) = 58.10921 86.48547 91.16444
#
# Poissons Ratio (x) = 0.60800 0.15238
# Poissons Ratio (y) = 0.40851 0.23730
# Poissons Ratio (z) = 0.09713 0.22512
#
# Static dielectric constant tensor:
#      x y z
#    x 1.727830 0.000000 0.000000 
#    y 0.000000 1.695220 0.000000 
#    z 0.000000 0.000000 1.671220 
# 
# From -- ./inp_files/18114.got.cif
#   From: 2010.05.17/outbox.cif.g08.bks.cpg/sg62_10_cif.got.tgz:18114.got - 2010.06.03 15:25:27.
