data_PCOD9462732
_publ_section_title
;
Structure prediction by ZEFSAII (Michael W. Deem and Ramdas Pophale) SiO2 
 PCOD9462732
Probable space group: P N M A
;
_chemical_formula_sum "Si O2"
_cell_formula_units_Z 56
_cell_length_a 18.627693
_cell_length_b 7.579216
_cell_length_c 16.780498
_cell_angle_alpha 90.000000
_cell_angle_beta 90.000000
_cell_angle_gamma 90.000000
_cell_volume 2369.126231
_symmetry_space_group_name_H-M "P N M A"
_symmetry_group_IT_number 62
_symmetry_cell_setting 'orthorhombic'
loop_
_space_group_symop_operation_xyz
x,y,z
1/2-x,-y,1/2+z
1/2+x,1/2-y,1/2-z
-x,1/2+y,-z
-x,-y,-z
1/2+x,y,1/2-z
1/2-x,1/2+y,1/2+z
x,1/2-y,z
loop_
_atom_site_type_symbol
_atom_site_label
_atom_site_fract_x
_atom_site_fract_y
_atom_site_fract_z
Si Si1 0.982999 0.038625 0.907036
Si Si2 0.584742 0.961928 0.088311
Si Si3 0.423605 0.461482 0.094966
Si Si4 0.779459 0.046402 0.687324
Si Si5 0.776291 0.457098 0.345061
Si Si6 0.370961 0.548771 0.360285
Si Si7 0.662313 0.537935 0.461397
O O1 0.984581 0.250000 0.896235
O O2 0.900882 0.979801 0.900277
O O3 0.049301 0.967169 0.854945
O O4 0.000000 0.000000 0.000000
O O5 0.589962 0.750000 0.085433
O O6 0.651090 0.027813 0.142349
O O7 0.504867 0.000225 0.120863
O O8 0.585951 0.027722 0.996499
O O9 0.415994 0.250000 0.092054
O O10 0.357961 0.525850 0.149907
O O11 0.774175 0.250000 0.659938
O O12 0.701192 0.960928 0.672139
O O13 0.777711 0.045819 0.782615
O O14 0.776579 0.250000 0.328621
O O15 0.740068 0.486421 0.430699
O O16 0.374646 0.750000 0.329694
O O17 0.354758 0.549395 0.454587
O O18 0.658003 0.750000 0.470826
#
# Coordination Sequence:
#
# PCOD9462732 Si02
#       7
#     8   8   8   8   8   8   8
#     4   8  15  28  48  75 103 132 167 208 251 303
#     4   9  18  35  60  86 109 140 183 234 285 332
#     4   9  19  37  60  84 110 141 184 234 282 334
#     4  10  21  37  55  79 112 147 184 226 275 335
#     4  11  23  38  54  76 111 150 185 226 278 333
#     4   9  17  33  56  78 105 141 179 219 269 320
#     4  10  19  32  53  80 109 139 180 226 265 315
#
# _framework density 23.637407
#
# number of rings (size 3 to 8) (size 9 to 14) (size 15 to 20)
#    0.000    2.571    0.000    1.714    0.000    5.143 
#    2.571    2.857    0.000    0.000    0.000    0.000 
#    0.000    0.000    0.000    0.000    0.000    0.000 
#
# Total GULP energy -312166.054961 kJ/mol
# GULP energy per Si atom -5574.393839 kJ/mol
# Density = 2.358361 g / cm^3
# Si number density = 23.637407 Si / 1000 Ang^3
#
#
#
# Elastic Constant Matrix: (Units=GPa)
#
#
# Indices 1 2 3 4 5 6 
#
# 1 130.6981 7.6036 25.4038 0.0000 0.0000 0.0000
# 2 7.6036 75.1144 0.8578 0.0000 0.0000 0.0000
# 3 25.4038 0.8578 30.5593 0.0000 0.0000 0.0000
# 4 0.0000 0.0000 0.0000 18.1676 0.0000 0.0000
# 5 0.0000 0.0000 0.0000 0.0000 33.9238 0.0000
# 6 0.0000 0.0000 0.0000 0.0000 0.0000 7.8235
#
#
#
# Elastic Compliance Matrix: (Units=1/GPa)
#
#
# Indices 1 2 3 4 5 6 
#
# 1 0.009179 -0.000842 -0.007607 0.000000 0.000000 0.000000
# 2 -0.000842 0.013395 0.000324 0.000000 0.000000 0.000000
# 3 -0.007607 0.000324 0.039037 0.000000 0.000000 0.000000
# 4 0.000000 0.000000 0.000000 0.055043 0.000000 0.000000
# 5 0.000000 0.000000 0.000000 0.000000 0.029478 0.000000
# 6 0.000000 0.000000 0.000000 0.000000 0.000000 0.127821
#
#
# Mechanical properties :
#
#
# Convention : Reuss Voigt Hill
#
# Bulk Modulus (GPa) = 22.04517 33.78912 27.91715
# Shear Modulus (GPa) = 16.37615 25.48341 20.92978
#
# Velocity S-wave (km/s) = 2.63498 3.28700 2.97888
# Velocity P-wave (km/s) = 4.31325 5.36019 4.86496
#
# Compressibility (1/GPa) = 0.04536141
#
# Stress axis : x y z
#
# Youngs Moduli (GPa) = 108.94784 74.65700 25.61647
#
# Poissons Ratio (x) = 0.06288 0.19485
# Poissons Ratio (y) = 0.09176 -0.00830
# Poissons Ratio (z) = 0.82872 -0.02420
#
# Static dielectric constant tensor:
#      x y z
#    x 1.980360 0.000000 0.000000 
#    y 0.000000 1.880240 0.000000 
#    z 0.000000 0.000000 1.932800 
# 
# From -- ./inp_files/27581.got.cif
#   From: 2010.05.17/outbox.cif.g08.bks.cpg/sg62_14_cif.got.tgz:27581.got - 2010.06.03 15:25:27.
