data_PCOD9462622
_publ_section_title
;
Structure prediction by ZEFSAII (Michael W. Deem and Ramdas Pophale) SiO2 
 PCOD9462622
Probable space group: P N M A
;
_chemical_formula_sum "Si O2"
_cell_formula_units_Z 56
_cell_length_a 19.761869
_cell_length_b 7.966339
_cell_length_c 20.090055
_cell_angle_alpha 90.000000
_cell_angle_beta 90.000000
_cell_angle_gamma 90.000000
_cell_volume 3162.772290
_symmetry_space_group_name_H-M "P N M A"
_symmetry_group_IT_number 62
_symmetry_cell_setting 'orthorhombic'
loop_
_space_group_symop_operation_xyz
x,y,z
1/2-x,-y,1/2+z
1/2+x,1/2-y,1/2-z
-x,1/2+y,-z
-x,-y,-z
1/2+x,y,1/2-z
1/2-x,1/2+y,1/2+z
x,1/2-y,z
loop_
_atom_site_type_symbol
_atom_site_label
_atom_site_fract_x
_atom_site_fract_y
_atom_site_fract_z
Si Si1 0.516831 0.452593 0.298469
Si Si2 0.252417 0.451015 0.378670
Si Si3 0.056670 0.049116 0.053468
Si Si4 0.789777 0.451466 0.976587
Si Si5 0.739630 0.046893 0.836351
Si Si6 0.148793 0.048165 0.271166
Si Si7 0.863578 0.549498 0.227446
O O1 0.520362 0.250000 0.300043
O O2 0.535785 0.513008 0.372879
O O3 0.574041 0.513897 0.246864
O O4 0.441157 0.500103 0.279156
O O5 0.244370 0.250000 0.383627
O O6 0.263399 0.518848 0.452796
O O7 0.188608 0.517589 0.336026
O O8 0.318794 0.482602 0.333879
O O9 0.060143 0.250000 0.056146
O O10 0.130626 0.985588 0.032865
O O11 0.000000 0.000000 0.000000
O O12 0.781551 0.250000 0.977961
O O13 0.750510 0.515550 0.911256
O O14 0.738970 0.250000 0.838135
O O15 0.673591 0.990511 0.795214
O O16 0.803363 0.992322 0.791656
O O17 0.145550 0.250000 0.277384
O O18 0.858735 0.750000 0.225533
#
# Coordination Sequence:
#
# PCOD9462622 Si02
#       7
#     8   8   8   8   8   8   8
#     4  10  20  33  48  68  95 127 162 198 235 281
#     4   9  18  32  51  72  95 124 158 198 240 284
#     4  11  22  33  46  69 101 133 162 192 235 289
#     4  10  19  32  50  72  97 126 158 195 242 290
#     4   9  18  32  49  70  96 124 159 198 239 289
#     4   9  17  32  51  70  92 122 163 202 236 278
#     4  10  20  32  48  71  97 127 160 197 240 285
#
# _framework density 17.705985999999999
#
# number of rings (size 3 to 8) (size 9 to 14) (size 15 to 20)
#    0.000    2.286    1.429    1.714    0.000    6.286 
#    0.000    0.000    0.000    0.857    0.000    0.000 
#    0.000    0.000    0.000    0.000    0.000    0.429 
#
# Total GULP energy -312355.203328 kJ/mol
# GULP energy per Si atom -5577.771488 kJ/mol
# Density = 1.766569 g / cm^3
# Si number density = 17.705986 Si / 1000 Ang^3
#
#
#
# Elastic Constant Matrix: (Units=GPa)
#
#
# Indices 1 2 3 4 5 6 
#
# 1 70.3775 -5.8139 71.5695 0.0000 0.0000 0.0000
# 2 -5.8139 12.9652 4.7765 0.0000 0.0000 0.0000
# 3 71.5695 4.7765 162.2376 0.0000 0.0000 0.0000
# 4 0.0000 0.0000 0.0000 14.3583 0.0000 0.0000
# 5 0.0000 0.0000 0.0000 0.0000 23.0108 0.0000
# 6 0.0000 0.0000 0.0000 0.0000 0.0000 72.0484
#
#
#
# Elastic Compliance Matrix: (Units=1/GPa)
#
#
# Indices 1 2 3 4 5 6 
#
# 1 0.029487 0.018212 -0.013544 0.000000 0.000000 0.000000
# 2 0.018212 0.089224 -0.010661 0.000000 0.000000 0.000000
# 3 -0.013544 -0.010661 0.012453 0.000000 0.000000 0.000000
# 4 0.000000 0.000000 0.000000 0.069646 0.000000 0.000000
# 5 0.000000 0.000000 0.000000 0.000000 0.043458 0.000000
# 6 0.000000 0.000000 0.000000 0.000000 0.000000 0.013880
#
#
# Mechanical properties :
#
#
# Convention : Reuss Voigt Hill
#
# Bulk Modulus (GPa) = 8.39083 42.96050 25.67566
# Shear Modulus (GPa) = 16.13640 33.55339 24.84489
#
# Velocity S-wave (km/s) = 3.02214 4.35792 3.74998
# Velocity P-wave (km/s) = 4.11425 7.04541 5.76909
#
# Compressibility (1/GPa) = 0.11917778
#
# Stress axis : x y z
#
# Youngs Moduli (GPa) = 33.91308 11.20778 80.30496
#
# Poissons Ratio (x) = -0.20412 1.08766
# Poissons Ratio (y) = -0.61764 0.85613
# Poissons Ratio (z) = 0.45932 0.11949
#
# Static dielectric constant tensor:
#      x y z
#    x 1.588720 0.000000 0.000000 
#    y 0.000000 1.641080 0.000000 
#    z 0.000000 0.000000 1.628870 
# 
# From -- ./inp_files/27510.got.cif
#   From: 2010.05.17/outbox.cif.g08.bks.cpg/sg62_14_cif.got.tgz:27510.got - 2010.06.03 15:25:27.
