data_PCOD9462366
_publ_section_title
;
Structure prediction by ZEFSAII (Michael W. Deem and Ramdas Pophale) SiO2 
 PCOD9462366
Probable space group: P N M A
;
_chemical_formula_sum "Si O2"
_cell_formula_units_Z 64
_cell_length_a 14.854177
_cell_length_b 9.508498
_cell_length_c 25.142274
_cell_angle_alpha 90.000000
_cell_angle_beta 90.000000
_cell_angle_gamma 90.000000
_cell_volume 3551.117717
_symmetry_space_group_name_H-M "P N M A"
_symmetry_group_IT_number 62
_symmetry_cell_setting 'orthorhombic'
loop_
_space_group_symop_operation_xyz
x,y,z
1/2-x,-y,1/2+z
1/2+x,1/2-y,1/2-z
-x,1/2+y,-z
-x,-y,-z
1/2+x,y,1/2-z
1/2-x,1/2+y,1/2+z
x,1/2-y,z
loop_
_atom_site_type_symbol
_atom_site_label
_atom_site_fract_x
_atom_site_fract_y
_atom_site_fract_z
Si Si1 0.654087 0.085780 0.422997
Si Si2 0.569392 0.419071 0.193284
Si Si3 0.620482 0.409267 0.664072
Si Si4 0.127174 0.582637 0.729208
Si Si5 0.454353 0.093865 0.424335
Si Si6 0.672132 0.080165 0.301746
Si Si7 0.233606 0.587662 0.987052
Si Si8 0.184465 0.913744 0.392061
O O1 0.682759 0.250000 0.423875
O O2 0.553741 0.081102 0.448245
O O3 0.644576 0.039260 0.361488
O O4 0.721102 0.990839 0.457005
O O5 0.585296 0.250000 0.187516
O O6 0.462413 0.444102 0.195284
O O7 0.613398 0.464179 0.250379
O O8 0.615115 0.503913 0.145568
O O9 0.596948 0.250000 0.677178
O O10 0.615280 0.506133 0.715094
O O11 0.558639 0.472680 0.618343
O O12 0.721336 0.413928 0.640416
O O13 0.131478 0.750000 0.738098
O O14 0.223556 0.538632 0.705874
O O15 0.452989 0.250000 0.398023
O O16 0.367341 0.089955 0.461746
O O17 0.666750 0.250000 0.301051
O O18 0.262879 0.750000 0.991495
O O19 0.294831 0.498520 0.946312
O O20 0.160420 0.750000 0.401522
#
# Coordination Sequence:
#
# PCOD9462366 Si02
#       8
#     8   8   8   8   8   8   8   8
#     4  10  19  33  51  73 104 140 176 213 259 314
#     4  10  19  33  55  79 102 135 176 215 257 308
#     4  10  19  30  47  73 104 136 170 210 256 304
#     4  10  19  32  52  75 103 139 176 211 255 313
#     4   9  18  31  49  72 102 139 176 213 256 312
#     4   9  18  32  51  76 106 138 171 208 253 309
#     4  10  20  33  51  75 102 137 177 219 263 309
#     4  10  20  34  52  75 103 135 171 214 261 307
#
# _framework density 18.022494999999999
#
# number of rings (size 3 to 8) (size 9 to 14) (size 15 to 20)
#    0.000    2.250    1.250    2.250    0.000    4.500 
#    0.000    1.250    0.000    0.750    0.000    0.000 
#    0.000    0.000    0.000    0.000    0.000    0.000 
#
# Total GULP energy -356734.370817 kJ/mol
# GULP energy per Si atom -5573.974544 kJ/mol
# Density = 1.798147 g / cm^3
# Si number density = 18.022495 Si / 1000 Ang^3
#
#
#
# Elastic Constant Matrix: (Units=GPa)
#
#
# Indices 1 2 3 4 5 6 
#
# 1 52.5278 19.8654 -1.2623 0.0000 0.0000 0.0000
# 2 19.8654 33.4086 -3.0099 0.0000 0.0000 0.0000
# 3 -1.2623 -3.0099 17.4757 0.0000 0.0000 0.0000
# 4 0.0000 0.0000 0.0000 6.7505 0.0000 0.0000
# 5 0.0000 0.0000 0.0000 0.0000 12.1433 0.0000
# 6 0.0000 0.0000 0.0000 0.0000 0.0000 13.8959
#
#
#
# Elastic Compliance Matrix: (Units=1/GPa)
#
#
# Indices 1 2 3 4 5 6 
#
# 1 0.024570 -0.014678 -0.000753 0.000000 0.000000 0.000000
# 2 -0.014678 0.039173 0.005687 0.000000 0.000000 0.000000
# 3 -0.000753 0.005687 0.058147 0.000000 0.000000 0.000000
# 4 0.000000 0.000000 0.000000 0.148138 0.000000 0.000000
# 5 0.000000 0.000000 0.000000 0.000000 0.082350 0.000000
# 6 0.000000 0.000000 0.000000 0.000000 0.000000 0.071964
#
#
# Mechanical properties :
#
#
# Convention : Reuss Voigt Hill
#
# Bulk Modulus (GPa) = 9.76552 14.95540 12.36046
# Shear Modulus (GPa) = 10.46103 12.41253 11.43678
#
# Velocity S-wave (km/s) = 2.41185 2.62720 2.52183
# Velocity P-wave (km/s) = 3.63130 4.18559 3.91826
#
# Compressibility (1/GPa) = 0.10240113
#
# Stress axis : x y z
#
# Youngs Moduli (GPa) = 40.69927 25.52810 17.19770
#
# Poissons Ratio (x) = 0.37470 0.01295
# Poissons Ratio (y) = 0.59738 -0.09780
# Poissons Ratio (z) = 0.03066 -0.14517
#
# Static dielectric constant tensor:
#      x y z
#    x 1.629340 0.000000 0.000000 
#    y 0.000000 1.615210 0.000000 
#    z 0.000000 0.000000 1.616000 
# 
# From -- ./inp_files/29763.got.cif
#   From: 2010.05.17/outbox.cif.g08.bks.cpg/sg62_15_cif.got.tgz:29763.got - 2010.06.03 15:25:27.
