data_PCOD9462181
_publ_section_title
;
Structure prediction by ZEFSAII (Michael W. Deem and Ramdas Pophale) SiO2 
 PCOD9462181
Probable space group: P N M A
;
_chemical_formula_sum "Si O2"
_cell_formula_units_Z 64
_cell_length_a 14.621187
_cell_length_b 8.650255
_cell_length_c 25.320005
_cell_angle_alpha 90.000000
_cell_angle_beta 90.000000
_cell_angle_gamma 90.000000
_cell_volume 3202.398170
_symmetry_space_group_name_H-M "P N M A"
_symmetry_group_IT_number 62
_symmetry_cell_setting 'orthorhombic'
loop_
_space_group_symop_operation_xyz
x,y,z
1/2-x,-y,1/2+z
1/2+x,1/2-y,1/2-z
-x,1/2+y,-z
-x,-y,-z
1/2+x,y,1/2-z
1/2-x,1/2+y,1/2+z
x,1/2-y,z
loop_
_atom_site_type_symbol
_atom_site_label
_atom_site_fract_x
_atom_site_fract_y
_atom_site_fract_z
Si Si1 0.010497 0.937300 0.328610
Si Si2 0.769801 0.437905 0.910675
Si Si3 0.288870 0.935247 0.803654
Si Si4 0.970675 0.070716 0.555386
Si Si5 0.643750 0.930705 0.606750
Si Si6 0.187374 0.437491 0.701996
Si Si7 0.205462 0.069177 0.476839
Si Si8 0.527831 0.566053 0.442759
O O1 0.015632 0.750000 0.329293
O O2 0.992662 0.991038 0.389107
O O3 0.920241 0.980368 0.295717
O O4 0.108871 0.999257 0.310916
O O5 0.770435 0.250000 0.910421
O O6 0.728284 0.486049 0.854896
O O7 0.873308 0.490514 0.922313
O O8 0.710744 0.479617 0.962301
O O9 0.294885 0.750000 0.806863
O O10 0.216424 0.984660 0.849237
O O11 0.245668 0.989345 0.748675
O O12 0.993136 0.250000 0.553658
O O13 0.862754 0.037250 0.555661
O O14 0.000000 0.000000 0.500000
O O15 0.623609 0.750000 0.617003
O O16 0.696346 0.939152 0.550639
O O17 0.550385 0.022104 0.599311
O O18 0.193046 0.250000 0.705034
O O19 0.176408 0.250000 0.473069
O O20 0.500000 0.500000 0.500000
O O21 0.533234 0.750000 0.448224
#
# Coordination Sequence:
#
# PCOD9462181 Si02
#       8
#     8   8   8   8   8   8   8   8
#     4  10  22  41  65  90 118 157 206 253 296 358
#     4   9  19  37  60  85 118 159 200 244 300 357
#     4  11  24  42  64  90 123 160 199 251 310 364
#     4  11  22  35  56  89 123 156 198 244 299 361
#     4  10  21  38  59  84 117 158 198 244 303 356
#     4  10  22  42  65  88 117 157 207 255 296 352
#     4  10  18  35  59  82 116 157 195 243 301 357
#     4  11  21  35  58  88 123 162 203 248 302 363
#
# _framework density 19.985021
#
# number of rings (size 3 to 8) (size 9 to 14) (size 15 to 20)
#    0.000    1.750    2.500    1.875    0.000    5.500 
#    0.000    6.875    0.000    0.000    0.000    0.000 
#    0.000    0.000    0.000    0.000    0.000    0.000 
#
# Total GULP energy -357265.629027 kJ/mol
# GULP energy per Si atom -5582.275454 kJ/mol
# Density = 1.993953 g / cm^3
# Si number density = 19.985021 Si / 1000 Ang^3
#
#
#
# Elastic Constant Matrix: (Units=GPa)
#
#
# Indices 1 2 3 4 5 6 
#
# 1 114.8328 17.6049 43.9207 0.0000 0.0000 0.0000
# 2 17.6049 13.4838 13.8742 0.0000 0.0000 0.0000
# 3 43.9207 13.8742 111.1048 0.0000 0.0000 0.0000
# 4 0.0000 0.0000 0.0000 25.3509 0.0000 0.0000
# 5 0.0000 0.0000 0.0000 0.0000 30.3165 0.0000
# 6 0.0000 0.0000 0.0000 0.0000 0.0000 28.0875
#
#
#
# Elastic Compliance Matrix: (Units=1/GPa)
#
#
# Indices 1 2 3 4 5 6 
#
# 1 0.011769 -0.012139 -0.003137 0.000000 0.000000 0.000000
# 2 -0.012139 0.097617 -0.007392 0.000000 0.000000 0.000000
# 3 -0.003137 -0.007392 0.011163 0.000000 0.000000 0.000000
# 4 0.000000 0.000000 0.000000 0.039446 0.000000 0.000000
# 5 0.000000 0.000000 0.000000 0.000000 0.032985 0.000000
# 6 0.000000 0.000000 0.000000 0.000000 0.000000 0.035603
#
#
# Mechanical properties :
#
#
# Convention : Reuss Voigt Hill
#
# Bulk Modulus (GPa) = 13.29497 43.35790 28.32643
# Shear Modulus (GPa) = 16.72298 27.68574 22.20436
#
# Velocity S-wave (km/s) = 2.89585 3.72603 3.33686
# Velocity P-wave (km/s) = 4.22471 6.34456 5.38988
#
# Compressibility (1/GPa) = 0.07521644
#
# Stress axis : x y z
#
# Youngs Moduli (GPa) = 84.96959 10.24408 89.57812
#
# Poissons Ratio (x) = 0.12435 0.28097
# Poissons Ratio (y) = 1.03141 0.66212
# Poissons Ratio (z) = 0.26651 0.07572
#
# Static dielectric constant tensor:
#      x y z
#    x 1.738890 0.000000 0.000000 
#    y 0.000000 1.687750 0.000000 
#    z 0.000000 0.000000 1.713310 
# 
# From -- ./inp_files/29781.got.cif
#   From: 2010.05.17/outbox.cif.g08.bks.cpg/sg62_15_cif.got.tgz:29781.got - 2010.06.03 15:25:27.
