data_PCOD9462404
_publ_section_title
;
Structure prediction by ZEFSAII (Michael W. Deem and Ramdas Pophale) SiO2 
 PCOD9462404
Probable space group: P N M A
;
_chemical_formula_sum "Si O2"
_cell_formula_units_Z 64
_cell_length_a 19.248376
_cell_length_b 8.480369
_cell_length_c 21.498181
_cell_angle_alpha 90.000000
_cell_angle_beta 90.000000
_cell_angle_gamma 90.000000
_cell_volume 3509.219698
_symmetry_space_group_name_H-M "P N M A"
_symmetry_group_IT_number 62
_symmetry_cell_setting 'orthorhombic'
loop_
_space_group_symop_operation_xyz
x,y,z
1/2-x,-y,1/2+z
1/2+x,1/2-y,1/2-z
-x,1/2+y,-z
-x,-y,-z
1/2+x,y,1/2-z
1/2-x,1/2+y,1/2+z
x,1/2-y,z
loop_
_atom_site_type_symbol
_atom_site_label
_atom_site_fract_x
_atom_site_fract_y
_atom_site_fract_z
Si Si1 0.423681 0.933720 0.492284
Si Si2 0.887330 0.558027 0.667833
Si Si3 0.737377 0.561221 0.625755
Si Si4 0.170820 0.932706 0.096864
Si Si5 0.913021 0.439776 0.142460
Si Si6 0.781785 0.437298 0.491369
Si Si7 0.930015 0.939125 0.531231
Si Si8 0.937566 0.940288 0.801425
O O1 0.416962 0.750000 0.509992
O O2 0.500000 0.000000 0.500000
O O3 0.376646 0.039149 0.536276
O O4 0.409996 0.961451 0.420520
O O5 0.888832 0.750000 0.669213
O O6 0.806776 0.509345 0.661523
O O7 0.924050 0.509210 0.603609
O O8 0.921413 0.502766 0.731726
O O9 0.741785 0.750000 0.616699
O O10 0.666477 0.533171 0.664511
O O11 0.743394 0.491924 0.555613
O O12 0.181420 0.750000 0.109975
O O13 0.123959 0.005181 0.152194
O O14 0.242669 0.006409 0.071309
O O15 0.918894 0.250000 0.130226
O O16 0.983951 0.485791 0.177676
O O17 0.781640 0.250000 0.491536
O O18 0.860119 0.500901 0.497592
O O19 0.929137 0.750000 0.530089
O O20 0.000000 0.000000 0.500000
O O21 0.936469 0.750000 0.802127
#
# Coordination Sequence:
#
# PCOD9462404 Si02
#       8
#     8   8   8   8   8   8   8   8
#     4  12  22  32  48  74 109 145 183 225 270 318
#     4   8  17  35  57  79 108 146 188 232 280 339
#     4   9  17  32  53  76 104 140 182 232 285 333
#     4  12  23  35  51  76 113 151 186 225 274 329
#     4  10  19  30  50  76 105 141 187 232 276 326
#     4  11  21  34  55  84 111 142 183 230 283 335
#     4  10  20  38  63  90 116 144 185 238 292 340
#     4  10  20  35  53  76 110 152 194 231 274 339
#
# _framework density 18.237673999999998
#
# number of rings (size 3 to 8) (size 9 to 14) (size 15 to 20)
#    0.000    1.750    2.500    4.500    0.000    0.000 
#    0.000    4.375    0.000    4.500    0.000    0.000 
#    0.000    0.000    0.000    0.000    0.000    0.000 
#
# Total GULP energy -356577.156337 kJ/mol
# GULP energy per Si atom -5571.518068 kJ/mol
# Density = 1.819616 g / cm^3
# Si number density = 18.237674 Si / 1000 Ang^3
#
#
#
# Elastic Constant Matrix: (Units=GPa)
#
#
# Indices 1 2 3 4 5 6 
#
# 1 161.3250 29.7803 79.8748 0.0000 0.0000 0.0000
# 2 29.7803 42.6715 17.3562 0.0000 0.0000 0.0000
# 3 79.8748 17.3562 97.7378 0.0000 0.0000 0.0000
# 4 0.0000 0.0000 0.0000 17.8250 0.0000 0.0000
# 5 0.0000 0.0000 0.0000 0.0000 19.6468 0.0000
# 6 0.0000 0.0000 0.0000 0.0000 0.0000 23.1559
#
#
#
# Elastic Compliance Matrix: (Units=1/GPa)
#
#
# Indices 1 2 3 4 5 6 
#
# 1 0.011123 -0.004382 -0.008312 0.000000 0.000000 0.000000
# 2 -0.004382 0.026986 -0.001211 0.000000 0.000000 0.000000
# 3 -0.008312 -0.001211 0.017239 0.000000 0.000000 0.000000
# 4 0.000000 0.000000 0.000000 0.056101 0.000000 0.000000
# 5 0.000000 0.000000 0.000000 0.000000 0.050899 0.000000
# 6 0.000000 0.000000 0.000000 0.000000 0.000000 0.043185
#
#
# Mechanical properties :
#
#
# Convention : Reuss Voigt Hill
#
# Bulk Modulus (GPa) = 36.31336 61.75077 49.03207
# Shear Modulus (GPa) = 20.61667 23.77374 22.19521
#
# Velocity S-wave (km/s) = 3.36586 3.61439 3.49233
# Velocity P-wave (km/s) = 5.92112 7.16595 6.57307
#
# Compressibility (1/GPa) = 0.02753807
#
# Stress axis : x y z
#
# Youngs Moduli (GPa) = 89.90448 37.05690 58.00695
#
# Poissons Ratio (x) = 0.16238 0.48215
# Poissons Ratio (y) = 0.39395 0.07025
# Poissons Ratio (z) = 0.74728 0.04488
#
# Static dielectric constant tensor:
#      x y z
#    x 1.723090 0.000000 0.000000 
#    y 0.000000 1.625880 0.000000 
#    z 0.000000 0.000000 1.657220 
# 
# From -- ./inp_files/27690.got.cif
#   From: 2010.05.17/outbox.cif.g08.bks.cpg/sg62_14_cif.got.tgz:27690.got - 2010.06.03 15:25:27.
