data_PCOD9462098
_publ_section_title
;
Structure prediction by ZEFSAII (Michael W. Deem and Ramdas Pophale) SiO2 
 PCOD9462098
Probable space group: P N M A
;
_chemical_formula_sum "Si O2"
_cell_formula_units_Z 64
_cell_length_a 24.134689
_cell_length_b 7.591321
_cell_length_c 15.806849
_cell_angle_alpha 90.000000
_cell_angle_beta 90.000000
_cell_angle_gamma 90.000000
_cell_volume 2896.038743
_symmetry_space_group_name_H-M "P N M A"
_symmetry_group_IT_number 62
_symmetry_cell_setting 'orthorhombic'
loop_
_space_group_symop_operation_xyz
x,y,z
1/2-x,-y,1/2+z
1/2+x,1/2-y,1/2-z
-x,1/2+y,-z
-x,-y,-z
1/2+x,y,1/2-z
1/2-x,1/2+y,1/2+z
x,1/2-y,z
loop_
_atom_site_type_symbol
_atom_site_label
_atom_site_fract_x
_atom_site_fract_y
_atom_site_fract_z
Si Si1 0.915256 0.045723 0.741741
Si Si2 0.646094 0.047214 0.072928
Si Si3 0.870781 0.452993 0.393045
Si Si4 0.245011 0.964771 0.841778
Si Si5 0.131475 0.954751 0.083382
Si Si6 0.748072 0.036548 0.352810
Si Si7 0.122225 0.534553 0.897275
Si Si8 0.543258 0.964099 0.755001
O O1 0.897974 0.250000 0.738337
O O2 0.892861 0.966981 0.830085
O O3 0.889040 0.961100 0.658614
O O4 0.981263 0.032926 0.740780
O O5 0.652797 0.250000 0.048613
O O6 0.706859 0.972402 0.095399
O O7 0.617720 0.958943 0.992530
O O8 0.865716 0.250000 0.365036
O O9 0.809066 0.526745 0.379268
O O10 0.918796 0.526336 0.333594
O O11 0.245767 0.750000 0.843911
O O12 0.259657 0.014014 0.745523
O O13 0.183199 0.021227 0.865573
O O14 0.114420 0.750000 0.083014
O O15 0.197916 0.965099 0.091455
O O16 0.113396 0.029009 0.993003
O O17 0.745736 0.250000 0.358627
O O18 0.123306 0.750000 0.898421
O O19 0.075571 0.483298 0.830285
O O20 0.539525 0.750000 0.756587
#
# Coordination Sequence:
#
# PCOD9462098 Si02
#       8
#     8   8   8   8   8   8   8   8
#     4  11  24  40  56  80 116 151 187 241 293 328
#     4  11  22  37  61  87 113 150 193 230 274 341
#     4  10  21  37  59  87 117 146 182 232 288 333
#     4   9  16  30  56  86 113 143 181 223 268 328
#     4  10  21  36  57  85 117 151 186 229 283 334
#     4  10  18  33  58  86 117 149 182 225 277 337
#     4   9  17  34  59  85 112 146 187 226 272 335
#     4  10  21  39  62  82 105 148 197 234 273 335
#
# _framework density 22.099150999999999
#
# number of rings (size 3 to 8) (size 9 to 14) (size 15 to 20)
#    0.000    2.000    2.500    1.500    0.000    3.500 
#    0.000    0.625    0.000    1.500    0.000    0.000 
#    0.000    0.000    0.000    0.000    0.000    0.000 
#
# Total GULP energy -357649.818637 kJ/mol
# GULP energy per Si atom -5588.278416 kJ/mol
# Density = 2.204885 g / cm^3
# Si number density = 22.099151 Si / 1000 Ang^3
#
#
#
# Elastic Constant Matrix: (Units=GPa)
#
#
# Indices 1 2 3 4 5 6 
#
# 1 101.6005 -11.4553 21.7791 0.0000 0.0000 0.0000
# 2 -11.4553 51.6496 -5.4833 0.0000 0.0000 0.0000
# 3 21.7791 -5.4833 104.3850 0.0000 0.0000 0.0000
# 4 0.0000 0.0000 0.0000 2.1406 0.0000 0.0000
# 5 0.0000 0.0000 0.0000 0.0000 8.0754 0.0000
# 6 0.0000 0.0000 0.0000 0.0000 0.0000 8.5754
#
#
#
# Elastic Compliance Matrix: (Units=1/GPa)
#
#
# Indices 1 2 3 4 5 6 
#
# 1 0.010528 0.002114 -0.002086 0.000000 0.000000 0.000000
# 2 0.002114 0.019894 0.000604 0.000000 0.000000 0.000000
# 3 -0.002086 0.000604 0.010047 0.000000 0.000000 0.000000
# 4 0.000000 0.000000 0.000000 0.467162 0.000000 0.000000
# 5 0.000000 0.000000 0.000000 0.000000 0.123833 0.000000
# 6 0.000000 0.000000 0.000000 0.000000 0.000000 0.116612
#
#
# Mechanical properties :
#
#
# Convention : Reuss Voigt Hill
#
# Bulk Modulus (GPa) = 23.96193 29.70179 26.83186
# Shear Modulus (GPa) = 6.57269 20.61126 13.59198
#
# Velocity S-wave (km/s) = 1.72645 3.05728 2.48270
# Velocity P-wave (km/s) = 3.85236 5.09235 4.51512
#
# Compressibility (1/GPa) = 0.04173286
#
# Stress axis : x y z
#
# Youngs Moduli (GPa) = 94.98643 50.26614 99.53439
#
# Poissons Ratio (x) = -0.10624 0.20758
# Poissons Ratio (y) = -0.20076 -0.06012
# Poissons Ratio (z) = 0.19810 -0.03036
#
# Static dielectric constant tensor:
#      x y z
#    x 1.765820 0.000000 0.000000 
#    y 0.000000 1.832570 0.000000 
#    z 0.000000 0.000000 1.816010 
# 
# From -- ./inp_files/20945.got.cif
#   From: 2010.05.17/outbox.cif.g08.bks.cpg/sg62_11_cif.got.tgz:20945.got - 2010.06.03 15:25:27.
