data_PCOD9462061
_publ_section_title
;
Structure prediction by ZEFSAII (Michael W. Deem and Ramdas Pophale) SiO2 
 PCOD9462061
Probable space group: P N M A
;
_chemical_formula_sum "Si O2"
_cell_formula_units_Z 56
_cell_length_a 19.846874
_cell_length_b 8.577423
_cell_length_c 19.803506
_cell_angle_alpha 90.000000
_cell_angle_beta 90.000000
_cell_angle_gamma 90.000000
_cell_volume 3371.250508
_symmetry_space_group_name_H-M "P N M A"
_symmetry_group_IT_number 62
_symmetry_cell_setting 'orthorhombic'
loop_
_space_group_symop_operation_xyz
x,y,z
1/2-x,-y,1/2+z
1/2+x,1/2-y,1/2-z
-x,1/2+y,-z
-x,-y,-z
1/2+x,y,1/2-z
1/2-x,1/2+y,1/2+z
x,1/2-y,z
loop_
_atom_site_type_symbol
_atom_site_label
_atom_site_fract_x
_atom_site_fract_y
_atom_site_fract_z
Si Si1 0.869526 0.435116 0.235937
Si Si2 0.705497 0.938423 0.480454
Si Si3 0.236131 0.437092 0.872309
Si Si4 0.655568 0.938962 0.232866
Si Si5 0.946965 0.438221 0.945742
Si Si6 0.768849 0.561770 0.341900
Si Si7 0.483379 0.060970 0.707533
O O1 0.867356 0.250000 0.230455
O O2 0.825535 0.506771 0.174681
O O3 0.832722 0.489007 0.304577
O O4 0.945545 0.494496 0.230640
O O5 0.705198 0.750000 0.481951
O O6 0.628869 0.989214 0.464074
O O7 0.753268 0.986517 0.418271
O O8 0.728437 0.000242 0.552569
O O9 0.235368 0.250000 0.873084
O O10 0.304370 0.490316 0.833859
O O11 0.653378 0.750000 0.231228
O O12 0.703682 0.979597 0.296105
O O13 0.579877 0.992077 0.246891
O O14 0.947472 0.250000 0.947315
O O15 0.967436 0.485169 0.869908
O O16 0.000000 0.500000 0.000000
O O17 0.775150 0.750000 0.339556
O O18 0.486420 0.250000 0.709351
#
# Coordination Sequence:
#
# PCOD9462061 Si02
#       7
#     8   8   8   8   8   8   8
#     4  11  22  34  49  75 107 135 169 216 259 302
#     4  10  19  33  53  77 106 135 168 213 259 304
#     4  10  20  34  53  76 103 137 174 211 254 308
#     4   8  15  31  54  74  94 127 175 216 247 298
#     4  10  20  31  47  72 104 138 168 201 246 304
#     4   9  17  34  56  75  98 135 175 211 256 310
#     4  10  18  33  54  73  96 133 174 210 253 307
#
# _framework density 16.611046999999999
#
# number of rings (size 3 to 8) (size 9 to 14) (size 15 to 20)
#    0.000    2.286    1.429    3.429    0.000    4.000 
#    0.000    3.571    0.000    0.857    0.000    0.000 
#    0.000    0.000    0.000    0.000    0.000    0.000 
#
# Total GULP energy -312398.767145 kJ/mol
# GULP energy per Si atom -5578.549413 kJ/mol
# Density = 1.657324 g / cm^3
# Si number density = 16.611047 Si / 1000 Ang^3
#
#
#
# Elastic Constant Matrix: (Units=GPa)
#
#
# Indices 1 2 3 4 5 6 
#
# 1 145.5377 28.5707 108.2551 0.0000 0.0000 0.0000
# 2 28.5707 24.9678 31.7324 0.0000 0.0000 0.0000
# 3 108.2551 31.7324 138.1294 0.0000 0.0000 0.0000
# 4 0.0000 0.0000 0.0000 27.0871 0.0000 0.0000
# 5 0.0000 0.0000 0.0000 0.0000 23.3514 0.0000
# 6 0.0000 0.0000 0.0000 0.0000 0.0000 14.8416
#
#
#
# Elastic Compliance Matrix: (Units=1/GPa)
#
#
# Indices 1 2 3 4 5 6 
#
# 1 0.016689 -0.003494 -0.012277 0.000000 0.000000 0.000000
# 2 -0.003494 0.057299 -0.010425 0.000000 0.000000 0.000000
# 3 -0.012277 -0.010425 0.019256 0.000000 0.000000 0.000000
# 4 0.000000 0.000000 0.000000 0.036918 0.000000 0.000000
# 5 0.000000 0.000000 0.000000 0.000000 0.042824 0.000000
# 6 0.000000 0.000000 0.000000 0.000000 0.000000 0.067378
#
#
# Mechanical properties :
#
#
# Convention : Reuss Voigt Hill
#
# Bulk Modulus (GPa) = 24.47827 71.75015 48.11421
# Shear Modulus (GPa) = 16.32001 22.39449 19.35725
#
# Velocity S-wave (km/s) = 3.13785 3.67572 3.41739
# Velocity P-wave (km/s) = 5.28169 7.82960 6.67828
#
# Compressibility (1/GPa) = 0.04085256
#
# Stress axis : x y z
#
# Youngs Moduli (GPa) = 59.92078 17.45227 51.93205
#
# Poissons Ratio (x) = 0.06098 0.63755
# Poissons Ratio (y) = 0.20937 0.54138
# Poissons Ratio (z) = 0.73562 0.18194
#
# Static dielectric constant tensor:
#      x y z
#    x 1.549490 0.000000 0.000000 
#    y 0.000000 1.564970 0.000000 
#    z 0.000000 0.000000 1.547320 
# 
# From -- ./inp_files/24629.got.cif
#   From: 2010.05.17/outbox.cif.g08.bks.cpg/sg62_13_cif.got.tgz:24629.got - 2010.06.03 15:25:27.
