data_PCOD9462380
_publ_section_title
;
Structure prediction by ZEFSAII (Michael W. Deem and Ramdas Pophale) SiO2 
 PCOD9462380
Probable space group: P N M A
;
_chemical_formula_sum "Si O2"
_cell_formula_units_Z 64
_cell_length_a 16.125144
_cell_length_b 7.410678
_cell_length_c 23.371826
_cell_angle_alpha 90.000000
_cell_angle_beta 90.000000
_cell_angle_gamma 90.000000
_cell_volume 2792.892304
_symmetry_space_group_name_H-M "P N M A"
_symmetry_group_IT_number 62
_symmetry_cell_setting 'orthorhombic'
loop_
_space_group_symop_operation_xyz
x,y,z
1/2-x,-y,1/2+z
1/2+x,1/2-y,1/2-z
-x,1/2+y,-z
-x,-y,-z
1/2+x,y,1/2-z
1/2-x,1/2+y,1/2+z
x,1/2-y,z
loop_
_atom_site_type_symbol
_atom_site_label
_atom_site_fract_x
_atom_site_fract_y
_atom_site_fract_z
Si Si1 0.502903 0.969220 0.283943
Si Si2 0.182933 0.541810 0.203704
Si Si3 0.137776 0.471848 0.696187
Si Si4 0.789626 0.458976 0.048327
Si Si5 0.609607 0.031292 0.050124
Si Si6 0.070813 0.038670 0.577399
Si Si7 0.351030 0.532240 0.571972
Si Si8 0.466000 0.459648 0.415420
O O1 0.505184 0.750000 0.284906
O O2 0.596654 0.036026 0.273607
O O3 0.436635 0.026420 0.237301
O O4 0.475895 0.028535 0.347099
O O5 0.184589 0.750000 0.221986
O O6 0.272665 0.464361 0.217671
O O7 0.175056 0.534449 0.134467
O O8 0.139159 0.250000 0.695333
O O9 0.119336 0.534963 0.631781
O O10 0.791160 0.250000 0.066687
O O11 0.700918 0.533151 0.068255
O O12 0.877460 0.541849 0.067530
O O13 0.793086 0.468124 0.979299
O O14 0.611511 0.250000 0.049247
O O15 0.528405 0.978801 0.085618
O O16 0.592513 0.963907 0.985161
O O17 0.090589 0.250000 0.574587
O O18 0.350761 0.750000 0.573426
O O19 0.446161 0.468128 0.560989
O O20 0.464026 0.250000 0.432701
#
# Coordination Sequence:
#
# PCOD9462380 Si02
#       8
#     8   8   8   8   8   8   8   8
#     4   9  18  33  52  74  98 128 167 210 248 288
#     4   9  17  32  53  72  97 133 166 201 249 298
#     4   9  17  32  53  76  98 126 170 210 244 291
#     4  10  19  32  50  71  98 135 168 192 238 305
#     4   9  18  32  49  70  98 129 161 195 238 295
#     4   9  17  31  50  70  96 126 157 202 247 283
#     4  10  19  30  48  75 103 126 162 211 246 284
#     4   9  19  34  49  68 100 135 162 199 249 295
#
# _framework density 22.915312
#
# number of rings (size 3 to 8) (size 9 to 14) (size 15 to 20)
#    0.000    2.750    0.000    1.500    0.000    3.500 
#    2.250    4.375    0.000    0.000    0.000    0.000 
#    0.000    0.000    0.000    0.000    0.000    0.000 
#
# Total GULP energy -357303.611947 kJ/mol
# GULP energy per Si atom -5582.868937 kJ/mol
# Density = 2.286316 g / cm^3
# Si number density = 22.915312 Si / 1000 Ang^3
#
#
#
# Elastic Constant Matrix: (Units=GPa)
#
#
# Indices 1 2 3 4 5 6 
#
# 1 172.5682 -3.2448 22.5418 0.0000 0.0000 0.0000
# 2 -3.2448 85.0136 -3.5000 0.0000 0.0000 0.0000
# 3 22.5418 -3.5000 22.0442 0.0000 0.0000 0.0000
# 4 0.0000 0.0000 0.0000 5.7574 0.0000 0.0000
# 5 0.0000 0.0000 0.0000 0.0000 26.7119 0.0000
# 6 0.0000 0.0000 0.0000 0.0000 0.0000 2.8370
#
#
#
# Elastic Compliance Matrix: (Units=1/GPa)
#
#
# Indices 1 2 3 4 5 6 
#
# 1 0.006688 -0.000026 -0.006843 0.000000 0.000000 0.000000
# 2 -0.000026 0.011840 0.001907 0.000000 0.000000 0.000000
# 3 -0.006843 0.001907 0.052664 0.000000 0.000000 0.000000
# 4 0.000000 0.000000 0.000000 0.173690 0.000000 0.000000
# 5 0.000000 0.000000 0.000000 0.000000 0.037436 0.000000
# 6 0.000000 0.000000 0.000000 0.000000 0.000000 0.352488
#
#
# Mechanical properties :
#
#
# Convention : Reuss Voigt Hill
#
# Bulk Modulus (GPa) = 16.32203 34.57998 25.45100
# Shear Modulus (GPa) = 7.51704 24.64985 16.08344
#
# Velocity S-wave (km/s) = 1.81314 3.28333 2.65215
# Velocity P-wave (km/s) = 3.39434 5.43110 4.52871
#
# Compressibility (1/GPa) = 0.06126689
#
# Stress axis : x y z
#
# Youngs Moduli (GPa) = 149.51618 84.45713 18.98826
#
# Poissons Ratio (x) = 0.00224 0.12994
# Poissons Ratio (y) = 0.00396 -0.03621
# Poissons Ratio (z) = 1.02320 -0.16106
#
# Static dielectric constant tensor:
#      x y z
#    x 1.902070 0.000000 0.000000 
#    y 0.000000 1.745240 0.000000 
#    z 0.000000 0.000000 1.804100 
# 
# From -- ./inp_files/29815.got.cif
#   From: 2010.05.17/outbox.cif.g08.bks.cpg/sg62_15_cif.got.tgz:29815.got - 2010.06.03 15:25:27.
