data_PCOD9462392
_publ_section_title
;
Structure prediction by ZEFSAII (Michael W. Deem and Ramdas Pophale) SiO2 
 PCOD9462392
Probable space group: P N M A
;
_chemical_formula_sum "Si O2"
_cell_formula_units_Z 64
_cell_length_a 23.953371
_cell_length_b 8.615326
_cell_length_c 19.736147
_cell_angle_alpha 90.000000
_cell_angle_beta 90.000000
_cell_angle_gamma 90.000000
_cell_volume 4072.871685
_symmetry_space_group_name_H-M "P N M A"
_symmetry_group_IT_number 62
_symmetry_cell_setting 'orthorhombic'
loop_
_space_group_symop_operation_xyz
x,y,z
1/2-x,-y,1/2+z
1/2+x,1/2-y,1/2-z
-x,1/2+y,-z
-x,-y,-z
1/2+x,y,1/2-z
1/2-x,1/2+y,1/2+z
x,1/2-y,z
loop_
_atom_site_type_symbol
_atom_site_label
_atom_site_fract_x
_atom_site_fract_y
_atom_site_fract_z
Si Si1 0.224353 0.935569 0.142893
Si Si2 0.437447 0.563805 0.860713
Si Si3 0.230946 0.062117 0.850643
Si Si4 0.336281 0.564280 0.767787
Si Si5 0.335670 0.938397 0.223900
Si Si6 0.438932 0.563273 0.135896
Si Si7 0.884107 0.436532 0.500946
Si Si8 0.253061 0.062912 0.000889
O O1 0.222643 0.750000 0.144843
O O2 0.284092 0.985990 0.175437
O O3 0.177529 0.001034 0.193279
O O4 0.223116 0.993977 0.066349
O O5 0.438718 0.750000 0.865605
O O6 0.395653 0.519721 0.799733
O O7 0.499570 0.500795 0.851548
O O8 0.411556 0.497290 0.930076
O O9 0.233294 0.250000 0.849809
O O10 0.181538 0.012640 0.799678
O O11 0.288128 0.002153 0.817062
O O12 0.228054 0.012519 0.928554
O O13 0.332179 0.750000 0.767259
O O14 0.336544 0.750000 0.223508
O O15 0.393859 0.990485 0.192120
O O16 0.440392 0.750000 0.135285
O O17 0.416142 0.505319 0.063526
O O18 0.887433 0.250000 0.499419
O O19 0.818699 0.481637 0.498141
O O20 0.250608 0.250000 0.004521
#
# Coordination Sequence:
#
# PCOD9462392 Si02
#       8
#     8   8   8   8   8   8   8   8
#     4  10  19  32  51  71  98 128 161 199 243 295
#     4  11  23  36  49  68  96 132 170 208 246 288
#     4   9  17  32  51  72  98 127 160 197 245 296
#     4  10  20  33  49  70  96 125 163 206 248 291
#     4   8  16  30  48  69  92 123 159 198 238 283
#     4  11  21  34  50  69  96 132 172 206 242 287
#     4  11  21  33  48  70 100 133 169 204 238 284
#     4  10  19  30  49  75 102 130 161 196 240 294
#
# _framework density 15.71373
#
# number of rings (size 3 to 8) (size 9 to 14) (size 15 to 20)
#    0.000    2.000    2.500    3.000    0.000    2.500 
#    0.000    0.625    0.000    0.000    0.000    0.875 
#    0.000    0.000    0.000    0.000    0.000    0.000 
#
# Total GULP energy -357071.384201 kJ/mol
# GULP energy per Si atom -5579.240378 kJ/mol
# Density = 1.567796 g / cm^3
# Si number density = 15.713730 Si / 1000 Ang^3
#
#
#
# Elastic Constant Matrix: (Units=GPa)
#
#
# Indices 1 2 3 4 5 6 
#
# 1 94.7088 26.5863 70.6335 0.0000 0.0000 0.0000
# 2 26.5863 30.5117 30.6206 0.0000 0.0000 0.0000
# 3 70.6335 30.6206 147.4462 0.0000 0.0000 0.0000
# 4 0.0000 0.0000 0.0000 19.1635 0.0000 0.0000
# 5 0.0000 0.0000 0.0000 0.0000 19.6373 0.0000
# 6 0.0000 0.0000 0.0000 0.0000 0.0000 15.1922
#
#
#
# Elastic Compliance Matrix: (Units=1/GPa)
#
#
# Indices 1 2 3 4 5 6 
#
# 1 0.018185 -0.008973 -0.006848 0.000000 0.000000 0.000000
# 2 -0.008973 0.045831 -0.005219 0.000000 0.000000 0.000000
# 3 -0.006848 -0.005219 0.011147 0.000000 0.000000 0.000000
# 4 0.000000 0.000000 0.000000 0.052183 0.000000 0.000000
# 5 0.000000 0.000000 0.000000 0.000000 0.050924 0.000000
# 6 0.000000 0.000000 0.000000 0.000000 0.000000 0.065823
#
#
# Mechanical properties :
#
#
# Convention : Reuss Voigt Hill
#
# Bulk Modulus (GPa) = 30.22820 58.70530 44.46675
# Shear Modulus (GPa) = 16.82375 20.45367 18.63871
#
# Velocity S-wave (km/s) = 3.27561 3.61174 3.44778
# Velocity P-wave (km/s) = 5.79524 7.40495 6.64899
#
# Compressibility (1/GPa) = 0.03308169
#
# Stress axis : x y z
#
# Youngs Moduli (GPa) = 54.99159 21.81939 89.71422
#
# Poissons Ratio (x) = 0.19578 0.61435
# Poissons Ratio (y) = 0.49343 0.46826
# Poissons Ratio (z) = 0.37657 0.11388
#
# Static dielectric constant tensor:
#      x y z
#    x 1.508710 0.000000 0.000000 
#    y 0.000000 1.528110 0.000000 
#    z 0.000000 0.000000 1.525950 
# 
# From -- ./inp_files/24915.got.cif
#   From: 2010.05.17/outbox.cif.g08.bks.cpg/sg62_13_cif.got.tgz:24915.got - 2010.06.03 15:25:27.
