data_PCOD9462584
_publ_section_title
;
Structure prediction by ZEFSAII (Michael W. Deem and Ramdas Pophale) SiO2 
 PCOD9462584
Probable space group: P N M A
;
_chemical_formula_sum "Si O2"
_cell_formula_units_Z 56
_cell_length_a 16.261028
_cell_length_b 7.756794
_cell_length_c 21.210074
_cell_angle_alpha 90.000000
_cell_angle_beta 90.000000
_cell_angle_gamma 90.000000
_cell_volume 2675.299690
_symmetry_space_group_name_H-M "P N M A"
_symmetry_group_IT_number 62
_symmetry_cell_setting 'orthorhombic'
loop_
_space_group_symop_operation_xyz
x,y,z
1/2-x,-y,1/2+z
1/2+x,1/2-y,1/2-z
-x,1/2+y,-z
-x,-y,-z
1/2+x,y,1/2-z
1/2-x,1/2+y,1/2+z
x,1/2-y,z
loop_
_atom_site_type_symbol
_atom_site_label
_atom_site_fract_x
_atom_site_fract_y
_atom_site_fract_z
Si Si1 0.058626 0.957022 0.942592
Si Si2 0.982934 0.952573 0.813674
Si Si3 0.873283 0.944947 0.281609
Si Si4 0.799376 0.454933 0.833158
Si Si5 0.977839 0.054342 0.394142
Si Si6 0.790994 0.040327 0.978948
Si Si7 0.609610 0.459140 0.020374
O O1 0.065738 0.750000 0.934073
O O2 0.018984 0.027830 0.878894
O O3 0.144333 0.023826 0.969527
O O4 0.000000 0.000000 0.000000
O O5 0.969464 0.750000 0.821235
O O6 0.889988 0.021273 0.802719
O O7 0.057109 0.975509 0.763910
O O8 0.861128 0.750000 0.258823
O O9 0.781913 0.022385 0.295486
O O10 0.920456 0.946908 0.348553
O O11 0.784647 0.250000 0.837853
O O12 0.801317 0.521104 0.906235
O O13 0.980911 0.250000 0.369533
O O14 0.069274 0.992312 0.412519
O O15 0.936219 0.049519 0.462591
O O16 0.798951 0.250000 0.975718
O O17 0.703148 0.999230 0.007714
O O18 0.600123 0.250000 0.015083
#
# Coordination Sequence:
#
# PCOD9462584 Si02
#       7
#     8   8   8   8   8   8   8
#     4  10  20  35  58  85 114 146 183 234 294 351
#     4  11  24  40  59  89 122 152 193 249 306 355
#     4  11  23  41  63  83 115 161 208 246 292 362
#     4  10  20  38  65  87 108 153 203 241 289 353
#     4  10  19  31  53  84 117 148 190 244 296 343
#     4   9  16  32  58  83 110 146 189 229 279 348
#     4   9  17  32  53  80 114 153 192 231 285 351
#
# _framework density 20.932234999999999
#
# number of rings (size 3 to 8) (size 9 to 14) (size 15 to 20)
#    0.000    2.000    2.857    1.286    0.000    2.286 
#    2.571    0.714    0.000    0.000    0.000    0.000 
#    0.000    0.000    0.000    0.000    0.000    0.000 
#
# Total GULP energy -311886.088300 kJ/mol
# GULP energy per Si atom -5569.394434 kJ/mol
# Density = 2.088459 g / cm^3
# Si number density = 20.932235 Si / 1000 Ang^3
#
#
#
# Elastic Constant Matrix: (Units=GPa)
#
#
# Indices 1 2 3 4 5 6 
#
# 1 165.3856 2.3518 58.6067 0.0000 0.0000 0.0000
# 2 2.3518 29.6413 -0.3497 0.0000 0.0000 0.0000
# 3 58.6067 -0.3497 68.7117 0.0000 0.0000 0.0000
# 4 0.0000 0.0000 0.0000 16.7258 0.0000 0.0000
# 5 0.0000 0.0000 0.0000 0.0000 29.0372 0.0000
# 6 0.0000 0.0000 0.0000 0.0000 0.0000 10.9269
#
#
#
# Elastic Compliance Matrix: (Units=1/GPa)
#
#
# Indices 1 2 3 4 5 6 
#
# 1 0.008684 -0.000776 -0.007410 0.000000 0.000000 0.000000
# 2 -0.000776 0.033808 0.000834 0.000000 0.000000 0.000000
# 3 -0.007410 0.000834 0.020878 0.000000 0.000000 0.000000
# 4 0.000000 0.000000 0.000000 0.059788 0.000000 0.000000
# 5 0.000000 0.000000 0.000000 0.000000 0.034439 0.000000
# 6 0.000000 0.000000 0.000000 0.000000 0.000000 0.091518
#
#
# Mechanical properties :
#
#
# Convention : Reuss Voigt Hill
#
# Bulk Modulus (GPa) = 20.54868 42.77294 31.66081
# Shear Modulus (GPa) = 17.85454 24.87996 21.36725
#
# Velocity S-wave (km/s) = 2.92373 3.45134 3.19843
# Velocity P-wave (km/s) = 4.60822 6.02998 5.36640
#
# Compressibility (1/GPa) = 0.04866492
#
# Stress axis : x y z
#
# Youngs Moduli (GPa) = 115.16088 29.57869 47.89632
#
# Poissons Ratio (x) = 0.02296 0.35493
# Poissons Ratio (y) = 0.08941 -0.03996
# Poissons Ratio (z) = 0.85339 -0.02468
#
# Static dielectric constant tensor:
#      x y z
#    x 1.758680 0.000000 0.000000 
#    y 0.000000 1.340060 0.000000 
#    z 0.000000 0.000000 1.740110 
# 
# From -- ./inp_files/27197.got.cif
#   From: 2010.05.17/outbox.cif.g08.bks.cpg/sg62_14_cif.got.tgz:27197.got - 2010.06.03 15:25:27.
