data_PCOD9462864
_publ_section_title
;
Structure prediction by ZEFSAII (Michael W. Deem and Ramdas Pophale) SiO2 
 PCOD9462864
Probable space group: P N M A
;
_chemical_formula_sum "Si O2"
_cell_formula_units_Z 48
_cell_length_a 13.979638
_cell_length_b 14.041141
_cell_length_c 10.420105
_cell_angle_alpha 90.000000
_cell_angle_beta 90.000000
_cell_angle_gamma 90.000000
_cell_volume 2045.363122
_symmetry_space_group_name_H-M "P N M A"
_symmetry_group_IT_number 62
_symmetry_cell_setting 'orthorhombic'
loop_
_space_group_symop_operation_xyz
x,y,z
1/2-x,-y,1/2+z
1/2+x,1/2-y,1/2-z
-x,1/2+y,-z
-x,-y,-z
1/2+x,y,1/2-z
1/2-x,1/2+y,1/2+z
x,1/2-y,z
loop_
_atom_site_type_symbol
_atom_site_label
_atom_site_fract_x
_atom_site_fract_y
_atom_site_fract_z
Si Si1 0.006200 0.890859 0.540564
Si Si2 0.368050 0.438115 0.269864
Si Si3 0.861426 0.646561 0.196609
Si Si4 0.640673 0.646966 0.188184
Si Si5 0.853086 0.576758 0.729191
Si Si6 0.010435 0.143047 0.050809
O O1 0.075747 0.879958 0.662932
O O2 0.060661 0.846031 0.421439
O O3 0.902747 0.875824 0.604159
O O4 0.000000 0.000000 0.500000
O O5 0.370343 0.549021 0.226245
O O6 0.259143 0.409189 0.278873
O O7 0.424823 0.425530 0.403842
O O8 0.871117 0.750000 0.261609
O O9 0.752297 0.644069 0.141456
O O10 0.943413 0.639739 0.089372
O O11 0.634484 0.750000 0.261655
O O12 0.627968 0.538794 0.241290
O O13 0.902298 0.622131 0.852686
O O14 0.974548 0.250000 0.071585
#
# Coordination Sequence:
#
# PCOD9462864 Si02
#       6
#     8   8   8   8   8   8
#     4   9  18  32  49  75 105 138 176 213 260 315
#     4  10  19  33  53  75 103 136 174 223 268 312
#     4   9  18  33  54  79 105 136 173 212 262 323
#     4   9  17  32  55  79 105 138 173 212 263 324
#     4   9  19  33  51  78 106 135 176 221 265 311
#     4  10  20  33  50  74 104 139 177 215 261 313
#
# _framework density 23.467714999999998
#
# number of rings (size 3 to 8) (size 9 to 14) (size 15 to 20)
#    0.000    2.667    0.000    1.500    0.000    3.333 
#    0.000    7.500    0.000    2.000    0.000   11.667 
#    0.000    0.000    0.000    0.000    0.000    0.000 
#
# Total GULP energy -267509.911020 kJ/mol
# GULP energy per Si atom -5573.123146 kJ/mol
# Density = 2.341430 g / cm^3
# Si number density = 23.467715 Si / 1000 Ang^3
#
#
#
# Elastic Constant Matrix: (Units=GPa)
#
#
# Indices 1 2 3 4 5 6 
#
# 1 155.4434 6.8059 17.5150 0.0000 0.0000 0.0000
# 2 6.8059 97.6454 -16.2587 0.0000 0.0000 0.0000
# 3 17.5150 -16.2587 17.8269 0.0000 0.0000 0.0000
# 4 0.0000 0.0000 0.0000 12.5567 0.0000 0.0000
# 5 0.0000 0.0000 0.0000 0.0000 17.2950 0.0000
# 6 0.0000 0.0000 0.0000 0.0000 0.0000 21.7685
#
#
#
# Elastic Compliance Matrix: (Units=1/GPa)
#
#
# Indices 1 2 3 4 5 6 
#
# 1 0.007578 -0.002084 -0.009346 0.000000 0.000000 0.000000
# 2 -0.002084 0.012648 0.013583 0.000000 0.000000 0.000000
# 3 -0.009346 0.013583 0.077666 0.000000 0.000000 0.000000
# 4 0.000000 0.000000 0.000000 0.079639 0.000000 0.000000
# 5 0.000000 0.000000 0.000000 0.000000 0.057820 0.000000
# 6 0.000000 0.000000 0.000000 0.000000 0.000000 0.045938
#
#
# Mechanical properties :
#
#
# Convention : Reuss Voigt Hill
#
# Bulk Modulus (GPa) = 9.78495 31.89335 20.83915
# Shear Modulus (GPa) = 16.07468 27.84760 21.96114
#
# Velocity S-wave (km/s) = 2.62003 3.44849 3.06241
# Velocity P-wave (km/s) = 3.65121 5.42918 4.62641
#
# Compressibility (1/GPa) = 0.10219771
#
# Stress axis : x y z
#
# Youngs Moduli (GPa) = 131.96883 79.06300 12.87567
#
# Poissons Ratio (x) = 0.16479 0.12034
# Poissons Ratio (y) = 0.27507 -0.17489
# Poissons Ratio (z) = 1.23337 -1.07394
#
# Static dielectric constant tensor:
#      x y z
#    x 1.867680 0.000000 0.000000 
#    y 0.000000 1.719200 0.000000 
#    z 0.000000 0.000000 1.917390 
# 
# From -- ./inp_files/13287.got.cif
#   From: 2010.05.17/outbox.cif.g08.bks.cpg/sg62_7_cif.got.tgz:13287.got - 2010.06.03 15:25:27.
