data_PCOD9462711
_publ_section_title
;
Structure prediction by ZEFSAII (Michael W. Deem and Ramdas Pophale) SiO2 
 PCOD9462711
Probable space group: P N M A
;
_chemical_formula_sum "Si O2"
_cell_formula_units_Z 64
_cell_length_a 33.893532
_cell_length_b 7.743920
_cell_length_c 10.528289
_cell_angle_alpha 90.000000
_cell_angle_beta 90.000000
_cell_angle_gamma 90.000000
_cell_volume 2763.347383
_symmetry_space_group_name_H-M "P N M A"
_symmetry_group_IT_number 62
_symmetry_cell_setting 'orthorhombic'
loop_
_space_group_symop_operation_xyz
x,y,z
1/2-x,-y,1/2+z
1/2+x,1/2-y,1/2-z
-x,1/2+y,-z
-x,-y,-z
1/2+x,y,1/2-z
1/2-x,1/2+y,1/2+z
x,1/2-y,z
loop_
_atom_site_type_symbol
_atom_site_label
_atom_site_fract_x
_atom_site_fract_y
_atom_site_fract_z
Si Si1 0.528624 0.447455 0.331707
Si Si2 0.718674 0.041225 0.773601
Si Si3 0.723340 0.954256 0.054386
Si Si4 0.451961 0.041840 0.223919
Si Si5 0.363808 0.952129 0.869832
Si Si6 0.612063 0.038662 0.408317
Si Si7 0.634932 0.457779 0.681855
Si Si8 0.553871 0.550812 0.055623
O O1 0.525018 0.250000 0.375595
O O2 0.484827 0.525612 0.323339
O O3 0.566519 0.525068 0.402417
O O4 0.541587 0.451120 0.182680
O O5 0.717814 0.250000 0.770004
O O6 0.745836 0.978352 0.658160
O O7 0.673680 0.978150 0.754429
O O8 0.735238 0.989434 0.909967
O O9 0.720656 0.750000 0.072364
O O10 0.679732 0.026546 0.077447
O O11 0.455898 0.250000 0.220539
O O12 0.407404 0.001093 0.260095
O O13 0.460132 0.980039 0.079918
O O14 0.373940 0.750000 0.873765
O O15 0.367074 0.011624 0.723096
O O16 0.398364 0.045115 0.946588
O O17 0.610758 0.250000 0.409495
O O18 0.633604 0.981768 0.535572
O O19 0.637570 0.250000 0.680604
O O20 0.541858 0.750000 0.070510
#
# Coordination Sequence:
#
# PCOD9462711 Si02
#       8
#     8   8   8   8   8   8   8   8
#     4   9  18  34  53  77 110 147 191 238 292 354
#     4  10  24  43  63  90 123 158 198 244 301 363
#     4  11  24  41  64  94 125 156 198 252 299 357
#     4  10  21  34  50  76 112 150 186 236 296 348
#     4  10  20  36  61  85 114 154 194 237 298 362
#     4   8  17  34  57  81 107 148 195 239 285 343
#     4  10  21  38  58  79 108 148 195 238 285 354
#     4  10  19  32  52  80 113 145 187 241 292 348
#
# _framework density 23.160316000000002
#
# number of rings (size 3 to 8) (size 9 to 14) (size 15 to 20)
#    0.000    2.250    0.000    3.000    1.750    5.500 
#    0.000    3.125    0.000    0.000    0.000    0.000 
#    0.000    0.000    0.000    0.000    0.000    0.000 
#
# Total GULP energy -357672.800368 kJ/mol
# GULP energy per Si atom -5588.637506 kJ/mol
# Density = 2.310760 g / cm^3
# Si number density = 23.160316 Si / 1000 Ang^3
#
#
#
# Elastic Constant Matrix: (Units=GPa)
#
#
# Indices 1 2 3 4 5 6 
#
# 1 93.2994 2.6585 21.6131 0.0000 0.0000 0.0000
# 2 2.6585 51.1055 0.1476 0.0000 0.0000 0.0000
# 3 21.6131 0.1476 97.8816 0.0000 0.0000 0.0000
# 4 0.0000 0.0000 0.0000 16.6509 0.0000 0.0000
# 5 0.0000 0.0000 0.0000 0.0000 36.0895 0.0000
# 6 0.0000 0.0000 0.0000 0.0000 0.0000 5.3638
#
#
#
# Elastic Compliance Matrix: (Units=1/GPa)
#
#
# Indices 1 2 3 4 5 6 
#
# 1 0.011313 -0.000581 -0.002497 0.000000 0.000000 0.000000
# 2 -0.000581 0.019597 0.000099 0.000000 0.000000 0.000000
# 3 -0.002497 0.000099 0.010768 0.000000 0.000000 0.000000
# 4 0.000000 0.000000 0.000000 0.060057 0.000000 0.000000
# 5 0.000000 0.000000 0.000000 0.000000 0.027709 0.000000
# 6 0.000000 0.000000 0.000000 0.000000 0.000000 0.186434
#
#
# Mechanical properties :
#
#
# Convention : Reuss Voigt Hill
#
# Bulk Modulus (GPa) = 27.99640 32.34721 30.17180
# Shear Modulus (GPa) = 14.98156 26.14532 20.56344
#
# Velocity S-wave (km/s) = 2.54611 3.36353 2.98295
# Velocity P-wave (km/s) = 4.55608 5.39272 4.99196
#
# Compressibility (1/GPa) = 0.03571887
#
# Stress axis : x y z
#
# Youngs Moduli (GPa) = 88.39207 51.02738 92.87060
#
# Poissons Ratio (x) = 0.02966 0.23191
# Poissons Ratio (y) = 0.05138 -0.00918
# Poissons Ratio (z) = 0.22073 -0.00504
#
# Static dielectric constant tensor:
#      x y z
#    x 1.882080 0.000000 0.000000 
#    y 0.000000 1.859980 0.000000 
#    z 0.000000 0.000000 1.873980 
# 
# From -- ./inp_files/15851.got.cif
#   From: 2010.05.17/outbox.cif.g08.bks.cpg/sg62_8_cif.got.tgz:15851.got - 2010.06.03 15:25:27.
