data_PCOD9462387
_publ_section_title
;
Structure prediction by ZEFSAII (Michael W. Deem and Ramdas Pophale) SiO2 
 PCOD9462387
Probable space group: P N M A
;
_chemical_formula_sum "Si O2"
_cell_formula_units_Z 64
_cell_length_a 23.084506
_cell_length_b 7.698709
_cell_length_c 17.591893
_cell_angle_alpha 90.000000
_cell_angle_beta 90.000000
_cell_angle_gamma 90.000000
_cell_volume 3126.446953
_symmetry_space_group_name_H-M "P N M A"
_symmetry_group_IT_number 62
_symmetry_cell_setting 'orthorhombic'
loop_
_space_group_symop_operation_xyz
x,y,z
1/2-x,-y,1/2+z
1/2+x,1/2-y,1/2-z
-x,1/2+y,-z
-x,-y,-z
1/2+x,y,1/2-z
1/2-x,1/2+y,1/2+z
x,1/2-y,z
loop_
_atom_site_type_symbol
_atom_site_label
_atom_site_fract_x
_atom_site_fract_y
_atom_site_fract_z
Si Si1 0.884013 0.040821 0.273615
Si Si2 0.369500 0.040377 0.469824
Si Si3 0.339527 0.548112 0.788333
Si Si4 0.898222 0.543064 0.861754
Si Si5 0.283759 0.462373 0.340460
Si Si6 0.565989 0.453795 0.929402
Si Si7 0.563236 0.950199 0.096541
Si Si8 0.029823 0.962127 0.857499
O O1 0.884650 0.250000 0.275625
O O2 0.826149 0.987958 0.228981
O O3 0.937944 0.985046 0.220322
O O4 0.891548 0.976879 0.358907
O O5 0.369732 0.250000 0.468575
O O6 0.315738 0.980556 0.417796
O O7 0.428453 0.982569 0.426742
O O8 0.369676 0.984183 0.556569
O O9 0.325711 0.750000 0.773224
O O10 0.361376 0.470849 0.708655
O O11 0.280967 0.473787 0.824954
O O12 0.392306 0.540254 0.847388
O O13 0.903591 0.750000 0.849147
O O14 0.964214 0.474480 0.862825
O O15 0.283601 0.250000 0.343946
O O16 0.558858 0.250000 0.945815
O O17 0.502392 0.522365 0.904434
O O18 0.583363 0.538638 0.008886
O O19 0.560419 0.750000 0.120565
O O20 0.029454 0.750000 0.858547
#
# Coordination Sequence:
#
# PCOD9462387 Si02
#       8
#     8   8   8   8   8   8   8   8
#     4   9  16  31  55  77 101 138 180 215 250 305
#     4   9  17  32  52  71  97 134 171 205 245 301
#     4  10  20  36  55  74 103 140 174 214 263 309
#     4  10  19  30  48  76 104 129 163 209 259 307
#     4   8  17  35  55  73 100 140 178 210 253 307
#     4  10  20  34  53  80 110 135 168 215 269 320
#     4  10  21  36  54  77 105 137 173 216 264 317
#     4   8  15  28  48  74 102 134 168 203 252 307
#
# _framework density 20.470521999999999
#
# number of rings (size 3 to 8) (size 9 to 14) (size 15 to 20)
#    0.000    2.750    0.000    3.375    0.000    3.000 
#    2.250    4.375    0.000    0.000    0.000    0.000 
#    0.000    0.000    0.000    0.000    0.000    0.000 
#
# Total GULP energy -357123.647705 kJ/mol
# GULP energy per Si atom -5580.056995 kJ/mol
# Density = 2.042393 g / cm^3
# Si number density = 20.470522 Si / 1000 Ang^3
#
#
#
# Elastic Constant Matrix: (Units=GPa)
#
#
# Indices 1 2 3 4 5 6 
#
# 1 96.2226 7.1923 55.6303 0.0000 0.0000 0.0000
# 2 7.1923 31.5078 -8.0524 0.0000 0.0000 0.0000
# 3 55.6303 -8.0524 113.9644 0.0000 0.0000 0.0000
# 4 0.0000 0.0000 0.0000 4.2002 0.0000 0.0000
# 5 0.0000 0.0000 0.0000 0.0000 8.3911 0.0000
# 6 0.0000 0.0000 0.0000 0.0000 0.0000 7.2768
#
#
#
# Elastic Compliance Matrix: (Units=1/GPa)
#
#
# Indices 1 2 3 4 5 6 
#
# 1 0.015368 -0.005525 -0.007892 0.000000 0.000000 0.000000
# 2 -0.005525 0.034308 0.005121 0.000000 0.000000 0.000000
# 3 -0.007892 0.005121 0.012989 0.000000 0.000000 0.000000
# 4 0.000000 0.000000 0.000000 0.238087 0.000000 0.000000
# 5 0.000000 0.000000 0.000000 0.000000 0.119174 0.000000
# 6 0.000000 0.000000 0.000000 0.000000 0.000000 0.137422
#
#
# Mechanical properties :
#
#
# Convention : Reuss Voigt Hill
#
# Bulk Modulus (GPa) = 21.70466 39.02613 30.36539
# Shear Modulus (GPa) = 8.48467 16.43527 12.45997
#
# Velocity S-wave (km/s) = 2.03809 2.83658 2.46982
# Velocity P-wave (km/s) = 4.02049 5.46207 4.79575
#
# Compressibility (1/GPa) = 0.04607306
#
# Stress axis : x y z
#
# Youngs Moduli (GPa) = 65.06853 29.14754 76.98796
#
# Poissons Ratio (x) = 0.16105 0.60761
# Poissons Ratio (y) = 0.35952 -0.39427
# Poissons Ratio (z) = 0.51354 -0.14927
#
# Static dielectric constant tensor:
#      x y z
#    x 1.723210 0.000000 0.000000 
#    y 0.000000 1.602150 0.000000 
#    z 0.000000 0.000000 1.708980 
# 
# From -- ./inp_files/24838.got.cif
#   From: 2010.05.17/outbox.cif.g08.bks.cpg/sg62_13_cif.got.tgz:24838.got - 2010.06.03 15:25:27.
