data_PCOD9462050
_publ_section_title
;
Structure prediction by ZEFSAII (Michael W. Deem and Ramdas Pophale) SiO2 
 PCOD9462050
Probable space group: P N M A
;
_chemical_formula_sum "Si O2"
_cell_formula_units_Z 56
_cell_length_a 10.984835
_cell_length_b 18.334710
_cell_length_c 11.890401
_cell_angle_alpha 90.000000
_cell_angle_beta 90.000000
_cell_angle_gamma 90.000000
_cell_volume 2394.771518
_symmetry_space_group_name_H-M "P N M A"
_symmetry_group_IT_number 62
_symmetry_cell_setting 'orthorhombic'
loop_
_space_group_symop_operation_xyz
x,y,z
1/2-x,-y,1/2+z
1/2+x,1/2-y,1/2-z
-x,1/2+y,-z
-x,-y,-z
1/2+x,y,1/2-z
1/2-x,1/2+y,1/2+z
x,1/2-y,z
loop_
_atom_site_type_symbol
_atom_site_label
_atom_site_fract_x
_atom_site_fract_y
_atom_site_fract_z
Si Si1 0.817872 0.250000 0.638228
Si Si2 0.947146 0.750000 0.230992
Si Si3 0.554759 0.337617 0.180393
Si Si4 0.092899 0.901522 0.478747
Si Si5 0.999048 0.390144 0.076758
Si Si6 0.668857 0.032512 0.592098
Si Si7 0.731526 0.829602 0.510403
Si Si8 0.366888 0.904292 0.168591
O O1 0.670155 0.250000 0.644647
O O2 0.901649 0.250000 0.755056
O O3 0.858223 0.324500 0.574682
O O4 0.915976 0.673920 0.290173
O O5 0.530110 0.250000 0.184986
O O6 0.557699 0.371375 0.304165
O O7 0.683332 0.347686 0.116743
O O8 0.456127 0.378473 0.101461
O O9 0.200017 0.959992 0.465332
O O10 0.979776 0.931607 0.405435
O O11 0.906589 0.458334 0.086008
O O12 0.908045 0.326940 0.041591
O O13 0.090653 0.408749 0.977829
O O14 0.674072 0.051859 0.723277
O O15 0.775788 0.750000 0.473462
O O16 0.754893 0.886778 0.412299
#
# Coordination Sequence:
#
# PCOD9462050 Si02
#       8
#     4   4   8   8   8   8   8   8
#     4  10  18  34  58  98 132 166 214 266 332 390
#     4  10  18  32  60  92 132 166 200 268 332 378
#     4  10  22  45  71  96 127 169 223 273 329 386
#     4  10  21  40  68  95 126 171 213 269 325 389
#     4  11  27  45  63  93 137 175 215 269 313 387
#     4  11  26  44  62  96 135 174 219 258 321 392
#     4  10  22  44  70  99 127 163 218 275 334 384
#     4  10  21  40  66  96 130 164 210 271 329 390
#
# _framework density 23.384277999999998
#
# number of rings (size 3 to 8) (size 9 to 14) (size 15 to 20)
#    0.000    1.714    2.857    0.429    4.000    2.286 
#    5.143    2.857    0.000    0.000    0.000    0.000 
#    0.000    0.000    0.000    0.000    0.000    0.000 
#
# Total GULP energy -312789.907898 kJ/mol
# GULP energy per Si atom -5585.534070 kJ/mol
# Density = 2.333105 g / cm^3
# Si number density = 23.384278 Si / 1000 Ang^3
#
#
#
# Elastic Constant Matrix: (Units=GPa)
#
#
# Indices 1 2 3 4 5 6 
#
# 1 69.0057 14.7971 32.5147 0.0000 0.0000 0.0000
# 2 14.7971 62.0677 25.5142 0.0000 0.0000 0.0000
# 3 32.5147 25.5142 115.5998 0.0000 0.0000 0.0000
# 4 0.0000 0.0000 0.0000 20.5638 0.0000 0.0000
# 5 0.0000 0.0000 0.0000 0.0000 17.0914 0.0000
# 6 0.0000 0.0000 0.0000 0.0000 0.0000 28.2585
#
#
#
# Elastic Compliance Matrix: (Units=1/GPa)
#
#
# Indices 1 2 3 4 5 6 
#
# 1 0.016998 -0.002295 -0.004274 0.000000 0.000000 0.000000
# 2 -0.002295 0.018029 -0.003334 0.000000 0.000000 0.000000
# 3 -0.004274 -0.003334 0.010589 0.000000 0.000000 0.000000
# 4 0.000000 0.000000 0.000000 0.048629 0.000000 0.000000
# 5 0.000000 0.000000 0.000000 0.000000 0.058509 0.000000
# 6 0.000000 0.000000 0.000000 0.000000 0.000000 0.035388
#
#
# Mechanical properties :
#
#
# Convention : Reuss Voigt Hill
#
# Bulk Modulus (GPa) = 38.74642 43.59169 41.16906
# Shear Modulus (GPa) = 23.08931 24.77255 23.93093
#
# Velocity S-wave (km/s) = 3.14568 3.25832 3.20250
# Velocity P-wave (km/s) = 5.45886 5.73040 5.59628
#
# Compressibility (1/GPa) = 0.02580884
#
# Stress axis : x y z
#
# Youngs Moduli (GPa) = 58.83124 55.46623 94.44153
#
# Poissons Ratio (x) = 0.12731 0.40368
# Poissons Ratio (y) = 0.13503 0.31483
# Poissons Ratio (z) = 0.25147 0.18490
#
# Static dielectric constant tensor:
#      x y z
#    x 1.875300 0.000000 0.000000 
#    y 0.000000 1.929910 0.000000 
#    z 0.000000 0.000000 1.855880 
# 
# From -- ./inp_files/12444.got.cif
#   From: 2010.05.17/outbox.cif.g08.bks.cpg/sg62_7_cif.got.tgz:12444.got - 2010.06.03 15:25:27.
