data_PCOD9462007
_publ_section_title
;
Structure prediction by ZEFSAII (Michael W. Deem and Ramdas Pophale) SiO2 
 PCOD9462007
Probable space group: P N M A
;
_chemical_formula_sum "Si O2"
_cell_formula_units_Z 56
_cell_length_a 19.635766
_cell_length_b 8.669486
_cell_length_c 18.208066
_cell_angle_alpha 90.000000
_cell_angle_beta 90.000000
_cell_angle_gamma 90.000000
_cell_volume 3099.595463
_symmetry_space_group_name_H-M "P N M A"
_symmetry_group_IT_number 62
_symmetry_cell_setting 'orthorhombic'
loop_
_space_group_symop_operation_xyz
x,y,z
1/2-x,-y,1/2+z
1/2+x,1/2-y,1/2-z
-x,1/2+y,-z
-x,-y,-z
1/2+x,y,1/2-z
1/2-x,1/2+y,1/2+z
x,1/2-y,z
loop_
_atom_site_type_symbol
_atom_site_label
_atom_site_fract_x
_atom_site_fract_y
_atom_site_fract_z
Si Si1 0.795275 0.067033 0.421956
Si Si2 0.438753 0.072803 0.596633
Si Si3 0.815857 0.935869 0.814617
Si Si4 0.222340 0.071661 0.925006
Si Si5 0.924853 0.064644 0.514452
Si Si6 0.579465 0.573425 0.579675
Si Si7 0.846654 0.569262 0.651265
O O1 0.805671 0.250000 0.410017
O O2 0.755569 0.005400 0.350132
O O3 0.741614 0.051475 0.489225
O O4 0.867364 0.008329 0.454879
O O5 0.437573 0.250000 0.621491
O O6 0.431113 0.073293 0.508455
O O7 0.376588 0.981087 0.631258
O O8 0.510817 0.994064 0.614058
O O9 0.810265 0.750000 0.810471
O O10 0.838800 0.991181 0.734196
O O11 0.238117 0.250000 0.907084
O O12 0.145189 0.030732 0.907376
O O13 0.272197 0.957665 0.882776
O O14 0.926071 0.250000 0.511190
O O15 0.897354 0.014479 0.594685
O O16 0.000000 0.000000 0.500000
O O17 0.591107 0.750000 0.602776
O O18 0.864341 0.750000 0.652842
#
# Coordination Sequence:
#
# PCOD9462007 Si02
#       7
#     8   8   8   8   8   8   8
#     4   8  16  31  54  79 101 133 177 221 270 320
#     4  10  20  31  48  76 107 140 176 220 265 314
#     4  10  19  35  55  77 107 144 181 223 273 333
#     4  10  18  32  54  76 104 139 177 225 267 314
#     4  10  20  37  60  84 109 143 188 239 283 331
#     4  10  19  31  49  75 105 138 177 219 263 316
#     4  10  21  35  55  81 110 142 179 225 279 336
#
# _framework density 18.066873000000001
#
# number of rings (size 3 to 8) (size 9 to 14) (size 15 to 20)
#    0.000    2.286    1.429    3.000    0.000    2.286 
#    0.000    2.143    0.000    6.857    0.000    0.000 
#    0.000    0.000    0.000    0.000    0.000    0.000 
#
# Total GULP energy -311966.070389 kJ/mol
# GULP energy per Si atom -5570.822686 kJ/mol
# Density = 1.802575 g / cm^3
# Si number density = 18.066873 Si / 1000 Ang^3
#
#
#
# Elastic Constant Matrix: (Units=GPa)
#
#
# Indices 1 2 3 4 5 6 
#
# 1 135.9013 13.1416 44.4054 0.0000 0.0000 0.0000
# 2 13.1416 12.1882 13.7008 0.0000 0.0000 0.0000
# 3 44.4054 13.7008 70.0988 0.0000 0.0000 0.0000
# 4 0.0000 0.0000 0.0000 17.0359 0.0000 0.0000
# 5 0.0000 0.0000 0.0000 0.0000 8.3256 0.0000
# 6 0.0000 0.0000 0.0000 0.0000 0.0000 26.8827
#
#
#
# Elastic Compliance Matrix: (Units=1/GPa)
#
#
# Indices 1 2 3 4 5 6 
#
# 1 0.009463 -0.004440 -0.005127 0.000000 0.000000 0.000000
# 2 -0.004440 0.107231 -0.018146 0.000000 0.000000 0.000000
# 3 -0.005127 -0.018146 0.021060 0.000000 0.000000 0.000000
# 4 0.000000 0.000000 0.000000 0.058700 0.000000 0.000000
# 5 0.000000 0.000000 0.000000 0.000000 0.120112 0.000000
# 6 0.000000 0.000000 0.000000 0.000000 0.000000 0.037199
#
#
# Mechanical properties :
#
#
# Convention : Reuss Voigt Hill
#
# Bulk Modulus (GPa) = 12.14640 40.07600 26.11120
# Shear Modulus (GPa) = 11.45132 20.24487 15.84810
#
# Velocity S-wave (km/s) = 2.52033 3.35110 2.96495
# Velocity P-wave (km/s) = 3.89962 6.09945 5.11910
#
# Compressibility (1/GPa) = 0.08232894
#
# Stress axis : x y z
#
# Youngs Moduli (GPa) = 105.67787 9.32565 47.48428
#
# Poissons Ratio (x) = 0.04141 0.24343
# Poissons Ratio (y) = 0.46923 0.86163
# Poissons Ratio (z) = 0.54176 0.16922
#
# Static dielectric constant tensor:
#      x y z
#    x 1.611890 0.000000 0.000000 
#    y 0.000000 1.625350 0.000000 
#    z 0.000000 0.000000 1.644630 
# 
# From -- ./inp_files/27590.got.cif
#   From: 2010.05.17/outbox.cif.g08.bks.cpg/sg62_14_cif.got.tgz:27590.got - 2010.06.03 15:25:27.
