data_PCOD9462135
_publ_section_title
;
Structure prediction by ZEFSAII (Michael W. Deem and Ramdas Pophale) SiO2 
 PCOD9462135
Probable space group: P N M A
;
_chemical_formula_sum "Si O2"
_cell_formula_units_Z 64
_cell_length_a 23.515134
_cell_length_b 15.424733
_cell_length_c 9.950692
_cell_angle_alpha 90.000000
_cell_angle_beta 90.000000
_cell_angle_gamma 90.000000
_cell_volume 3609.261899
_symmetry_space_group_name_H-M "P N M A"
_symmetry_group_IT_number 62
_symmetry_cell_setting 'orthorhombic'
loop_
_space_group_symop_operation_xyz
x,y,z
1/2-x,-y,1/2+z
1/2+x,1/2-y,1/2-z
-x,1/2+y,-z
-x,-y,-z
1/2+x,y,1/2-z
1/2-x,1/2+y,1/2+z
x,1/2-y,z
loop_
_atom_site_type_symbol
_atom_site_label
_atom_site_fract_x
_atom_site_fract_y
_atom_site_fract_z
Si Si1 0.787225 0.654583 0.586769
Si Si2 0.131675 0.937546 0.225218
Si Si3 0.907275 0.478539 0.222841
Si Si4 0.154171 0.844960 0.973336
Si Si5 0.290020 0.590362 0.615343
Si Si6 0.831820 0.472577 0.486338
Si Si7 0.395234 0.650606 0.446291
Si Si8 0.973925 0.952177 0.869275
O O1 0.809507 0.750000 0.549542
O O2 0.722120 0.648218 0.537872
O O3 0.786051 0.645670 0.748359
O O4 0.820852 0.572927 0.527721
O O5 0.144605 0.925571 0.380923
O O6 0.180088 0.001428 0.164300
O O7 0.072613 0.987477 0.201694
O O8 0.134441 0.856159 0.126743
O O9 0.873880 0.421299 0.112435
O O10 0.874743 0.469994 0.362360
O O11 0.905977 0.577737 0.167815
O O12 0.971397 0.441696 0.224545
O O13 0.137512 0.750000 0.921293
O O14 0.228401 0.568795 0.556571
O O15 0.332581 0.633069 0.508011
O O16 0.400978 0.750000 0.403147
O O17 0.439523 0.628443 0.567592
O O18 0.000000 0.000000 0.000000
#
# Coordination Sequence:
#
# PCOD9462135 Si02
#       8
#     8   8   8   8   8   8   8   8
#     4  10  20  33  53  83 114 151 197 236 287 359
#     4  10  20  37  55  84 110 151 192 240 287 347
#     4  11  21  39  56  87 117 151 197 239 293 357
#     4  11  20  35  58  81 110 150 195 241 287 348
#     4  10  18  34  56  79 117 150 187 232 296 347
#     4  11  22  34  60  81 122 161 181 239 313 353
#     4  10  20  34  60  89 115 148 196 250 289 338
#     4   9  18  37  60  80 116 145 199 244 281 345
#
# _framework density 17.732157000000001
#
# number of rings (size 3 to 8) (size 9 to 14) (size 15 to 20)
#    0.000    1.750    6.250    0.375    1.750    1.500 
#    0.000    3.125    0.000    0.000    0.000    1.750 
#    0.000    0.000    0.000    0.000    0.000    0.000 
#
# Total GULP energy -356840.959220 kJ/mol
# GULP energy per Si atom -5575.639988 kJ/mol
# Density = 1.769180 g / cm^3
# Si number density = 17.732157 Si / 1000 Ang^3
#
#
#
# Elastic Constant Matrix: (Units=GPa)
#
#
# Indices 1 2 3 4 5 6 
#
# 1 72.6020 -8.2222 39.6916 0.0000 0.0000 0.0000
# 2 -8.2222 63.3179 8.2493 0.0000 0.0000 0.0000
# 3 39.6916 8.2493 88.0704 0.0000 0.0000 0.0000
# 4 0.0000 0.0000 0.0000 9.4219 0.0000 0.0000
# 5 0.0000 0.0000 0.0000 0.0000 22.1382 0.0000
# 6 0.0000 0.0000 0.0000 0.0000 0.0000 6.8996
#
#
#
# Elastic Compliance Matrix: (Units=1/GPa)
#
#
# Indices 1 2 3 4 5 6 
#
# 1 0.019071 0.003641 -0.008936 0.000000 0.000000 0.000000
# 2 0.003641 0.016683 -0.003204 0.000000 0.000000 0.000000
# 3 -0.008936 -0.003204 0.015682 0.000000 0.000000 0.000000
# 4 0.000000 0.000000 0.000000 0.106136 0.000000 0.000000
# 5 0.000000 0.000000 0.000000 0.000000 0.045171 0.000000
# 6 0.000000 0.000000 0.000000 0.000000 0.000000 0.144937
#
#
# Mechanical properties :
#
#
# Convention : Reuss Voigt Hill
#
# Bulk Modulus (GPa) = 29.03676 33.71418 31.37547
# Shear Modulus (GPa) = 13.29230 19.97671 16.63450
#
# Velocity S-wave (km/s) = 2.74088 3.36010 3.06616
# Velocity P-wave (km/s) = 5.14075 5.84020 5.50160
#
# Compressibility (1/GPa) = 0.03443910
#
# Stress axis : x y z
#
# Youngs Moduli (GPa) = 52.43439 59.93959 63.76751
#
# Poissons Ratio (x) = -0.21823 0.56984
# Poissons Ratio (y) = -0.19090 0.20428
# Poissons Ratio (z) = 0.46856 0.19202
#
# Static dielectric constant tensor:
#      x y z
#    x 1.609770 0.000000 0.000000 
#    y 0.000000 1.623290 0.000000 
#    z 0.000000 0.000000 1.608380 
# 
# From -- ./inp_files/9519.got.cif
#   From: 2010.05.17/outbox.cif.g08.bks.cpg/sg62_5_cif.got.tgz:9519.got - 2010.06.03 15:25:27.
