data_PCOD9462464
_publ_section_title
;
Structure prediction by ZEFSAII (Michael W. Deem and Ramdas Pophale) SiO2 
 PCOD9462464
Probable space group: P N M A
;
_chemical_formula_sum "Si O2"
_cell_formula_units_Z 64
_cell_length_a 17.129527
_cell_length_b 7.379389
_cell_length_c 20.891621
_cell_angle_alpha 90.000000
_cell_angle_beta 90.000000
_cell_angle_gamma 90.000000
_cell_volume 2640.814610
_symmetry_space_group_name_H-M "P N M A"
_symmetry_group_IT_number 62
_symmetry_cell_setting 'orthorhombic'
loop_
_space_group_symop_operation_xyz
x,y,z
1/2-x,-y,1/2+z
1/2+x,1/2-y,1/2-z
-x,1/2+y,-z
-x,-y,-z
1/2+x,y,1/2-z
1/2-x,1/2+y,1/2+z
x,1/2-y,z
loop_
_atom_site_type_symbol
_atom_site_label
_atom_site_fract_x
_atom_site_fract_y
_atom_site_fract_z
Si Si1 0.646285 0.470745 0.526232
Si Si2 0.470694 0.532831 0.372035
Si Si3 0.779367 0.031816 0.626125
Si Si4 0.882444 0.543599 0.792724
Si Si5 0.053538 0.038641 0.339458
Si Si6 0.611461 0.954168 0.873658
Si Si7 0.224215 0.473257 0.101684
Si Si8 0.164058 0.467273 0.767527
O O1 0.644398 0.250000 0.526549
O O2 0.567086 0.530645 0.561240
O O3 0.718978 0.525136 0.571516
O O4 0.667202 0.530079 0.455289
O O5 0.480470 0.750000 0.374824
O O6 0.550410 0.452578 0.346694
O O7 0.405493 0.494637 0.317872
O O8 0.779177 0.250000 0.626264
O O9 0.742036 0.974688 0.694440
O O10 0.868179 0.971709 0.619001
O O11 0.862537 0.750000 0.775934
O O12 0.920182 0.458365 0.729269
O O13 0.809188 0.461992 0.830179
O O14 0.034136 0.250000 0.327370
O O15 0.974545 0.960589 0.369732
O O16 0.602463 0.750000 0.899402
O O17 0.686825 0.034168 0.909089
O O18 0.641505 0.949039 0.800004
O O19 0.224837 0.250000 0.103165
O O20 0.166585 0.250000 0.759081
#
# Coordination Sequence:
#
# PCOD9462464 Si02
#       8
#     8   8   8   8   8   8   8   8
#     4   8  16  33  52  71  96 128 171 207 235 288
#     4   9  17  30  50  73  98 130 160 197 244 288
#     4   9  18  32  52  73  93 125 168 206 242 288
#     4  10  19  31  48  75 105 129 160 200 245 297
#     4  10  20  32  47  74 106 128 157 203 250 296
#     4  10  19  32  51  72  97 131 165 200 245 294
#     4   9  18  32  51  71  95 132 169 202 243 291
#     4   9  17  30  48  71  97 126 160 197 245 297
#
# _framework density 24.234946000000001
#
# number of rings (size 3 to 8) (size 9 to 14) (size 15 to 20)
#    0.000    2.750    1.250    2.250    0.000    3.000 
#    0.000    3.125    0.000    2.250    0.000    0.000 
#    0.000    0.000    0.000    0.000    0.000    0.000 
#
# Total GULP energy -357473.631546 kJ/mol
# GULP energy per Si atom -5585.525493 kJ/mol
# Density = 2.417979 g / cm^3
# Si number density = 24.234946 Si / 1000 Ang^3
#
#
#
# Elastic Constant Matrix: (Units=GPa)
#
#
# Indices 1 2 3 4 5 6 
#
# 1 96.7854 6.8931 -25.4358 0.0000 0.0000 0.0000
# 2 6.8931 84.0362 1.4540 0.0000 0.0000 0.0000
# 3 -25.4358 1.4540 37.0836 0.0000 0.0000 0.0000
# 4 0.0000 0.0000 0.0000 3.0624 0.0000 0.0000
# 5 0.0000 0.0000 0.0000 0.0000 33.1323 0.0000
# 6 0.0000 0.0000 0.0000 0.0000 0.0000 11.0085
#
#
#
# Elastic Compliance Matrix: (Units=1/GPa)
#
#
# Indices 1 2 3 4 5 6 
#
# 1 0.012723 -0.001195 0.008774 0.000000 0.000000 0.000000
# 2 -0.001195 0.012020 -0.001291 0.000000 0.000000 0.000000
# 3 0.008774 -0.001291 0.033035 0.000000 0.000000 0.000000
# 4 0.000000 0.000000 0.000000 0.326545 0.000000 0.000000
# 5 0.000000 0.000000 0.000000 0.000000 0.030182 0.000000
# 6 0.000000 0.000000 0.000000 0.000000 0.000000 0.090839
#
#
# Mechanical properties :
#
#
# Convention : Reuss Voigt Hill
#
# Bulk Modulus (GPa) = 14.21427 20.41419 17.31423
# Shear Modulus (GPa) = 9.68579 25.10689 17.39634
#
# Velocity S-wave (km/s) = 2.00132 3.22215 2.68212
# Velocity P-wave (km/s) = 3.34938 4.72068 4.09287
#
# Compressibility (1/GPa) = 0.07035183
#
# Stress axis : x y z
#
# Youngs Moduli (GPa) = 78.59745 83.19453 30.27124
#
# Poissons Ratio (x) = 0.09945 -0.26559
# Poissons Ratio (y) = 0.09396 0.03909
# Poissons Ratio (z) = -0.68959 0.10742
#
# Static dielectric constant tensor:
#      x y z
#    x 1.956840 0.000000 0.000000 
#    y 0.000000 1.915550 0.000000 
#    z 0.000000 0.000000 1.913750 
# 
# From -- ./inp_files/27671.got.cif
#   From: 2010.05.17/outbox.cif.g08.bks.cpg/sg62_14_cif.got.tgz:27671.got - 2010.06.03 15:25:27.
