data_PCOD9462855
_publ_section_title
;
Structure prediction by ZEFSAII (Michael W. Deem and Ramdas Pophale) SiO2 
 PCOD9462855
Probable space group: P N M A
;
_chemical_formula_sum "Si O2"
_cell_formula_units_Z 64
_cell_length_a 19.253181
_cell_length_b 7.546834
_cell_length_c 20.350713
_cell_angle_alpha 90.000000
_cell_angle_beta 90.000000
_cell_angle_gamma 90.000000
_cell_volume 2956.970015
_symmetry_space_group_name_H-M "P N M A"
_symmetry_group_IT_number 62
_symmetry_cell_setting 'orthorhombic'
loop_
_space_group_symop_operation_xyz
x,y,z
1/2-x,-y,1/2+z
1/2+x,1/2-y,1/2-z
-x,1/2+y,-z
-x,-y,-z
1/2+x,y,1/2-z
1/2-x,1/2+y,1/2+z
x,1/2-y,z
loop_
_atom_site_type_symbol
_atom_site_label
_atom_site_fract_x
_atom_site_fract_y
_atom_site_fract_z
Si Si1 0.011235 0.541414 0.297619
Si Si2 0.406231 0.466892 0.674781
Si Si3 0.443530 0.960553 0.944306
Si Si4 0.257229 0.033037 0.621587
Si Si5 0.355411 0.966876 0.228869
Si Si6 0.291309 0.959997 0.979612
Si Si7 0.672957 0.463938 0.623600
Si Si8 0.524428 0.461863 0.573370
O O1 0.005920 0.750000 0.283164
O O2 0.069581 0.473923 0.247114
O O3 0.031683 0.523055 0.373103
O O4 0.934193 0.469973 0.282814
O O5 0.403425 0.250000 0.673860
O O6 0.331319 0.526853 0.649697
O O7 0.466790 0.524819 0.624936
O O8 0.437482 0.750000 0.939115
O O9 0.367749 0.033222 0.963976
O O10 0.500000 0.000000 0.000000
O O11 0.258706 0.250000 0.621111
O O12 0.195695 0.978593 0.670562
O O13 0.241758 0.971383 0.547519
O O14 0.356176 0.750000 0.228386
O O15 0.328176 0.021837 0.300543
O O16 0.300020 0.750000 0.990086
O O17 0.239066 0.983961 0.919187
O O18 0.671681 0.250000 0.624069
O O19 0.601522 0.528611 0.589761
O O20 0.500000 0.500000 0.500000
O O21 0.527279 0.250000 0.581272
#
# Coordination Sequence:
#
# PCOD9462855 Si02
#       8
#     8   8   8   8   8   8   8   8
#     4  10  19  35  59  85 113 147 187 240 292 336
#     4   9  17  30  51  81 109 141 190 235 275 329
#     4  11  24  41  61  86 116 153 194 239 291 348
#     4   9  17  30  52  78 104 141 189 230 273 335
#     4   9  17  32  54  81 112 144 184 234 284 333
#     4  10  22  39  57  82 116 150 186 235 291 346
#     4  10  20  34  55  84 113 145 190 238 280 333
#     4  10  19  33  52  79 113 147 186 234 279 331
#
# _framework density 21.643775999999999
#
# number of rings (size 3 to 8) (size 9 to 14) (size 15 to 20)
#    0.000    2.250    1.250    1.875    1.750    4.500 
#    0.000    1.250    0.000    1.500    0.000    0.000 
#    0.000    0.000    0.000    0.000    0.000    0.000 
#
# Total GULP energy -357600.652988 kJ/mol
# GULP energy per Si atom -5587.510203 kJ/mol
# Density = 2.159451 g / cm^3
# Si number density = 21.643776 Si / 1000 Ang^3
#
#
#
# Elastic Constant Matrix: (Units=GPa)
#
#
# Indices 1 2 3 4 5 6 
#
# 1 193.9817 -0.0796 103.8526 0.0000 0.0000 0.0000
# 2 -0.0796 44.3310 -13.1345 0.0000 0.0000 0.0000
# 3 103.8526 -13.1345 185.8957 0.0000 0.0000 0.0000
# 4 0.0000 0.0000 0.0000 20.4257 0.0000 0.0000
# 5 0.0000 0.0000 0.0000 0.0000 42.0511 0.0000
# 6 0.0000 0.0000 0.0000 0.0000 0.0000 3.0490
#
#
#
# Elastic Compliance Matrix: (Units=1/GPa)
#
#
# Indices 1 2 3 4 5 6 
#
# 1 0.007421 -0.001241 -0.004234 0.000000 0.000000 0.000000
# 2 -0.001241 0.023247 0.002336 0.000000 0.000000 0.000000
# 3 -0.004234 0.002336 0.007910 0.000000 0.000000 0.000000
# 4 0.000000 0.000000 0.000000 0.048958 0.000000 0.000000
# 5 0.000000 0.000000 0.000000 0.000000 0.023781 0.000000
# 6 0.000000 0.000000 0.000000 0.000000 0.000000 0.327975
#
#
# Mechanical properties :
#
#
# Convention : Reuss Voigt Hill
#
# Bulk Modulus (GPa) = 30.95915 67.27615 49.11765
# Shear Modulus (GPa) = 10.95683 35.34315 23.14999
#
# Velocity S-wave (km/s) = 2.25241 4.04536 3.27401
# Velocity P-wave (km/s) = 4.59341 7.27810 6.08565
#
# Compressibility (1/GPa) = 0.03230063
#
# Stress axis : x y z
#
# Youngs Moduli (GPa) = 134.74964 43.01552 126.42955
#
# Poissons Ratio (x) = 0.05338 0.53525
# Poissons Ratio (y) = 0.16723 -0.29532
# Poissons Ratio (z) = 0.57048 -0.10048
#
# Static dielectric constant tensor:
#      x y z
#    x 1.761460 0.000000 0.000000 
#    y 0.000000 1.830520 0.000000 
#    z 0.000000 0.000000 1.737640 
# 
# From -- ./inp_files/27772.got.cif
#   From: 2010.05.17/outbox.cif.g08.bks.cpg/sg62_14_cif.got.tgz:27772.got - 2010.06.03 15:25:27.
