data_PCOD9462736
_publ_section_title
;
Structure prediction by ZEFSAII (Michael W. Deem and Ramdas Pophale) SiO2 
 PCOD9462736
Probable space group: P N M A
;
_chemical_formula_sum "Si O2"
_cell_formula_units_Z 40
_cell_length_a 21.007946
_cell_length_b 8.805020
_cell_length_c 12.830755
_cell_angle_alpha 90.000000
_cell_angle_beta 90.000000
_cell_angle_gamma 90.000000
_cell_volume 2373.373842
_symmetry_space_group_name_H-M "P N M A"
_symmetry_group_IT_number 62
_symmetry_cell_setting 'orthorhombic'
loop_
_space_group_symop_operation_xyz
x,y,z
1/2-x,-y,1/2+z
1/2+x,1/2-y,1/2-z
-x,1/2+y,-z
-x,-y,-z
1/2+x,y,1/2-z
1/2-x,1/2+y,1/2+z
x,1/2-y,z
loop_
_atom_site_type_symbol
_atom_site_label
_atom_site_fract_x
_atom_site_fract_y
_atom_site_fract_z
Si Si1 0.808829 0.069854 0.400633
Si Si2 0.338793 0.931498 0.315803
Si Si3 0.297322 0.931783 0.881472
Si Si4 0.660030 0.070964 0.345146
Si Si5 0.430394 0.430211 0.486334
O O1 0.820525 0.250000 0.398582
O O2 0.732742 0.047238 0.383240
O O3 0.842291 0.990314 0.302763
O O4 0.824799 0.998629 0.512113
O O5 0.337990 0.750000 0.319750
O O6 0.271903 0.994817 0.360918
O O7 0.394545 0.996662 0.387560
O O8 0.289386 0.750000 0.888957
O O9 0.338696 0.963218 0.778045
O O10 0.645529 0.250000 0.359971
O O11 0.612396 0.973233 0.413485
O O12 0.500000 0.500000 0.500000
O O13 0.433766 0.250000 0.473972
#
# Coordination Sequence:
#
# PCOD9462736 Si02
#       5
#     8   8   8   8   8
#     4  10  19  32  53  80 112 143 176 221 272 323
#     4  11  21  34  52  77 110 143 182 223 269 322
#     4  10  19  32  53  80 111 143 176 220 273 323
#     4   9  19  34  51  77 110 141 179 221 267 319
#     4  12  24  38  57  78 107 144 186 226 271 322
#
# _framework density 16.853645
#
# number of rings (size 3 to 8) (size 9 to 14) (size 15 to 20)
#    0.000    1.600    2.000    6.000    0.000    4.000 
#    0.000    0.000    0.000    1.200    0.000    0.000 
#    0.000    0.000    0.000    0.000    0.000    0.000 
#
# Total GULP energy -223406.825772 kJ/mol
# GULP energy per Si atom -5585.170644 kJ/mol
# Density = 1.681529 g / cm^3
# Si number density = 16.853645 Si / 1000 Ang^3
#
#
#
# Elastic Constant Matrix: (Units=GPa)
#
#
# Indices 1 2 3 4 5 6 
#
# 1 50.4285 51.1751 30.2312 0.0000 0.0000 0.0000
# 2 51.1751 138.4502 74.1223 0.0000 0.0000 0.0000
# 3 30.2312 74.1223 145.3390 0.0000 0.0000 0.0000
# 4 0.0000 0.0000 0.0000 34.7857 0.0000 0.0000
# 5 0.0000 0.0000 0.0000 0.0000 12.4475 0.0000
# 6 0.0000 0.0000 0.0000 0.0000 0.0000 24.1951
#
#
#
# Elastic Compliance Matrix: (Units=1/GPa)
#
#
# Indices 1 2 3 4 5 6 
#
# 1 0.031810 -0.011301 -0.000853 0.000000 0.000000 0.000000
# 2 -0.011301 0.013951 -0.004764 0.000000 0.000000 0.000000
# 3 -0.000853 -0.004764 0.009488 0.000000 0.000000 0.000000
# 4 0.000000 0.000000 0.000000 0.028747 0.000000 0.000000
# 5 0.000000 0.000000 0.000000 0.000000 0.080338 0.000000
# 6 0.000000 0.000000 0.000000 0.000000 0.000000 0.041331
#
#
# Mechanical properties :
#
#
# Convention : Reuss Voigt Hill
#
# Bulk Modulus (GPa) = 46.70381 71.69721 59.20051
# Shear Modulus (GPa) = 20.27266 26.19825 23.23546
#
# Velocity S-wave (km/s) = 3.47200 3.94694 3.71706
# Velocity P-wave (km/s) = 6.62152 7.96269 7.32288
#
# Compressibility (1/GPa) = 0.02141153
#
# Stress axis : x y z
#
# Youngs Moduli (GPa) = 31.43673 71.68166 105.40117
#
# Poissons Ratio (x) = 0.81008 0.08992
# Poissons Ratio (y) = 0.35527 0.50214
# Poissons Ratio (z) = 0.02682 0.34150
#
# Static dielectric constant tensor:
#      x y z
#    x 1.533460 0.000000 0.000000 
#    y 0.000000 1.544460 0.000000 
#    z 0.000000 0.000000 1.588960 
# 
# From -- ./inp_files/13835.got.cif
#   From: 2010.05.17/outbox.cif.g08.bks.cpg/sg62_7_cif.got.tgz:13835.got - 2010.06.03 15:25:27.
