data_PCOD9462568
_publ_section_title
;
Structure prediction by ZEFSAII (Michael W. Deem and Ramdas Pophale) SiO2 
 PCOD9462568
Probable space group: P N M A
;
_chemical_formula_sum "Si O2"
_cell_formula_units_Z 40
_cell_length_a 11.227236
_cell_length_b 9.418840
_cell_length_c 17.877398
_cell_angle_alpha 90.000000
_cell_angle_beta 90.000000
_cell_angle_gamma 90.000000
_cell_volume 1890.490852
_symmetry_space_group_name_H-M "P N M A"
_symmetry_group_IT_number 62
_symmetry_cell_setting 'orthorhombic'
loop_
_space_group_symop_operation_xyz
x,y,z
1/2-x,-y,1/2+z
1/2+x,1/2-y,1/2-z
-x,1/2+y,-z
-x,-y,-z
1/2+x,y,1/2-z
1/2-x,1/2+y,1/2+z
x,1/2-y,z
loop_
_atom_site_type_symbol
_atom_site_label
_atom_site_fract_x
_atom_site_fract_y
_atom_site_fract_z
Si Si1 0.678617 0.089950 0.471221
Si Si2 0.382847 0.583487 0.980778
Si Si3 0.102801 0.078069 0.307182
Si Si4 0.063190 0.906168 0.905270
Si Si5 0.157144 0.912334 0.737146
O O1 0.723415 0.250000 0.480011
O O2 0.579410 0.087034 0.407532
O O3 0.783377 0.979075 0.464445
O O4 0.610287 0.035360 0.545389
O O5 0.397180 0.750000 0.989216
O O6 0.355417 0.554388 0.892931
O O7 0.500000 0.500000 0.000000
O O8 0.097368 0.250000 0.296659
O O9 0.208110 0.027041 0.250254
O O10 0.964469 0.026219 0.300710
O O11 0.095353 0.750000 0.939487
O O12 0.111770 0.905293 0.822641
O O13 0.171520 0.750000 0.707292
#
# Coordination Sequence:
#
# PCOD9462568 Si02
#       5
#     8   8   8   8   8
#     4  10  19  31  52  81 109 142 180 220 269 329
#     4  11  22  37  55  79 110 145 182 228 279 333
#     4   9  18  31  52  79 108 137 177 226 279 324
#     4   9  17  31  53  80 108 138 179 226 271 318
#     4   9  16  30  52  80 108 139 177 232 279 319
#
# _framework density 21.158526999999999
#
# number of rings (size 3 to 8) (size 9 to 14) (size 15 to 20)
#    0.000    2.400    2.000    1.200    0.000    2.400 
#    0.000    6.000    0.000    2.400    0.000    0.000 
#    0.000    0.000    0.000    0.000    0.000    0.000 
#
# Total GULP energy -222731.175078 kJ/mol
# GULP energy per Si atom -5568.279377 kJ/mol
# Density = 2.111037 g / cm^3
# Si number density = 21.158527 Si / 1000 Ang^3
#
#
#
# Elastic Constant Matrix: (Units=GPa)
#
#
# Indices 1 2 3 4 5 6 
#
# 1 109.4807 35.1580 11.6834 0.0000 0.0000 0.0000
# 2 35.1580 60.7393 17.7145 0.0000 0.0000 0.0000
# 3 11.6834 17.7145 27.9788 0.0000 0.0000 0.0000
# 4 0.0000 0.0000 0.0000 7.1092 0.0000 0.0000
# 5 0.0000 0.0000 0.0000 0.0000 43.1755 0.0000
# 6 0.0000 0.0000 0.0000 0.0000 0.0000 27.5924
#
#
#
# Elastic Compliance Matrix: (Units=1/GPa)
#
#
# Indices 1 2 3 4 5 6 
#
# 1 0.011231 -0.006296 -0.000704 0.000000 0.000000 0.000000
# 2 -0.006296 0.023721 -0.012390 0.000000 0.000000 0.000000
# 3 -0.000704 -0.012390 0.043880 0.000000 0.000000 0.000000
# 4 0.000000 0.000000 0.000000 0.140662 0.000000 0.000000
# 5 0.000000 0.000000 0.000000 0.000000 0.023161 0.000000
# 6 0.000000 0.000000 0.000000 0.000000 0.000000 0.036242
#
#
# Mechanical properties :
#
#
# Convention : Reuss Voigt Hill
#
# Bulk Modulus (GPa) = 24.96671 36.36783 30.66727
# Shear Modulus (GPa) = 15.10448 24.48494 19.79471
#
# Velocity S-wave (km/s) = 2.67474 3.40548 3.06198
# Velocity P-wave (km/s) = 4.62217 5.71739 5.19870
#
# Compressibility (1/GPa) = 0.04005333
#
# Stress axis : x y z
#
# Youngs Moduli (GPa) = 89.04052 42.15602 22.78945
#
# Poissons Ratio (x) = 0.26539 0.01604
# Poissons Ratio (y) = 0.56056 0.28236
# Poissons Ratio (z) = 0.06267 0.52232
#
# Static dielectric constant tensor:
#      x y z
#    x 1.947860 0.000000 0.000000 
#    y 0.000000 1.703350 0.000000 
#    z 0.000000 0.000000 1.794210 
# 
# From -- ./inp_files/26451.got.cif
#   From: 2010.05.17/outbox.cif.g08.bks.cpg/sg62_14_cif.got.tgz:26451.got - 2010.06.03 15:25:27.
