data_PCOD9462482
_publ_section_title
;
Structure prediction by ZEFSAII (Michael W. Deem and Ramdas Pophale) SiO2 
 PCOD9462482
Probable space group: P N M A
;
_chemical_formula_sum "Si O2"
_cell_formula_units_Z 64
_cell_length_a 18.667971
_cell_length_b 7.581808
_cell_length_c 20.290642
_cell_angle_alpha 90.000000
_cell_angle_beta 90.000000
_cell_angle_gamma 90.000000
_cell_volume 2871.876026
_symmetry_space_group_name_H-M "P N M A"
_symmetry_group_IT_number 62
_symmetry_cell_setting 'orthorhombic'
loop_
_space_group_symop_operation_xyz
x,y,z
1/2-x,-y,1/2+z
1/2+x,1/2-y,1/2-z
-x,1/2+y,-z
-x,-y,-z
1/2+x,y,1/2-z
1/2-x,1/2+y,1/2+z
x,1/2-y,z
loop_
_atom_site_type_symbol
_atom_site_label
_atom_site_fract_x
_atom_site_fract_y
_atom_site_fract_z
Si Si1 0.360929 0.046091 0.532153
Si Si2 0.984892 0.457692 0.739034
Si Si3 0.010542 0.533563 0.115338
Si Si4 0.761422 0.450668 0.374976
Si Si5 0.346927 0.465090 0.249883
Si Si6 0.956270 0.036613 0.596687
Si Si7 0.608553 0.042691 0.963829
Si Si8 0.344172 0.452218 0.394035
O O1 0.375564 0.250000 0.515730
O O2 0.434984 0.970367 0.559453
O O3 0.327175 0.966843 0.465443
O O4 0.305265 0.043149 0.591615
O O5 0.957146 0.250000 0.597435
O O6 0.071319 0.479180 0.734997
O O7 0.964117 0.524223 0.811499
O O8 0.950664 0.529323 0.671687
O O9 0.007224 0.750000 0.114570
O O10 0.930909 0.461629 0.106405
O O11 0.739608 0.250000 0.362031
O O12 0.794618 0.525656 0.307901
O O13 0.825404 0.453245 0.428223
O O14 0.347822 0.250000 0.250202
O O15 0.324660 0.529351 0.322721
O O16 0.469161 0.250000 0.760394
O O17 0.033721 0.977986 0.568049
O O18 0.898513 0.981536 0.542279
O O19 0.614958 0.250000 0.949739
O O20 0.317905 0.250000 0.392658
#
# Coordination Sequence:
#
# PCOD9462482 Si02
#       8
#     8   8   8   8   8   8   8   8
#     4  10  21  36  53  75 105 139 170 206 256 311
#     4   9  16  29  50  76 105 133 165 207 252 300
#     4   9  18  32  53  80 106 133 168 213 261 305
#     4  11  22  35  52  73 101 136 175 215 253 303
#     4   9  18  32  51  75 100 129 165 208 252 296
#     4   9  17  29  47  73 104 135 168 210 253 296
#     4  10  19  31  49  72  99 134 172 211 255 302
#     4   9  18  34  56  79 103 131 167 212 258 304
#
# _framework density 22.285084999999999
#
# number of rings (size 3 to 8) (size 9 to 14) (size 15 to 20)
#    0.000    2.500    1.250    1.125    0.000    2.500 
#    0.000    1.250    0.000    3.000    0.000    0.000 
#    0.000    0.000    0.000    0.000    0.000    0.000 
#
# Total GULP energy -357066.182032 kJ/mol
# GULP energy per Si atom -5579.159094 kJ/mol
# Density = 2.223436 g / cm^3
# Si number density = 22.285085 Si / 1000 Ang^3
#
#
#
# Elastic Constant Matrix: (Units=GPa)
#
#
# Indices 1 2 3 4 5 6 
#
# 1 22.0236 -8.0472 17.1034 0.0000 0.0000 0.0000
# 2 -8.0472 54.4854 0.5343 0.0000 0.0000 0.0000
# 3 17.1034 0.5343 158.9194 0.0000 0.0000 0.0000
# 4 0.0000 0.0000 0.0000 5.4407 0.0000 0.0000
# 5 0.0000 0.0000 0.0000 0.0000 22.2346 0.0000
# 6 0.0000 0.0000 0.0000 0.0000 0.0000 15.1806
#
#
#
# Elastic Compliance Matrix: (Units=1/GPa)
#
#
# Indices 1 2 3 4 5 6 
#
# 1 0.052694 0.007839 -0.005698 0.000000 0.000000 0.000000
# 2 0.007839 0.019520 -0.000909 0.000000 0.000000 0.000000
# 3 -0.005698 -0.000909 0.006909 0.000000 0.000000 0.000000
# 4 0.000000 0.000000 0.000000 0.183801 0.000000 0.000000
# 5 0.000000 0.000000 0.000000 0.000000 0.044975 0.000000
# 6 0.000000 0.000000 0.000000 0.000000 0.000000 0.065874
#
#
# Mechanical properties :
#
#
# Convention : Reuss Voigt Hill
#
# Bulk Modulus (GPa) = 12.25686 28.28994 20.27340
# Shear Modulus (GPa) = 12.54690 23.62702 18.08696
#
# Velocity S-wave (km/s) = 2.37537 3.25963 2.85198
# Velocity P-wave (km/s) = 3.61043 5.18546 4.46790
#
# Compressibility (1/GPa) = 0.08158696
#
# Stress axis : x y z
#
# Youngs Moduli (GPa) = 18.97732 51.22905 144.74416
#
# Poissons Ratio (x) = -0.40156 0.82468
# Poissons Ratio (y) = -0.14875 0.13161
# Poissons Ratio (z) = 0.10812 0.04658
#
# Static dielectric constant tensor:
#      x y z
#    x 1.769790 0.000000 0.000000 
#    y 0.000000 1.806660 0.000000 
#    z 0.000000 0.000000 1.900450 
# 
# From -- ./inp_files/27722.got.cif
#   From: 2010.05.17/outbox.cif.g08.bks.cpg/sg62_14_cif.got.tgz:27722.got - 2010.06.03 15:25:27.
