data_PCOD9462970
_publ_section_title
;
Structure prediction by ZEFSAII (Michael W. Deem and Ramdas Pophale) SiO2 
 PCOD9462970
Probable space group: P N M A
;
_chemical_formula_sum "Si O2"
_cell_formula_units_Z 64
_cell_length_a 19.619576
_cell_length_b 11.188277
_cell_length_c 15.746460
_cell_angle_alpha 90.000000
_cell_angle_beta 90.000000
_cell_angle_gamma 90.000000
_cell_volume 3456.493639
_symmetry_space_group_name_H-M "P N M A"
_symmetry_group_IT_number 62
_symmetry_cell_setting 'orthorhombic'
loop_
_space_group_symop_operation_xyz
x,y,z
1/2-x,-y,1/2+z
1/2+x,1/2-y,1/2-z
-x,1/2+y,-z
-x,-y,-z
1/2+x,y,1/2-z
1/2-x,1/2+y,1/2+z
x,1/2-y,z
loop_
_atom_site_type_symbol
_atom_site_label
_atom_site_fract_x
_atom_site_fract_y
_atom_site_fract_z
Si Si1 0.826282 0.537223 0.567451
Si Si2 0.884005 0.111657 0.412236
Si Si3 0.642484 0.472126 0.739591
Si Si4 0.118676 0.607498 0.109325
Si Si5 0.465697 0.884564 0.860580
Si Si6 0.007598 0.886810 0.240524
Si Si7 0.327217 0.111791 0.432890
Si Si8 0.791589 0.387620 0.735377
O O1 0.846358 0.461183 0.485207
O O2 0.894062 0.611231 0.590553
O O3 0.754527 0.603544 0.553128
O O4 0.811683 0.455921 0.650093
O O5 0.865329 0.250000 0.418033
O O6 0.865398 0.060149 0.319809
O O7 0.966573 0.102749 0.418488
O O8 0.573487 0.396737 0.735719
O O9 0.652076 0.543023 0.651913
O O10 0.711286 0.397775 0.750755
O O11 0.131989 0.750000 0.102661
O O12 0.169242 0.561071 0.182678
O O13 0.044031 0.593951 0.149631
O O14 0.135446 0.559731 0.016369
O O15 0.471907 0.750000 0.820571
O O16 0.468696 0.001509 0.799411
O O17 0.025780 0.750000 0.268721
O O18 0.346093 0.250000 0.421645
O O19 0.811320 0.250000 0.725571
#
# Coordination Sequence:
#
# PCOD9462970 Si02
#       8
#     8   8   8   8   8   8   8   8
#     4  11  20  34  56  81 113 149 193 236 286 347
#     4  10  21  36  54  80 116 153 192 236 290 352
#     4  10  21  35  55  82 113 150 191 240 292 344
#     4   9  18  34  56  80 107 145 192 238 284 342
#     4  10  21  37  57  86 121 153 190 237 292 353
#     4  10  20  37  61  87 115 151 197 242 288 346
#     4  10  21  36  56  80 112 152 194 241 294 344
#     4  10  19  33  55  81 110 145 188 240 293 343
#
# _framework density 18.515874
#
# number of rings (size 3 to 8) (size 9 to 14) (size 15 to 20)
#    0.000    2.000    1.250    2.625    0.000    1.500 
#    0.000    6.875    0.000    3.750    0.000    0.000 
#    0.000    0.000    0.000    0.000    0.000    0.000 
#
# Total GULP energy -356684.239411 kJ/mol
# GULP energy per Si atom -5573.191241 kJ/mol
# Density = 1.847373 g / cm^3
# Si number density = 18.515874 Si / 1000 Ang^3
#
#
#
# Elastic Constant Matrix: (Units=GPa)
#
#
# Indices 1 2 3 4 5 6 
#
# 1 92.6971 15.2569 22.9956 0.0000 0.0000 0.0000
# 2 15.2569 87.5973 32.9376 0.0000 0.0000 0.0000
# 3 22.9956 32.9376 89.3201 0.0000 0.0000 0.0000
# 4 0.0000 0.0000 0.0000 16.0917 0.0000 0.0000
# 5 0.0000 0.0000 0.0000 0.0000 26.5234 0.0000
# 6 0.0000 0.0000 0.0000 0.0000 0.0000 -4.8766
#
#
#
# Elastic Compliance Matrix: (Units=1/GPa)
#
#
# Indices 1 2 3 4 5 6 
#
# 1 0.011605 -0.001042 -0.002603 0.000000 0.000000 0.000000
# 2 -0.001042 0.013347 -0.004654 0.000000 0.000000 0.000000
# 3 -0.002603 -0.004654 0.013582 0.000000 0.000000 0.000000
# 4 0.000000 0.000000 0.000000 0.062144 0.000000 0.000000
# 5 0.000000 0.000000 0.000000 0.000000 0.037703 0.000000
# 6 0.000000 0.000000 0.000000 0.000000 0.000000 -0.205059
#
#
# Mechanical properties :
#
#
# Convention : Reuss Voigt Hill
#
# Bulk Modulus (GPa) = 45.58763 45.77717 45.68240
# Shear Modulus (GPa) = -116.90963 20.77599 -48.06682
#
# Velocity S-wave (km/s) = -7.95470 3.35336 -5.10060
# Velocity P-wave (km/s) = 7.72628 6.30636 3.15636
#
# Compressibility (1/GPa) = 0.02193577
#
# Stress axis : x y z
#
# Youngs Moduli (GPa) = 86.16809 74.92200 73.62701
#
# Poissons Ratio (x) = 0.07810 0.19168
# Poissons Ratio (y) = 0.08982 0.34263
# Poissons Ratio (z) = 0.22433 0.34865
#
# Static dielectric constant tensor:
#      x y z
#    x 1.656280 0.000000 0.000000 
#    y 0.000000 1.636270 0.000000 
#    z 0.000000 0.000000 1.627050 
# 
# From -- ./inp_files/19905.got.cif
#   From: 2010.05.17/outbox.cif.g08.bks.cpg/sg62_10_cif.got.tgz:19905.got - 2010.06.03 15:25:27.
