data_PCOD9462939
_publ_section_title
;
Structure prediction by ZEFSAII (Michael W. Deem and Ramdas Pophale) SiO2 
 PCOD9462939
Probable space group: P N M A
;
_chemical_formula_sum "Si O2"
_cell_formula_units_Z 48
_cell_length_a 12.564459
_cell_length_b 7.681823
_cell_length_c 22.711495
_cell_angle_alpha 90.000000
_cell_angle_beta 90.000000
_cell_angle_gamma 90.000000
_cell_volume 2192.066942
_symmetry_space_group_name_H-M "P N M A"
_symmetry_group_IT_number 62
_symmetry_cell_setting 'orthorhombic'
loop_
_space_group_symop_operation_xyz
x,y,z
1/2-x,-y,1/2+z
1/2+x,1/2-y,1/2-z
-x,1/2+y,-z
-x,-y,-z
1/2+x,y,1/2-z
1/2-x,1/2+y,1/2+z
x,1/2-y,z
loop_
_atom_site_type_symbol
_atom_site_label
_atom_site_fract_x
_atom_site_fract_y
_atom_site_fract_z
Si Si1 0.086300 0.041145 0.198150
Si Si2 0.367803 0.955155 0.825539
Si Si3 0.123067 0.041249 0.989801
Si Si4 0.509822 0.540841 0.930732
Si Si5 0.255130 0.036683 0.102649
Si Si6 0.640090 0.458100 0.641102
O O1 0.098395 0.250000 0.201536
O O2 0.086079 0.970952 0.264667
O O3 0.185262 0.977560 0.158400
O O4 0.974746 0.006783 0.166181
O O5 0.392562 0.750000 0.825824
O O6 0.417461 0.025617 0.886594
O O7 0.241101 0.975823 0.823226
O O8 0.134863 0.250000 0.988870
O O9 0.152719 0.973188 0.925530
O O10 0.193751 0.977448 0.043764
O O11 0.000000 0.000000 0.000000
O O12 0.509522 0.750000 0.928978
O O13 0.622837 0.481347 0.903683
O O14 0.500000 0.500000 0.000000
O O15 0.254539 0.250000 0.103558
O O16 0.645528 0.250000 0.639814
#
# Coordination Sequence:
#
# PCOD9462939 Si02
#       6
#     8   8   8   8   8   8
#     4  10  21  38  62  88 115 154 201 246 289 343
#     4  10  23  39  62  89 115 154 204 248 285 347
#     4  10  19  33  54  83 115 151 189 232 285 341
#     4  10  21  39  61  88 118 152 197 245 298 353
#     4   9  18  34  58  84 115 151 189 238 291 341
#     4  11  23  38  59  87 123 156 188 239 299 355
#
# _framework density 21.897144000000001
#
# number of rings (size 3 to 8) (size 9 to 14) (size 15 to 20)
#    0.000    2.000    1.667    1.500    2.333    3.333 
#    0.000    1.667    0.000    0.000    0.000    0.000 
#    0.000    0.000    0.000    0.000    0.000    0.000 
#
# Total GULP energy -268085.053550 kJ/mol
# GULP energy per Si atom -5585.105282 kJ/mol
# Density = 2.184730 g / cm^3
# Si number density = 21.897144 Si / 1000 Ang^3
#
#
#
# Elastic Constant Matrix: (Units=GPa)
#
#
# Indices 1 2 3 4 5 6 
#
# 1 114.9380 -2.7165 50.8950 0.0000 0.0000 0.0000
# 2 -2.7165 37.6432 17.0489 0.0000 0.0000 0.0000
# 3 50.8950 17.0489 152.2879 0.0000 0.0000 0.0000
# 4 0.0000 0.0000 0.0000 13.0126 0.0000 0.0000
# 5 0.0000 0.0000 0.0000 0.0000 10.8116 0.0000
# 6 0.0000 0.0000 0.0000 0.0000 0.0000 13.6575
#
#
#
# Elastic Compliance Matrix: (Units=1/GPa)
#
#
# Indices 1 2 3 4 5 6 
#
# 1 0.010422 0.002454 -0.003758 0.000000 0.000000 0.000000
# 2 0.002454 0.028562 -0.004018 0.000000 0.000000 0.000000
# 3 -0.003758 -0.004018 0.008272 0.000000 0.000000 0.000000
# 4 0.000000 0.000000 0.000000 0.076849 0.000000 0.000000
# 5 0.000000 0.000000 0.000000 0.000000 0.092494 0.000000
# 6 0.000000 0.000000 0.000000 0.000000 0.000000 0.073220
#
#
# Mechanical properties :
#
#
# Convention : Reuss Voigt Hill
#
# Bulk Modulus (GPa) = 27.31235 48.36932 37.84084
# Shear Modulus (GPa) = 15.99148 23.47244 19.73196
#
# Velocity S-wave (km/s) = 2.70534 3.27760 3.00512
# Velocity P-wave (km/s) = 4.71790 6.03828 5.41846
#
# Compressibility (1/GPa) = 0.03661347
#
# Stress axis : x y z
#
# Youngs Moduli (GPa) = 95.94751 35.01159 120.88676
#
# Poissons Ratio (x) = -0.08592 0.45428
# Poissons Ratio (y) = -0.23547 0.48569
# Poissons Ratio (z) = 0.36056 0.14067
#
# Static dielectric constant tensor:
#      x y z
#    x 1.771050 0.000000 0.000000 
#    y 0.000000 1.817150 0.000000 
#    z 0.000000 0.000000 1.826710 
# 
# From -- ./inp_files/29240.got.cif
#   From: 2010.05.17/outbox.cif.g08.bks.cpg/sg62_15_cif.got.tgz:29240.got - 2010.06.03 15:25:27.
