data_PCOD9462159
_publ_section_title
;
Structure prediction by ZEFSAII (Michael W. Deem and Ramdas Pophale) SiO2 
 PCOD9462159
Probable space group: P N M A
;
_chemical_formula_sum "Si O2"
_cell_formula_units_Z 56
_cell_length_a 18.754746
_cell_length_b 26.606745
_cell_length_c 5.180943
_cell_angle_alpha 90.000000
_cell_angle_beta 90.000000
_cell_angle_gamma 90.000000
_cell_volume 2585.304775
_symmetry_space_group_name_H-M "P N M A"
_symmetry_group_IT_number 62
_symmetry_cell_setting 'orthorhombic'
loop_
_space_group_symop_operation_xyz
x,y,z
1/2-x,-y,1/2+z
1/2+x,1/2-y,1/2-z
-x,1/2+y,-z
-x,-y,-z
1/2+x,y,1/2-z
1/2-x,1/2+y,1/2+z
x,1/2-y,z
loop_
_atom_site_type_symbol
_atom_site_label
_atom_site_fract_x
_atom_site_fract_y
_atom_site_fract_z
Si Si1 0.118287 0.146142 0.979036
Si Si2 0.959263 0.356275 0.153432
Si Si3 0.911286 0.953947 0.352948
Si Si4 0.794061 0.573392 0.757019
Si Si5 0.579785 0.250000 0.752943
Si Si6 0.932092 0.081309 0.644483
Si Si7 0.019533 0.750000 0.758009
Si Si8 0.671604 0.524780 0.493585
O O1 0.187852 0.128486 0.137096
O O2 0.120640 0.197810 0.815889
O O3 0.046540 0.147058 0.155918
O O4 0.107576 0.097070 0.803197
O O5 0.928427 0.393349 0.366740
O O6 0.936065 0.300981 0.239828
O O7 0.941651 0.375904 0.867401
O O8 0.866018 0.944822 0.610849
O O9 0.995952 0.951440 0.365442
O O10 0.885573 0.003021 0.198251
O O11 0.725105 0.568282 0.581971
O O12 0.782931 0.526501 0.952049
O O13 0.540485 0.250000 0.030405
O O14 0.518024 0.250000 0.537631
O O15 0.868905 0.047155 0.748372
#
# Coordination Sequence:
#
# PCOD9462159 Si02
#       8
#     8   8   8   8   4   8   4   8
#     4   9  20  35  57  88 117 151 190 248 301 358
#     4  10  20  36  58  88 119 151 191 245 305 359
#     4  10  20  38  56  82 118 154 195 250 297 356
#     4  11  21  38  58  81 119 158 208 247 304 361
#     4  10  20  32  62  92 119 149 190 242 305 352
#     4  11  23  37  58  88 120 152 199 253 305 354
#     4  10  18  34  60  90 121 151 192 242 301 364
#     4  11  24  36  57  83 113 165 205 245 299 369
#
# _framework density 21.660890999999999
#
# number of rings (size 3 to 8) (size 9 to 14) (size 15 to 20)
#    0.000    1.714    2.857    3.000    4.000    0.571 
#    0.000    0.000    0.000    1.714    0.000    0.000 
#    0.000    0.000    0.000    0.000    0.000    0.000 
#
# Total GULP energy -312465.474853 kJ/mol
# GULP energy per Si atom -5579.740622 kJ/mol
# Density = 2.161159 g / cm^3
# Si number density = 21.660891 Si / 1000 Ang^3
#
#
#
# Elastic Constant Matrix: (Units=GPa)
#
#
# Indices 1 2 3 4 5 6 
#
# 1 56.8742 22.8382 0.2921 0.0000 0.0000 0.0000
# 2 22.8382 152.0086 37.1524 0.0000 0.0000 0.0000
# 3 0.2921 37.1524 67.7706 0.0000 0.0000 0.0000
# 4 0.0000 0.0000 0.0000 36.2169 0.0000 0.0000
# 5 0.0000 0.0000 0.0000 0.0000 14.9142 0.0000
# 6 0.0000 0.0000 0.0000 0.0000 0.0000 24.9012
#
#
#
# Elastic Compliance Matrix: (Units=1/GPa)
#
#
# Indices 1 2 3 4 5 6 
#
# 1 0.018880 -0.003252 0.001702 0.000000 0.000000 0.000000
# 2 -0.003252 0.008157 -0.004458 0.000000 0.000000 0.000000
# 3 0.001702 -0.004458 0.017192 0.000000 0.000000 0.000000
# 4 0.000000 0.000000 0.000000 0.027611 0.000000 0.000000
# 5 0.000000 0.000000 0.000000 0.000000 0.067050 0.000000
# 6 0.000000 0.000000 0.000000 0.000000 0.000000 0.040159
#
#
# Mechanical properties :
#
#
# Convention : Reuss Voigt Hill
#
# Bulk Modulus (GPa) = 31.04440 44.13543 37.58991
# Shear Modulus (GPa) = 24.77665 29.63117 27.20391
#
# Velocity S-wave (km/s) = 3.38574 3.70260 3.54771
# Velocity P-wave (km/s) = 5.44495 6.22084 5.84578
#
# Compressibility (1/GPa) = 0.03221193
#
# Stress axis : x y z
#
# Youngs Moduli (GPa) = 52.96615 122.59842 58.16661
#
# Poissons Ratio (x) = 0.39875 -0.09898
# Poissons Ratio (y) = 0.17227 0.25928
# Poissons Ratio (z) = -0.09013 0.54649
#
# Static dielectric constant tensor:
#      x y z
#    x 1.818900 0.000000 0.000000 
#    y 0.000000 1.863540 0.000000 
#    z 0.000000 0.000000 1.916640 
# 
# From -- ./inp_files/1816.got.cif
#   From: 2010.05.17/outbox.cif.g08.bks.cpg/sg62_1_cif.got.tgz:1816.got - 2010.06.03 15:25:27.
