data_PCOD9462111
_publ_section_title
;
Structure prediction by ZEFSAII (Michael W. Deem and Ramdas Pophale) SiO2 
 PCOD9462111
Probable space group: P N M A
;
_chemical_formula_sum "Si O2"
_cell_formula_units_Z 40
_cell_length_a 10.053018
_cell_length_b 11.390755
_cell_length_c 19.979453
_cell_angle_alpha 90.000000
_cell_angle_beta 90.000000
_cell_angle_gamma 90.000000
_cell_volume 2287.876434
_symmetry_space_group_name_H-M "P N M A"
_symmetry_group_IT_number 62
_symmetry_cell_setting 'orthorhombic'
loop_
_space_group_symop_operation_xyz
x,y,z
1/2-x,-y,1/2+z
1/2+x,1/2-y,1/2-z
-x,1/2+y,-z
-x,-y,-z
1/2+x,y,1/2-z
1/2-x,1/2+y,1/2+z
x,1/2-y,z
loop_
_atom_site_type_symbol
_atom_site_label
_atom_site_fract_x
_atom_site_fract_y
_atom_site_fract_z
Si Si1 0.381535 0.882339 0.940577
Si Si2 0.371716 0.542128 0.089607
Si Si3 0.860300 0.537629 0.084688
Si Si4 0.374844 0.889351 0.570676
Si Si5 0.807928 0.750000 0.182917
Si Si6 0.982124 0.750000 0.317616
O O1 0.379007 0.750000 0.917346
O O2 0.522304 0.941389 0.927482
O O3 0.270726 0.960638 0.906494
O O4 0.350982 0.888686 0.019894
O O5 0.237275 0.470945 0.105491
O O6 0.434062 0.634359 0.141333
O O7 0.853875 0.638235 0.139524
O O8 0.985228 0.450245 0.087680
O O9 0.856889 0.594452 0.009972
O O10 0.368218 0.750000 0.585997
O O11 0.893910 0.750000 0.250509
O O12 0.644616 0.750000 0.190630
#
# Coordination Sequence:
#
# PCOD9462111 Si02
#       6
#     8   8   8   8   4   4
#     4  10  18  33  60  90 120 154 190 258 313 360
#     4  10  21  34  59  90 122 154 200 245 307 366
#     4  10  21  36  59  89 126 162 199 246 307 360
#     4  10  20  35  60  94 129 155 190 253 314 368
#     4  12  26  44  64  84 126 166 211 254 289 361
#     4  12  26  44  62  88 122 166 211 252 293 365
#
# _framework density 17.483461999999999
#
# number of rings (size 3 to 8) (size 9 to 14) (size 15 to 20)
#    0.000    1.600    4.000    1.200    2.800    0.000 
#    0.000    0.000    0.000    7.200    0.000    0.000 
#    0.000    0.000    0.000    0.000    0.000    0.000 
#
# Total GULP energy -223023.763258 kJ/mol
# GULP energy per Si atom -5575.594081 kJ/mol
# Density = 1.744367 g / cm^3
# Si number density = 17.483462 Si / 1000 Ang^3
#
#
#
# Elastic Constant Matrix: (Units=GPa)
#
#
# Indices 1 2 3 4 5 6 
#
# 1 33.9940 -18.4177 -10.6286 0.0000 0.0000 0.0000
# 2 -18.4177 88.0022 16.1286 0.0000 0.0000 0.0000
# 3 -10.6286 16.1286 55.7418 0.0000 0.0000 0.0000
# 4 0.0000 0.0000 0.0000 15.2945 0.0000 0.0000
# 5 0.0000 0.0000 0.0000 0.0000 19.1559 0.0000
# 6 0.0000 0.0000 0.0000 0.0000 0.0000 13.3853
#
#
#
# Elastic Compliance Matrix: (Units=1/GPa)
#
#
# Indices 1 2 3 4 5 6 
#
# 1 0.034314 0.006317 0.004715 0.000000 0.000000 0.000000
# 2 0.006317 0.013163 -0.002604 0.000000 0.000000 0.000000
# 3 0.004715 -0.002604 0.019592 0.000000 0.000000 0.000000
# 4 0.000000 0.000000 0.000000 0.065383 0.000000 0.000000
# 5 0.000000 0.000000 0.000000 0.000000 0.052203 0.000000
# 6 0.000000 0.000000 0.000000 0.000000 0.000000 0.074709
#
#
# Mechanical properties :
#
#
# Convention : Reuss Voigt Hill
#
# Bulk Modulus (GPa) = 11.91536 16.87807 14.39671
# Shear Modulus (GPa) = 18.48550 22.27754 20.38152
#
# Velocity S-wave (km/s) = 3.25516 3.57348 3.41803
# Velocity P-wave (km/s) = 4.57800 5.16730 4.88155
#
# Compressibility (1/GPa) = 0.08392530
#
# Stress axis : x y z
#
# Youngs Moduli (GPa) = 29.14280 75.97206 51.04039
#
# Poissons Ratio (x) = -0.47994 -0.24065
# Poissons Ratio (y) = -0.18410 0.13291
# Poissons Ratio (z) = -0.13741 0.19783
#
# Static dielectric constant tensor:
#      x y z
#    x 1.598290 0.000000 0.000000 
#    y 0.000000 1.602390 0.000000 
#    z 0.000000 0.000000 1.587040 
# 
# From -- ./inp_files/25792.got.cif
#   From: 2010.05.17/outbox.cif.g08.bks.cpg/sg62_13_cif.got.tgz:25792.got - 2010.06.03 15:25:27.
