data_PCOD9462974
_publ_section_title
;
Structure prediction by ZEFSAII (Michael W. Deem and Ramdas Pophale) SiO2 
 PCOD9462974
Probable space group: P N M A
;
_chemical_formula_sum "Si O2"
_cell_formula_units_Z 56
_cell_length_a 20.804384
_cell_length_b 9.717399
_cell_length_c 15.350258
_cell_angle_alpha 90.000000
_cell_angle_beta 90.000000
_cell_angle_gamma 90.000000
_cell_volume 3103.277238
_symmetry_space_group_name_H-M "P N M A"
_symmetry_group_IT_number 62
_symmetry_cell_setting 'orthorhombic'
loop_
_space_group_symop_operation_xyz
x,y,z
1/2-x,-y,1/2+z
1/2+x,1/2-y,1/2-z
-x,1/2+y,-z
-x,-y,-z
1/2+x,y,1/2-z
1/2-x,1/2+y,1/2+z
x,1/2-y,z
loop_
_atom_site_type_symbol
_atom_site_label
_atom_site_fract_x
_atom_site_fract_y
_atom_site_fract_z
Si Si1 0.830588 0.412511 0.816837
Si Si2 0.691225 0.413403 0.486022
Si Si3 0.095308 0.094480 0.489033
Si Si4 0.307876 0.412931 0.881065
Si Si5 0.465324 0.405101 0.119123
Si Si6 0.449801 0.907377 0.449835
Si Si7 0.520357 0.907447 0.270070
O O1 0.823141 0.250000 0.835764
O O2 0.799524 0.440597 0.721919
O O3 0.907480 0.438259 0.804212
O O4 0.803728 0.501298 0.896661
O O5 0.691588 0.250000 0.466269
O O6 0.746451 0.437176 0.557511
O O7 0.622776 0.449306 0.529647
O O8 0.119295 0.250000 0.504877
O O9 0.023985 0.107345 0.449207
O O10 0.137230 0.010746 0.419514
O O11 0.088583 0.000722 0.574859
O O12 0.325632 0.250000 0.888053
O O13 0.443081 0.250000 0.139114
O O14 0.496141 0.484275 0.200085
O O15 0.457057 0.750000 0.479987
O O16 0.470466 0.910895 0.349528
O O17 0.500000 0.000000 0.500000
O O18 0.522330 0.750000 0.234563
#
# Coordination Sequence:
#
# PCOD9462974 Si02
#       7
#     8   8   8   8   8   8   8
#     4  10  20  36  60  84 109 148 194 237 285 343
#     4  10  22  39  59  82 113 150 188 237 291 347
#     4  10  20  34  55  82 111 147 188 233 280 334
#     4  10  21  39  59  80 114 155 192 234 289 346
#     4  10  20  33  53  82 115 147 185 232 284 335
#     4  10  20  35  56  82 112 144 183 233 290 342
#     4  10  19  33  55  82 111 146 189 234 281 340
#
# _framework density 18.045439999999999
#
# number of rings (size 3 to 8) (size 9 to 14) (size 15 to 20)
#    0.000    2.000    2.857    0.857    0.000    3.429 
#    2.571    0.000    0.000    0.000    0.000    0.000 
#    0.000    0.000    0.000    0.000    0.000    0.000 
#
# Total GULP energy -312262.180053 kJ/mol
# GULP energy per Si atom -5576.110358 kJ/mol
# Density = 1.800437 g / cm^3
# Si number density = 18.045440 Si / 1000 Ang^3
#
#
#
# Elastic Constant Matrix: (Units=GPa)
#
#
# Indices 1 2 3 4 5 6 
#
# 1 45.4328 38.0644 41.3963 0.0000 0.0000 0.0000
# 2 38.0644 93.6088 65.3096 0.0000 0.0000 0.0000
# 3 41.3963 65.3096 107.9849 0.0000 0.0000 0.0000
# 4 0.0000 0.0000 0.0000 32.5134 0.0000 0.0000
# 5 0.0000 0.0000 0.0000 0.0000 30.2329 0.0000
# 6 0.0000 0.0000 0.0000 0.0000 0.0000 17.4196
#
#
#
# Elastic Compliance Matrix: (Units=1/GPa)
#
#
# Indices 1 2 3 4 5 6 
#
# 1 0.037840 -0.009111 -0.008996 0.000000 0.000000 0.000000
# 2 -0.009111 0.020675 -0.009011 0.000000 0.000000 0.000000
# 3 -0.008996 -0.009011 0.018159 0.000000 0.000000 0.000000
# 4 0.000000 0.000000 0.000000 0.030757 0.000000 0.000000
# 5 0.000000 0.000000 0.000000 0.000000 0.033077 0.000000
# 6 0.000000 0.000000 0.000000 0.000000 0.000000 0.057407
#
#
# Mechanical properties :
#
#
# Convention : Reuss Voigt Hill
#
# Bulk Modulus (GPa) = 44.56731 59.61859 52.09295
# Shear Modulus (GPa) = 19.25818 22.85027 21.05422
#
# Velocity S-wave (km/s) = 3.27035 3.56232 3.41945
# Velocity P-wave (km/s) = 6.24589 7.07318 6.67237
#
# Compressibility (1/GPa) = 0.02243797
#
# Stress axis : x y z
#
# Youngs Moduli (GPa) = 26.42676 48.36833 55.06794
#
# Poissons Ratio (x) = 0.44067 0.49539
# Poissons Ratio (y) = 0.24077 0.49624
# Poissons Ratio (z) = 0.23774 0.43587
#
# Static dielectric constant tensor:
#      x y z
#    x 1.614050 0.000000 0.000000 
#    y 0.000000 1.630580 0.000000 
#    z 0.000000 0.000000 1.614770 
# 
# From -- ./inp_files/20281.got.cif
#   From: 2010.05.17/outbox.cif.g08.bks.cpg/sg62_11_cif.got.tgz:20281.got - 2010.06.03 15:25:27.
