data_PCOD9462636
_publ_section_title
;
Structure prediction by ZEFSAII (Michael W. Deem and Ramdas Pophale) SiO2 
 PCOD9462636
Probable space group: P N M A
;
_chemical_formula_sum "Si O2"
_cell_formula_units_Z 64
_cell_length_a 30.740768
_cell_length_b 8.822669
_cell_length_c 14.598216
_cell_angle_alpha 90.000000
_cell_angle_beta 90.000000
_cell_angle_gamma 90.000000
_cell_volume 3959.264216
_symmetry_space_group_name_H-M "P N M A"
_symmetry_group_IT_number 62
_symmetry_cell_setting 'orthorhombic'
loop_
_space_group_symop_operation_xyz
x,y,z
1/2-x,-y,1/2+z
1/2+x,1/2-y,1/2-z
-x,1/2+y,-z
-x,-y,-z
1/2+x,y,1/2-z
1/2-x,1/2+y,1/2+z
x,1/2-y,z
loop_
_atom_site_type_symbol
_atom_site_label
_atom_site_fract_x
_atom_site_fract_y
_atom_site_fract_z
Si Si1 0.685697 0.423438 0.014510
Si Si2 0.634528 0.928730 0.854044
Si Si3 0.452160 0.569038 0.108897
Si Si4 0.716643 0.570584 0.723820
Si Si5 0.045179 0.432800 0.392765
Si Si6 0.133741 0.073473 0.295948
Si Si7 0.701603 0.929717 0.335186
Si Si8 0.776641 0.571912 0.024262
O O1 0.700549 0.250000 0.998882
O O2 0.663995 0.431244 0.113717
O O3 0.725682 0.537285 0.008028
O O4 0.651036 0.471602 0.939135
O O5 0.633810 0.750000 0.876704
O O6 0.670982 0.950929 0.776258
O O7 0.585958 0.986517 0.835334
O O8 0.448930 0.750000 0.118113
O O9 0.500123 0.511142 0.134313
O O10 0.446599 0.530318 0.000214
O O11 0.725537 0.750000 0.716617
O O12 0.756336 0.498359 0.781783
O O13 0.713741 0.500171 0.622954
O O14 0.040924 0.250000 0.388089
O O15 0.086173 0.477172 0.330169
O O16 0.131073 0.250000 0.267290
O O17 0.158494 0.978081 0.219719
O O18 0.706306 0.750000 0.336888
O O19 0.700257 0.994909 0.437800
O O20 0.784951 0.750000 0.025299
#
# Coordination Sequence:
#
# PCOD9462636 Si02
#       8
#     8   8   8   8   8   8   8   8
#     4  11  20  32  52  75 106 141 178 220 262 305
#     4  11  22  34  52  76 106 143 180 217 262 317
#     4  10  19  32  50  75 106 139 175 217 262 312
#     4  11  23  38  54  76 106 139 180 224 264 311
#     4   9  18  33  50  73 104 140 175 214 264 311
#     4  10  20  35  53  75 107 143 179 220 263 312
#     4  12  24  36  54  78 106 141 180 220 264 315
#     4  12  24  38  54  75 104 141 182 222 267 312
#
# _framework density 16.164618999999998
#
# number of rings (size 3 to 8) (size 9 to 14) (size 15 to 20)
#    0.000    1.250    3.750    3.750    0.000    3.000 
#    0.000    0.000    0.000    0.000    0.000    0.875 
#    0.000    0.000    0.000    0.000    0.000    0.000 
#
# Total GULP energy -357417.762902 kJ/mol
# GULP energy per Si atom -5584.652545 kJ/mol
# Density = 1.612783 g / cm^3
# Si number density = 16.164619 Si / 1000 Ang^3
#
#
#
# Elastic Constant Matrix: (Units=GPa)
#
#
# Indices 1 2 3 4 5 6 
#
# 1 70.6372 22.1953 2.8801 0.0000 0.0000 0.0000
# 2 22.1953 81.1248 28.5289 0.0000 0.0000 0.0000
# 3 2.8801 28.5289 53.9777 0.0000 0.0000 0.0000
# 4 0.0000 0.0000 0.0000 16.2205 0.0000 0.0000
# 5 0.0000 0.0000 0.0000 0.0000 18.7313 0.0000
# 6 0.0000 0.0000 0.0000 0.0000 0.0000 27.2267
#
#
#
# Elastic Compliance Matrix: (Units=1/GPa)
#
#
# Indices 1 2 3 4 5 6 
#
# 1 0.015622 -0.004890 0.001751 0.000000 0.000000 0.000000
# 2 -0.004890 0.016671 -0.008550 0.000000 0.000000 0.000000
# 3 0.001751 -0.008550 0.022952 0.000000 0.000000 0.000000
# 4 0.000000 0.000000 0.000000 0.061650 0.000000 0.000000
# 5 0.000000 0.000000 0.000000 0.000000 0.053387 0.000000
# 6 0.000000 0.000000 0.000000 0.000000 0.000000 0.036729
#
#
# Mechanical properties :
#
#
# Convention : Reuss Voigt Hill
#
# Bulk Modulus (GPa) = 31.38093 34.77203 33.07648
# Shear Modulus (GPa) = 20.74587 22.57805 21.66196
#
# Velocity S-wave (km/s) = 3.58636 3.74138 3.66469
# Velocity P-wave (km/s) = 6.05019 6.34206 6.19784
#
# Compressibility (1/GPa) = 0.03186649
#
# Stress axis : x y z
#
# Youngs Moduli (GPa) = 64.01270 59.98286 43.56930
#
# Poissons Ratio (x) = 0.29330 -0.07628
# Poissons Ratio (y) = 0.31301 0.37254
# Poissons Ratio (z) = -0.11208 0.51288
#
# Static dielectric constant tensor:
#      x y z
#    x 1.555540 0.000000 0.000000 
#    y 0.000000 1.546410 0.000000 
#    z 0.000000 0.000000 1.531090 
# 
# From -- ./inp_files/21270.got.cif
#   From: 2010.05.17/outbox.cif.g08.bks.cpg/sg62_11_cif.got.tgz:21270.got - 2010.06.03 15:25:27.
