data_PCOD9462156
_publ_section_title
;
Structure prediction by ZEFSAII (Michael W. Deem and Ramdas Pophale) SiO2 
 PCOD9462156
Probable space group: P N M A
;
_chemical_formula_sum "Si O2"
_cell_formula_units_Z 60
_cell_length_a 9.599728
_cell_length_b 7.704831
_cell_length_c 31.061138
_cell_angle_alpha 90.000000
_cell_angle_beta 90.000000
_cell_angle_gamma 90.000000
_cell_volume 2297.414767
_symmetry_space_group_name_H-M "P N M A"
_symmetry_group_IT_number 62
_symmetry_cell_setting 'orthorhombic'
loop_
_space_group_symop_operation_xyz
x,y,z
1/2-x,-y,1/2+z
1/2+x,1/2-y,1/2-z
-x,1/2+y,-z
-x,-y,-z
1/2+x,y,1/2-z
1/2-x,1/2+y,1/2+z
x,1/2-y,z
loop_
_atom_site_type_symbol
_atom_site_label
_atom_site_fract_x
_atom_site_fract_y
_atom_site_fract_z
Si Si1 0.390573 0.540363 0.561752
Si Si2 0.011428 0.554676 0.451057
Si Si3 0.586892 0.750000 0.795022
Si Si4 0.586143 0.946361 0.249663
Si Si5 0.259462 0.952521 0.329352
Si Si6 0.555891 0.039419 0.861644
Si Si7 0.933642 0.951129 0.844384
Si Si8 0.804163 0.454691 0.030793
O O1 0.389001 0.750000 0.562886
O O2 0.371496 0.478215 0.610716
O O3 0.546494 0.483489 0.547493
O O4 0.298774 0.485051 0.520865
O O5 0.964160 0.750000 0.449190
O O6 0.933847 0.471377 0.410830
O O7 0.177931 0.543979 0.444748
O O8 0.000000 0.500000 0.500000
O O9 0.517525 0.598124 0.763883
O O10 0.628821 0.593246 0.829549
O O11 0.541726 0.750000 0.237208
O O12 0.724357 0.984876 0.221230
O O13 0.603609 0.951163 0.300622
O O14 0.288431 0.750000 0.334319
O O15 0.109484 0.989836 0.350370
O O16 0.396207 0.043581 0.346947
O O17 0.580634 0.250000 0.857748
O O18 0.900145 0.750000 0.838983
O O19 0.792097 0.250000 0.038407
#
# Coordination Sequence:
#
# PCOD9462156 Si02
#       8
#     8   8   4   8   8   8   8   8
#     4   9  20  37  58  89 124 159 204 256 307 376
#     4  11  23  38  59  88 125 163 206 257 307 371
#     4  10  18  34  60  80 114 152 190 248 302 342
#     4  10  21  37  56  85 119 153 193 245 300 355
#     4   9  19  35  56  82 113 147 192 253 299 350
#     4   9  20  35  57  88 115 151 201 250 302 359
#     4  11  21  33  58  89 117 156 204 247 306 366
#     4  10  20  36  60  89 123 162 205 255 316 366
#
# _framework density 26.116313999999999
#
# number of rings (size 3 to 8) (size 9 to 14) (size 15 to 20)
#    0.000    2.133    0.667    3.200    5.600    1.600 
#    0.000    0.000    5.867    0.000    0.000    0.000 
#    0.000    0.000    0.000    0.000    0.000    0.000 
#
# Total GULP energy -334650.775602 kJ/mol
# GULP energy per Si atom -5577.512927 kJ/mol
# Density = 2.605687 g / cm^3
# Si number density = 26.116314 Si / 1000 Ang^3
#
#
#
# Elastic Constant Matrix: (Units=GPa)
#
#
# Indices 1 2 3 4 5 6 
#
# 1 79.3438 29.7372 11.4108 0.0000 0.0000 0.0000
# 2 29.7372 110.4414 40.0412 0.0000 0.0000 0.0000
# 3 11.4108 40.0412 160.3739 0.0000 0.0000 0.0000
# 4 0.0000 0.0000 0.0000 29.9369 0.0000 0.0000
# 5 0.0000 0.0000 0.0000 0.0000 28.5617 0.0000
# 6 0.0000 0.0000 0.0000 0.0000 0.0000 26.5956
#
#
#
# Elastic Compliance Matrix: (Units=1/GPa)
#
#
# Indices 1 2 3 4 5 6 
#
# 1 0.014019 -0.003753 -0.000060 0.000000 0.000000 0.000000
# 2 -0.003753 0.010960 -0.002470 0.000000 0.000000 0.000000
# 3 -0.000060 -0.002470 0.006856 0.000000 0.000000 0.000000
# 4 0.000000 0.000000 0.000000 0.033404 0.000000 0.000000
# 5 0.000000 0.000000 0.000000 0.000000 0.035012 0.000000
# 6 0.000000 0.000000 0.000000 0.000000 0.000000 0.037600
#
#
# Mechanical properties :
#
#
# Convention : Reuss Voigt Hill
#
# Bulk Modulus (GPa) = 51.89453 56.94862 54.42157
# Shear Modulus (GPa) = 31.87972 34.95017 33.41494
#
# Velocity S-wave (km/s) = 3.49762 3.66218 3.58084
# Velocity P-wave (km/s) = 6.01870 6.30358 6.16279
#
# Compressibility (1/GPa) = 0.01926985
#
# Stress axis : x y z
#
# Youngs Moduli (GPa) = 71.33413 91.23802 145.85117
#
# Poissons Ratio (x) = 0.34239 0.00882
# Poissons Ratio (y) = 0.26769 0.36018
# Poissons Ratio (z) = 0.00432 0.22531
#
# Static dielectric constant tensor:
#      x y z
#    x 2.177880 0.000000 0.000000 
#    y 0.000000 1.917040 0.000000 
#    z 0.000000 0.000000 2.587760 
# 
# From -- ./inp_files/32421.got.cif
#   From: 2010.05.17/outbox.cif.g08.bks.cpg/sg62_17_cif.got.tgz:32421.got - 2010.06.03 15:25:27.
