data_PCOD9462107
_publ_section_title
;
Structure prediction by ZEFSAII (Michael W. Deem and Ramdas Pophale) SiO2 
 PCOD9462107
Probable space group: P N M A
;
_chemical_formula_sum "Si O2"
_cell_formula_units_Z 64
_cell_length_a 23.757360
_cell_length_b 7.674072
_cell_length_c 15.895776
_cell_angle_alpha 90.000000
_cell_angle_beta 90.000000
_cell_angle_gamma 90.000000
_cell_volume 2898.049388
_symmetry_space_group_name_H-M "P N M A"
_symmetry_group_IT_number 62
_symmetry_cell_setting 'orthorhombic'
loop_
_space_group_symop_operation_xyz
x,y,z
1/2-x,-y,1/2+z
1/2+x,1/2-y,1/2-z
-x,1/2+y,-z
-x,-y,-z
1/2+x,y,1/2-z
1/2-x,1/2+y,1/2+z
x,1/2-y,z
loop_
_atom_site_type_symbol
_atom_site_label
_atom_site_fract_x
_atom_site_fract_y
_atom_site_fract_z
Si Si1 0.134122 0.452582 0.394230
Si Si2 0.898746 0.546565 0.428005
Si Si3 0.708608 0.548321 0.260250
Si Si4 0.835312 0.449852 0.262102
Si Si5 0.498157 0.539543 0.354025
Si Si6 0.491295 0.038223 0.839636
Si Si7 0.123628 0.963855 0.095735
Si Si8 0.120495 0.952152 0.912321
O O1 0.150951 0.250000 0.397254
O O2 0.130471 0.527908 0.488750
O O3 0.176275 0.538736 0.328362
O O4 0.070401 0.469058 0.359974
O O5 0.908145 0.750000 0.447852
O O6 0.860428 0.535581 0.345382
O O7 0.960132 0.474759 0.402891
O O8 0.720571 0.750000 0.279702
O O9 0.768160 0.454958 0.260313
O O10 0.666274 0.479713 0.331837
O O11 0.855327 0.250000 0.265473
O O12 0.856965 0.531623 0.174483
O O13 0.495037 0.750000 0.360347
O O14 0.491650 0.492214 0.255709
O O15 0.559954 0.482998 0.382880
O O16 0.447078 0.462296 0.406942
O O17 0.488558 0.250000 0.842989
O O18 0.123330 0.750000 0.096126
O O19 0.139142 0.024811 0.002139
O O20 0.138510 0.750000 0.911642
#
# Coordination Sequence:
#
# PCOD9462107 Si02
#       8
#     8   8   8   8   8   8   8   8
#     4  11  23  38  60  90 121 153 196 247 298 349
#     4  10  22  40  61  86 119 160 197 238 297 360
#     4  11  23  42  64  83 112 158 201 242 298 356
#     4  11  24  40  59  87 118 151 197 251 294 344
#     4  10  18  33  59  87 117 149 190 233 277 348
#     4  10  19  35  60  88 120 156 195 236 291 360
#     4   9  19  37  59  84 113 150 189 229 285 350
#     4  10  21  37  58  85 118 150 184 231 291 346
#
# _framework density 22.083818999999998
#
# number of rings (size 3 to 8) (size 9 to 14) (size 15 to 20)
#    0.000    1.750    2.500    1.875    0.000    3.500 
#    0.000    3.750    0.000    0.000    0.000    0.000 
#    0.000    0.000    0.000    0.000    0.000    0.000 
#
# Total GULP energy -357710.805567 kJ/mol
# GULP energy per Si atom -5589.231337 kJ/mol
# Density = 2.203355 g / cm^3
# Si number density = 22.083819 Si / 1000 Ang^3
#
#
#
# Elastic Constant Matrix: (Units=GPa)
#
#
# Indices 1 2 3 4 5 6 
#
# 1 75.9905 -16.1483 7.2391 0.0000 0.0000 0.0000
# 2 -16.1483 42.7852 -5.4979 0.0000 0.0000 0.0000
# 3 7.2391 -5.4979 105.0110 0.0000 0.0000 0.0000
# 4 0.0000 0.0000 0.0000 9.4419 0.0000 0.0000
# 5 0.0000 0.0000 0.0000 0.0000 4.6795 0.0000
# 6 0.0000 0.0000 0.0000 0.0000 0.0000 22.5763
#
#
#
# Elastic Compliance Matrix: (Units=1/GPa)
#
#
# Indices 1 2 3 4 5 6 
#
# 1 0.014360 0.005328 -0.000711 0.000000 0.000000 0.000000
# 2 0.005328 0.025508 0.000968 0.000000 0.000000 0.000000
# 3 -0.000711 0.000968 0.009623 0.000000 0.000000 0.000000
# 4 0.000000 0.000000 0.000000 0.105911 0.000000 0.000000
# 5 0.000000 0.000000 0.000000 0.000000 0.213698 0.000000
# 6 0.000000 0.000000 0.000000 0.000000 0.000000 0.044294
#
#
# Mechanical properties :
#
#
# Convention : Reuss Voigt Hill
#
# Bulk Modulus (GPa) = 16.48498 21.66360 19.07429
# Shear Modulus (GPa) = 11.83594 23.21914 17.52754
#
# Velocity S-wave (km/s) = 2.31758 3.24606 2.82029
# Velocity P-wave (km/s) = 3.82655 4.88674 4.38878
#
# Compressibility (1/GPa) = 0.06066130
#
# Stress axis : x y z
#
# Youngs Moduli (GPa) = 69.64003 39.20330 103.92303
#
# Poissons Ratio (x) = -0.20889 0.07388
# Poissons Ratio (y) = -0.37107 -0.10062
# Poissons Ratio (z) = 0.04951 -0.03796
#
# Static dielectric constant tensor:
#      x y z
#    x 1.757980 0.000000 0.000000 
#    y 0.000000 1.816830 0.000000 
#    z 0.000000 0.000000 1.832870 
# 
# From -- ./inp_files/20847.got.cif
#   From: 2010.05.17/outbox.cif.g08.bks.cpg/sg62_11_cif.got.tgz:20847.got - 2010.06.03 15:25:27.
