data_PCOD9462517
_publ_section_title
;
Structure prediction by ZEFSAII (Michael W. Deem and Ramdas Pophale) SiO2 
 PCOD9462517
Probable space group: P N M A
;
_chemical_formula_sum "Si O2"
_cell_formula_units_Z 40
_cell_length_a 14.057661
_cell_length_b 7.709429
_cell_length_c 18.585147
_cell_angle_alpha 90.000000
_cell_angle_beta 90.000000
_cell_angle_gamma 90.000000
_cell_volume 2014.193916
_symmetry_space_group_name_H-M "P N M A"
_symmetry_group_IT_number 62
_symmetry_cell_setting 'orthorhombic'
loop_
_space_group_symop_operation_xyz
x,y,z
1/2-x,-y,1/2+z
1/2+x,1/2-y,1/2-z
-x,1/2+y,-z
-x,-y,-z
1/2+x,y,1/2-z
1/2-x,1/2+y,1/2+z
x,1/2-y,z
loop_
_atom_site_type_symbol
_atom_site_label
_atom_site_fract_x
_atom_site_fract_y
_atom_site_fract_z
Si Si1 0.805424 0.047095 0.979362
Si Si2 0.102557 0.543468 0.468520
Si Si3 0.087431 0.963112 0.163068
Si Si4 0.174651 0.962583 0.314344
Si Si5 0.875985 0.548276 0.134283
O O1 0.828737 0.250000 0.984913
O O2 0.848378 0.981618 0.904585
O O3 0.691852 0.027013 0.986146
O O4 0.852301 0.961437 0.049538
O O5 0.113236 0.750000 0.468362
O O6 0.117223 0.483567 0.385923
O O7 0.000000 0.500000 0.500000
O O8 0.087780 0.750000 0.162920
O O9 0.129255 0.018841 0.239578
O O10 0.979364 0.024966 0.151597
O O11 0.175767 0.750000 0.314201
O O12 0.283094 0.024683 0.325748
O O13 0.880610 0.750000 0.155060
#
# Coordination Sequence:
#
# PCOD9462517 Si02
#       5
#     8   8   8   8   8
#     4  10  19  31  50  75 101 129 166 208 247 295
#     4  10  20  35  55  75  99 132 166 203 247 295
#     4   9  17  29  49  76  99 127 170 212 248 288
#     4   8  16  30  48  72  98 126 165 210 248 285
#     4   9  17  31  50  70  98 132 164 205 252 295
#
# _framework density 19.859062000000002
#
# number of rings (size 3 to 8) (size 9 to 14) (size 15 to 20)
#    0.000    2.800    0.000    3.000    0.000    1.600 
#    0.000    7.000    0.000   22.800    0.000    0.000 
#    0.000    0.000    0.000    0.000    0.000    0.000 
#
# Total GULP energy -223137.730920 kJ/mol
# GULP energy per Si atom -5578.443273 kJ/mol
# Density = 1.981386 g / cm^3
# Si number density = 19.859062 Si / 1000 Ang^3
#
#
#
# Elastic Constant Matrix: (Units=GPa)
#
#
# Indices 1 2 3 4 5 6 
#
# 1 187.2111 -7.7648 133.4684 0.0000 0.0000 0.0000
# 2 -7.7648 29.4909 -8.4971 0.0000 0.0000 0.0000
# 3 133.4684 -8.4971 144.9762 0.0000 0.0000 0.0000
# 4 0.0000 0.0000 0.0000 18.1926 0.0000 0.0000
# 5 0.0000 0.0000 0.0000 0.0000 22.2159 0.0000
# 6 0.0000 0.0000 0.0000 0.0000 0.0000 15.4564
#
#
#
# Elastic Compliance Matrix: (Units=1/GPa)
#
#
# Indices 1 2 3 4 5 6 
#
# 1 0.015543 -0.000031 -0.014311 0.000000 0.000000 0.000000
# 2 -0.000031 0.034491 0.002050 0.000000 0.000000 0.000000
# 3 -0.014311 0.002050 0.020193 0.000000 0.000000 0.000000
# 4 0.000000 0.000000 0.000000 0.054967 0.000000 0.000000
# 5 0.000000 0.000000 0.000000 0.000000 0.045013 0.000000
# 6 0.000000 0.000000 0.000000 0.000000 0.000000 0.064698
#
#
# Mechanical properties :
#
#
# Convention : Reuss Voigt Hill
#
# Bulk Modulus (GPa) = 21.90903 66.23237 44.07070
# Shear Modulus (GPa) = 18.20137 27.47108 22.83622
#
# Velocity S-wave (km/s) = 3.03070 3.72331 3.39472
# Velocity P-wave (km/s) = 4.82733 7.20470 6.13232
#
# Compressibility (1/GPa) = 0.04564327
#
# Stress axis : x y z
#
# Youngs Moduli (GPa) = 64.33706 28.99281 49.52204
#
# Poissons Ratio (x) = 0.00090 0.70872
# Poissons Ratio (y) = 0.00199 -0.10152
# Poissons Ratio (z) = 0.92074 -0.05944
#
# Static dielectric constant tensor:
#      x y z
#    x 1.709500 0.000000 0.000000 
#    y 0.000000 1.768190 0.000000 
#    z 0.000000 0.000000 1.673190 
# 
# From -- ./inp_files/18639.got.cif
#   From: 2010.05.17/outbox.cif.g08.bks.cpg/sg62_10_cif.got.tgz:18639.got - 2010.06.03 15:25:27.
