data_PCOD9462104
_publ_section_title
;
Structure prediction by ZEFSAII (Michael W. Deem and Ramdas Pophale) SiO2 
 PCOD9462104
Probable space group: P N M A
;
_chemical_formula_sum "Si O2"
_cell_formula_units_Z 64
_cell_length_a 17.118170
_cell_length_b 7.802007
_cell_length_c 20.402860
_cell_angle_alpha 90.000000
_cell_angle_beta 90.000000
_cell_angle_gamma 90.000000
_cell_volume 2724.926047
_symmetry_space_group_name_H-M "P N M A"
_symmetry_group_IT_number 62
_symmetry_cell_setting 'orthorhombic'
loop_
_space_group_symop_operation_xyz
x,y,z
1/2-x,-y,1/2+z
1/2+x,1/2-y,1/2-z
-x,1/2+y,-z
-x,-y,-z
1/2+x,y,1/2-z
1/2-x,1/2+y,1/2+z
x,1/2-y,z
loop_
_atom_site_type_symbol
_atom_site_label
_atom_site_fract_x
_atom_site_fract_y
_atom_site_fract_z
Si Si1 0.006745 0.955700 0.295526
Si Si2 0.161504 0.046208 0.652075
Si Si3 0.908323 0.958303 0.486430
Si Si4 0.368797 0.543714 0.385887
Si Si5 0.136887 0.054918 0.376883
Si Si6 0.257760 0.952353 0.274007
Si Si7 0.089199 0.452803 0.019720
Si Si8 0.047920 0.951439 0.156202
O O1 0.018916 0.750000 0.300894
O O2 0.914018 0.976489 0.300585
O O3 0.045375 0.026480 0.228903
O O4 0.046423 0.044848 0.356875
O O5 0.174520 0.250000 0.640678
O O6 0.132725 0.979187 0.581077
O O7 0.231294 0.979571 0.699760
O O8 0.905742 0.750000 0.485566
O O9 0.859252 0.019590 0.550234
O O10 0.000000 0.000000 0.500000
O O11 0.354490 0.750000 0.386794
O O12 0.317475 0.470691 0.327526
O O13 0.358283 0.476292 0.460081
O O14 0.459181 0.520023 0.367914
O O15 0.164009 0.250000 0.378268
O O16 0.178803 0.965897 0.315681
O O17 0.274462 0.750000 0.266986
O O18 0.094109 0.250000 0.016337
O O19 0.102076 0.499986 0.095160
O O20 0.000000 0.500000 0.000000
O O21 0.059826 0.750000 0.165227
#
# Coordination Sequence:
#
# PCOD9462104 Si02
#       8
#     8   8   8   8   8   8   8   8
#     4  10  18  33  59  84 106 141 191 241 284 341
#     4   9  17  33  62  90 108 138 194 248 284 335
#     4  10  20  36  60  89 119 148 188 243 298 350
#     4   8  14  27  48  72  97 131 179 228 268 315
#     4  11  24  38  52  82 125 155 178 230 298 354
#     4  10  19  36  60  81 106 148 196 237 279 339
#     4   9  16  26  42  67 102 138 174 222 272 321
#     4   9  16  28  48  76 104 130 175 234 279 323
#
# _framework density 23.486877
#
# number of rings (size 3 to 8) (size 9 to 14) (size 15 to 20)
#    0.000    2.500    2.500    1.500    0.000    1.000 
#    0.000    5.625    0.000    4.500    0.000    0.000 
#    0.000    0.000    0.000    0.000    0.000    0.000 
#
# Total GULP energy -356359.063785 kJ/mol
# GULP energy per Si atom -5568.110372 kJ/mol
# Density = 2.343342 g / cm^3
# Si number density = 23.486877 Si / 1000 Ang^3
#
#
#
# Elastic Constant Matrix: (Units=GPa)
#
#
# Indices 1 2 3 4 5 6 
#
# 1 48.6528 -12.2030 38.1539 0.0000 0.0000 0.0000
# 2 -12.2030 34.2315 10.3443 0.0000 0.0000 0.0000
# 3 38.1539 10.3443 187.6933 0.0000 0.0000 0.0000
# 4 0.0000 0.0000 0.0000 12.3148 0.0000 0.0000
# 5 0.0000 0.0000 0.0000 0.0000 26.2135 0.0000
# 6 0.0000 0.0000 0.0000 0.0000 0.0000 10.3809
#
#
#
# Elastic Compliance Matrix: (Units=1/GPa)
#
#
# Indices 1 2 3 4 5 6 
#
# 1 0.028721 0.012206 -0.006511 0.000000 0.000000 0.000000
# 2 0.012206 0.034895 -0.004404 0.000000 0.000000 0.000000
# 3 -0.006511 -0.004404 0.006894 0.000000 0.000000 0.000000
# 4 0.000000 0.000000 0.000000 0.081203 0.000000 0.000000
# 5 0.000000 0.000000 0.000000 0.000000 0.038148 0.000000
# 6 0.000000 0.000000 0.000000 0.000000 0.000000 0.096330
#
#
# Mechanical properties :
#
#
# Convention : Reuss Voigt Hill
#
# Bulk Modulus (GPa) = 13.68133 38.12978 25.90556
# Shear Modulus (GPa) = 16.23508 25.40068 20.81788
#
# Velocity S-wave (km/s) = 2.63200 3.29216 2.98041
# Velocity P-wave (km/s) = 3.88256 5.54264 4.78514
#
# Compressibility (1/GPa) = 0.07309229
#
# Stress axis : x y z
#
# Youngs Moduli (GPa) = 34.81718 28.65722 145.05039
#
# Poissons Ratio (x) = -0.34980 0.94445
# Poissons Ratio (y) = -0.42499 0.63887
# Poissons Ratio (z) = 0.22670 0.12622
#
# Static dielectric constant tensor:
#      x y z
#    x 1.935680 0.000000 0.000000 
#    y 0.000000 1.867830 0.000000 
#    z 0.000000 0.000000 1.987910 
# 
# From -- ./inp_files/27747.got.cif
#   From: 2010.05.17/outbox.cif.g08.bks.cpg/sg62_14_cif.got.tgz:27747.got - 2010.06.03 15:25:27.
