data_PCOD9462801
_publ_section_title
;
Structure prediction by ZEFSAII (Michael W. Deem and Ramdas Pophale) SiO2 
 PCOD9462801
Probable space group: P N M A
;
_chemical_formula_sum "Si O2"
_cell_formula_units_Z 64
_cell_length_a 22.197765
_cell_length_b 8.562401
_cell_length_c 16.886402
_cell_angle_alpha 90.000000
_cell_angle_beta 90.000000
_cell_angle_gamma 90.000000
_cell_volume 3209.533673
_symmetry_space_group_name_H-M "P N M A"
_symmetry_group_IT_number 62
_symmetry_cell_setting 'orthorhombic'
loop_
_space_group_symop_operation_xyz
x,y,z
1/2-x,-y,1/2+z
1/2+x,1/2-y,1/2-z
-x,1/2+y,-z
-x,-y,-z
1/2+x,y,1/2-z
1/2-x,1/2+y,1/2+z
x,1/2-y,z
loop_
_atom_site_type_symbol
_atom_site_label
_atom_site_fract_x
_atom_site_fract_y
_atom_site_fract_z
Si Si1 0.082070 0.425219 0.792898
Si Si2 0.278567 0.064786 0.713984
Si Si3 0.464422 0.573695 0.742417
Si Si4 0.652000 0.929709 0.837994
Si Si5 0.939612 0.431525 0.039085
Si Si6 0.877565 0.926372 0.901548
Si Si7 0.430753 0.061765 0.014045
Si Si8 0.362155 0.061988 0.853230
O O1 0.105302 0.250000 0.781568
O O2 0.120021 0.552317 0.746355
O O3 0.076681 0.469598 0.884036
O O4 0.015925 0.445644 0.756137
O O5 0.286884 0.250000 0.707042
O O6 0.299263 0.025033 0.805597
O O7 0.213611 0.020832 0.679216
O O8 0.324758 0.977078 0.656471
O O9 0.486094 0.750000 0.760059
O O10 0.436238 0.573638 0.654829
O O11 0.412068 0.525560 0.801370
O O12 0.666022 0.750000 0.857421
O O13 0.604214 0.987489 0.904939
O O14 0.947209 0.250000 0.058567
O O15 0.888406 0.457188 0.973241
O O16 0.000000 0.500000 0.000000
O O17 0.868710 0.750000 0.931191
O O18 0.436765 0.250000 0.016860
O O19 0.383241 0.022220 0.942878
O O20 0.500000 0.000000 0.000000
O O21 0.368539 0.250000 0.847745
#
# Coordination Sequence:
#
# PCOD9462801 Si02
#       8
#     8   8   8   8   8   8   8   8
#     4  12  24  38  58  84 119 162 203 250 310 368
#     4  10  21  40  64  88 119 160 209 258 308 371
#     4  10  19  32  55  87 121 154 194 243 303 366
#     4  11  24  43  63  87 124 164 209 262 322 381
#     4  12  23  37  58  89 126 161 203 251 303 366
#     4  10  20  36  59  86 119 160 202 248 301 361
#     4  10  22  40  64  94 125 161 203 262 324 381
#     4   9  19  37  61  88 118 155 203 252 305 371
#
# _framework density 19.94059
#
# number of rings (size 3 to 8) (size 9 to 14) (size 15 to 20)
#    0.000    1.500    1.250    4.500    0.000    5.000 
#    2.250    0.000    0.000    0.000    0.000    0.000 
#    0.000    0.000    0.000    0.000    0.000    0.000 
#
# Total GULP energy -356709.160593 kJ/mol
# GULP energy per Si atom -5573.580634 kJ/mol
# Density = 1.989520 g / cm^3
# Si number density = 19.940590 Si / 1000 Ang^3
#
#
#
# Elastic Constant Matrix: (Units=GPa)
#
#
# Indices 1 2 3 4 5 6 
#
# 1 67.4144 2.0487 22.5797 0.0000 0.0000 0.0000
# 2 2.0487 44.5168 4.5071 0.0000 0.0000 0.0000
# 3 22.5797 4.5071 99.9401 0.0000 0.0000 0.0000
# 4 0.0000 0.0000 0.0000 24.4382 0.0000 0.0000
# 5 0.0000 0.0000 0.0000 0.0000 25.2459 0.0000
# 6 0.0000 0.0000 0.0000 0.0000 0.0000 32.7375
#
#
#
# Elastic Compliance Matrix: (Units=1/GPa)
#
#
# Indices 1 2 3 4 5 6 
#
# 1 0.016054 -0.000373 -0.003610 0.000000 0.000000 0.000000
# 2 -0.000373 0.022575 -0.000934 0.000000 0.000000 0.000000
# 3 -0.003610 -0.000934 0.010864 0.000000 0.000000 0.000000
# 4 0.000000 0.000000 0.000000 0.040920 0.000000 0.000000
# 5 0.000000 0.000000 0.000000 0.000000 0.039610 0.000000
# 6 0.000000 0.000000 0.000000 0.000000 0.000000 0.030546
#
#
# Mechanical properties :
#
#
# Convention : Reuss Voigt Hill
#
# Bulk Modulus (GPa) = 25.21536 30.01582 27.61559
# Shear Modulus (GPa) = 27.22965 28.66670 27.94818
#
# Velocity S-wave (km/s) = 3.69933 3.79569 3.74782
# Velocity P-wave (km/s) = 5.56052 5.85619 5.71027
#
# Compressibility (1/GPa) = 0.03965837
#
# Stress axis : x y z
#
# Youngs Moduli (GPa) = 62.28895 44.29650 92.04890
#
# Poissons Ratio (x) = 0.01654 0.33233
# Poissons Ratio (y) = 0.02325 0.08595
# Poissons Ratio (z) = 0.22488 0.04136
#
# Static dielectric constant tensor:
#      x y z
#    x 1.743580 0.000000 0.000000 
#    y 0.000000 1.573410 0.000000 
#    z 0.000000 0.000000 1.738620 
# 
# From -- ./inp_files/20800.got.cif
#   From: 2010.05.17/outbox.cif.g08.bks.cpg/sg62_11_cif.got.tgz:20800.got - 2010.06.03 15:25:27.
