data_PCOD9462880
_publ_section_title
;
Structure prediction by ZEFSAII (Michael W. Deem and Ramdas Pophale) SiO2 
 PCOD9462880
Probable space group: P N M A
;
_chemical_formula_sum "Si O2"
_cell_formula_units_Z 48
_cell_length_a 13.371089
_cell_length_b 13.928161
_cell_length_c 15.848797
_cell_angle_alpha 90.000000
_cell_angle_beta 90.000000
_cell_angle_gamma 90.000000
_cell_volume 2951.595643
_symmetry_space_group_name_H-M "P N M A"
_symmetry_group_IT_number 62
_symmetry_cell_setting 'orthorhombic'
loop_
_space_group_symop_operation_xyz
x,y,z
1/2-x,-y,1/2+z
1/2+x,1/2-y,1/2-z
-x,1/2+y,-z
-x,-y,-z
1/2+x,y,1/2-z
1/2-x,1/2+y,1/2+z
x,1/2-y,z
loop_
_atom_site_type_symbol
_atom_site_label
_atom_site_fract_x
_atom_site_fract_y
_atom_site_fract_z
Si Si1 0.385475 0.973301 0.812280
Si Si2 0.928240 0.136168 0.389493
Si Si3 0.913662 0.637182 0.023480
Si Si4 0.178930 0.637570 0.435612
Si Si5 0.680045 0.636151 0.715230
Si Si6 0.993927 0.525744 0.864928
O O1 0.472534 0.921597 0.865812
O O2 0.288336 0.906063 0.804728
O O3 0.429953 0.989880 0.719218
O O4 0.353975 0.070222 0.859390
O O5 0.950779 0.250000 0.390027
O O6 0.880955 0.110500 0.479318
O O7 0.849243 0.120650 0.313487
O O8 0.938852 0.750000 0.025376
O O9 0.796765 0.626814 0.045752
O O10 0.976695 0.573224 0.089151
O O11 0.935940 0.592211 0.931907
O O12 0.159834 0.750000 0.418298
O O13 0.675892 0.750000 0.698775
O O14 0.595267 0.581094 0.661960
#
# Coordination Sequence:
#
# PCOD9462880 Si02
#       6
#     8   8   8   8   8   8
#     4  11  20  33  53  80 108 138 172 215 265 308
#     4   9  19  33  52  78 105 137 171 209 259 312
#     4  10  20  37  58  78 104 140 179 218 265 316
#     4  10  20  35  54  76 105 142 177 208 255 319
#     4  10  19  33  53  79 108 136 173 219 262 308
#     4  10  21  35  55  82 106 137 178 224 263 309
#
# _framework density 16.26239
#
# number of rings (size 3 to 8) (size 9 to 14) (size 15 to 20)
#    0.000    2.000    1.667    2.500    0.000    4.000 
#    0.000    0.000    0.000    0.000    0.000    0.000 
#    0.000    0.000    0.000    0.000    0.000    0.000 
#
# Total GULP energy -267862.930093 kJ/mol
# GULP energy per Si atom -5580.477710 kJ/mol
# Density = 1.622538 g / cm^3
# Si number density = 16.262390 Si / 1000 Ang^3
#
#
#
# Elastic Constant Matrix: (Units=GPa)
#
#
# Indices 1 2 3 4 5 6 
#
# 1 71.7978 58.4247 33.4797 0.0000 0.0000 0.0000
# 2 58.4247 118.3068 75.8587 0.0000 0.0000 0.0000
# 3 33.4797 75.8587 94.5808 0.0000 0.0000 0.0000
# 4 0.0000 0.0000 0.0000 24.5466 0.0000 0.0000
# 5 0.0000 0.0000 0.0000 0.0000 12.1891 0.0000
# 6 0.0000 0.0000 0.0000 0.0000 0.0000 23.9232
#
#
#
# Elastic Compliance Matrix: (Units=1/GPa)
#
#
# Indices 1 2 3 4 5 6 
#
# 1 0.023474 -0.012897 0.002035 0.000000 0.000000 0.000000
# 2 -0.012897 0.024488 -0.015075 0.000000 0.000000 0.000000
# 3 0.002035 -0.015075 0.021944 0.000000 0.000000 0.000000
# 4 0.000000 0.000000 0.000000 0.040739 0.000000 0.000000
# 5 0.000000 0.000000 0.000000 0.000000 0.082041 0.000000
# 6 0.000000 0.000000 0.000000 0.000000 0.000000 0.041800
#
#
# Mechanical properties :
#
#
# Convention : Reuss Voigt Hill
#
# Bulk Modulus (GPa) = 55.46101 68.91237 62.18669
# Shear Modulus (GPa) = 17.10150 19.92660 18.51405
#
# Velocity S-wave (km/s) = 3.24635 3.50425 3.37776
# Velocity P-wave (km/s) = 6.94476 7.67075 7.31676
#
# Compressibility (1/GPa) = 0.01803068
#
# Stress axis : x y z
#
# Youngs Moduli (GPa) = 42.60012 40.83596 45.57067
#
# Poissons Ratio (x) = 0.52667 -0.09273
# Poissons Ratio (y) = 0.54942 0.68700
# Poissons Ratio (z) = -0.08669 0.61562
#
# Static dielectric constant tensor:
#      x y z
#    x 1.524000 0.000000 0.000000 
#    y 0.000000 1.519320 0.000000 
#    z 0.000000 0.000000 1.529380 
# 
# From -- ./inp_files/17962.got.cif
#   From: 2010.05.17/outbox.cif.g08.bks.cpg/sg62_9_cif.got.tgz:17962.got - 2010.06.03 15:25:27.
