data_PCOD9462359
_publ_section_title
;
Structure prediction by ZEFSAII (Michael W. Deem and Ramdas Pophale) SiO2 
 PCOD9462359
Probable space group: P N M A
;
_chemical_formula_sum "Si O2"
_cell_formula_units_Z 64
_cell_length_a 30.928794
_cell_length_b 9.198228
_cell_length_c 14.742979
_cell_angle_alpha 90.000000
_cell_angle_beta 90.000000
_cell_angle_gamma 90.000000
_cell_volume 4194.231555
_symmetry_space_group_name_H-M "P N M A"
_symmetry_group_IT_number 62
_symmetry_cell_setting 'orthorhombic'
loop_
_space_group_symop_operation_xyz
x,y,z
1/2-x,-y,1/2+z
1/2+x,1/2-y,1/2-z
-x,1/2+y,-z
-x,-y,-z
1/2+x,y,1/2-z
1/2-x,1/2+y,1/2+z
x,1/2-y,z
loop_
_atom_site_type_symbol
_atom_site_label
_atom_site_fract_x
_atom_site_fract_y
_atom_site_fract_z
Si Si1 0.364830 0.577713 0.174563
Si Si2 0.042438 0.077451 0.606152
Si Si3 0.682425 0.917511 0.987897
Si Si4 0.212046 0.573252 0.214012
Si Si5 0.047045 0.077096 0.392891
Si Si6 0.227917 0.924090 0.006275
Si Si7 0.129419 0.581230 0.326483
Si Si8 0.202622 0.076523 0.829502
O O1 0.359237 0.750000 0.152155
O O2 0.415805 0.546912 0.167842
O O3 0.339768 0.552778 0.268247
O O4 0.341481 0.482100 0.098816
O O5 0.033170 0.250000 0.610088
O O6 0.053896 0.043519 0.500628
O O7 0.999581 0.989544 0.630556
O O8 0.695675 0.750000 0.973794
O O9 0.651217 0.921704 0.074270
O O10 0.723837 0.015745 0.007256
O O11 0.212176 0.750000 0.217795
O O12 0.167169 0.525398 0.259737
O O13 0.254830 0.529194 0.271011
O O14 0.215041 0.531600 0.108669
O O15 0.046778 0.250000 0.383503
O O16 0.085483 0.008184 0.334571
O O17 0.226860 0.750000 0.001309
O O18 0.201074 0.994069 0.924575
O O19 0.120023 0.750000 0.304002
O O20 0.207190 0.250000 0.845206
#
# Coordination Sequence:
#
# PCOD9462359 Si02
#       8
#     8   8   8   8   8   8   8   8
#     4  10  19  33  51  70  98 135 167 198 239 288
#     4   9  18  31  47  69  97 130 162 190 234 295
#     4  11  20  29  47  72  99 130 167 204 241 281
#     4   9  18  33  50  67  94 132 165 196 240 288
#     4  10  19  30  47  71  98 125 157 200 242 282
#     4  11  21  34  50  69  97 132 169 206 243 285
#     4  10  19  32  48  67  94 132 167 196 236 288
#     4  10  19  34  51  70  98 130 164 202 243 284
#
# _framework density 15.259053
#
# number of rings (size 3 to 8) (size 9 to 14) (size 15 to 20)
#    0.000    2.000    3.750    1.125    0.000    2.000 
#    0.000    1.250    0.000    0.000    0.000    0.875 
#    0.000    0.000    0.000    0.000    0.000    0.000 
#
# Total GULP energy -356846.496942 kJ/mol
# GULP energy per Si atom -5575.726515 kJ/mol
# Density = 1.522432 g / cm^3
# Si number density = 15.259053 Si / 1000 Ang^3
#
#
#
# Elastic Constant Matrix: (Units=GPa)
#
#
# Indices 1 2 3 4 5 6 
#
# 1 95.2128 33.8098 24.4655 0.0000 0.0000 0.0000
# 2 33.8098 35.7954 25.3422 0.0000 0.0000 0.0000
# 3 24.4655 25.3422 61.8070 0.0000 0.0000 0.0000
# 4 0.0000 0.0000 0.0000 22.4884 0.0000 0.0000
# 5 0.0000 0.0000 0.0000 0.0000 21.6284 0.0000
# 6 0.0000 0.0000 0.0000 0.0000 0.0000 22.3840
#
#
#
# Elastic Compliance Matrix: (Units=1/GPa)
#
#
# Indices 1 2 3 4 5 6 
#
# 1 0.015805 -0.014793 -0.000191 0.000000 0.000000 0.000000
# 2 -0.014793 0.053209 -0.015961 0.000000 0.000000 0.000000
# 3 -0.000191 -0.015961 0.022799 0.000000 0.000000 0.000000
# 4 0.000000 0.000000 0.000000 0.044467 0.000000 0.000000
# 5 0.000000 0.000000 0.000000 0.000000 0.046235 0.000000
# 6 0.000000 0.000000 0.000000 0.000000 0.000000 0.044675
#
#
# Mechanical properties :
#
#
# Convention : Reuss Voigt Hill
#
# Bulk Modulus (GPa) = 33.41877 40.00561 36.71219
# Shear Modulus (GPa) = 16.71932 20.58002 18.64967
#
# Velocity S-wave (km/s) = 3.31372 3.67646 3.49980
# Velocity P-wave (km/s) = 6.04893 6.65555 6.35948
#
# Compressibility (1/GPa) = 0.02992330
#
# Stress axis : x y z
#
# Youngs Moduli (GPa) = 63.27204 18.79373 43.86097
#
# Poissons Ratio (x) = 0.27802 0.00836
# Poissons Ratio (y) = 0.93599 0.70008
# Poissons Ratio (z) = 0.01206 0.29997
#
# Static dielectric constant tensor:
#      x y z
#    x 1.507310 0.000000 0.000000 
#    y 0.000000 1.510050 0.000000 
#    z 0.000000 0.000000 1.504160 
# 
# From -- ./inp_files/21236.got.cif
#   From: 2010.05.17/outbox.cif.g08.bks.cpg/sg62_11_cif.got.tgz:21236.got - 2010.06.03 15:25:27.
