data_PCOD9462252
_publ_section_title
;
Structure prediction by ZEFSAII (Michael W. Deem and Ramdas Pophale) SiO2 
 PCOD9462252
Probable space group: P N M A
;
_chemical_formula_sum "Si O2"
_cell_formula_units_Z 48
_cell_length_a 16.566158
_cell_length_b 13.992562
_cell_length_c 9.881560
_cell_angle_alpha 90.000000
_cell_angle_beta 90.000000
_cell_angle_gamma 90.000000
_cell_volume 2290.575183
_symmetry_space_group_name_H-M "P N M A"
_symmetry_group_IT_number 62
_symmetry_cell_setting 'orthorhombic'
loop_
_space_group_symop_operation_xyz
x,y,z
1/2-x,-y,1/2+z
1/2+x,1/2-y,1/2-z
-x,1/2+y,-z
-x,-y,-z
1/2+x,y,1/2-z
1/2-x,1/2+y,1/2+z
x,1/2-y,z
loop_
_atom_site_type_symbol
_atom_site_label
_atom_site_fract_x
_atom_site_fract_y
_atom_site_fract_z
Si Si1 0.239704 0.943379 0.454708
Si Si2 0.371712 0.750000 0.719428
Si Si3 0.566008 0.250000 0.995519
Si Si4 0.582510 0.031392 0.922856
Si Si5 0.664504 0.250000 0.574406
Si Si6 0.003251 0.250000 0.777834
Si Si7 0.992456 0.461730 0.846613
Si Si8 0.673934 0.457594 0.292940
O O1 0.276332 0.839383 0.431749
O O2 0.303440 0.989174 0.556818
O O3 0.153815 0.961207 0.528595
O O4 0.229909 0.990338 0.311240
O O5 0.437115 0.750000 0.840139
O O6 0.393821 0.750000 0.559918
O O7 0.318734 0.845025 0.730529
O O8 0.602018 0.142875 0.963342
O O9 0.492616 0.250000 0.885696
O O10 0.565779 0.027228 0.760943
O O11 0.500000 0.000000 0.000000
O O12 0.600439 0.250000 0.695122
O O13 0.972624 0.348532 0.841037
O O14 0.919207 0.517769 0.777189
O O15 0.000000 0.500000 0.000000
#
# Coordination Sequence:
#
# PCOD9462252 Si02
#       8
#     8   4   4   8   4   4   8   8
#     4  11  24  40  64  93 130 173 220 272 333 402
#     4  10  18  40  60  91 122 170 208 261 331 381
#     4  10  20  35  63  90 123 161 216 264 319 393
#     4  11  22  41  63  95 126 174 218 271 329 388
#     4  10  24  40  62  94 135 169 213 270 340 397
#     4  10  24  41  67  95 130 176 217 275 344 395
#     4  11  23  42  66  93 130 172 224 271 333 400
#     4  11  24  40  66  94 132 173 218 276 329 403
#
# _framework density 20.955435000000001
#
# number of rings (size 3 to 8) (size 9 to 14) (size 15 to 20)
#    0.000    1.333    3.333    2.000    7.000    1.333 
#    0.000    3.333    0.000    0.000    0.000    0.000 
#    0.000    0.000    0.000    0.000    0.000    0.000 
#
# Total GULP energy -267366.777592 kJ/mol
# GULP energy per Si atom -5570.141200 kJ/mol
# Density = 2.090774 g / cm^3
# Si number density = 20.955435 Si / 1000 Ang^3
#
#
#
# Elastic Constant Matrix: (Units=GPa)
#
#
# Indices 1 2 3 4 5 6 
#
# 1 62.9387 24.6400 2.0537 0.0000 0.0000 0.0000
# 2 24.6400 111.3577 55.5226 0.0000 0.0000 0.0000
# 3 2.0537 55.5226 110.6694 0.0000 0.0000 0.0000
# 4 0.0000 0.0000 0.0000 30.8881 0.0000 0.0000
# 5 0.0000 0.0000 0.0000 0.0000 38.9111 0.0000
# 6 0.0000 0.0000 0.0000 0.0000 0.0000 8.8440
#
#
#
# Elastic Compliance Matrix: (Units=1/GPa)
#
#
# Indices 1 2 3 4 5 6 
#
# 1 0.017786 -0.005029 0.002193 0.000000 0.000000 0.000000
# 2 -0.005029 0.013398 -0.006628 0.000000 0.000000 0.000000
# 3 0.002193 -0.006628 0.012321 0.000000 0.000000 0.000000
# 4 0.000000 0.000000 0.000000 0.032375 0.000000 0.000000
# 5 0.000000 0.000000 0.000000 0.000000 0.025700 0.000000
# 6 0.000000 0.000000 0.000000 0.000000 0.000000 0.113070
#
#
# Mechanical properties :
#
#
# Convention : Reuss Voigt Hill
#
# Bulk Modulus (GPa) = 40.69078 49.93316 45.31197
# Shear Modulus (GPa) = 20.68090 29.24528 24.96309
#
# Velocity S-wave (km/s) = 3.14490 3.73982 3.45519
# Velocity P-wave (km/s) = 5.71377 6.52137 6.13088
#
# Compressibility (1/GPa) = 0.02457559
#
# Stress axis : x y z
#
# Youngs Moduli (GPa) = 56.22507 74.64018 81.16486
#
# Poissons Ratio (x) = 0.37535 -0.17798
# Poissons Ratio (y) = 0.28274 0.53798
# Poissons Ratio (z) = -0.12329 0.49473
#
# Static dielectric constant tensor:
#      x y z
#    x 1.744150 0.000000 0.000000 
#    y 0.000000 1.679390 0.000000 
#    z 0.000000 0.000000 1.826310 
# 
# From -- ./inp_files/7738.got.cif
#   From: 2010.05.17/outbox.cif.g08.bks.cpg/sg62_4_cif.got.tgz:7738.got - 2010.06.03 15:25:27.
