data_PCOD9462824
_publ_section_title
;
Structure prediction by ZEFSAII (Michael W. Deem and Ramdas Pophale) SiO2 
 PCOD9462824
Probable space group: P N M A
;
_chemical_formula_sum "Si O2"
_cell_formula_units_Z 64
_cell_length_a 5.307865
_cell_length_b 22.076438
_cell_length_c 31.419085
_cell_angle_alpha 90.000000
_cell_angle_beta 90.000000
_cell_angle_gamma 90.000000
_cell_volume 3681.649188
_symmetry_space_group_name_H-M "P N M A"
_symmetry_group_IT_number 62
_symmetry_cell_setting 'orthorhombic'
loop_
_space_group_symop_operation_xyz
x,y,z
1/2-x,-y,1/2+z
1/2+x,1/2-y,1/2-z
-x,1/2+y,-z
-x,-y,-z
1/2+x,y,1/2-z
1/2-x,1/2+y,1/2+z
x,1/2-y,z
loop_
_atom_site_type_symbol
_atom_site_label
_atom_site_fract_x
_atom_site_fract_y
_atom_site_fract_z
Si Si1 0.024028 0.998538 0.571961
Si Si2 0.063420 0.656203 0.109621
Si Si3 0.967854 0.643520 0.261601
Si Si4 0.546415 0.101793 0.999162
Si Si5 0.033647 0.491533 0.774186
Si Si6 0.957078 0.820771 0.011784
Si Si7 0.488425 0.514149 0.375123
Si Si8 0.558839 0.684228 0.154217
O O1 0.980068 0.946295 0.537214
O O2 0.276422 0.985579 0.599114
O O3 0.780208 0.002234 0.602409
O O4 0.051735 0.061166 0.544418
O O5 0.984804 0.675135 0.062704
O O6 0.349020 0.676530 0.118097
O O7 0.042288 0.585206 0.118462
O O8 0.845840 0.682259 0.139931
O O9 0.712172 0.677113 0.253744
O O10 0.962305 0.581386 0.234658
O O11 0.000526 0.632392 0.311513
O O12 0.801487 0.140701 0.003985
O O13 0.303885 0.145555 0.999065
O O14 0.787929 0.514247 0.748661
O O15 0.019108 0.501207 0.824844
O O16 0.960365 0.750000 0.998923
O O17 0.511019 0.750000 0.173865
#
# Coordination Sequence:
#
# PCOD9462824 Si02
#       8
#     8   8   8   8   8   8   8   8
#     4  11  22  38  61  83 107 142 184 239 282 328
#     4  12  22  37  51  76 101 131 177 233 278 326
#     4  10  20  35  47  63  82 121 160 218 276 318
#     4  11  22  41  57  84 115 139 182 233 285 323
#     4  10  19  33  50  73 101 135 173 231 275 335
#     4  12  23  38  57  82 114 149 180 218 284 343
#     4  12  21  36  58  81 102 140 191 226 294 329
#     4  12  24  36  50  66  93 133 180 233 282 326
#
# _framework density 17.383513000000001
#
# number of rings (size 3 to 8) (size 9 to 14) (size 15 to 20)
#    0.000    0.750    2.500    8.250    0.000    2.500 
#    0.000    0.000    0.000    0.000    0.000    0.000 
#    0.000    0.000    0.000    0.000    0.000  157.500 
#
# Total GULP energy -357286.209524 kJ/mol
# GULP energy per Si atom -5582.597024 kJ/mol
# Density = 1.734395 g / cm^3
# Si number density = 17.383513 Si / 1000 Ang^3
#
#
#
# Elastic Constant Matrix: (Units=GPa)
#
#
# Indices 1 2 3 4 5 6 
#
# 1 86.2740 3.8756 11.1878 0.0000 0.0000 0.0000
# 2 3.8756 46.3995 10.7500 0.0000 0.0000 0.0000
# 3 11.1878 10.7500 79.2300 0.0000 0.0000 0.0000
# 4 0.0000 0.0000 0.0000 29.1675 0.0000 0.0000
# 5 0.0000 0.0000 0.0000 0.0000 32.3084 0.0000
# 6 0.0000 0.0000 0.0000 0.0000 0.0000 9.9965
#
#
#
# Elastic Compliance Matrix: (Units=1/GPa)
#
#
# Indices 1 2 3 4 5 6 
#
# 1 0.011824 -0.000620 -0.001586 0.000000 0.000000 0.000000
# 2 -0.000620 0.022284 -0.002936 0.000000 0.000000 0.000000
# 3 -0.001586 -0.002936 0.013244 0.000000 0.000000 0.000000
# 4 0.000000 0.000000 0.000000 0.034285 0.000000 0.000000
# 5 0.000000 0.000000 0.000000 0.000000 0.030952 0.000000
# 6 0.000000 0.000000 0.000000 0.000000 0.000000 0.100035
#
#
# Mechanical properties :
#
#
# Convention : Reuss Voigt Hill
#
# Bulk Modulus (GPa) = 26.97699 29.28113 28.12906
# Shear Modulus (GPa) = 21.25276 26.70049 23.97662
#
# Velocity S-wave (km/s) = 3.50034 3.92339 3.71789
# Velocity P-wave (km/s) = 5.64702 6.11594 5.88616
#
# Compressibility (1/GPa) = 0.03706863
#
# Stress axis : x y z
#
# Youngs Moduli (GPa) = 84.57055 44.87530 75.50754
#
# Poissons Ratio (x) = 0.02784 0.11972
# Poissons Ratio (y) = 0.05246 0.22168
# Poissons Ratio (z) = 0.13409 0.13175
#
# Static dielectric constant tensor:
#      x y z
#    x 1.672540 0.000000 0.000000 
#    y 0.000000 1.705860 0.000000 
#    z 0.000000 0.000000 1.627620 
# 
# From -- ./inp_files/30545.got.cif
#   From: 2010.05.17/outbox.cif.g08.bks.cpg/sg62_16_cif.got.tgz:30545.got - 2010.06.03 15:25:27.
