data_PCOD9462202
_publ_section_title
;
Structure prediction by ZEFSAII (Michael W. Deem and Ramdas Pophale) SiO2 
 PCOD9462202
Probable space group: P N M A
;
_chemical_formula_sum "Si O2"
_cell_formula_units_Z 48
_cell_length_a 18.452166
_cell_length_b 11.554065
_cell_length_c 12.489343
_cell_angle_alpha 90.000000
_cell_angle_beta 90.000000
_cell_angle_gamma 90.000000
_cell_volume 2662.697021
_symmetry_space_group_name_H-M "P N M A"
_symmetry_group_IT_number 62
_symmetry_cell_setting 'orthorhombic'
loop_
_space_group_symop_operation_xyz
x,y,z
1/2-x,-y,1/2+z
1/2+x,1/2-y,1/2-z
-x,1/2+y,-z
-x,-y,-z
1/2+x,y,1/2-z
1/2-x,1/2+y,1/2+z
x,1/2-y,z
loop_
_atom_site_type_symbol
_atom_site_label
_atom_site_fract_x
_atom_site_fract_y
_atom_site_fract_z
Si Si1 0.162076 0.023928 0.529155
Si Si2 0.110180 0.250000 0.151076
Si Si3 0.469466 0.250000 0.242911
Si Si4 0.874893 0.113914 0.674516
Si Si5 0.668076 0.250000 0.103817
Si Si6 0.200862 0.750000 0.768736
Si Si7 0.290998 0.952434 0.656437
Si Si8 0.018893 0.992689 0.626057
O O1 0.146303 0.136297 0.458454
O O2 0.149515 0.917093 0.447413
O O3 0.243593 0.022161 0.571659
O O4 0.103706 0.024983 0.625061
O O5 0.133789 0.250000 0.277732
O O6 0.147656 0.133354 0.108549
O O7 0.023999 0.250000 0.156240
O O8 0.384977 0.250000 0.272858
O O9 0.485882 0.135647 0.173595
O O10 0.867422 0.250000 0.694485
O O11 0.827562 0.035090 0.755218
O O12 0.958894 0.072802 0.682114
O O13 0.754739 0.250000 0.120857
O O14 0.232360 0.863114 0.708026
O O15 0.000000 0.000000 0.500000
#
# Coordination Sequence:
#
# PCOD9462202 Si02
#       8
#     8   4   4   8   4   4   8   8
#     4  11  21  35  57  80 109 146 186 220 281 333
#     4  10  18  36  56  75 113 140 180 234 268 317
#     4  12  18  36  56  79 107 148 185 225 269 330
#     4  11  23  36  50  79 122 145 172 229 284 329
#     4  10  20  38  56  79 115 146 174 242 271 319
#     4  10  20  36  58  77 109 142 193 223 264 326
#     4  10  20  35  51  82 108 145 184 224 271 330
#     4  10  22  30  50  83 111 139 171 219 281 340
#
# _framework density 18.026834999999998
#
# number of rings (size 3 to 8) (size 9 to 14) (size 15 to 20)
#    0.000    1.667    6.667    1.000    9.333    0.000 
#    0.000    0.000    0.000    1.000    0.000    0.000 
#    0.000    0.000    0.000    0.000    0.000    0.000 
#
# Total GULP energy -267473.805703 kJ/mol
# GULP energy per Si atom -5572.370952 kJ/mol
# Density = 1.798581 g / cm^3
# Si number density = 18.026835 Si / 1000 Ang^3
#
#
#
# Elastic Constant Matrix: (Units=GPa)
#
#
# Indices 1 2 3 4 5 6 
#
# 1 95.0600 19.8878 1.6305 0.0000 0.0000 0.0000
# 2 19.8878 88.7908 6.0276 0.0000 0.0000 0.0000
# 3 1.6305 6.0276 11.0153 0.0000 0.0000 0.0000
# 4 0.0000 0.0000 0.0000 15.5440 0.0000 0.0000
# 5 0.0000 0.0000 0.0000 0.0000 34.2234 0.0000
# 6 0.0000 0.0000 0.0000 0.0000 0.0000 25.5776
#
#
#
# Elastic Compliance Matrix: (Units=1/GPa)
#
#
# Indices 1 2 3 4 5 6 
#
# 1 0.011038 -0.002452 -0.000292 0.000000 0.000000 0.000000
# 2 -0.002452 0.012242 -0.006336 0.000000 0.000000 0.000000
# 3 -0.000292 -0.006336 0.094293 0.000000 0.000000 0.000000
# 4 0.000000 0.000000 0.000000 0.064334 0.000000 0.000000
# 5 0.000000 0.000000 0.000000 0.000000 0.029220 0.000000
# 6 0.000000 0.000000 0.000000 0.000000 0.000000 0.039097
#
#
# Mechanical properties :
#
#
# Convention : Reuss Voigt Hill
#
# Bulk Modulus (GPa) = 10.05910 27.77310 18.91610
# Shear Modulus (GPa) = 16.58263 26.22368 21.40316
#
# Velocity S-wave (km/s) = 3.03625 3.81819 3.44945
# Velocity P-wave (km/s) = 4.22894 5.90577 5.13625
#
# Compressibility (1/GPa) = 0.09941250
#
# Stress axis : x y z
#
# Youngs Moduli (GPa) = 90.59805 81.68693 10.60524
#
# Poissons Ratio (x) = 0.20034 0.00309
# Poissons Ratio (y) = 0.22219 0.06719
# Poissons Ratio (z) = 0.02643 0.51755
#
# Static dielectric constant tensor:
#      x y z
#    x 1.711330 0.000000 0.000000 
#    y 0.000000 1.662250 0.000000 
#    z 0.000000 0.000000 1.609480 
# 
# From -- ./inp_files/19774.got.cif
#   From: 2010.05.17/outbox.cif.g08.bks.cpg/sg62_10_cif.got.tgz:19774.got - 2010.06.03 15:25:27.
