data_PCOD9463108
_publ_section_title
;
Structure prediction by ZEFSAII (Michael W. Deem and Ramdas Pophale) SiO2 
 PCOD9463108
Probable space group: P N M A
;
_chemical_formula_sum "Si O2"
_cell_formula_units_Z 56
_cell_length_a 18.349046
_cell_length_b 11.683117
_cell_length_c 12.265366
_cell_angle_alpha 90.000000
_cell_angle_beta 90.000000
_cell_angle_gamma 90.000000
_cell_volume 2629.376200
_symmetry_space_group_name_H-M "P N M A"
_symmetry_group_IT_number 62
_symmetry_cell_setting 'orthorhombic'
loop_
_space_group_symop_operation_xyz
x,y,z
1/2-x,-y,1/2+z
1/2+x,1/2-y,1/2-z
-x,1/2+y,-z
-x,-y,-z
1/2+x,y,1/2-z
1/2-x,1/2+y,1/2+z
x,1/2-y,z
loop_
_atom_site_type_symbol
_atom_site_label
_atom_site_fract_x
_atom_site_fract_y
_atom_site_fract_z
Si Si1 0.890496 0.969822 0.061873
Si Si2 0.853309 0.121631 0.656918
Si Si3 0.519053 0.383103 0.922641
Si Si4 0.202164 0.880189 0.100173
Si Si5 0.894381 0.884801 0.635803
Si Si6 0.653219 0.111995 0.788863
Si Si7 0.524735 0.123450 0.366443
O O1 0.845749 0.919912 0.162466
O O2 0.923017 0.883608 0.971995
O O3 0.960821 0.033469 0.112724
O O4 0.840701 0.053566 0.991507
O O5 0.823920 0.250000 0.620983
O O6 0.843647 0.122719 0.787054
O O7 0.937304 0.120463 0.620205
O O8 0.835227 0.988410 0.622205
O O9 0.540020 0.250000 0.918250
O O10 0.579335 0.435891 0.842677
O O11 0.540554 0.409825 0.047798
O O12 0.213697 0.750000 0.063737
O O13 0.279171 0.931071 0.139532
O O14 0.870908 0.750000 0.622724
O O15 0.928897 0.894996 0.756450
O O16 0.658628 0.250000 0.790698
O O17 0.491971 0.250000 0.358785
#
# Coordination Sequence:
#
# PCOD9463108 Si02
#       7
#     8   8   8   8   8   8   8
#     4  11  21  37  60  85 119 159 201 250 314 363
#     4  10  19  34  56  84 113 152 201 248 299 363
#     4   9  19  34  57  84 115 156 203 250 304 358
#     4  10  22  39  57  82 120 160 205 250 307 368
#     4  10  19  34  54  86 122 151 191 250 308 358
#     4  10  22  39  59  87 119 160 206 252 300 374
#     4  10  21  35  58  91 122 153 200 259 314 364
#
# _framework density 21.297827000000002
#
# number of rings (size 3 to 8) (size 9 to 14) (size 15 to 20)
#    0.000    2.000    1.429    2.143    2.000    1.143 
#    0.000    0.000    0.000    4.286    0.000    0.000 
#    0.000    0.000    0.000    0.000    0.000    0.000 
#
# Total GULP energy -311815.803342 kJ/mol
# GULP energy per Si atom -5568.139345 kJ/mol
# Density = 2.124935 g / cm^3
# Si number density = 21.297827 Si / 1000 Ang^3
#
#
#
# Elastic Constant Matrix: (Units=GPa)
#
#
# Indices 1 2 3 4 5 6 
#
# 1 27.9949 7.3391 9.1041 0.0000 0.0000 0.0000
# 2 7.3391 82.3079 3.8901 0.0000 0.0000 0.0000
# 3 9.1041 3.8901 79.7316 0.0000 0.0000 0.0000
# 4 0.0000 0.0000 0.0000 33.5039 0.0000 0.0000
# 5 0.0000 0.0000 0.0000 0.0000 23.2979 0.0000
# 6 0.0000 0.0000 0.0000 0.0000 0.0000 9.0809
#
#
#
# Elastic Compliance Matrix: (Units=1/GPa)
#
#
# Indices 1 2 3 4 5 6 
#
# 1 0.037913 -0.003183 -0.004174 0.000000 0.000000 0.000000
# 2 -0.003183 0.012445 -0.000244 0.000000 0.000000 0.000000
# 3 -0.004174 -0.000244 0.013031 0.000000 0.000000 0.000000
# 4 0.000000 0.000000 0.000000 0.029847 0.000000 0.000000
# 5 0.000000 0.000000 0.000000 0.000000 0.042922 0.000000
# 6 0.000000 0.000000 0.000000 0.000000 0.000000 0.110121
#
#
# Mechanical properties :
#
#
# Convention : Reuss Voigt Hill
#
# Bulk Modulus (GPa) = 20.75263 25.63343 23.19303
# Shear Modulus (GPa) = 18.01531 24.48998 21.25264
#
# Velocity S-wave (km/s) = 2.91155 3.39467 3.16235
# Velocity P-wave (km/s) = 4.58999 5.23707 4.92417
#
# Compressibility (1/GPa) = 0.04818666
#
# Stress axis : x y z
#
# Youngs Moduli (GPa) = 26.37647 80.35451 76.74281
#
# Poissons Ratio (x) = 0.25579 0.32030
# Poissons Ratio (y) = 0.08396 0.01870
# Poissons Ratio (z) = 0.11009 0.01958
#
# Static dielectric constant tensor:
#      x y z
#    x 1.792220 0.000000 0.000000 
#    y 0.000000 1.891130 0.000000 
#    z 0.000000 0.000000 1.760020 
# 
# From -- ./inp_files/14791.got.cif
#   From: 2010.05.17/outbox.cif.g08.bks.cpg/sg62_8_cif.got.tgz:14791.got - 2010.06.03 15:25:27.
