data_PCOD9463661
_publ_section_title
;
Structure prediction by ZEFSAII (Michael W. Deem and Ramdas Pophale) SiO2 
 PCOD9463661
Probable space group: P N M A
;
_chemical_formula_sum "Si O2"
_cell_formula_units_Z 64
_cell_length_a 25.008539
_cell_length_b 7.878955
_cell_length_c 14.825789
_cell_angle_alpha 90.000000
_cell_angle_beta 90.000000
_cell_angle_gamma 90.000000
_cell_volume 2921.290565
_symmetry_space_group_name_H-M "P N M A"
_symmetry_group_IT_number 62
_symmetry_cell_setting 'orthorhombic'
loop_
_space_group_symop_operation_xyz
x,y,z
1/2-x,-y,1/2+z
1/2+x,1/2-y,1/2-z
-x,1/2+y,-z
-x,-y,-z
1/2+x,y,1/2-z
1/2-x,1/2+y,1/2+z
x,1/2-y,z
loop_
_atom_site_type_symbol
_atom_site_label
_atom_site_fract_x
_atom_site_fract_y
_atom_site_fract_z
Si Si1 0.761153 0.449595 0.585244
Si Si2 0.393424 0.042401 0.220148
Si Si3 0.862093 0.456360 0.080626
Si Si4 0.949301 0.454208 0.940863
Si Si5 0.570060 0.553707 0.246780
Si Si6 0.212966 0.957265 0.612676
Si Si7 0.689179 0.054724 0.268996
Si Si8 0.492355 0.444858 0.102478
O O1 0.773001 0.250000 0.597766
O O2 0.697686 0.474353 0.577115
O O3 0.787800 0.507718 0.491661
O O4 0.781969 0.546508 0.672356
O O5 0.394181 0.250000 0.221787
O O6 0.389809 0.990542 0.324922
O O7 0.338853 0.990212 0.169331
O O8 0.444476 0.977750 0.163565
O O9 0.859442 0.250000 0.080107
O O10 0.896969 0.512955 0.995126
O O11 0.945374 0.250000 0.933965
O O12 0.954014 0.520585 0.839299
O O13 0.000000 0.500000 0.000000
O O14 0.554948 0.750000 0.237268
O O15 0.633423 0.540415 0.259952
O O16 0.546665 0.464743 0.159142
O O17 0.214272 0.750000 0.615200
O O18 0.267918 0.015628 0.659634
O O19 0.677275 0.250000 0.292435
O O20 0.477545 0.250000 0.095961
O O21 0.500000 0.500000 0.000000
#
# Coordination Sequence:
#
# PCOD9463661 Si02
#       8
#     8   8   8   8   8   8   8   8
#     4  11  22  35  57  89 121 155 195 244 307 367
#     4   9  18  36  62  86 114 156 200 247 298 361
#     4  10  19  37  62  87 118 157 202 245 297 363
#     4  10  22  38  62  93 124 160 202 256 313 368
#     4  11  24  42  61  88 129 165 202 257 313 367
#     4   9  19  36  59  87 119 158 196 240 302 367
#     4  11  22  40  64  89 120 159 205 250 299 368
#     4  11  24  42  66  92 120 162 213 259 312 369
#
# _framework density 21.908124000000001
#
# number of rings (size 3 to 8) (size 9 to 14) (size 15 to 20)
#    0.000    1.750    1.250    3.000    1.750    2.500 
#    0.000    3.125    0.000    0.000    0.000    0.000 
#    0.000    0.000    0.000    0.000    0.000    0.000 
#
# Total GULP energy -357752.580720 kJ/mol
# GULP energy per Si atom -5589.884074 kJ/mol
# Density = 2.185826 g / cm^3
# Si number density = 21.908124 Si / 1000 Ang^3
#
#
#
# Elastic Constant Matrix: (Units=GPa)
#
#
# Indices 1 2 3 4 5 6 
#
# 1 43.8048 -6.0710 -16.0128 0.0000 0.0000 0.0000
# 2 -6.0710 26.5015 11.5938 0.0000 0.0000 0.0000
# 3 -16.0128 11.5938 82.1787 0.0000 0.0000 0.0000
# 4 0.0000 0.0000 0.0000 11.4543 0.0000 0.0000
# 5 0.0000 0.0000 0.0000 0.0000 36.5672 0.0000
# 6 0.0000 0.0000 0.0000 0.0000 0.0000 21.5478
#
#
#
# Elastic Compliance Matrix: (Units=1/GPa)
#
#
# Indices 1 2 3 4 5 6 
#
# 1 0.024937 0.003823 0.004320 0.000000 0.000000 0.000000
# 2 0.003823 0.040802 -0.005011 0.000000 0.000000 0.000000
# 3 0.004320 -0.005011 0.013717 0.000000 0.000000 0.000000
# 4 0.000000 0.000000 0.000000 0.087304 0.000000 0.000000
# 5 0.000000 0.000000 0.000000 0.000000 0.027347 0.000000
# 6 0.000000 0.000000 0.000000 0.000000 0.000000 0.046409
#
#
# Mechanical properties :
#
#
# Convention : Reuss Voigt Hill
#
# Bulk Modulus (GPa) = 11.66598 14.61167 13.13882
# Shear Modulus (GPa) = 19.02396 24.77883 21.90139
#
# Velocity S-wave (km/s) = 2.94998 3.36673 3.16522
# Velocity P-wave (km/s) = 4.11578 4.66875 4.40096
#
# Compressibility (1/GPa) = 0.08571932
#
# Stress axis : x y z
#
# Youngs Moduli (GPa) = 40.10026 24.50866 72.90035
#
# Poissons Ratio (x) = -0.09369 -0.31492
# Poissons Ratio (y) = -0.15330 0.36534
# Poissons Ratio (z) = -0.17323 0.12282
#
# Static dielectric constant tensor:
#      x y z
#    x 1.700880 0.000000 0.000000 
#    y 0.000000 1.785790 0.000000 
#    z 0.000000 0.000000 1.805510 
# 
# From -- ./inp_files/20952.got.cif
#   From: 2010.05.17/outbox.cif.g08.bks.cpg/sg62_11_cif.got.tgz:20952.got - 2010.06.03 15:25:27.
