data_PCOD9463428
_publ_section_title
;
Structure prediction by ZEFSAII (Michael W. Deem and Ramdas Pophale) SiO2 
 PCOD9463428
Probable space group: P N M A
;
_chemical_formula_sum "Si O2"
_cell_formula_units_Z 64
_cell_length_a 23.974380
_cell_length_b 7.991327
_cell_length_c 15.894290
_cell_angle_alpha 90.000000
_cell_angle_beta 90.000000
_cell_angle_gamma 90.000000
_cell_volume 3045.141090
_symmetry_space_group_name_H-M "P N M A"
_symmetry_group_IT_number 62
_symmetry_cell_setting 'orthorhombic'
loop_
_space_group_symop_operation_xyz
x,y,z
1/2-x,-y,1/2+z
1/2+x,1/2-y,1/2-z
-x,1/2+y,-z
-x,-y,-z
1/2+x,y,1/2-z
1/2-x,1/2+y,1/2+z
x,1/2-y,z
loop_
_atom_site_type_symbol
_atom_site_label
_atom_site_fract_x
_atom_site_fract_y
_atom_site_fract_z
Si Si1 0.550897 0.047823 0.561321
Si Si2 0.617816 0.055894 0.140680
Si Si3 0.330901 0.545972 0.514637
Si Si4 0.207141 0.554033 0.489694
Si Si5 0.312812 0.553101 0.179164
Si Si6 0.069948 0.045055 0.751026
Si Si7 0.192428 0.452066 0.205168
Si Si8 0.999998 0.562169 0.404999
O O1 0.552444 0.250000 0.562207
O O2 0.611456 0.989518 0.526868
O O3 0.546605 0.989116 0.658459
O O4 0.500000 0.000000 0.500000
O O5 0.600745 0.250000 0.149252
O O6 0.648745 0.998516 0.224577
O O7 0.662152 0.040880 0.065655
O O8 0.563624 0.948485 0.123454
O O9 0.330671 0.750000 0.511792
O O10 0.270999 0.493610 0.476677
O O11 0.327312 0.495773 0.612475
O O12 0.204530 0.750000 0.467679
O O13 0.192193 0.535161 0.588404
O O14 0.319465 0.750000 0.162109
O O15 0.365538 0.499568 0.234679
O O16 0.253657 0.522497 0.223056
O O17 0.066720 0.250000 0.752886
O O18 0.036331 0.980849 0.669418
O O19 0.196652 0.250000 0.205463
O O20 0.978393 0.750000 0.410532
O O21 0.000000 0.500000 0.500000
#
# Coordination Sequence:
#
# PCOD9463428 Si02
#       8
#     8   8   8   8   8   8   8   8
#     4  10  21  39  60  83 112 150 194 242 289 345
#     4  11  23  37  57  85 120 154 195 247 294 349
#     4   8  17  35  59  80 109 150 190 229 286 351
#     4  10  20  36  59  87 117 153 192 237 296 363
#     4  10  19  35  60  87 116 152 193 238 295 354
#     4   9  21  38  59  86 119 153 193 243 292 346
#     4   9  20  37  55  82 118 154 189 238 291 347
#     4  11  23  41  62  87 119 158 201 248 304 363
#
# _framework density 21.017087
#
# number of rings (size 3 to 8) (size 9 to 14) (size 15 to 20)
#    0.000    2.250    0.000    3.000    3.500    2.000 
#    0.000    6.875    0.000    0.000    0.000    0.000 
#    0.000    0.000    0.000    0.000    0.000    0.000 
#
# Total GULP energy -357286.305673 kJ/mol
# GULP energy per Si atom -5582.598526 kJ/mol
# Density = 2.096925 g / cm^3
# Si number density = 21.017087 Si / 1000 Ang^3
#
#
#
# Elastic Constant Matrix: (Units=GPa)
#
#
# Indices 1 2 3 4 5 6 
#
# 1 102.8947 4.2592 60.5218 0.0000 0.0000 0.0000
# 2 4.2592 20.6596 8.9738 0.0000 0.0000 0.0000
# 3 60.5218 8.9738 110.3583 0.0000 0.0000 0.0000
# 4 0.0000 0.0000 0.0000 18.6508 0.0000 0.0000
# 5 0.0000 0.0000 0.0000 0.0000 33.7104 0.0000
# 6 0.0000 0.0000 0.0000 0.0000 0.0000 20.6110
#
#
#
# Elastic Compliance Matrix: (Units=1/GPa)
#
#
# Indices 1 2 3 4 5 6 
#
# 1 0.014351 0.000477 -0.007909 0.000000 0.000000 0.000000
# 2 0.000477 0.050192 -0.004343 0.000000 0.000000 0.000000
# 3 -0.007909 -0.004343 0.013752 0.000000 0.000000 0.000000
# 4 0.000000 0.000000 0.000000 0.053617 0.000000 0.000000
# 5 0.000000 0.000000 0.000000 0.000000 0.029664 0.000000
# 6 0.000000 0.000000 0.000000 0.000000 0.000000 0.048518
#
#
# Mechanical properties :
#
#
# Convention : Reuss Voigt Hill
#
# Bulk Modulus (GPa) = 18.26668 42.38024 30.32346
# Shear Modulus (GPa) = 19.84976 25.27161 22.56068
#
# Velocity S-wave (km/s) = 3.07654 3.47137 3.27990
# Velocity P-wave (km/s) = 4.61848 6.02293 5.36684
#
# Compressibility (1/GPa) = 0.05474448
#
# Stress axis : x y z
#
# Youngs Moduli (GPa) = 69.68183 19.92362 72.71707
#
# Poissons Ratio (x) = -0.00950 0.57512
# Poissons Ratio (y) = -0.03323 0.31580
# Poissons Ratio (z) = 0.55111 0.08653
#
# Static dielectric constant tensor:
#      x y z
#    x 1.736760 0.000000 0.000000 
#    y 0.000000 1.779160 0.000000 
#    z 0.000000 0.000000 1.754920 
# 
# From -- ./inp_files/20863.got.cif
#   From: 2010.05.17/outbox.cif.g08.bks.cpg/sg62_11_cif.got.tgz:20863.got - 2010.06.03 15:25:27.
