data_PCOD9463053
_publ_section_title
;
Structure prediction by ZEFSAII (Michael W. Deem and Ramdas Pophale) SiO2 
 PCOD9463053
Probable space group: P N M A
;
_chemical_formula_sum "Si O2"
_cell_formula_units_Z 64
_cell_length_a 11.383348
_cell_length_b 8.857738
_cell_length_c 33.723132
_cell_angle_alpha 90.000000
_cell_angle_beta 90.000000
_cell_angle_gamma 90.000000
_cell_volume 3400.327483
_symmetry_space_group_name_H-M "P N M A"
_symmetry_group_IT_number 62
_symmetry_cell_setting 'orthorhombic'
loop_
_space_group_symop_operation_xyz
x,y,z
1/2-x,-y,1/2+z
1/2+x,1/2-y,1/2-z
-x,1/2+y,-z
-x,-y,-z
1/2+x,y,1/2-z
1/2-x,1/2+y,1/2+z
x,1/2-y,z
loop_
_atom_site_type_symbol
_atom_site_label
_atom_site_fract_x
_atom_site_fract_y
_atom_site_fract_z
Si Si1 0.925254 0.572593 0.289659
Si Si2 0.811453 0.429906 0.409020
Si Si3 0.319339 0.427037 0.665015
Si Si4 0.550181 0.070276 0.135530
Si Si5 0.950321 0.429645 0.203197
Si Si6 0.200036 0.430022 0.863980
Si Si7 0.677845 0.569974 0.477698
Si Si8 0.919715 0.930736 0.054432
O O1 0.956141 0.750000 0.289806
O O2 0.791087 0.559331 0.305051
O O3 0.940144 0.504433 0.246292
O O4 0.004249 0.485197 0.321652
O O5 0.795076 0.250000 0.407511
O O6 0.726280 0.507566 0.376655
O O7 0.778845 0.492941 0.451962
O O8 0.943987 0.463608 0.394847
O O9 0.348870 0.250000 0.660326
O O10 0.430068 0.514675 0.682297
O O11 0.569501 0.250000 0.135941
O O12 0.669319 0.983832 0.125905
O O13 0.948625 0.250000 0.206563
O O14 0.845412 0.487368 0.175205
O O15 0.196439 0.250000 0.858076
O O16 0.115728 0.469293 0.900931
O O17 0.690458 0.750000 0.477102
O O18 0.553686 0.529262 0.456374
O O19 0.663274 0.510925 0.522323
O O20 0.908180 0.750000 0.049754
#
# Coordination Sequence:
#
# PCOD9463053 Si02
#       8
#     8   8   8   8   8   8   8   8
#     4  10  22  40  61  83 111 149 193 238 287 343
#     4  10  20  36  59  85 115 151 191 237 290 346
#     4  10  21  38  59  83 112 145 189 239 285 339
#     4  10  22  40  60  84 116 153 194 242 294 347
#     4  12  25  38  58  85 116 151 190 238 290 346
#     4  11  23  40  61  84 116 156 197 239 291 352
#     4  10  19  33  59  89 118 151 190 239 291 348
#     4   9  20  37  56  84 119 153 189 238 292 346
#
# _framework density 18.821715999999999
#
# number of rings (size 3 to 8) (size 9 to 14) (size 15 to 20)
#    0.000    1.750    0.000    4.125    1.750    5.500 
#    0.000    0.625    0.000    0.000    0.000    0.000 
#    0.000    0.000    0.000    0.000    0.000    0.000 
#
# Total GULP energy -357741.050458 kJ/mol
# GULP energy per Si atom -5589.703913 kJ/mol
# Density = 1.877888 g / cm^3
# Si number density = 18.821716 Si / 1000 Ang^3
#
#
#
# Elastic Constant Matrix: (Units=GPa)
#
#
# Indices 1 2 3 4 5 6 
#
# 1 26.0748 4.5175 -6.7760 0.0000 0.0000 0.0000
# 2 4.5175 40.0482 1.8850 0.0000 0.0000 0.0000
# 3 -6.7760 1.8850 36.1163 0.0000 0.0000 0.0000
# 4 0.0000 0.0000 0.0000 33.0974 0.0000 0.0000
# 5 0.0000 0.0000 0.0000 0.0000 12.4804 0.0000
# 6 0.0000 0.0000 0.0000 0.0000 0.0000 32.3597
#
#
#
# Elastic Compliance Matrix: (Units=1/GPa)
#
#
# Indices 1 2 3 4 5 6 
#
# 1 0.041306 -0.005036 0.008013 0.000000 0.000000 0.000000
# 2 -0.005036 0.025646 -0.002283 0.000000 0.000000 0.000000
# 3 0.008013 -0.002283 0.029311 0.000000 0.000000 0.000000
# 4 0.000000 0.000000 0.000000 0.030214 0.000000 0.000000
# 5 0.000000 0.000000 0.000000 0.000000 0.080126 0.000000
# 6 0.000000 0.000000 0.000000 0.000000 0.000000 0.030903
#
#
# Mechanical properties :
#
#
# Convention : Reuss Voigt Hill
#
# Bulk Modulus (GPa) = 10.24092 11.27692 10.75892
# Shear Modulus (GPa) = 18.61031 22.42835 20.51933
#
# Velocity S-wave (km/s) = 3.14788 3.45573 3.30539
# Velocity P-wave (km/s) = 4.32030 4.68265 4.50512
#
# Compressibility (1/GPa) = 0.09764744
#
# Stress axis : x y z
#
# Youngs Moduli (GPa) = 24.20961 38.99318 34.11713
#
# Poissons Ratio (x) = 0.19639 -0.27336
# Poissons Ratio (y) = 0.12193 0.07790
# Poissons Ratio (z) = -0.19398 0.08904
#
# Static dielectric constant tensor:
#      x y z
#    x 1.649960 0.000000 0.000000 
#    y 0.000000 1.621730 0.000000 
#    z 0.000000 0.000000 1.628140 
# 
# From -- ./inp_files/32538.got.cif
#   From: 2010.05.17/outbox.cif.g08.bks.cpg/sg62_17_cif.got.tgz:32538.got - 2010.06.03 15:25:27.
