data_PCOD9463641
_publ_section_title
;
Structure prediction by ZEFSAII (Michael W. Deem and Ramdas Pophale) SiO2 
 PCOD9463641
Probable space group: P N M A
;
_chemical_formula_sum "Si O2"
_cell_formula_units_Z 64
_cell_length_a 24.765370
_cell_length_b 7.658983
_cell_length_c 15.847764
_cell_angle_alpha 90.000000
_cell_angle_beta 90.000000
_cell_angle_gamma 90.000000
_cell_volume 3005.965014
_symmetry_space_group_name_H-M "P N M A"
_symmetry_group_IT_number 62
_symmetry_cell_setting 'orthorhombic'
loop_
_space_group_symop_operation_xyz
x,y,z
1/2-x,-y,1/2+z
1/2+x,1/2-y,1/2-z
-x,1/2+y,-z
-x,-y,-z
1/2+x,y,1/2-z
1/2-x,1/2+y,1/2+z
x,1/2-y,z
loop_
_atom_site_type_symbol
_atom_site_label
_atom_site_fract_x
_atom_site_fract_y
_atom_site_fract_z
Si Si1 0.923607 0.034925 0.253612
Si Si2 0.388382 0.048967 0.644934
Si Si3 0.700472 0.540960 0.746853
Si Si4 0.880981 0.537719 0.665298
Si Si5 0.503326 0.040745 0.098738
Si Si6 0.230219 0.036644 0.412875
Si Si7 0.774266 0.460842 0.908616
Si Si8 0.994279 0.054254 0.097357
O O1 0.924447 0.250000 0.253951
O O2 0.861219 0.977761 0.254937
O O3 0.956484 0.978076 0.337466
O O4 0.955183 0.972052 0.168836
O O5 0.397638 0.250000 0.619314
O O6 0.336009 0.975443 0.597945
O O7 0.372463 0.038500 0.742450
O O8 0.445001 0.953902 0.633152
O O9 0.697055 0.750000 0.738658
O O10 0.730979 0.476226 0.662910
O O11 0.737449 0.505413 0.828357
O O12 0.881226 0.750000 0.672224
O O13 0.831086 0.486713 0.607057
O O14 0.938709 0.478337 0.631761
O O15 0.503240 0.250000 0.106023
O O16 0.500000 0.000000 0.000000
O O17 0.231903 0.250000 0.412930
O O18 0.248530 0.976878 0.504444
O O19 0.777753 0.250000 0.910323
O O20 0.973731 0.250000 0.092014
O O21 0.000000 0.000000 0.000000
#
# Coordination Sequence:
#
# PCOD9463641 Si02
#       8
#     8   8   8   8   8   8   8   8
#     4   9  20  38  59  82 115 152 189 232 285 343
#     4  11  22  37  60  87 116 150 194 244 294 342
#     4  10  20  37  61  83 108 150 193 229 277 343
#     4  10  19  37  61  81 108 150 196 238 285 342
#     4  10  21  37  56  83 114 150 190 234 286 340
#     4   9  19  35  58  82 108 148 193 227 278 348
#     4  10  22  38  57  85 118 151 188 239 293 343
#     4  11  23  41  63  87 118 155 196 242 290 348
#
# _framework density 21.290998999999999
#
# number of rings (size 3 to 8) (size 9 to 14) (size 15 to 20)
#    0.000    2.000    2.500    0.750    3.500    1.000 
#    0.000    2.500    0.000    0.000    0.000    0.000 
#    0.000    0.000    0.000    0.000    0.000    0.000 
#
# Total GULP energy -357298.021472 kJ/mol
# GULP energy per Si atom -5582.781586 kJ/mol
# Density = 2.124254 g / cm^3
# Si number density = 21.290999 Si / 1000 Ang^3
#
#
#
# Elastic Constant Matrix: (Units=GPa)
#
#
# Indices 1 2 3 4 5 6 
#
# 1 112.2341 -2.6616 16.1901 0.0000 0.0000 0.0000
# 2 -2.6616 34.6132 -5.4051 0.0000 0.0000 0.0000
# 3 16.1901 -5.4051 96.3662 0.0000 0.0000 0.0000
# 4 0.0000 0.0000 0.0000 26.6868 0.0000 0.0000
# 5 0.0000 0.0000 0.0000 0.0000 40.4530 0.0000
# 6 0.0000 0.0000 0.0000 0.0000 0.0000 6.0563
#
#
#
# Elastic Compliance Matrix: (Units=1/GPa)
#
#
# Indices 1 2 3 4 5 6 
#
# 1 0.009139 0.000467 -0.001509 0.000000 0.000000 0.000000
# 2 0.000467 0.029170 0.001558 0.000000 0.000000 0.000000
# 3 -0.001509 0.001558 0.010718 0.000000 0.000000 0.000000
# 4 0.000000 0.000000 0.000000 0.037472 0.000000 0.000000
# 5 0.000000 0.000000 0.000000 0.000000 0.024720 0.000000
# 6 0.000000 0.000000 0.000000 0.000000 0.000000 0.165116
#
#
# Mechanical properties :
#
#
# Convention : Reuss Voigt Hill
#
# Bulk Modulus (GPa) = 19.97696 28.82892 24.40294
# Shear Modulus (GPa) = 17.12391 30.31190 23.71790
#
# Velocity S-wave (km/s) = 2.83906 3.77728 3.34127
# Velocity P-wave (km/s) = 4.48890 5.70908 5.13536
#
# Compressibility (1/GPa) = 0.05005767
#
# Stress axis : x y z
#
# Youngs Moduli (GPa) = 109.42444 34.28196 93.30102
#
# Poissons Ratio (x) = -0.01601 0.14081
# Poissons Ratio (y) = -0.05111 -0.14533
# Poissons Ratio (z) = 0.16514 -0.05340
#
# Static dielectric constant tensor:
#      x y z
#    x 1.767450 0.000000 0.000000 
#    y 0.000000 1.884060 0.000000 
#    z 0.000000 0.000000 1.755820 
# 
# From -- ./inp_files/20903.got.cif
#   From: 2010.05.17/outbox.cif.g08.bks.cpg/sg62_11_cif.got.tgz:20903.got - 2010.06.03 15:25:27.
