data_PCOD9463769
_publ_section_title
;
Structure prediction by ZEFSAII (Michael W. Deem and Ramdas Pophale) SiO2 
 PCOD9463769
Probable space group: P N M A
;
_chemical_formula_sum "Si O2"
_cell_formula_units_Z 40
_cell_length_a 14.949858
_cell_length_b 14.165253
_cell_length_c 9.093846
_cell_angle_alpha 90.000000
_cell_angle_beta 90.000000
_cell_angle_gamma 90.000000
_cell_volume 1925.790317
_symmetry_space_group_name_H-M "P N M A"
_symmetry_group_IT_number 62
_symmetry_cell_setting 'orthorhombic'
loop_
_space_group_symop_operation_xyz
x,y,z
1/2-x,-y,1/2+z
1/2+x,1/2-y,1/2-z
-x,1/2+y,-z
-x,-y,-z
1/2+x,y,1/2-z
1/2-x,1/2+y,1/2+z
x,1/2-y,z
loop_
_atom_site_type_symbol
_atom_site_label
_atom_site_fract_x
_atom_site_fract_y
_atom_site_fract_z
Si Si1 0.512095 0.897468 0.576725
Si Si2 0.723846 0.528753 0.242420
Si Si3 0.381923 0.852886 0.340062
Si Si4 0.720348 0.638786 0.550065
Si Si5 0.980395 0.016855 0.667810
O O1 0.434484 0.844405 0.492876
O O2 0.611901 0.861646 0.553958
O O3 0.500000 0.000000 0.500000
O O4 0.495794 0.918739 0.745999
O O5 0.792975 0.586840 0.142251
O O6 0.742830 0.573531 0.405305
O O7 0.744562 0.420133 0.193352
O O8 0.620679 0.547304 0.203928
O O9 0.360286 0.750000 0.281434
O O10 0.449067 0.907978 0.231700
O O11 0.748547 0.750000 0.543022
O O12 0.000000 0.000000 0.500000
#
# Coordination Sequence:
#
# PCOD9463769 Si02
#       5
#     8   8   8   8   8
#     4  10  19  43  68  91 128 189 228 283 343 409
#     4  12  23  42  72 101 141 181 234 288 353 412
#     4  11  22  41  69 100 133 182 235 280 348 423
#     4  12  25  45  72 102 141 188 236 289 352 419
#     4  11  23  41  68  95 138 182 220 293 356 401
#
# _framework density 20.770695
#
# number of rings (size 3 to 8) (size 9 to 14) (size 15 to 20)
#    0.000    0.800    8.000    2.400    0.000    0.800 
#    0.000    8.000    0.000    0.000    0.000    0.000 
#    0.000    0.000    0.000    0.000    0.000    0.000 
#
# Total GULP energy -222977.044525 kJ/mol
# GULP energy per Si atom -5574.426113 kJ/mol
# Density = 2.072342 g / cm^3
# Si number density = 20.770695 Si / 1000 Ang^3
#
#
#
# Elastic Constant Matrix: (Units=GPa)
#
#
# Indices 1 2 3 4 5 6 
#
# 1 94.8308 25.8353 2.7794 0.0000 0.0000 0.0000
# 2 25.8353 147.9226 47.4349 0.0000 0.0000 0.0000
# 3 2.7794 47.4349 127.1035 0.0000 0.0000 0.0000
# 4 0.0000 0.0000 0.0000 16.7854 0.0000 0.0000
# 5 0.0000 0.0000 0.0000 0.0000 8.3863 0.0000
# 6 0.0000 0.0000 0.0000 0.0000 0.0000 6.4882
#
#
#
# Elastic Compliance Matrix: (Units=1/GPa)
#
#
# Indices 1 2 3 4 5 6 
#
# 1 0.011105 -0.002115 0.000546 0.000000 0.000000 0.000000
# 2 -0.002115 0.008082 -0.002970 0.000000 0.000000 0.000000
# 3 0.000546 -0.002970 0.008964 0.000000 0.000000 0.000000
# 4 0.000000 0.000000 0.000000 0.059576 0.000000 0.000000
# 5 0.000000 0.000000 0.000000 0.000000 0.119242 0.000000
# 6 0.000000 0.000000 0.000000 0.000000 0.000000 0.154126
#
#
# Mechanical properties :
#
#
# Convention : Reuss Voigt Hill
#
# Bulk Modulus (GPa) = 52.42576 57.99512 55.21044
# Shear Modulus (GPa) = 13.27915 25.91913 19.59914
#
# Velocity S-wave (km/s) = 2.53122 3.53635 3.07513
# Velocity P-wave (km/s) = 5.81703 6.68256 6.26476
#
# Compressibility (1/GPa) = 0.01907459
#
# Stress axis : x y z
#
# Youngs Moduli (GPa) = 90.04773 123.73116 111.55677
#
# Poissons Ratio (x) = 0.26166 -0.06095
# Poissons Ratio (y) = 0.19043 0.33132
# Poissons Ratio (z) = -0.04920 0.36748
#
# Static dielectric constant tensor:
#      x y z
#    x 1.725150 0.000000 0.000000 
#    y 0.000000 1.865690 0.000000 
#    z 0.000000 0.000000 1.908740 
# 
# From -- ./inp_files/6081.got.cif
#   From: 2010.05.17/outbox.cif.g08.bks.cpg/sg62_4_cif.got.tgz:6081.got - 2010.06.03 15:25:27.
