data_PCOD9463836
_publ_section_title
;
Structure prediction by ZEFSAII (Michael W. Deem and Ramdas Pophale) SiO2 
 PCOD9463836
Probable space group: P N M A
;
_chemical_formula_sum "Si O2"
_cell_formula_units_Z 48
_cell_length_a 24.321738
_cell_length_b 9.356207
_cell_length_c 9.654383
_cell_angle_alpha 90.000000
_cell_angle_beta 90.000000
_cell_angle_gamma 90.000000
_cell_volume 2196.943820
_symmetry_space_group_name_H-M "P N M A"
_symmetry_group_IT_number 62
_symmetry_cell_setting 'orthorhombic'
loop_
_space_group_symop_operation_xyz
x,y,z
1/2-x,-y,1/2+z
1/2+x,1/2-y,1/2-z
-x,1/2+y,-z
-x,-y,-z
1/2+x,y,1/2-z
1/2-x,1/2+y,1/2+z
x,1/2-y,z
loop_
_atom_site_type_symbol
_atom_site_label
_atom_site_fract_x
_atom_site_fract_y
_atom_site_fract_z
Si Si1 0.577131 0.083045 0.938574
Si Si2 0.358695 0.576705 0.798970
Si Si3 0.029916 0.913131 0.795324
Si Si4 0.245258 0.578926 0.955955
Si Si5 0.192947 0.416517 0.726221
Si Si6 0.415176 0.915012 0.537606
O O1 0.561214 0.250000 0.947672
O O2 0.634041 0.075611 0.849326
O O3 0.534047 0.992931 0.850808
O O4 0.595444 0.029502 0.089702
O O5 0.363212 0.750000 0.792918
O O6 0.300093 0.545852 0.865507
O O7 0.369738 0.525411 0.643687
O O8 0.047403 0.750000 0.776967
O O9 0.969927 0.913178 0.865434
O O10 0.068754 0.993341 0.905470
O O11 0.237343 0.750000 0.957787
O O12 0.198146 0.501924 0.868619
O O13 0.262857 0.532878 0.110141
O O14 0.204010 0.250000 0.754429
O O15 0.403368 0.750000 0.496601
#
# Coordination Sequence:
#
# PCOD9463836 Si02
#       6
#     8   8   8   8   8   8
#     4   9  18  34  53  70  94 129 163 196 238 289
#     4   8  16  33  54  72  92 125 167 201 234 285
#     4  10  20  32  48  74 103 127 158 202 244 283
#     4   9  18  33  52  73  97 125 160 202 241 281
#     4   9  19  34  50  71  98 127 160 196 238 289
#     4   9  18  34  53  71  96 131 166 198 237 289
#
# _framework density 21.848533
#
# number of rings (size 3 to 8) (size 9 to 14) (size 15 to 20)
#    0.000    3.000    0.000    2.500    0.000    4.000 
#    0.000    9.167    0.000    0.000    0.000    0.000 
#    0.000    0.000    0.000    0.000    0.000    0.000 
#
# Total GULP energy -268026.945146 kJ/mol
# GULP energy per Si atom -5583.894691 kJ/mol
# Density = 2.179880 g / cm^3
# Si number density = 21.848533 Si / 1000 Ang^3
#
#
#
# Elastic Constant Matrix: (Units=GPa)
#
#
# Indices 1 2 3 4 5 6 
#
# 1 38.2498 1.6598 8.5242 0.0000 0.0000 0.0000
# 2 1.6598 39.9946 25.6891 0.0000 0.0000 0.0000
# 3 8.5242 25.6891 119.5175 0.0000 0.0000 0.0000
# 4 0.0000 0.0000 0.0000 22.9878 0.0000 0.0000
# 5 0.0000 0.0000 0.0000 0.0000 47.3482 0.0000
# 6 0.0000 0.0000 0.0000 0.0000 0.0000 -1.9577
#
#
#
# Elastic Compliance Matrix: (Units=1/GPa)
#
#
# Indices 1 2 3 4 5 6 
#
# 1 0.026567 0.000133 -0.001923 0.000000 0.000000 0.000000
# 2 0.000133 0.029009 -0.006245 0.000000 0.000000 0.000000
# 3 -0.001923 -0.006245 0.009846 0.000000 0.000000 0.000000
# 4 0.000000 0.000000 0.000000 0.043501 0.000000 0.000000
# 5 0.000000 0.000000 0.000000 0.000000 0.021120 0.000000
# 6 0.000000 0.000000 0.000000 0.000000 0.000000 -0.510807
#
#
# Mechanical properties :
#
#
# Convention : Reuss Voigt Hill
#
# Bulk Modulus (GPa) = 20.26268 29.94532 25.10400
# Shear Modulus (GPa) = -14.35780 24.46826 5.05523
#
# Velocity S-wave (km/s) = -2.56628 3.35013 1.52276
# Velocity P-wave (km/s) = 0.71641 5.35725 3.82187
#
# Compressibility (1/GPa) = 0.04935182
#
# Stress axis : x y z
#
# Youngs Moduli (GPa) = 37.64098 34.47220 101.56020
#
# Poissons Ratio (x) = -0.00458 0.19533
# Poissons Ratio (y) = -0.00500 0.63421
# Poissons Ratio (z) = 0.07240 0.21527
#
# Static dielectric constant tensor:
#      x y z
#    x 1.892580 0.000000 0.000000 
#    y 0.000000 1.732600 0.000000 
#    z 0.000000 0.000000 1.795640 
# 
# From -- ./inp_files/10245.got.cif
#   From: 2010.05.17/outbox.cif.g08.bks.cpg/sg62_6_cif.got.tgz:10245.got - 2010.06.03 15:25:27.
