data_PCOD9463593
_publ_section_title
;
Structure prediction by ZEFSAII (Michael W. Deem and Ramdas Pophale) SiO2 
 PCOD9463593
Probable space group: P N M A
;
_chemical_formula_sum "Si O2"
_cell_formula_units_Z 48
_cell_length_a 13.830970
_cell_length_b 14.094792
_cell_length_c 12.071870
_cell_angle_alpha 90.000000
_cell_angle_beta 90.000000
_cell_angle_gamma 90.000000
_cell_volume 2353.346415
_symmetry_space_group_name_H-M "P N M A"
_symmetry_group_IT_number 62
_symmetry_cell_setting 'orthorhombic'
loop_
_space_group_symop_operation_xyz
x,y,z
1/2-x,-y,1/2+z
1/2+x,1/2-y,1/2-z
-x,1/2+y,-z
-x,-y,-z
1/2+x,y,1/2-z
1/2-x,1/2+y,1/2+z
x,1/2-y,z
loop_
_atom_site_type_symbol
_atom_site_label
_atom_site_fract_x
_atom_site_fract_y
_atom_site_fract_z
Si Si1 0.883605 0.042700 0.586296
Si Si2 0.398977 0.636399 0.551935
Si Si3 0.591045 0.015619 0.851322
Si Si4 0.699411 0.362638 0.674409
Si Si5 0.685713 0.360792 0.207561
Si Si6 0.414914 0.140033 0.324800
O O1 0.809904 0.110376 0.649559
O O2 0.995109 0.068726 0.605829
O O3 0.862485 0.036581 0.456161
O O4 0.866551 0.936295 0.630501
O O5 0.387600 0.750000 0.543748
O O6 0.358872 0.600132 0.434789
O O7 0.339651 0.611461 0.664478
O O8 0.513060 0.617733 0.573255
O O9 0.660497 0.083800 0.782316
O O10 0.556717 0.933733 0.768688
O O11 0.687445 0.250000 0.685823
O O12 0.658141 0.250000 0.194290
O O13 0.798782 0.368154 0.172721
O O14 0.435072 0.250000 0.295927
#
# Coordination Sequence:
#
# PCOD9463593 Si02
#       6
#     8   8   8   8   8   8
#     4  11  24  41  64  94 128 172 216 257 320 386
#     4   9  19  37  62  89 119 160 204 254 315 372
#     4  11  24  41  64  95 129 169 214 263 320 384
#     4  11  25  45  65  91 131 172 214 265 323 385
#     4  10  19  36  62  93 125 158 206 263 314 370
#     4  10  19  36  63  94 120 153 205 262 315 370
#
# _framework density 20.396487
#
# number of rings (size 3 to 8) (size 9 to 14) (size 15 to 20)
#    0.000    1.667    3.333    1.000    0.000    4.000 
#    3.000    3.333    0.000    0.000    0.000    0.000 
#    0.000    0.000    0.000    0.000    0.000    0.000 
#
# Total GULP energy -267704.927475 kJ/mol
# GULP energy per Si atom -5577.185989 kJ/mol
# Density = 2.035006 g / cm^3
# Si number density = 20.396487 Si / 1000 Ang^3
#
#
#
# Elastic Constant Matrix: (Units=GPa)
#
#
# Indices 1 2 3 4 5 6 
#
# 1 84.9029 -6.4231 -1.9211 0.0000 0.0000 0.0000
# 2 -6.4231 41.8242 -3.6961 0.0000 0.0000 0.0000
# 3 -1.9211 -3.6961 47.1530 0.0000 0.0000 0.0000
# 4 0.0000 0.0000 0.0000 9.7145 0.0000 0.0000
# 5 0.0000 0.0000 0.0000 0.0000 28.9663 0.0000
# 6 0.0000 0.0000 0.0000 0.0000 0.0000 15.8626
#
#
#
# Elastic Compliance Matrix: (Units=1/GPa)
#
#
# Indices 1 2 3 4 5 6 
#
# 1 0.011935 0.001889 0.000634 0.000000 0.000000 0.000000
# 2 0.001889 0.024375 0.001988 0.000000 0.000000 0.000000
# 3 0.000634 0.001988 0.021389 0.000000 0.000000 0.000000
# 4 0.000000 0.000000 0.000000 0.102938 0.000000 0.000000
# 5 0.000000 0.000000 0.000000 0.000000 0.034523 0.000000
# 6 0.000000 0.000000 0.000000 0.000000 0.000000 0.063041
#
#
# Mechanical properties :
#
#
# Convention : Reuss Voigt Hill
#
# Bulk Modulus (GPa) = 14.98754 16.64436 15.81595
# Shear Modulus (GPa) = 18.42155 23.30339 20.86247
#
# Velocity S-wave (km/s) = 3.00854 3.38378 3.20167
# Velocity P-wave (km/s) = 4.40823 4.84198 4.63019
#
# Compressibility (1/GPa) = 0.06672208
#
# Stress axis : x y z
#
# Youngs Moduli (GPa) = 83.78415 41.02504 46.75253
#
# Poissons Ratio (x) = -0.07750 -0.02966
# Poissons Ratio (y) = -0.15827 -0.09293
# Poissons Ratio (z) = -0.05315 -0.08154
#
# Static dielectric constant tensor:
#      x y z
#    x 1.789290 0.000000 0.000000 
#    y 0.000000 1.691890 0.000000 
#    z 0.000000 0.000000 1.732210 
# 
# From -- ./inp_files/13285.got.cif
#   From: 2010.05.17/outbox.cif.g08.bks.cpg/sg62_7_cif.got.tgz:13285.got - 2010.06.03 15:25:27.
