data_PCOD9463849
_publ_section_title
;
Structure prediction by ZEFSAII (Michael W. Deem and Ramdas Pophale) SiO2 
 PCOD9463849
Probable space group: P N M A
;
_chemical_formula_sum "Si O2"
_cell_formula_units_Z 64
_cell_length_a 31.383417
_cell_length_b 7.341461
_cell_length_c 11.347421
_cell_angle_alpha 90.000000
_cell_angle_beta 90.000000
_cell_angle_gamma 90.000000
_cell_volume 2614.447296
_symmetry_space_group_name_H-M "P N M A"
_symmetry_group_IT_number 62
_symmetry_cell_setting 'orthorhombic'
loop_
_space_group_symop_operation_xyz
x,y,z
1/2-x,-y,1/2+z
1/2+x,1/2-y,1/2-z
-x,1/2+y,-z
-x,-y,-z
1/2+x,y,1/2-z
1/2-x,1/2+y,1/2+z
x,1/2-y,z
loop_
_atom_site_type_symbol
_atom_site_label
_atom_site_fract_x
_atom_site_fract_y
_atom_site_fract_z
Si Si1 0.429437 0.973788 0.381891
Si Si2 0.208463 0.026360 0.531791
Si Si3 0.158911 0.468977 0.761991
Si Si4 0.196654 0.961694 0.006450
Si Si5 0.062506 0.530053 0.482895
Si Si6 0.391602 0.954148 0.618960
Si Si7 0.643788 0.040076 0.145425
Si Si8 0.005020 0.042923 0.702217
O O1 0.429446 0.750000 0.382488
O O2 0.388112 0.030843 0.304105
O O3 0.421259 0.034521 0.516280
O O4 0.472539 0.035897 0.317682
O O5 0.208361 0.250000 0.529744
O O6 0.178953 0.966363 0.639984
O O7 0.257272 0.969014 0.544380
O O8 0.187193 0.965313 0.408638
O O9 0.156653 0.250000 0.756451
O O10 0.191067 0.521547 0.866478
O O11 0.193444 0.750000 0.040430
O O12 0.155118 0.055420 0.059549
O O13 0.060323 0.750000 0.487380
O O14 0.110050 0.467189 0.460681
O O15 0.041848 0.457355 0.602107
O O16 0.034233 0.463042 0.371326
O O17 0.408351 0.750000 0.641545
O O18 0.380746 0.045008 0.743582
O O19 0.651883 0.250000 0.178777
O O20 0.992792 0.250000 0.730931
#
# Coordination Sequence:
#
# PCOD9463849 Si02
#       8
#     8   8   8   8   8   8   8   8
#     4   8  14  29  53  75  92 124 172 207 239 292
#     4   9  19  33  51  73  96 130 169 203 246 304
#     4   9  17  32  51  70  94 125 165 203 236 290
#     4  10  20  33  50  74 102 128 161 209 259 298
#     4  10  20  32  49  79 110 132 165 214 262 302
#     4   9  19  35  55  74  96 133 176 211 244 301
#     4  10  20  36  55  72  98 138 176 206 246 306
#     4   9  17  32  55  76 102 139 170 205 255 311
#
# _framework density 24.479362999999999
#
# number of rings (size 3 to 8) (size 9 to 14) (size 15 to 20)
#    0.000    2.750    0.000    2.250    1.750    3.000 
#    0.000    8.125    0.000    0.000    0.000    0.000 
#    0.000    0.000    0.000    0.000    0.000    0.000 
#
# Total GULP energy -357366.215379 kJ/mol
# GULP energy per Si atom -5583.847115 kJ/mol
# Density = 2.442365 g / cm^3
# Si number density = 24.479363 Si / 1000 Ang^3
#
#
#
# Elastic Constant Matrix: (Units=GPa)
#
#
# Indices 1 2 3 4 5 6 
#
# 1 36.6985 -11.9477 9.7753 0.0000 0.0000 0.0000
# 2 -11.9477 105.5391 -7.8171 0.0000 0.0000 0.0000
# 3 9.7753 -7.8171 73.8225 0.0000 0.0000 0.0000
# 4 0.0000 0.0000 0.0000 2.6671 0.0000 0.0000
# 5 0.0000 0.0000 0.0000 0.0000 16.1820 0.0000
# 6 0.0000 0.0000 0.0000 0.0000 0.0000 -2.5816
#
#
#
# Elastic Compliance Matrix: (Units=1/GPa)
#
#
# Indices 1 2 3 4 5 6 
#
# 1 0.029183 0.003041 -0.003542 0.000000 0.000000 0.000000
# 2 0.003041 0.009867 0.000642 0.000000 0.000000 0.000000
# 3 -0.003542 0.000642 0.014083 0.000000 0.000000 0.000000
# 4 0.000000 0.000000 0.000000 0.374942 0.000000 0.000000
# 5 0.000000 0.000000 0.000000 0.000000 0.061797 0.000000
# 6 0.000000 0.000000 0.000000 0.000000 0.000000 -0.387356
#
#
# Mechanical properties :
#
#
# Convention : Reuss Voigt Hill
#
# Bulk Modulus (GPa) = 18.72127 21.78678 20.25403
# Shear Modulus (GPa) = 41.65328 18.32347 29.98837
#
# Velocity S-wave (km/s) = 4.12948 2.73889 3.50386
# Velocity P-wave (km/s) = 5.51373 4.34987 4.96601
#
# Compressibility (1/GPa) = 0.05341517
#
# Stress axis : x y z
#
# Youngs Moduli (GPa) = 34.26685 101.34776 71.00735
#
# Poissons Ratio (x) = -0.30823 0.25152
# Poissons Ratio (y) = -0.10422 -0.04559
# Poissons Ratio (z) = 0.12138 -0.06508
#
# Static dielectric constant tensor:
#      x y z
#    x 1.899100 0.000000 0.000000 
#    y 0.000000 1.925090 0.000000 
#    z 0.000000 0.000000 1.964820 
# 
# From -- ./inp_files/15906.got.cif
#   From: 2010.05.17/outbox.cif.g08.bks.cpg/sg62_8_cif.got.tgz:15906.got - 2010.06.03 15:25:27.
