data_PCOD9463693
_publ_section_title
;
Structure prediction by ZEFSAII (Michael W. Deem and Ramdas Pophale) SiO2 
 PCOD9463693
Probable space group: P N M A
;
_chemical_formula_sum "Si O2"
_cell_formula_units_Z 64
_cell_length_a 5.280551
_cell_length_b 18.818506
_cell_length_c 28.637957
_cell_angle_alpha 90.000000
_cell_angle_beta 90.000000
_cell_angle_gamma 90.000000
_cell_volume 2845.813373
_symmetry_space_group_name_H-M "P N M A"
_symmetry_group_IT_number 62
_symmetry_cell_setting 'orthorhombic'
loop_
_space_group_symop_operation_xyz
x,y,z
1/2-x,-y,1/2+z
1/2+x,1/2-y,1/2-z
-x,1/2+y,-z
-x,-y,-z
1/2+x,y,1/2-z
1/2-x,1/2+y,1/2+z
x,1/2-y,z
loop_
_atom_site_type_symbol
_atom_site_label
_atom_site_fract_x
_atom_site_fract_y
_atom_site_fract_z
Si Si1 0.974913 0.666010 0.217952
Si Si2 0.277959 0.049066 0.544171
Si Si3 0.963525 0.173378 0.518700
Si Si4 0.466337 0.053002 0.149878
Si Si5 0.195759 0.329633 0.414657
Si Si6 0.958377 0.828175 0.722815
Si Si7 0.034022 0.456395 0.860509
Si Si8 0.092485 0.401854 0.037605
O O1 0.725539 0.654410 0.250177
O O2 0.974538 0.750000 0.203671
O O3 0.973470 0.611135 0.174398
O O4 0.063130 0.108125 0.548982
O O5 0.482581 0.062350 0.584894
O O6 0.373390 0.058699 0.491271
O O7 0.212147 0.965808 0.546821
O O8 0.984348 0.250000 0.541648
O O9 0.107492 0.176053 0.468617
O O10 0.687091 0.155938 0.499250
O O11 0.519426 0.116957 0.113102
O O12 0.481067 0.099628 0.196367
O O13 0.205782 0.008753 0.149159
O O14 0.701789 0.998334 0.144956
O O15 0.205131 0.250000 0.396158
O O16 0.472851 0.364797 0.417902
O O17 0.661047 0.828910 0.734983
O O18 0.010747 0.750000 0.700482
#
# Coordination Sequence:
#
# PCOD9463693 Si02
#       8
#     8   8   8   8   8   8   8   8
#     4  10  23  47  74  99 129 168 210 262 334 402
#     4  10  22  36  59  87 124 167 207 270 325 379
#     4  10  21  36  58  85 118 163 215 267 320 383
#     4  12  25  41  62  98 131 167 211 265 310 378
#     4  10  21  37  58  87 125 169 220 266 311 369
#     4  10  22  42  65  90 127 171 210 252 311 372
#     4  12  26  41  68  98 133 162 216 262 323 386
#     4  10  19  38  60  83 119 171 217 264 319 380
#
# _framework density 22.489176
#
# number of rings (size 3 to 8) (size 9 to 14) (size 15 to 20)
#    0.000    1.500    1.250    3.375    1.750    4.000 
#    0.000    1.250    0.000    0.000    0.000    0.000 
#    0.000    0.000    0.000    0.000    0.000    0.000 
#
# Total GULP energy -356864.307402 kJ/mol
# GULP energy per Si atom -5576.004803 kJ/mol
# Density = 2.243799 g / cm^3
# Si number density = 22.489176 Si / 1000 Ang^3
#
#
#
# Elastic Constant Matrix: (Units=GPa)
#
#
# Indices 1 2 3 4 5 6 
#
# 1 85.4852 25.8641 6.6460 0.0000 0.0000 0.0000
# 2 25.8641 145.2055 48.4637 0.0000 0.0000 0.0000
# 3 6.6460 48.4637 46.3464 0.0000 0.0000 0.0000
# 4 0.0000 0.0000 0.0000 470.1259 0.0000 0.0000
# 5 0.0000 0.0000 0.0000 0.0000 14.5179 0.0000
# 6 0.0000 0.0000 0.0000 0.0000 0.0000 37.2259
#
#
#
# Elastic Compliance Matrix: (Units=1/GPa)
#
#
# Indices 1 2 3 4 5 6 
#
# 1 0.012384 -0.002478 0.000815 0.000000 0.000000 0.000000
# 2 -0.002478 0.011075 -0.011225 0.000000 0.000000 0.000000
# 3 0.000815 -0.011225 0.033198 0.000000 0.000000 0.000000
# 4 0.000000 0.000000 0.000000 0.002127 0.000000 0.000000
# 5 0.000000 0.000000 0.000000 0.000000 0.068881 0.000000
# 6 0.000000 0.000000 0.000000 0.000000 0.000000 0.026863
#
#
# Mechanical properties :
#
#
# Convention : Reuss Voigt Hill
#
# Bulk Modulus (GPa) = 32.38249 48.77608 40.57929
# Shear Modulus (GPa) = 26.23330 117.44482 71.83906
#
# Velocity S-wave (km/s) = 3.41909 7.23438 5.65802
# Velocity P-wave (km/s) = 5.47881 9.56647 7.79534
#
# Compressibility (1/GPa) = 0.03088088
#
# Stress axis : x y z
#
# Youngs Moduli (GPa) = 80.74748 90.29548 30.12234
#
# Poissons Ratio (x) = 0.22375 -0.02456
# Poissons Ratio (y) = 0.20009 0.33813
# Poissons Ratio (z) = -0.06584 1.01360
#
# Static dielectric constant tensor:
#      x y z
#    x 1.935930 0.000000 0.000000 
#    y 0.000000 1.863410 0.000000 
#    z 0.000000 0.000000 1.890620 
# 
# From -- ./inp_files/31697.got.cif
#   From: 2010.05.17/outbox.cif.g08.bks.cpg/sg62_16_cif.got.tgz:31697.got - 2010.06.03 15:25:27.
