data_PCOD9463119
_publ_section_title
;
Structure prediction by ZEFSAII (Michael W. Deem and Ramdas Pophale) SiO2 
 PCOD9463119
Probable space group: P N M A
;
_chemical_formula_sum "Si O2"
_cell_formula_units_Z 64
_cell_length_a 14.622293
_cell_length_b 9.073840
_cell_length_c 25.568236
_cell_angle_alpha 90.000000
_cell_angle_beta 90.000000
_cell_angle_gamma 90.000000
_cell_volume 3392.402428
_symmetry_space_group_name_H-M "P N M A"
_symmetry_group_IT_number 62
_symmetry_cell_setting 'orthorhombic'
loop_
_space_group_symop_operation_xyz
x,y,z
1/2-x,-y,1/2+z
1/2+x,1/2-y,1/2-z
-x,1/2+y,-z
-x,-y,-z
1/2+x,y,1/2-z
1/2-x,1/2+y,1/2+z
x,1/2-y,z
loop_
_atom_site_type_symbol
_atom_site_label
_atom_site_fract_x
_atom_site_fract_y
_atom_site_fract_z
Si Si1 0.275132 0.573011 0.452030
Si Si2 0.138709 0.426279 0.376318
Si Si3 0.753191 0.927113 0.830100
Si Si4 0.468228 0.572253 0.400134
Si Si5 0.453502 0.921169 0.283360
Si Si6 0.855730 0.926653 0.937430
Si Si7 0.041090 0.573798 0.676233
Si Si8 0.767782 0.421342 0.722585
O O1 0.264259 0.750000 0.448467
O O2 0.188680 0.496281 0.425888
O O3 0.366724 0.533187 0.419445
O O4 0.296462 0.532829 0.511888
O O5 0.146092 0.250000 0.378263
O O6 0.189339 0.487695 0.324719
O O7 0.032650 0.468275 0.367489
O O8 0.758849 0.750000 0.821915
O O9 0.804914 0.964082 0.883424
O O10 0.645773 0.967657 0.835425
O O11 0.790444 0.010124 0.779059
O O12 0.473819 0.750000 0.400899
O O13 0.483168 0.521749 0.340184
O O14 0.546227 0.504111 0.436121
O O15 0.479941 0.750000 0.278964
O O16 0.342611 0.928000 0.282950
O O17 0.485972 0.006407 0.232260
O O18 0.868754 0.750000 0.939398
O O19 0.038582 0.750000 0.681177
O O20 0.794766 0.250000 0.719316
#
# Coordination Sequence:
#
# PCOD9463119 Si02
#       8
#     8   8   8   8   8   8   8   8
#     4  10  21  40  58  78 111 148 185 227 276 328
#     4  11  22  35  55  83 109 142 185 227 273 322
#     4   9  19  38  57  79 111 145 183 227 273 324
#     4  10  20  35  54  79 113 146 180 224 273 328
#     4   9  18  33  52  78 109 143 177 214 266 325
#     4  10  22  37  58  82 107 145 190 231 274 327
#     4   9  20  36  54  77 111 146 178 224 272 322
#     4  10  19  34  55  79 110 145 178 221 272 325
#
# _framework density 18.865684999999999
#
# number of rings (size 3 to 8) (size 9 to 14) (size 15 to 20)
#    0.000    2.250    1.250    1.125    1.750    3.500 
#    0.000    0.625    0.000    0.000    0.000    0.000 
#    0.000    0.000    0.000    0.000    0.000    0.000 
#
# Total GULP energy -357348.308460 kJ/mol
# GULP energy per Si atom -5583.567320 kJ/mol
# Density = 1.882275 g / cm^3
# Si number density = 18.865685 Si / 1000 Ang^3
#
#
#
# Elastic Constant Matrix: (Units=GPa)
#
#
# Indices 1 2 3 4 5 6 
#
# 1 33.4069 10.5409 2.5958 0.0000 0.0000 0.0000
# 2 10.5409 13.3095 11.9296 0.0000 0.0000 0.0000
# 3 2.5958 11.9296 69.7660 0.0000 0.0000 0.0000
# 4 0.0000 0.0000 0.0000 27.6915 0.0000 0.0000
# 5 0.0000 0.0000 0.0000 0.0000 31.5009 0.0000
# 6 0.0000 0.0000 0.0000 0.0000 0.0000 18.6123
#
#
#
# Elastic Compliance Matrix: (Units=1/GPa)
#
#
# Indices 1 2 3 4 5 6 
#
# 1 0.041214 -0.036926 0.004781 0.000000 0.000000 0.000000
# 2 -0.036926 0.121818 -0.019456 0.000000 0.000000 0.000000
# 3 0.004781 -0.019456 0.017483 0.000000 0.000000 0.000000
# 4 0.000000 0.000000 0.000000 0.036112 0.000000 0.000000
# 5 0.000000 0.000000 0.000000 0.000000 0.031745 0.000000
# 6 0.000000 0.000000 0.000000 0.000000 0.000000 0.053728
#
#
# Mechanical properties :
#
#
# Convention : Reuss Voigt Hill
#
# Bulk Modulus (GPa) = 12.93465 18.51279 15.72372
# Shear Modulus (GPa) = 11.59896 21.65534 16.62715
#
# Velocity S-wave (km/s) = 2.48224 3.39170 2.97196
# Velocity P-wave (km/s) = 3.88413 5.01721 4.48658
#
# Compressibility (1/GPa) = 0.07731174
#
# Stress axis : x y z
#
# Youngs Moduli (GPa) = 24.26377 8.20896 57.19950
#
# Poissons Ratio (x) = 0.30312 -0.27345
# Poissons Ratio (y) = 0.89596 1.11289
# Poissons Ratio (z) = -0.11600 0.15972
#
# Static dielectric constant tensor:
#      x y z
#    x 1.674800 0.000000 0.000000 
#    y 0.000000 1.627740 0.000000 
#    z 0.000000 0.000000 1.644840 
# 
# From -- ./inp_files/29738.got.cif
#   From: 2010.05.17/outbox.cif.g08.bks.cpg/sg62_15_cif.got.tgz:29738.got - 2010.06.03 15:25:27.
