data_PCOD9463644
_publ_section_title
;
Structure prediction by ZEFSAII (Michael W. Deem and Ramdas Pophale) SiO2 
 PCOD9463644
Probable space group: P N M A
;
_chemical_formula_sum "Si O2"
_cell_formula_units_Z 48
_cell_length_a 8.279118
_cell_length_b 16.813488
_cell_length_c 14.254099
_cell_angle_alpha 90.000000
_cell_angle_beta 90.000000
_cell_angle_gamma 90.000000
_cell_volume 1984.182713
_symmetry_space_group_name_H-M "P N M A"
_symmetry_group_IT_number 62
_symmetry_cell_setting 'orthorhombic'
loop_
_space_group_symop_operation_xyz
x,y,z
1/2-x,-y,1/2+z
1/2+x,1/2-y,1/2-z
-x,1/2+y,-z
-x,-y,-z
1/2+x,y,1/2-z
1/2-x,1/2+y,1/2+z
x,1/2-y,z
loop_
_atom_site_type_symbol
_atom_site_label
_atom_site_fract_x
_atom_site_fract_y
_atom_site_fract_z
Si Si1 0.054529 0.657603 0.637111
Si Si2 0.703072 0.873571 0.288094
Si Si3 0.065731 0.401160 0.559328
Si Si4 0.883964 0.834580 0.103593
Si Si5 0.761364 0.505867 0.063263
Si Si6 0.788802 0.941976 0.749078
O O1 0.075213 0.750000 0.659156
O O2 0.004386 0.648004 0.528114
O O3 0.918383 0.616295 0.701795
O O4 0.207326 0.604841 0.666142
O O5 0.865821 0.859689 0.349001
O O6 0.747020 0.842191 0.184689
O O7 0.552935 0.837021 0.342034
O O8 0.670648 0.968462 0.280439
O O9 0.225771 0.445040 0.518959
O O10 0.924992 0.464264 0.583451
O O11 0.865946 0.750000 0.053341
O O12 0.862296 0.915039 0.044416
O O13 0.823183 0.462624 0.157139
#
# Coordination Sequence:
#
# PCOD9463644 Si02
#       6
#     8   8   8   8   8   8
#     4  11  23  38  60  90 123 157 195 249 310 362
#     4  11  21  38  63  87 117 161 207 248 294 357
#     4  10  21  39  63  89 118 154 199 250 305 359
#     4  11  23  37  58  89 123 159 199 248 302 357
#     4   9  19  38  61  84 112 152 198 244 293 354
#     4  10  19  37  61  84 113 155 206 244 282 354
#
# _framework density 24.191320999999999
#
# number of rings (size 3 to 8) (size 9 to 14) (size 15 to 20)
#    0.000    1.667    0.000    8.000    0.000    2.667 
#    0.000    3.333    0.000    8.000    0.000    0.000 
#    0.000    0.000    0.000    0.000    0.000    0.000 
#
# Total GULP energy -268220.061846 kJ/mol
# GULP energy per Si atom -5587.917955 kJ/mol
# Density = 2.413626 g / cm^3
# Si number density = 24.191321 Si / 1000 Ang^3
#
#
#
# Elastic Constant Matrix: (Units=GPa)
#
#
# Indices 1 2 3 4 5 6 
#
# 1 49.3863 -2.0293 -1.0084 0.0000 0.0000 0.0000
# 2 -2.0293 156.7201 10.4296 0.0000 0.0000 0.0000
# 3 -1.0084 10.4296 80.1342 0.0000 0.0000 0.0000
# 4 0.0000 0.0000 0.0000 18.0539 0.0000 0.0000
# 5 0.0000 0.0000 0.0000 0.0000 39.1782 0.0000
# 6 0.0000 0.0000 0.0000 0.0000 0.0000 12.2181
#
#
#
# Elastic Compliance Matrix: (Units=1/GPa)
#
#
# Indices 1 2 3 4 5 6 
#
# 1 0.020263 0.000248 0.000223 0.000000 0.000000 0.000000
# 2 0.000248 0.006440 -0.000835 0.000000 0.000000 0.000000
# 3 0.000223 -0.000835 0.012591 0.000000 0.000000 0.000000
# 4 0.000000 0.000000 0.000000 0.055390 0.000000 0.000000
# 5 0.000000 0.000000 0.000000 0.000000 0.025524 0.000000
# 6 0.000000 0.000000 0.000000 0.000000 0.000000 0.081846
#
#
# Mechanical properties :
#
#
# Convention : Reuss Voigt Hill
#
# Bulk Modulus (GPa) = 25.93090 33.44715 29.68903
# Shear Modulus (GPa) = 23.18710 32.47996 27.83353
#
# Velocity S-wave (km/s) = 3.09931 3.66816 3.39567
# Velocity P-wave (km/s) = 4.85283 5.63886 5.26054
#
# Compressibility (1/GPa) = 0.03856403
#
# Stress axis : x y z
#
# Youngs Moduli (GPa) = 49.35040 155.28975 79.42467
#
# Poissons Ratio (x) = -0.03844 -0.01769
# Poissons Ratio (y) = -0.01222 0.06632
# Poissons Ratio (z) = -0.01099 0.12967
#
# Static dielectric constant tensor:
#      x y z
#    x 1.973590 0.000000 0.000000 
#    y 0.000000 1.951640 0.000000 
#    z 0.000000 0.000000 1.985330 
# 
# From -- ./inp_files/16932.got.cif
#   From: 2010.05.17/outbox.cif.g08.bks.cpg/sg62_9_cif.got.tgz:16932.got - 2010.06.03 15:25:27.
