data_PCOD9463483
_publ_section_title
;
Structure prediction by ZEFSAII (Michael W. Deem and Ramdas Pophale) SiO2 
 PCOD9463483
Probable space group: P N M A
;
_chemical_formula_sum "Si O2"
_cell_formula_units_Z 64
_cell_length_a 14.708896
_cell_length_b 17.614446
_cell_length_c 12.316347
_cell_angle_alpha 90.000000
_cell_angle_beta 90.000000
_cell_angle_gamma 90.000000
_cell_volume 3191.030697
_symmetry_space_group_name_H-M "P N M A"
_symmetry_group_IT_number 62
_symmetry_cell_setting 'orthorhombic'
loop_
_space_group_symop_operation_xyz
x,y,z
1/2-x,-y,1/2+z
1/2+x,1/2-y,1/2-z
-x,1/2+y,-z
-x,-y,-z
1/2+x,y,1/2-z
1/2-x,1/2+y,1/2+z
x,1/2-y,z
loop_
_atom_site_type_symbol
_atom_site_label
_atom_site_fract_x
_atom_site_fract_y
_atom_site_fract_z
Si Si1 0.495239 0.982420 0.321631
Si Si2 0.572056 0.163133 0.041591
Si Si3 0.914048 0.061114 0.372342
Si Si4 0.783467 0.933196 0.457417
Si Si5 0.258216 0.837922 0.252407
Si Si6 0.723680 0.660907 0.004028
Si Si7 0.371966 0.948282 0.523929
Si Si8 0.527847 0.332480 0.786203
O O1 0.444543 0.952343 0.428394
O O2 0.521627 0.908011 0.252936
O O3 0.427175 0.034160 0.251101
O O4 0.580307 0.029743 0.363976
O O5 0.565812 0.250000 0.083967
O O6 0.510080 0.099543 0.097958
O O7 0.675224 0.132036 0.033800
O O8 0.538039 0.167157 0.916156
O O9 0.843963 0.123011 0.418296
O O10 0.871589 0.985404 0.427748
O O11 0.743767 0.893167 0.349227
O O12 0.706881 0.989785 0.500432
O O13 0.233482 0.750000 0.229225
O O14 0.215048 0.861270 0.367891
O O15 0.369019 0.837691 0.260653
O O16 0.712903 0.750000 0.001070
O O17 0.823266 0.632185 0.972011
O O18 0.489477 0.250000 0.754164
#
# Coordination Sequence:
#
# PCOD9463483 Si02
#       8
#     8   8   8   8   8   8   8   8
#     4  11  21  40  58  84 119 154 202 246 294 355
#     4  10  20  36  56  83 118 153 185 230 298 361
#     4  11  21  35  57  86 119 150 190 246 301 355
#     4  10  19  36  56  88 116 147 187 242 301 353
#     4   9  16  32  59  85 111 144 183 240 300 348
#     4  10  20  37  60  86 115 151 200 249 297 357
#     4  10  23  38  60  84 112 157 203 247 292 351
#     4   9  17  32  57  84 112 144 183 237 295 345
#
# _framework density 20.056214000000001
#
# number of rings (size 3 to 8) (size 9 to 14) (size 15 to 20)
#    0.000    2.000    3.750    1.875    0.000    1.000 
#    6.750    3.750    0.000    5.250    0.000    0.000 
#    0.000    0.000    0.000    0.000    0.000    0.000 
#
# Total GULP energy -356660.793963 kJ/mol
# GULP energy per Si atom -5572.824906 kJ/mol
# Density = 2.001057 g / cm^3
# Si number density = 20.056214 Si / 1000 Ang^3
#
#
#
# Elastic Constant Matrix: (Units=GPa)
#
#
# Indices 1 2 3 4 5 6 
#
# 1 21.0621 -9.6269 -5.7408 0.0000 0.0000 0.0000
# 2 -9.6269 72.6518 17.7443 0.0000 0.0000 0.0000
# 3 -5.7408 17.7443 22.7325 0.0000 0.0000 0.0000
# 4 0.0000 0.0000 0.0000 24.8474 0.0000 0.0000
# 5 0.0000 0.0000 0.0000 0.0000 27.4851 0.0000
# 6 0.0000 0.0000 0.0000 0.0000 0.0000 5.0966
#
#
#
# Elastic Compliance Matrix: (Units=1/GPa)
#
#
# Indices 1 2 3 4 5 6 
#
# 1 0.052186 0.004567 0.009614 0.000000 0.000000 0.000000
# 2 0.004567 0.017406 -0.012433 0.000000 0.000000 0.000000
# 3 0.009614 -0.012433 0.056123 0.000000 0.000000 0.000000
# 4 0.000000 0.000000 0.000000 0.040246 0.000000 0.000000
# 5 0.000000 0.000000 0.000000 0.000000 0.036383 0.000000
# 6 0.000000 0.000000 0.000000 0.000000 0.000000 0.196211
#
#
# Mechanical properties :
#
#
# Convention : Reuss Voigt Hill
#
# Bulk Modulus (GPa) = 7.73928 13.46663 10.60296
# Shear Modulus (GPa) = 11.41213 19.09048 15.25130
#
# Velocity S-wave (km/s) = 2.38797 3.08855 2.76058
# Velocity P-wave (km/s) = 3.38680 4.40998 3.93181
#
# Compressibility (1/GPa) = 0.12921098
#
# Stress axis : x y z
#
# Youngs Moduli (GPa) = 19.16206 57.45103 17.81803
#
# Poissons Ratio (x) = -0.26238 -0.17130
# Poissons Ratio (y) = -0.08751 0.22154
# Poissons Ratio (z) = -0.18423 0.71431
#
# Static dielectric constant tensor:
#      x y z
#    x 1.759430 0.000000 0.000000 
#    y 0.000000 1.723140 0.000000 
#    z 0.000000 0.000000 1.695090 
# 
# From -- ./inp_files/13582.got.cif
#   From: 2010.05.17/outbox.cif.g08.bks.cpg/sg62_7_cif.got.tgz:13582.got - 2010.06.03 15:25:27.
