data_PCOD9463591
_publ_section_title
;
Structure prediction by ZEFSAII (Michael W. Deem and Ramdas Pophale) SiO2 
 PCOD9463591
Probable space group: P N M A
;
_chemical_formula_sum "Si O2"
_cell_formula_units_Z 64
_cell_length_a 19.999695
_cell_length_b 18.484760
_cell_length_c 8.245415
_cell_angle_alpha 90.000000
_cell_angle_beta 90.000000
_cell_angle_gamma 90.000000
_cell_volume 3048.243861
_symmetry_space_group_name_H-M "P N M A"
_symmetry_group_IT_number 62
_symmetry_cell_setting 'orthorhombic'
loop_
_space_group_symop_operation_xyz
x,y,z
1/2-x,-y,1/2+z
1/2+x,1/2-y,1/2-z
-x,1/2+y,-z
-x,-y,-z
1/2+x,y,1/2-z
1/2-x,1/2+y,1/2+z
x,1/2-y,z
loop_
_atom_site_type_symbol
_atom_site_label
_atom_site_fract_x
_atom_site_fract_y
_atom_site_fract_z
Si Si1 0.080256 0.328688 0.299482
Si Si2 0.487683 0.667187 0.149417
Si Si3 0.612678 0.906594 0.988196
Si Si4 0.925725 0.031710 0.973720
Si Si5 0.824336 0.549921 0.770049
Si Si6 0.121106 0.050994 0.715633
Si Si7 0.246249 0.429675 0.889699
Si Si8 0.439693 0.164226 0.342206
O O1 0.101571 0.250000 0.241342
O O2 0.047531 0.323717 0.474878
O O3 0.141812 0.381397 0.307842
O O4 0.018303 0.353420 0.188901
O O5 0.496899 0.750000 0.214159
O O6 0.435933 0.612065 0.233239
O O7 0.554355 0.622431 0.105803
O O8 0.599640 0.863417 0.818391
O O9 0.611521 0.992696 0.932218
O O10 0.683517 0.890257 0.073547
O O11 0.885917 0.002986 0.818882
O O12 0.922472 0.117587 0.999995
O O13 0.886580 0.999851 0.128159
O O14 0.000000 0.000000 0.000000
O O15 0.770940 0.509749 0.660314
O O16 0.790219 0.572305 0.938200
O O17 0.193845 0.087954 0.744903
O O18 0.432517 0.250000 0.357451
#
# Coordination Sequence:
#
# PCOD9463591 Si02
#       8
#     8   8   8   8   8   8   8   8
#     4   9  18  34  60  88 116 153 196 249 308 369
#     4  10  21  38  62  92 122 157 206 259 313 371
#     4  10  19  36  62  90 116 157 210 255 305 366
#     4  10  20  34  59  92 114 150 206 256 314 365
#     4  11  22  38  60  88 120 157 206 257 304 373
#     4  10  21  37  58  88 120 159 203 257 308 364
#     4  11  23  38  59  86 123 162 204 251 309 369
#     4   9  18  36  60  89 121 151 196 254 308 371
#
# _framework density 20.995695000000001
#
# number of rings (size 3 to 8) (size 9 to 14) (size 15 to 20)
#    0.000    2.000    2.500    2.250    1.750    0.000 
#    0.000    5.625    0.000    1.500    0.000    0.000 
#    0.000    0.000    0.000    0.000    0.000    0.000 
#
# Total GULP energy -356634.398857 kJ/mol
# GULP energy per Si atom -5572.412482 kJ/mol
# Density = 2.094791 g / cm^3
# Si number density = 20.995695 Si / 1000 Ang^3
#
#
#
# Elastic Constant Matrix: (Units=GPa)
#
#
# Indices 1 2 3 4 5 6 
#
# 1 131.8055 46.2160 14.4759 0.0000 0.0000 0.0000
# 2 46.2160 95.3322 17.2548 0.0000 0.0000 0.0000
# 3 14.4759 17.2548 29.2978 0.0000 0.0000 0.0000
# 4 0.0000 0.0000 0.0000 2.7553 0.0000 0.0000
# 5 0.0000 0.0000 0.0000 0.0000 27.6580 0.0000
# 6 0.0000 0.0000 0.0000 0.0000 0.0000 4.7419
#
#
#
# Elastic Compliance Matrix: (Units=1/GPa)
#
#
# Indices 1 2 3 4 5 6 
#
# 1 0.009262 -0.004099 -0.002162 0.000000 0.000000 0.000000
# 2 -0.004099 0.013555 -0.005958 0.000000 0.000000 0.000000
# 3 -0.002162 -0.005958 0.038710 0.000000 0.000000 0.000000
# 4 0.000000 0.000000 0.000000 0.362943 0.000000 0.000000
# 5 0.000000 0.000000 0.000000 0.000000 0.036156 0.000000
# 6 0.000000 0.000000 0.000000 0.000000 0.000000 0.210885
#
#
# Mechanical properties :
#
#
# Convention : Reuss Voigt Hill
#
# Bulk Modulus (GPa) = 26.96261 45.81432 36.38847
# Shear Modulus (GPa) = 7.05905 18.93028 12.99466
#
# Velocity S-wave (km/s) = 1.83560 3.00597 2.49051
# Velocity P-wave (km/s) = 4.16683 5.82374 5.06352
#
# Compressibility (1/GPa) = 0.03708839
#
# Stress axis : x y z
#
# Youngs Moduli (GPa) = 107.97374 73.77384 25.83338
#
# Poissons Ratio (x) = 0.30236 0.05586
# Poissons Ratio (y) = 0.44253 0.15392
# Poissons Ratio (z) = 0.23347 0.43955
#
# Static dielectric constant tensor:
#      x y z
#    x 1.865490 0.000000 0.000000 
#    y 0.000000 1.778680 0.000000 
#    z 0.000000 0.000000 1.804270 
# 
# From -- ./inp_files/8866.got.cif
#   From: 2010.05.17/outbox.cif.g08.bks.cpg/sg62_5_cif.got.tgz:8866.got - 2010.06.03 15:25:27.
