data_PCOD9463895
_publ_section_title
;
Structure prediction by ZEFSAII (Michael W. Deem and Ramdas Pophale) SiO2 
 PCOD9463895
Probable space group: P N M A
;
_chemical_formula_sum "Si O2"
_cell_formula_units_Z 48
_cell_length_a 5.315195
_cell_length_b 17.631349
_cell_length_c 31.723910
_cell_angle_alpha 90.000000
_cell_angle_beta 90.000000
_cell_angle_gamma 90.000000
_cell_volume 2972.976343
_symmetry_space_group_name_H-M "P N M A"
_symmetry_group_IT_number 62
_symmetry_cell_setting 'orthorhombic'
loop_
_space_group_symop_operation_xyz
x,y,z
1/2-x,-y,1/2+z
1/2+x,1/2-y,1/2-z
-x,1/2+y,-z
-x,-y,-z
1/2+x,y,1/2-z
1/2-x,1/2+y,1/2+z
x,1/2-y,z
loop_
_atom_site_type_symbol
_atom_site_label
_atom_site_fract_x
_atom_site_fract_y
_atom_site_fract_z
Si Si1 0.187848 0.582078 0.582727
Si Si2 0.656255 0.401467 0.915700
Si Si3 0.343251 0.841221 0.371050
Si Si4 0.691473 0.662730 0.590998
Si Si5 0.569290 0.342276 0.725945
Si Si6 0.466176 0.837200 0.992627
O O1 0.175005 0.492216 0.584194
O O2 0.444076 0.615802 0.600802
O O3 0.946445 0.620700 0.605058
O O4 0.159477 0.611515 0.534204
O O5 0.417689 0.375244 0.887957
O O6 0.916921 0.367666 0.898175
O O7 0.603575 0.371055 0.962684
O O8 0.324853 0.750000 0.373050
O O9 0.391719 0.864037 0.322554
O O10 0.678441 0.750000 0.604860
O O11 0.731949 0.663933 0.540017
O O12 0.305062 0.367402 0.745703
O O13 0.567118 0.250000 0.726712
O O14 0.555157 0.750000 0.996654
#
# Coordination Sequence:
#
# PCOD9463895 Si02
#       6
#     8   8   8   8   8   8
#     4  10  20  33  48  67  90 123 168 208 248 290
#     4  12  23  33  48  70 100 128 157 207 259 287
#     4  11  23  36  49  72 100 127 160 197 246 291
#     4   9  18  32  50  66  84 116 170 213 241 280
#     4   9  17  32  54  72  89 118 158 196 223 270
#     4   9  20  33  49  65  87 127 176 212 242 282
#
# _framework density 16.145437000000001
#
# number of rings (size 3 to 8) (size 9 to 14) (size 15 to 20)
#    1.000    1.000    0.000    5.000    2.333    3.333 
#    0.000    0.000    0.000    0.000    0.000    0.000 
#    0.000    0.000    0.000    0.000    0.000  343.333 
#
# Total GULP energy -267383.006624 kJ/mol
# GULP energy per Si atom -5570.479305 kJ/mol
# Density = 1.610869 g / cm^3
# Si number density = 16.145437 Si / 1000 Ang^3
#
#
#
# Elastic Constant Matrix: (Units=GPa)
#
#
# Indices 1 2 3 4 5 6 
#
# 1 53.5353 2.6257 0.1380 0.0000 0.0000 0.0000
# 2 2.6257 83.1285 8.0716 0.0000 0.0000 0.0000
# 3 0.1380 8.0716 7.2916 0.0000 0.0000 0.0000
# 4 0.0000 0.0000 0.0000 7.9928 0.0000 0.0000
# 5 0.0000 0.0000 0.0000 0.0000 10.1049 0.0000
# 6 0.0000 0.0000 0.0000 0.0000 0.0000 15.4779
#
#
#
# Elastic Compliance Matrix: (Units=1/GPa)
#
#
# Indices 1 2 3 4 5 6 
#
# 1 0.018709 -0.000624 0.000336 0.000000 0.000000 0.000000
# 2 -0.000624 0.013499 -0.014931 0.000000 0.000000 0.000000
# 3 0.000336 -0.014931 0.153667 0.000000 0.000000 0.000000
# 4 0.000000 0.000000 0.000000 0.125113 0.000000 0.000000
# 5 0.000000 0.000000 0.000000 0.000000 0.098962 0.000000
# 6 0.000000 0.000000 0.000000 0.000000 0.000000 0.064608
#
#
# Mechanical properties :
#
#
# Convention : Reuss Voigt Hill
#
# Bulk Modulus (GPa) = 6.43348 18.40291 12.41820
# Shear Modulus (GPa) = 8.97977 15.58979 12.28478
#
# Velocity S-wave (km/s) = 2.36090 3.11076 2.76140
# Velocity P-wave (km/s) = 3.38012 4.93208 4.22792
#
# Compressibility (1/GPa) = 0.15543683
#
# Stress axis : x y z
#
# Youngs Moduli (GPa) = 53.45026 74.07908 6.50760
#
# Poissons Ratio (x) = 0.04619 -0.00219
# Poissons Ratio (y) = 0.03333 0.09717
# Poissons Ratio (z) = -0.01796 1.10610
#
# Static dielectric constant tensor:
#      x y z
#    x 1.555660 0.000000 0.000000 
#    y 0.000000 1.528300 0.000000 
#    z 0.000000 0.000000 1.517200 
# 
# From -- ./inp_files/30416.got.cif
#   From: 2010.05.17/outbox.cif.g08.bks.cpg/sg62_16_cif.got.tgz:30416.got - 2010.06.03 15:25:27.
