data_PCOD9463841
_publ_section_title
;
Structure prediction by ZEFSAII (Michael W. Deem and Ramdas Pophale) SiO2 
 PCOD9463841
Probable space group: P N M A
;
_chemical_formula_sum "Si O2"
_cell_formula_units_Z 64
_cell_length_a 31.299641
_cell_length_b 8.278480
_cell_length_c 14.856199
_cell_angle_alpha 90.000000
_cell_angle_beta 90.000000
_cell_angle_gamma 90.000000
_cell_volume 3849.441007
_symmetry_space_group_name_H-M "P N M A"
_symmetry_group_IT_number 62
_symmetry_cell_setting 'orthorhombic'
loop_
_space_group_symop_operation_xyz
x,y,z
1/2-x,-y,1/2+z
1/2+x,1/2-y,1/2-z
-x,1/2+y,-z
-x,-y,-z
1/2+x,y,1/2-z
1/2-x,1/2+y,1/2+z
x,1/2-y,z
loop_
_atom_site_type_symbol
_atom_site_label
_atom_site_fract_x
_atom_site_fract_y
_atom_site_fract_z
Si Si1 0.951827 0.945728 0.396760
Si Si2 0.232100 0.557954 0.992743
Si Si3 0.451619 0.054786 0.898267
Si Si4 0.203899 0.058146 0.175855
Si Si5 0.366986 0.563659 0.183092
Si Si6 0.213639 0.557155 0.790565
Si Si7 0.826284 0.062227 0.492219
Si Si8 0.134539 0.943922 0.313109
O O1 0.950803 0.750000 0.396114
O O2 0.915007 0.003741 0.328717
O O3 0.000226 0.998660 0.375336
O O4 0.942626 0.000521 0.499188
O O5 0.240679 0.750000 0.988649
O O6 0.202335 0.522103 0.077859
O O7 0.275979 0.465523 0.012908
O O8 0.216280 0.503341 0.894372
O O9 0.450920 0.250000 0.898670
O O10 0.414092 0.001045 0.831275
O O11 0.208645 0.250000 0.164308
O O12 0.245905 0.995868 0.231396
O O13 0.162049 0.022440 0.234615
O O14 0.369714 0.750000 0.209887
O O15 0.331631 0.483090 0.245931
O O16 0.348362 0.546912 0.082349
O O17 0.218067 0.750000 0.791073
O O18 0.836790 0.250000 0.473342
O O19 0.841558 0.023223 0.592441
O O20 0.134646 0.750000 0.299673
#
# Coordination Sequence:
#
# PCOD9463841 Si02
#       8
#     8   8   8   8   8   8   8   8
#     4   9  18  30  46  71 101 130 164 204 246 291
#     4  11  22  37  52  69  96 130 168 206 244 285
#     4   9  17  31  48  69  99 133 166 201 243 293
#     4  11  22  35  51  73 100 129 164 204 247 291
#     4  11  21  31  48  73 100 134 169 203 244 290
#     4  10  22  36  50  70  97 130 166 203 243 291
#     4  11  20  30  47  71 100 132 168 203 239 283
#     4  10  20  32  49  72  98 135 172 201 240 291
#
# _framework density 16.625789000000001
#
# number of rings (size 3 to 8) (size 9 to 14) (size 15 to 20)
#    0.000    1.750    3.750    1.500    0.000    3.000 
#    0.000    0.000    0.000    0.000    0.000    0.875 
#    0.000    0.000    0.000    0.000    0.000    0.000 
#
# Total GULP energy -356990.559884 kJ/mol
# GULP energy per Si atom -5577.977498 kJ/mol
# Density = 1.658795 g / cm^3
# Si number density = 16.625789 Si / 1000 Ang^3
#
#
#
# Elastic Constant Matrix: (Units=GPa)
#
#
# Indices 1 2 3 4 5 6 
#
# 1 104.4012 -3.2720 33.2150 0.0000 0.0000 0.0000
# 2 -3.2720 7.7208 7.5913 0.0000 0.0000 0.0000
# 3 33.2150 7.5913 72.7246 0.0000 0.0000 0.0000
# 4 0.0000 0.0000 0.0000 17.3192 0.0000 0.0000
# 5 0.0000 0.0000 0.0000 0.0000 21.4095 0.0000
# 6 0.0000 0.0000 0.0000 0.0000 0.0000 13.9824
#
#
#
# Elastic Compliance Matrix: (Units=1/GPa)
#
#
# Indices 1 2 3 4 5 6 
#
# 1 0.012095 0.011765 -0.006752 0.000000 0.000000 0.000000
# 2 0.011765 0.155778 -0.021634 0.000000 0.000000 0.000000
# 3 -0.006752 -0.021634 0.019093 0.000000 0.000000 0.000000
# 4 0.000000 0.000000 0.000000 0.057739 0.000000 0.000000
# 5 0.000000 0.000000 0.000000 0.000000 0.046708 0.000000
# 6 0.000000 0.000000 0.000000 0.000000 0.000000 0.071519
#
#
# Mechanical properties :
#
#
# Convention : Reuss Voigt Hill
#
# Bulk Modulus (GPa) = 6.50518 28.87946 17.69232
# Shear Modulus (GPa) = 11.17527 20.36304 15.76915
#
# Velocity S-wave (km/s) = 2.59543 3.50349 3.08307
# Velocity P-wave (km/s) = 3.59205 5.81153 4.83098
#
# Compressibility (1/GPa) = 0.15372361
#
# Stress axis : x y z
#
# Youngs Moduli (GPa) = 82.67604 6.41938 52.37602
#
# Poissons Ratio (x) = -0.07552 0.35366
# Poissons Ratio (y) = -0.97269 1.13311
# Poissons Ratio (z) = 0.55826 0.13888
#
# Static dielectric constant tensor:
#      x y z
#    x 1.596830 0.000000 0.000000 
#    y 0.000000 1.571550 0.000000 
#    z 0.000000 0.000000 1.544500 
# 
# From -- ./inp_files/21257.got.cif
#   From: 2010.05.17/outbox.cif.g08.bks.cpg/sg62_11_cif.got.tgz:21257.got - 2010.06.03 15:25:27.
