data_PCOD9463111
_publ_section_title
;
Structure prediction by ZEFSAII (Michael W. Deem and Ramdas Pophale) SiO2 
 PCOD9463111
Probable space group: P N M A
;
_chemical_formula_sum "Si O2"
_cell_formula_units_Z 48
_cell_length_a 33.159032
_cell_length_b 13.445897
_cell_length_c 5.208185
_cell_angle_alpha 90.000000
_cell_angle_beta 90.000000
_cell_angle_gamma 90.000000
_cell_volume 2322.084536
_symmetry_space_group_name_H-M "P N M A"
_symmetry_group_IT_number 62
_symmetry_cell_setting 'orthorhombic'
loop_
_space_group_symop_operation_xyz
x,y,z
1/2-x,-y,1/2+z
1/2+x,1/2-y,1/2-z
-x,1/2+y,-z
-x,-y,-z
1/2+x,y,1/2-z
1/2-x,1/2+y,1/2+z
x,1/2-y,z
loop_
_atom_site_type_symbol
_atom_site_label
_atom_site_fract_x
_atom_site_fract_y
_atom_site_fract_z
Si Si1 0.465274 0.537392 0.309635
Si Si2 0.117905 0.863929 0.305890
Si Si3 0.251590 0.137600 0.200920
Si Si4 0.624415 0.992269 0.672454
Si Si5 0.469637 0.354952 0.926515
Si Si6 0.205171 0.071408 0.700928
O O1 0.500000 0.500000 0.500000
O O2 0.418901 0.542686 0.389883
O O3 0.486532 0.635365 0.199030
O O4 0.464759 0.450842 0.098780
O O5 0.132711 0.750000 0.314315
O O6 0.121620 0.917401 0.582283
O O7 0.069604 0.858561 0.243883
O O8 0.136861 0.929715 0.080398
O O9 0.267780 0.250000 0.224781
O O10 0.220559 0.115562 0.433139
O O11 0.283187 0.046529 0.209337
O O12 0.228871 0.124509 0.930750
O O13 0.657761 0.072883 0.747970
O O14 0.466136 0.250000 0.069937
#
# Coordination Sequence:
#
# PCOD9463111 Si02
#       6
#     8   8   8   8   8   8
#     4  10  19  34  55  76 108 156 190 230 289 331
#     4  10  20  33  53  81 113 152 192 240 292 333
#     4  10  21  41  65  87 118 155 191 235 293 357
#     4  11  21  36  57  83 120 148 189 242 285 339
#     4   9  19  34  51  75 106 147 198 237 277 334
#     4  10  22  39  62  93 119 152 193 238 292 347
#
# _framework density 20.67108
#
# number of rings (size 3 to 8) (size 9 to 14) (size 15 to 20)
#    0.000    2.000    1.667    2.000    0.000    2.667 
#    0.000    1.667    0.000    0.000    0.000    0.000 
#    0.000    0.000    0.000    0.000    0.000    0.000 
#
# Total GULP energy -267508.814390 kJ/mol
# GULP energy per Si atom -5573.100300 kJ/mol
# Density = 2.062403 g / cm^3
# Si number density = 20.671080 Si / 1000 Ang^3
#
#
#
# Elastic Constant Matrix: (Units=GPa)
#
#
# Indices 1 2 3 4 5 6 
#
# 1 51.2231 -13.5649 -20.0543 0.0000 0.0000 0.0000
# 2 -13.5649 68.9446 -0.5357 0.0000 0.0000 0.0000
# 3 -20.0543 -0.5357 57.7348 0.0000 0.0000 0.0000
# 4 0.0000 0.0000 0.0000 11.8491 0.0000 0.0000
# 5 0.0000 0.0000 0.0000 0.0000 16.7787 0.0000
# 6 0.0000 0.0000 0.0000 0.0000 0.0000 8.4565
#
#
#
# Elastic Compliance Matrix: (Units=1/GPa)
#
#
# Indices 1 2 3 4 5 6 
#
# 1 0.024088 0.004805 0.008412 0.000000 0.000000 0.000000
# 2 0.004805 0.015464 0.001812 0.000000 0.000000 0.000000
# 3 0.008412 0.001812 0.020259 0.000000 0.000000 0.000000
# 4 0.000000 0.000000 0.000000 0.084394 0.000000 0.000000
# 5 0.000000 0.000000 0.000000 0.000000 0.059599 0.000000
# 6 0.000000 0.000000 0.000000 0.000000 0.000000 0.118253
#
#
# Mechanical properties :
#
#
# Convention : Reuss Voigt Hill
#
# Bulk Modulus (GPa) = 11.12737 12.17697 11.65217
# Shear Modulus (GPa) = 15.53007 21.55402 18.54204
#
# Velocity S-wave (km/s) = 2.74395 3.23261 2.99825
# Velocity P-wave (km/s) = 3.92858 4.45383 4.19943
#
# Compressibility (1/GPa) = 0.08986846
#
# Stress axis : x y z
#
# Youngs Moduli (GPa) = 41.51435 64.66713 49.36035
#
# Poissons Ratio (x) = -0.31071 -0.41520
# Poissons Ratio (y) = -0.19946 -0.08946
# Poissons Ratio (z) = -0.34920 -0.11720
#
# Static dielectric constant tensor:
#      x y z
#    x 1.840850 0.000000 0.000000 
#    y 0.000000 1.752160 0.000000 
#    z 0.000000 0.000000 1.796990 
# 
# From -- ./inp_files/3551.got.cif
#   From: 2010.05.17/outbox.cif.g08.bks.cpg/sg62_2_cif.got.tgz:3551.got - 2010.06.03 15:25:27.
