data_PCOD9463379
_publ_section_title
;
Structure prediction by ZEFSAII (Michael W. Deem and Ramdas Pophale) SiO2 
 PCOD9463379
Probable space group: P N M A
;
_chemical_formula_sum "Si O2"
_cell_formula_units_Z 64
_cell_length_a 29.282274
_cell_length_b 7.666111
_cell_length_c 12.677864
_cell_angle_alpha 90.000000
_cell_angle_beta 90.000000
_cell_angle_gamma 90.000000
_cell_volume 2845.941653
_symmetry_space_group_name_H-M "P N M A"
_symmetry_group_IT_number 62
_symmetry_cell_setting 'orthorhombic'
loop_
_space_group_symop_operation_xyz
x,y,z
1/2-x,-y,1/2+z
1/2+x,1/2-y,1/2-z
-x,1/2+y,-z
-x,-y,-z
1/2+x,y,1/2-z
1/2-x,1/2+y,1/2+z
x,1/2-y,z
loop_
_atom_site_type_symbol
_atom_site_label
_atom_site_fract_x
_atom_site_fract_y
_atom_site_fract_z
Si Si1 0.467290 0.047487 0.226723
Si Si2 0.118006 0.453229 0.310482
Si Si3 0.188329 0.963496 0.859855
Si Si4 0.947730 0.050883 0.861030
Si Si5 0.569398 0.956140 0.980071
Si Si6 0.288323 0.952299 0.911296
Si Si7 0.908895 0.035489 0.078208
Si Si8 0.168121 0.542285 0.622524
O O1 0.454431 0.250000 0.211746
O O2 0.467381 0.976536 0.106429
O O3 0.431031 0.975011 0.311587
O O4 0.514490 0.040280 0.289443
O O5 0.123337 0.250000 0.284811
O O6 0.098207 0.545722 0.208183
O O7 0.081424 0.464218 0.406733
O O8 0.166514 0.525773 0.352935
O O9 0.188794 0.750000 0.863959
O O10 0.238418 0.028363 0.890807
O O11 0.144085 0.016851 0.927098
O O12 0.177985 0.016660 0.740020
O O13 0.963133 0.250000 0.873127
O O14 0.937625 0.977026 0.976707
O O15 0.563136 0.750000 0.000744
O O16 0.616229 0.986510 0.913870
O O17 0.286262 0.750000 0.878583
O O18 0.299755 0.960529 0.034560
O O19 0.910604 0.250000 0.077962
O O20 0.175400 0.750000 0.619259
#
# Coordination Sequence:
#
# PCOD9463379 Si02
#       8
#     8   8   8   8   8   8   8   8
#     4  10  19  35  59  83 106 137 177 223 274 322
#     4  10  21  37  53  74 109 148 179 217 270 321
#     4   9  16  31  55  80 104 137 177 215 261 319
#     4  11  23  36  53  79 111 146 181 218 263 321
#     4   9  17  32  57  82 101 130 177 225 264 311
#     4   9  19  33  52  78 107 138 173 216 268 316
#     4   9  18  34  56  81 108 139 179 220 264 321
#     4   9  16  30  53  76 100 133 173 216 258 309
#
# _framework density 22.488163
#
# number of rings (size 3 to 8) (size 9 to 14) (size 15 to 20)
#    0.000    2.500    1.250    1.125    0.000    2.500 
#    0.000    1.250    0.000    3.000    0.000    0.000 
#    0.000    0.000    0.000    0.000    0.000    0.000 
#
# Total GULP energy -357160.075647 kJ/mol
# GULP energy per Si atom -5580.626182 kJ/mol
# Density = 2.243698 g / cm^3
# Si number density = 22.488163 Si / 1000 Ang^3
#
#
#
# Elastic Constant Matrix: (Units=GPa)
#
#
# Indices 1 2 3 4 5 6 
#
# 1 80.9749 -5.4340 6.4991 0.0000 0.0000 0.0000
# 2 -5.4340 33.7199 3.4439 0.0000 0.0000 0.0000
# 3 6.4991 3.4439 64.3179 0.0000 0.0000 0.0000
# 4 0.0000 0.0000 0.0000 10.9832 0.0000 0.0000
# 5 0.0000 0.0000 0.0000 0.0000 31.0531 0.0000
# 6 0.0000 0.0000 0.0000 0.0000 0.0000 -10.1383
#
#
#
# Elastic Compliance Matrix: (Units=1/GPa)
#
#
# Indices 1 2 3 4 5 6 
#
# 1 0.012607 0.002174 -0.001390 0.000000 0.000000 0.000000
# 2 0.002174 0.030194 -0.001836 0.000000 0.000000 0.000000
# 3 -0.001390 -0.001836 0.015787 0.000000 0.000000 0.000000
# 4 0.000000 0.000000 0.000000 0.091048 0.000000 0.000000
# 5 0.000000 0.000000 0.000000 0.000000 0.032203 0.000000
# 6 0.000000 0.000000 0.000000 0.000000 0.000000 -0.098636
#
#
# Mechanical properties :
#
#
# Convention : Reuss Voigt Hill
#
# Bulk Modulus (GPa) = 17.70494 20.89230 19.29862
# Shear Modulus (GPa) = 48.01420 18.01317 33.01369
#
# Velocity S-wave (km/s) = 4.62571 2.83328 3.83567
# Velocity P-wave (km/s) = 6.03488 4.47368 5.31195
#
# Compressibility (1/GPa) = 0.05648142
#
# Stress axis : x y z
#
# Youngs Moduli (GPa) = 79.32131 33.11921 63.34488
#
# Poissons Ratio (x) = -0.07199 0.08807
# Poissons Ratio (y) = -0.17241 0.11633
# Poissons Ratio (z) = 0.11028 0.06082
#
# Static dielectric constant tensor:
#      x y z
#    x 1.870010 0.000000 0.000000 
#    y 0.000000 2.077530 0.000000 
#    z 0.000000 0.000000 1.810230 
# 
# From -- ./inp_files/15823.got.cif
#   From: 2010.05.17/outbox.cif.g08.bks.cpg/sg62_8_cif.got.tgz:15823.got - 2010.06.03 15:25:27.
