data_PCOD9463808
_publ_section_title
;
Structure prediction by ZEFSAII (Michael W. Deem and Ramdas Pophale) SiO2 
 PCOD9463808
Probable space group: P N M A
;
_chemical_formula_sum "Si O2"
_cell_formula_units_Z 56
_cell_length_a 19.875407
_cell_length_b 7.380356
_cell_length_c 14.188306
_cell_angle_alpha 90.000000
_cell_angle_beta 90.000000
_cell_angle_gamma 90.000000
_cell_volume 2081.248262
_symmetry_space_group_name_H-M "P N M A"
_symmetry_group_IT_number 62
_symmetry_cell_setting 'orthorhombic'
loop_
_space_group_symop_operation_xyz
x,y,z
1/2-x,-y,1/2+z
1/2+x,1/2-y,1/2-z
-x,1/2+y,-z
-x,-y,-z
1/2+x,y,1/2-z
1/2-x,1/2+y,1/2+z
x,1/2-y,z
loop_
_atom_site_type_symbol
_atom_site_label
_atom_site_fract_x
_atom_site_fract_y
_atom_site_fract_z
Si Si1 0.929273 0.465379 0.949914
Si Si2 0.851492 0.955149 0.205445
Si Si3 0.207231 0.529474 0.280556
Si Si4 0.361489 0.042244 0.079037
Si Si5 0.494761 0.527976 0.273911
Si Si6 0.214240 0.967555 0.058680
Si Si7 0.075754 0.971042 0.396473
O O1 0.921437 0.250000 0.946071
O O2 0.945726 0.526921 0.843633
O O3 0.856696 0.531178 0.986031
O O4 0.000000 0.500000 0.000000
O O5 0.851989 0.750000 0.170906
O O6 0.779478 0.038130 0.180991
O O7 0.923908 0.040379 0.185482
O O8 0.854129 0.947325 0.320622
O O9 0.208714 0.750000 0.283740
O O10 0.205622 0.484183 0.169756
O O11 0.142378 0.472679 0.338444
O O12 0.377601 0.250000 0.100069
O O13 0.287138 0.040790 0.030787
O O14 0.413763 0.965550 0.003024
O O15 0.491710 0.750000 0.274630
O O16 0.513319 0.472326 0.168261
O O17 0.219554 0.750000 0.050818
O O18 0.075584 0.750000 0.399968
#
# Coordination Sequence:
#
# PCOD9463808 Si02
#       7
#     8   8   8   8   8   8   8
#     4  10  20  34  55  81 107 137 173 216 266 316
#     4   9  18  32  52  75 101 134 173 213 253 307
#     4   8  13  26  48  69  90 123 167 210 245 284
#     4  10  20  31  49  78 106 133 168 218 269 304
#     4   9  17  32  53  76 100 135 181 216 247 304
#     4   9  17  33  54  72  97 134 173 212 256 307
#     4   9  16  28  49  75 100 129 174 219 252 294
#
# _framework density 26.906929999999999
#
# number of rings (size 3 to 8) (size 9 to 14) (size 15 to 20)
#    0.000    2.857    1.429    1.286    0.000    2.286 
#    0.000    3.571    0.000   11.143    0.000    0.000 
#    0.000    0.000    0.000    0.000    0.000    0.000 
#
# Total GULP energy -313104.149647 kJ/mol
# GULP energy per Si atom -5591.145529 kJ/mol
# Density = 2.684569 g / cm^3
# Si number density = 26.906930 Si / 1000 Ang^3
#
#
#
# Elastic Constant Matrix: (Units=GPa)
#
#
# Indices 1 2 3 4 5 6 
#
# 1 130.7633 5.2627 8.4980 0.0000 0.0000 0.0000
# 2 5.2627 111.0165 7.8554 0.0000 0.0000 0.0000
# 3 8.4980 7.8554 81.8214 0.0000 0.0000 0.0000
# 4 0.0000 0.0000 0.0000 11.9596 0.0000 0.0000
# 5 0.0000 0.0000 0.0000 0.0000 54.5135 0.0000
# 6 0.0000 0.0000 0.0000 0.0000 0.0000 11.5936
#
#
#
# Elastic Compliance Matrix: (Units=1/GPa)
#
#
# Indices 1 2 3 4 5 6 
#
# 1 0.007710 -0.000311 -0.000771 0.000000 0.000000 0.000000
# 2 -0.000311 0.009082 -0.000840 0.000000 0.000000 0.000000
# 3 -0.000771 -0.000840 0.012382 0.000000 0.000000 0.000000
# 4 0.000000 0.000000 0.000000 0.083615 0.000000 0.000000
# 5 0.000000 0.000000 0.000000 0.000000 0.018344 0.000000
# 6 0.000000 0.000000 0.000000 0.000000 0.000000 0.086255
#
#
# Mechanical properties :
#
#
# Convention : Reuss Voigt Hill
#
# Bulk Modulus (GPa) = 39.47684 40.75926 40.11805
# Shear Modulus (GPa) = 21.76991 35.74567 28.75779
#
# Velocity S-wave (km/s) = 2.84752 3.64880 3.27278
# Velocity P-wave (km/s) = 5.05120 5.73871 5.40590
#
# Compressibility (1/GPa) = 0.02533131
#
# Stress axis : x y z
#
# Youngs Moduli (GPa) = 129.70138 110.11011 80.75964
#
# Poissons Ratio (x) = 0.03424 0.06226
# Poissons Ratio (y) = 0.04033 0.06781
# Poissons Ratio (z) = 0.09999 0.09245
#
# Static dielectric constant tensor:
#      x y z
#    x 1.902260 0.000000 0.000000 
#    y 0.000000 2.033360 0.000000 
#    z 0.000000 0.000000 2.147560 
# 
# From -- ./inp_files/24583.got.cif
#   From: 2010.05.17/outbox.cif.g08.bks.cpg/sg62_13_cif.got.tgz:24583.got - 2010.06.03 15:25:27.
