data_PCOD9463872
_publ_section_title
;
Structure prediction by ZEFSAII (Michael W. Deem and Ramdas Pophale) SiO2 
 PCOD9463872
Probable space group: P N M A
;
_chemical_formula_sum "Si O2"
_cell_formula_units_Z 48
_cell_length_a 5.871110
_cell_length_b 13.989728
_cell_length_c 31.328162
_cell_angle_alpha 90.000000
_cell_angle_beta 90.000000
_cell_angle_gamma 90.000000
_cell_volume 2573.145853
_symmetry_space_group_name_H-M "P N M A"
_symmetry_group_IT_number 62
_symmetry_cell_setting 'orthorhombic'
loop_
_space_group_symop_operation_xyz
x,y,z
1/2-x,-y,1/2+z
1/2+x,1/2-y,1/2-z
-x,1/2+y,-z
-x,-y,-z
1/2+x,y,1/2-z
1/2-x,1/2+y,1/2+z
x,1/2-y,z
loop_
_atom_site_type_symbol
_atom_site_label
_atom_site_fract_x
_atom_site_fract_y
_atom_site_fract_z
Si Si1 0.630572 0.006442 0.926151
Si Si2 0.942690 0.358059 0.979139
Si Si3 0.004968 0.538337 0.863199
Si Si4 0.019572 0.363583 0.227042
Si Si5 0.747844 0.639960 0.099434
Si Si6 0.239252 0.358893 0.434759
O O1 0.785351 0.059717 0.960275
O O2 0.495765 0.090825 0.901885
O O3 0.773114 0.953161 0.889810
O O4 0.458041 0.932093 0.947113
O O5 0.850562 0.250000 0.970788
O O6 0.166324 0.364453 0.950047
O O7 0.940779 0.367278 0.030078
O O8 0.983383 0.571122 0.815086
O O9 0.093204 0.430323 0.872637
O O10 0.178198 0.607037 0.888671
O O11 0.269764 0.380418 0.249871
O O12 0.019730 0.250000 0.216514
O O13 0.752366 0.750000 0.112762
O O14 0.161613 0.250000 0.434478
#
# Coordination Sequence:
#
# PCOD9463872 Si02
#       6
#     8   8   8   8   8   8
#     4  10  20  32  53  78 108 149 192 239 283 338
#     4   9  18  33  50  75 111 152 194 234 279 336
#     4  10  22  37  56  83 112 145 185 240 293 351
#     4  10  23  42  68  94 121 155 192 237 294 366
#     4   9  19  35  56  80 111 150 193 236 282 339
#     4  10  21  33  49  76 114 151 189 237 286 339
#
# _framework density 18.654208000000001
#
# number of rings (size 3 to 8) (size 9 to 14) (size 15 to 20)
#    0.000    2.333    0.000    1.500    4.667    9.333 
#    0.000    3.333    0.000    1.000    0.000    0.000 
#    0.000    0.000    0.000    0.000    0.000    0.000 
#
# Total GULP energy -267437.419795 kJ/mol
# GULP energy per Si atom -5571.612912 kJ/mol
# Density = 1.861175 g / cm^3
# Si number density = 18.654208 Si / 1000 Ang^3
#
#
#
# Elastic Constant Matrix: (Units=GPa)
#
#
# Indices 1 2 3 4 5 6 
#
# 1 46.1267 19.0978 8.9588 0.0000 0.0000 0.0000
# 2 19.0978 109.5286 39.3719 0.0000 0.0000 0.0000
# 3 8.9588 39.3719 70.8106 0.0000 0.0000 0.0000
# 4 0.0000 0.0000 0.0000 24.1508 0.0000 0.0000
# 5 0.0000 0.0000 0.0000 0.0000 17.4730 0.0000
# 6 0.0000 0.0000 0.0000 0.0000 0.0000 10.3800
#
#
#
# Elastic Compliance Matrix: (Units=1/GPa)
#
#
# Indices 1 2 3 4 5 6 
#
# 1 0.023409 -0.003771 -0.000865 0.000000 0.000000 0.000000
# 2 -0.003771 0.012018 -0.006205 0.000000 0.000000 0.000000
# 3 -0.000865 -0.006205 0.017682 0.000000 0.000000 0.000000
# 4 0.000000 0.000000 0.000000 0.041406 0.000000 0.000000
# 5 0.000000 0.000000 0.000000 0.000000 0.057231 0.000000
# 6 0.000000 0.000000 0.000000 0.000000 0.000000 0.096339
#
#
# Mechanical properties :
#
#
# Convention : Reuss Voigt Hill
#
# Bulk Modulus (GPa) = 31.82009 40.14699 35.98354
# Shear Modulus (GPa) = 17.84167 21.00325 19.42246
#
# Velocity S-wave (km/s) = 3.09599 3.35912 3.23024
# Velocity P-wave (km/s) = 5.46582 6.05090 5.76578
#
# Compressibility (1/GPa) = 0.03142668
#
# Stress axis : x y z
#
# Youngs Moduli (GPa) = 42.71934 83.20812 56.55525
#
# Poissons Ratio (x) = 0.31375 0.04892
# Poissons Ratio (y) = 0.16108 0.35094
# Poissons Ratio (z) = 0.03695 0.51632
#
# Static dielectric constant tensor:
#      x y z
#    x 1.708810 0.000000 0.000000 
#    y 0.000000 1.650330 0.000000 
#    z 0.000000 0.000000 1.621200 
# 
# From -- ./inp_files/30395.got.cif
#   From: 2010.05.17/outbox.cif.g08.bks.cpg/sg62_16_cif.got.tgz:30395.got - 2010.06.03 15:25:27.
