data_PCOD9463742
_publ_section_title
;
Structure prediction by ZEFSAII (Michael W. Deem and Ramdas Pophale) SiO2 
 PCOD9463742
Probable space group: P N M A
;
_chemical_formula_sum "Si O2"
_cell_formula_units_Z 48
_cell_length_a 10.371811
_cell_length_b 8.509470
_cell_length_c 28.128160
_cell_angle_alpha 90.000000
_cell_angle_beta 90.000000
_cell_angle_gamma 90.000000
_cell_volume 2482.552431
_symmetry_space_group_name_H-M "P N M A"
_symmetry_group_IT_number 62
_symmetry_cell_setting 'orthorhombic'
loop_
_space_group_symop_operation_xyz
x,y,z
1/2-x,-y,1/2+z
1/2+x,1/2-y,1/2-z
-x,1/2+y,-z
-x,-y,-z
1/2+x,y,1/2-z
1/2-x,1/2+y,1/2+z
x,1/2-y,z
loop_
_atom_site_type_symbol
_atom_site_label
_atom_site_fract_x
_atom_site_fract_y
_atom_site_fract_z
Si Si1 0.103066 0.061701 0.462288
Si Si2 0.104887 0.939902 0.963037
Si Si3 0.022178 0.558668 0.857685
Si Si4 0.244504 0.559538 0.679524
Si Si5 0.024504 0.563302 0.358765
Si Si6 0.245253 0.059813 0.290040
O O1 0.101722 0.250000 0.463149
O O2 0.249016 0.008367 0.474004
O O3 0.068043 0.007228 0.409217
O O4 0.000000 0.000000 0.500000
O O5 0.103374 0.750000 0.963447
O O6 0.067522 0.992134 0.909777
O O7 0.000000 0.000000 0.000000
O O8 0.022210 0.750000 0.857376
O O9 0.877886 0.508593 0.844945
O O10 0.126440 0.509443 0.818338
O O11 0.237320 0.750000 0.677638
O O12 0.248865 0.513269 0.735022
O O13 0.118978 0.491702 0.654330
O O14 0.029535 0.750000 0.361735
O O15 0.122000 0.504515 0.317972
O O16 0.238475 0.250000 0.291579
#
# Coordination Sequence:
#
# PCOD9463742 Si02
#       6
#     8   8   8   8   8   8
#     4  11  24  44  67  91 122 159 206 258 310 370
#     4  10  22  40  62  88 121 155 194 248 304 361
#     4   9  18  36  60  88 118 152 197 250 304 355
#     4  10  21  37  64  94 120 160 209 255 301 359
#     4  12  25  40  60  91 131 168 203 248 308 370
#     4  10  19  39  66  90 119 159 209 257 304 358
#
# _framework density 19.334938000000001
#
# number of rings (size 3 to 8) (size 9 to 14) (size 15 to 20)
#    0.000    1.667    1.667    3.000    2.333    4.667 
#    0.000    0.833    0.000    0.000    0.000    0.000 
#    0.000    0.000    0.000    0.000    0.000    0.000 
#
# Total GULP energy -268294.222879 kJ/mol
# GULP energy per Si atom -5589.462977 kJ/mol
# Density = 1.929093 g / cm^3
# Si number density = 19.334938 Si / 1000 Ang^3
#
#
#
# Elastic Constant Matrix: (Units=GPa)
#
#
# Indices 1 2 3 4 5 6 
#
# 1 207.6508 33.3309 78.7900 0.0000 0.0000 0.0000
# 2 33.3309 31.0140 25.2757 0.0000 0.0000 0.0000
# 3 78.7900 25.2757 108.6209 0.0000 0.0000 0.0000
# 4 0.0000 0.0000 0.0000 24.9583 0.0000 0.0000
# 5 0.0000 0.0000 0.0000 0.0000 43.7986 0.0000
# 6 0.0000 0.0000 0.0000 0.0000 0.0000 20.1819
#
#
#
# Elastic Compliance Matrix: (Units=1/GPa)
#
#
# Indices 1 2 3 4 5 6 
#
# 1 0.007065 -0.004216 -0.004144 0.000000 0.000000 0.000000
# 2 -0.004216 0.042305 -0.006786 0.000000 0.000000 0.000000
# 3 -0.004144 -0.006786 0.013791 0.000000 0.000000 0.000000
# 4 0.000000 0.000000 0.000000 0.040067 0.000000 0.000000
# 5 0.000000 0.000000 0.000000 0.000000 0.022832 0.000000
# 6 0.000000 0.000000 0.000000 0.000000 0.000000 0.049549
#
#
# Mechanical properties :
#
#
# Convention : Reuss Voigt Hill
#
# Bulk Modulus (GPa) = 30.42325 69.11988 49.77157
# Shear Modulus (GPa) = 23.05683 31.78038 27.41860
#
# Velocity S-wave (km/s) = 3.45700 4.05863 3.76983
# Velocity P-wave (km/s) = 5.63058 7.60194 6.68928
#
# Compressibility (1/GPa) = 0.03286959
#
# Stress axis : x y z
#
# Youngs Moduli (GPa) = 141.55048 23.63806 72.51084
#
# Poissons Ratio (x) = 0.09965 0.30045
# Poissons Ratio (y) = 0.59671 0.49208
# Poissons Ratio (z) = 0.58651 0.16042
#
# Static dielectric constant tensor:
#      x y z
#    x 1.655600 0.000000 0.000000 
#    y 0.000000 1.670260 0.000000 
#    z 0.000000 0.000000 1.641340 
# 
# From -- ./inp_files/32043.got.cif
#   From: 2010.05.17/outbox.cif.g08.bks.cpg/sg62_17_cif.got.tgz:32043.got - 2010.06.03 15:25:27.
