data_PCOD9463230
_publ_section_title
;
Structure prediction by ZEFSAII (Michael W. Deem and Ramdas Pophale) SiO2 
 PCOD9463230
Probable space group: P N M A
;
_chemical_formula_sum "Si O2"
_cell_formula_units_Z 64
_cell_length_a 21.873709
_cell_length_b 8.651388
_cell_length_c 17.564628
_cell_angle_alpha 90.000000
_cell_angle_beta 90.000000
_cell_angle_gamma 90.000000
_cell_volume 3323.894082
_symmetry_space_group_name_H-M "P N M A"
_symmetry_group_IT_number 62
_symmetry_cell_setting 'orthorhombic'
loop_
_space_group_symop_operation_xyz
x,y,z
1/2-x,-y,1/2+z
1/2+x,1/2-y,1/2-z
-x,1/2+y,-z
-x,-y,-z
1/2+x,y,1/2-z
1/2-x,1/2+y,1/2+z
x,1/2-y,z
loop_
_atom_site_type_symbol
_atom_site_label
_atom_site_fract_x
_atom_site_fract_y
_atom_site_fract_z
Si Si1 0.877148 0.062522 0.276153
Si Si2 0.367802 0.933272 0.463444
Si Si3 0.348167 0.432535 0.789826
Si Si4 0.893939 0.435025 0.874014
Si Si5 0.276715 0.434307 0.345742
Si Si6 0.582081 0.566138 0.936395
Si Si7 0.561816 0.430127 0.096010
Si Si8 0.029407 0.935530 0.852730
O O1 0.878261 0.250000 0.279307
O O2 0.818237 0.017196 0.227040
O O3 0.880312 0.009345 0.363110
O O4 0.936255 0.018011 0.225666
O O5 0.391446 0.250000 0.618178
O O6 0.307164 0.984833 0.418426
O O7 0.424243 0.015348 0.419754
O O8 0.368062 0.986794 0.550354
O O9 0.336480 0.250000 0.792020
O O10 0.357904 0.480531 0.702445
O O11 0.292287 0.519563 0.829444
O O12 0.409118 0.471139 0.836882
O O13 0.875770 0.750000 0.041755
O O14 0.964182 0.486518 0.863310
O O15 0.283016 0.250000 0.354605
O O16 0.592326 0.750000 0.948411
O O17 0.510771 0.546813 0.913443
O O18 0.591434 0.478831 0.015444
O O19 0.572547 0.250000 0.111705
O O20 0.022474 0.750000 0.853073
#
# Coordination Sequence:
#
# PCOD9463230 Si02
#       8
#     8   8   8   8   8   8   8   8
#     4   8  16  32  56  83 109 145 185 230 281 334
#     4  11  22  38  60  86 117 154 193 232 284 344
#     4  11  24  41  59  81 112 152 194 240 290 341
#     4  11  23  38  57  85 118 151 192 240 288 341
#     4  10  21  40  62  82 110 147 192 240 288 338
#     4   9  17  33  56  83 115 146 185 231 280 341
#     4  10  20  34  55  83 114 150 186 230 285 340
#     4  10  19  34  58  88 122 155 189 233 289 343
#
# _framework density 19.254525000000001
#
# number of rings (size 3 to 8) (size 9 to 14) (size 15 to 20)
#    0.000    2.000    0.000    4.875    0.000    3.500 
#    2.250    3.750    0.000    0.000    0.000    0.000 
#    0.000    0.000    0.000    0.000    0.000    0.000 
#
# Total GULP energy -357502.849599 kJ/mol
# GULP energy per Si atom -5585.982025 kJ/mol
# Density = 1.921070 g / cm^3
# Si number density = 19.254525 Si / 1000 Ang^3
#
#
#
# Elastic Constant Matrix: (Units=GPa)
#
#
# Indices 1 2 3 4 5 6 
#
# 1 31.9309 2.2239 -9.8943 0.0000 0.0000 0.0000
# 2 2.2239 22.9106 -3.5583 0.0000 0.0000 0.0000
# 3 -9.8943 -3.5583 64.0296 0.0000 0.0000 0.0000
# 4 0.0000 0.0000 0.0000 24.1000 0.0000 0.0000
# 5 0.0000 0.0000 0.0000 0.0000 6.7199 0.0000
# 6 0.0000 0.0000 0.0000 0.0000 0.0000 21.9150
#
#
#
# Elastic Compliance Matrix: (Units=1/GPa)
#
#
# Indices 1 2 3 4 5 6 
#
# 1 0.033027 -0.002434 0.004968 0.000000 0.000000 0.000000
# 2 -0.002434 0.044207 0.002081 0.000000 0.000000 0.000000
# 3 0.004968 0.002081 0.016501 0.000000 0.000000 0.000000
# 4 0.000000 0.000000 0.000000 0.041494 0.000000 0.000000
# 5 0.000000 0.000000 0.000000 0.000000 0.148812 0.000000
# 6 0.000000 0.000000 0.000000 0.000000 0.000000 0.045631
#
#
# Mechanical properties :
#
#
# Convention : Reuss Voigt Hill
#
# Bulk Modulus (GPa) = 9.71211 10.71263 10.21237
# Shear Modulus (GPa) = 14.09390 19.22031 16.65711
#
# Velocity S-wave (km/s) = 2.70845 3.16289 2.94445
# Velocity P-wave (km/s) = 3.85174 4.34906 4.10793
#
# Compressibility (1/GPa) = 0.10296420
#
# Stress axis : x y z
#
# Youngs Moduli (GPa) = 30.27859 22.62070 60.60193
#
# Poissons Ratio (x) = 0.05506 -0.30108
# Poissons Ratio (y) = 0.07371 -0.12609
# Poissons Ratio (z) = -0.15043 -0.04706
#
# Static dielectric constant tensor:
#      x y z
#    x 1.652510 0.000000 0.000000 
#    y 0.000000 1.649640 0.000000 
#    z 0.000000 0.000000 1.675240 
# 
# From -- ./inp_files/24839.got.cif
#   From: 2010.05.17/outbox.cif.g08.bks.cpg/sg62_13_cif.got.tgz:24839.got - 2010.06.03 15:25:27.
