data_PCOD9463523
_publ_section_title
;
Structure prediction by ZEFSAII (Michael W. Deem and Ramdas Pophale) SiO2 
 PCOD9463523
Probable space group: P N M A
;
_chemical_formula_sum "Si O2"
_cell_formula_units_Z 48
_cell_length_a 15.341734
_cell_length_b 8.341842
_cell_length_c 19.125160
_cell_angle_alpha 90.000000
_cell_angle_beta 90.000000
_cell_angle_gamma 90.000000
_cell_volume 2447.605866
_symmetry_space_group_name_H-M "P N M A"
_symmetry_group_IT_number 62
_symmetry_cell_setting 'orthorhombic'
loop_
_space_group_symop_operation_xyz
x,y,z
1/2-x,-y,1/2+z
1/2+x,1/2-y,1/2-z
-x,1/2+y,-z
-x,-y,-z
1/2+x,y,1/2-z
1/2-x,1/2+y,1/2+z
x,1/2-y,z
loop_
_atom_site_type_symbol
_atom_site_label
_atom_site_fract_x
_atom_site_fract_y
_atom_site_fract_z
Si Si1 0.359123 0.941482 0.564041
Si Si2 0.502087 0.559022 0.831794
Si Si3 0.327203 0.440389 0.411424
Si Si4 0.139104 0.563994 0.440393
Si Si5 0.493202 0.054501 0.326888
Si Si6 0.667860 0.438121 0.908698
O O1 0.366095 0.750000 0.553965
O O2 0.432838 0.995662 0.618226
O O3 0.365552 0.025238 0.488672
O O4 0.263073 0.982407 0.592764
O O5 0.488834 0.750000 0.834436
O O6 0.435047 0.479344 0.885428
O O7 0.489319 0.502535 0.752168
O O8 0.599315 0.518060 0.856849
O O9 0.312595 0.250000 0.404258
O O10 0.234296 0.526990 0.408532
O O11 0.398456 0.494704 0.355239
O O12 0.133798 0.750000 0.459996
O O13 0.133205 0.463783 0.511994
O O14 0.493380 0.250000 0.326842
O O15 0.675198 0.250000 0.894716
#
# Coordination Sequence:
#
# PCOD9463523 Si02
#       6
#     8   8   8   8   8   8
#     4  10  19  36  59  85 111 144 185 228 271 322
#     4  11  22  39  58  80 110 149 186 225 272 328
#     4  10  19  36  59  85 111 144 185 228 271 322
#     4  11  22  38  58  84 111 143 183 229 276 326
#     4   9  21  37  57  82 113 149 186 221 270 330
#     4  11  22  38  58  84 111 143 183 229 276 326
#
# _framework density 19.611001000000002
#
# number of rings (size 3 to 8) (size 9 to 14) (size 15 to 20)
#    0.000    1.667    0.000    7.500    0.000    1.333 
#    0.000   15.833    0.000    0.000    0.000    0.000 
#    0.000    0.000    0.000    0.000    0.000    0.000 
#
# Total GULP energy -268297.756304 kJ/mol
# GULP energy per Si atom -5589.536590 kJ/mol
# Density = 1.956637 g / cm^3
# Si number density = 19.611001 Si / 1000 Ang^3
#
#
#
# Elastic Constant Matrix: (Units=GPa)
#
#
# Indices 1 2 3 4 5 6 
#
# 1 33.8802 -13.1525 15.5787 0.0000 0.0000 0.0000
# 2 -13.1525 36.8559 -15.9944 0.0000 0.0000 0.0000
# 3 15.5787 -15.9944 23.6679 0.0000 0.0000 0.0000
# 4 0.0000 0.0000 0.0000 11.3434 0.0000 0.0000
# 5 0.0000 0.0000 0.0000 0.0000 -1.1583 0.0000
# 6 0.0000 0.0000 0.0000 0.0000 0.0000 28.0708
#
#
#
# Elastic Compliance Matrix: (Units=1/GPa)
#
#
# Indices 1 2 3 4 5 6 
#
# 1 0.042806 0.004313 -0.025261 0.000000 0.000000 0.000000
# 2 0.004313 0.038827 0.023399 0.000000 0.000000 0.000000
# 3 -0.025261 0.023399 0.074691 0.000000 0.000000 0.000000
# 4 0.000000 0.000000 0.000000 0.088157 0.000000 0.000000
# 5 0.000000 0.000000 0.000000 0.000000 -0.863341 0.000000
# 6 0.000000 0.000000 0.000000 0.000000 0.000000 0.035624
#
#
# Mechanical properties :
#
#
# Convention : Reuss Voigt Hill
#
# Bulk Modulus (GPa) = 6.20242 7.47417 6.83829
# Shear Modulus (GPa) = -9.35631 14.84933 2.74651
#
# Velocity S-wave (km/s) = -2.18662 2.75470 1.18471
# Velocity P-wave (km/s) = 1.79039 3.73327 2.31645
#
# Compressibility (1/GPa) = 0.16122748
#
# Stress axis : x y z
#
# Youngs Moduli (GPa) = 23.36148 25.75552 13.38846
#
# Poissons Ratio (x) = -0.11109 0.33820
# Poissons Ratio (y) = -0.10077 -0.31328
# Poissons Ratio (z) = 0.59012 -0.60266
#
# Static dielectric constant tensor:
#      x y z
#    x 1.673280 0.000000 0.000000 
#    y 0.000000 1.671420 0.000000 
#    z 0.000000 0.000000 1.669650 
# 
# From -- ./inp_files/26894.got.cif
#   From: 2010.05.17/outbox.cif.g08.bks.cpg/sg62_14_cif.got.tgz:26894.got - 2010.06.03 15:25:27.
