data_PCOD9463524
_publ_section_title
;
Structure prediction by ZEFSAII (Michael W. Deem and Ramdas Pophale) SiO2 
 PCOD9463524
Probable space group: P N M A
;
_chemical_formula_sum "Si O2"
_cell_formula_units_Z 52
_cell_length_a 29.447322
_cell_length_b 9.689470
_cell_length_c 8.684148
_cell_angle_alpha 90.000000
_cell_angle_beta 90.000000
_cell_angle_gamma 90.000000
_cell_volume 2477.838771
_symmetry_space_group_name_H-M "P N M A"
_symmetry_group_IT_number 62
_symmetry_cell_setting 'orthorhombic'
loop_
_space_group_symop_operation_xyz
x,y,z
1/2-x,-y,1/2+z
1/2+x,1/2-y,1/2-z
-x,1/2+y,-z
-x,-y,-z
1/2+x,y,1/2-z
1/2-x,1/2+y,1/2+z
x,1/2-y,z
loop_
_atom_site_type_symbol
_atom_site_label
_atom_site_fract_x
_atom_site_fract_y
_atom_site_fract_z
Si Si1 0.052745 0.525519 0.892180
Si Si2 0.494380 0.250000 0.564321
Si Si3 0.518651 0.404039 0.133678
Si Si4 0.282793 0.912118 0.064666
Si Si5 0.861497 0.088589 0.306255
Si Si6 0.099188 0.904338 0.343345
Si Si7 0.698776 0.907236 0.230313
O O1 0.102393 0.534651 0.818297
O O2 0.033392 0.372858 0.916725
O O3 0.018501 0.595329 0.767053
O O4 0.044181 0.627491 0.034024
O O5 0.525778 0.250000 0.076272
O O6 0.565051 0.472497 0.187004
O O7 0.500000 0.500000 0.000000
O O8 0.294452 0.750000 0.059853
O O9 0.231512 0.925676 0.125634
O O10 0.316999 0.994456 0.177519
O O11 0.288493 0.983412 0.899952
O O12 0.851041 0.250000 0.276592
O O13 0.884921 0.083446 0.476834
O O14 0.078273 0.750000 0.331240
O O15 0.144899 0.915406 0.244171
O O16 0.706506 0.750000 0.170233
#
# Coordination Sequence:
#
# PCOD9463524 Si02
#       7
#     8   4   8   8   8   8   8
#     4  11  22  41  60  82 117 158 203 240 286 347
#     4  10  24  40  58  76 114 166 198 236 282 338
#     4  12  23  35  57  89 117 146 192 245 294 335
#     4  10  21  36  63  92 116 151 197 241 293 353
#     4  10  19  36  59  85 115 153 194 241 288 350
#     4   9  19  35  58  85 115 149 185 239 299 346
#     4   9  20  41  61  85 121 154 189 241 298 350
#
# _framework density 20.98603
#
# number of rings (size 3 to 8) (size 9 to 14) (size 15 to 20)
#    0.000    1.846    3.077    1.846    3.231    3.692 
#    0.000    3.077    3.385    0.000    0.000    0.000 
#    0.000    0.000    0.000    0.000    0.000    0.000 
#
# Total GULP energy -289540.412301 kJ/mol
# GULP energy per Si atom -5568.084852 kJ/mol
# Density = 2.093827 g / cm^3
# Si number density = 20.986030 Si / 1000 Ang^3
#
#
#
# Elastic Constant Matrix: (Units=GPa)
#
#
# Indices 1 2 3 4 5 6 
#
# 1 48.5358 28.1180 -0.4537 0.0000 0.0000 0.0000
# 2 28.1180 164.0467 18.8592 0.0000 0.0000 0.0000
# 3 -0.4537 18.8592 23.7987 0.0000 0.0000 0.0000
# 4 0.0000 0.0000 0.0000 97.1847 0.0000 0.0000
# 5 0.0000 0.0000 0.0000 0.0000 25.1470 0.0000
# 6 0.0000 0.0000 0.0000 0.0000 0.0000 32.5576
#
#
#
# Elastic Compliance Matrix: (Units=1/GPa)
#
#
# Indices 1 2 3 4 5 6 
#
# 1 0.023208 -0.004433 0.003955 0.000000 0.000000 0.000000
# 2 -0.004433 0.007553 -0.006070 0.000000 0.000000 0.000000
# 3 0.003955 -0.006070 0.046905 0.000000 0.000000 0.000000
# 4 0.000000 0.000000 0.000000 0.010290 0.000000 0.000000
# 5 0.000000 0.000000 0.000000 0.000000 0.039766 0.000000
# 6 0.000000 0.000000 0.000000 0.000000 0.000000 0.030715
#
#
# Mechanical properties :
#
#
# Convention : Reuss Voigt Hill
#
# Bulk Modulus (GPa) = 15.48682 36.60311 26.04497
# Shear Modulus (GPa) = 25.89915 43.63503 34.76709
#
# Velocity S-wave (km/s) = 3.51681 4.56482 4.07465
# Velocity P-wave (km/s) = 4.88735 6.72777 5.88001
#
# Compressibility (1/GPa) = 0.06457105
#
# Stress axis : x y z
#
# Youngs Moduli (GPa) = 43.08809 132.39010 21.31974
#
# Poissons Ratio (x) = 0.58684 -0.08432
# Poissons Ratio (y) = 0.19099 0.12942
# Poissons Ratio (z) = -0.17042 0.80363
#
# Static dielectric constant tensor:
#      x y z
#    x 1.780220 0.000000 0.000000 
#    y 0.000000 1.706930 0.000000 
#    z 0.000000 0.000000 1.923580 
# 
# From -- ./inp_files/15459.got.cif
#   From: 2010.05.17/outbox.cif.g08.bks.cpg/sg62_8_cif.got.tgz:15459.got - 2010.06.03 15:25:27.
