data_PCOD9463027
_publ_section_title
;
Structure prediction by ZEFSAII (Michael W. Deem and Ramdas Pophale) SiO2 
 PCOD9463027
Probable space group: P N M A
;
_chemical_formula_sum "Si O2"
_cell_formula_units_Z 48
_cell_length_a 12.749349
_cell_length_b 12.828937
_cell_length_c 11.612676
_cell_angle_alpha 90.000000
_cell_angle_beta 90.000000
_cell_angle_gamma 90.000000
_cell_volume 1899.376197
_symmetry_space_group_name_H-M "P N M A"
_symmetry_group_IT_number 62
_symmetry_cell_setting 'orthorhombic'
loop_
_space_group_symop_operation_xyz
x,y,z
1/2-x,-y,1/2+z
1/2+x,1/2-y,1/2-z
-x,1/2+y,-z
-x,-y,-z
1/2+x,y,1/2-z
1/2-x,1/2+y,1/2+z
x,1/2-y,z
loop_
_atom_site_type_symbol
_atom_site_label
_atom_site_fract_x
_atom_site_fract_y
_atom_site_fract_z
Si Si1 0.024549 0.133505 0.446339
Si Si2 0.396083 0.935513 0.706763
Si Si3 0.678395 0.865787 0.788347
Si Si4 0.462157 0.133250 0.501474
Si Si5 0.333966 0.538275 0.405413
Si Si6 0.109412 0.625381 0.347589
O O1 0.061042 0.250000 0.474663
O O2 0.913478 0.136635 0.380243
O O3 0.988320 0.089205 0.570405
O O4 0.099885 0.098597 0.342485
O O5 0.291835 0.884280 0.656585
O O6 0.487089 0.887214 0.627491
O O7 0.398299 0.059384 0.730427
O O8 0.679251 0.750000 0.732104
O O9 0.668076 0.968233 0.709906
O O10 0.425842 0.250000 0.515732
O O11 0.564829 0.112415 0.580598
O O12 0.367050 0.049785 0.500059
O O13 0.222256 0.595605 0.403859
O O14 0.104480 0.750000 0.333176
#
# Coordination Sequence:
#
# PCOD9463027 Si02
#       6
#     8   8   8   8   8   8
#     4  10  19  35  60  86 115 152 192 240 289 342
#     4  11  21  35  60  89 116 151 199 244 291 342
#     4  10  19  33  56  88 121 152 196 245 287 338
#     4  11  21  37  60  89 117 149 199 251 297 347
#     4  10  21  35  57  86 115 154 194 241 294 348
#     4  10  22  39  56  82 121 161 195 232 291 357
#
# _framework density 25.271453999999999
#
# number of rings (size 3 to 8) (size 9 to 14) (size 15 to 20)
#    0.000    1.667    1.667    4.000    0.000    1.333 
#    0.000    5.000    0.000    1.000    0.000    0.000 
#    0.000    0.000    0.000    0.000    0.000    0.000 
#
# Total GULP energy -267757.553604 kJ/mol
# GULP energy per Si atom -5578.282367 kJ/mol
# Density = 2.521394 g / cm^3
# Si number density = 25.271454 Si / 1000 Ang^3
#
#
#
# Elastic Constant Matrix: (Units=GPa)
#
#
# Indices 1 2 3 4 5 6 
#
# 1 70.5334 8.5987 -12.7054 0.0000 0.0000 0.0000
# 2 8.5987 127.4181 2.4018 0.0000 0.0000 0.0000
# 3 -12.7054 2.4018 77.2131 0.0000 0.0000 0.0000
# 4 0.0000 0.0000 0.0000 29.4792 0.0000 0.0000
# 5 0.0000 0.0000 0.0000 0.0000 38.3901 0.0000
# 6 0.0000 0.0000 0.0000 0.0000 0.0000 30.5483
#
#
#
# Elastic Compliance Matrix: (Units=1/GPa)
#
#
# Indices 1 2 3 4 5 6 
#
# 1 0.014748 -0.001042 0.002459 0.000000 0.000000 0.000000
# 2 -0.001042 0.007926 -0.000418 0.000000 0.000000 0.000000
# 3 0.002459 -0.000418 0.013369 0.000000 0.000000 0.000000
# 4 0.000000 0.000000 0.000000 0.033922 0.000000 0.000000
# 5 0.000000 0.000000 0.000000 0.000000 0.026048 0.000000
# 6 0.000000 0.000000 0.000000 0.000000 0.000000 0.032735
#
#
# Mechanical properties :
#
#
# Convention : Reuss Voigt Hill
#
# Bulk Modulus (GPa) = 26.28677 30.19499 28.24088
# Shear Modulus (GPa) = 35.86031 38.14149 37.00090
#
# Velocity S-wave (km/s) = 3.77105 3.88915 3.83056
# Velocity P-wave (km/s) = 5.42084 5.66935 5.54648
#
# Compressibility (1/GPa) = 0.03804195
#
# Stress axis : x y z
#
# Youngs Moduli (GPa) = 67.80755 126.16150 74.80096
#
# Poissons Ratio (x) = 0.13141 -0.18394
# Poissons Ratio (y) = 0.07063 0.03126
# Poissons Ratio (z) = -0.16675 0.05273
#
# Static dielectric constant tensor:
#      x y z
#    x 2.047350 0.000000 0.000000 
#    y 0.000000 2.088010 0.000000 
#    z 0.000000 0.000000 2.161170 
# 
# From -- ./inp_files/18873.got.cif
#   From: 2010.05.17/outbox.cif.g08.bks.cpg/sg62_10_cif.got.tgz:18873.got - 2010.06.03 15:25:27.
