data_PCOD9463810
_publ_section_title
;
Structure prediction by ZEFSAII (Michael W. Deem and Ramdas Pophale) SiO2 
 PCOD9463810
Probable space group: P N M A
;
_chemical_formula_sum "Si O2"
_cell_formula_units_Z 32
_cell_length_a 5.528942
_cell_length_b 26.298881
_cell_length_c 8.090673
_cell_angle_alpha 90.000000
_cell_angle_beta 90.000000
_cell_angle_gamma 90.000000
_cell_volume 1176.424208
_symmetry_space_group_name_H-M "P N M A"
_symmetry_group_IT_number 62
_symmetry_cell_setting 'orthorhombic'
loop_
_space_group_symop_operation_xyz
x,y,z
1/2-x,-y,1/2+z
1/2+x,1/2-y,1/2-z
-x,1/2+y,-z
-x,-y,-z
1/2+x,y,1/2-z
1/2-x,1/2+y,1/2+z
x,1/2-y,z
loop_
_atom_site_type_symbol
_atom_site_label
_atom_site_fract_x
_atom_site_fract_y
_atom_site_fract_z
Si Si1 0.141978 0.349394 0.420866
Si Si2 0.856843 0.809563 0.952890
Si Si3 0.625456 0.053710 0.668818
Si Si4 0.416833 0.043383 0.128244
O O1 0.155368 0.319623 0.245659
O O2 0.902241 0.330192 0.514571
O O3 0.091362 0.407941 0.369298
O O4 0.395712 0.337040 0.506687
O O5 0.876417 0.750000 0.985433
O O6 0.363304 0.072210 0.730064
O O7 0.685066 0.063184 0.477870
O O8 0.626336 0.992985 0.715248
O O9 0.500000 0.000000 0.000000
#
# Coordination Sequence:
#
# PCOD9463810 Si02
#       4
#     8   8   8   8
#     4  10  20  31  55  78 114 151 186 227 310 341
#     4  10  20  35  55  81 115 143 191 251 305 349
#     4  10  22  37  54  75 114 157 199 234 274 320
#     4  10  23  37  57  83 122 164 200 234 282 351
#
# _framework density 27.201073000000001
#
# number of rings (size 3 to 8) (size 9 to 14) (size 15 to 20)
#    0.000    2.000    0.000    4.500   14.000    4.000 
#    0.000    0.000    0.000    0.000    0.000    0.000 
#    0.000  136.000    0.000    0.000    0.000    0.000 
#
# Total GULP energy -178844.913512 kJ/mol
# GULP energy per Si atom -5588.903547 kJ/mol
# Density = 2.713916 g / cm^3
# Si number density = 27.201073 Si / 1000 Ang^3
#
#
#
# Elastic Constant Matrix: (Units=GPa)
#
#
# Indices 1 2 3 4 5 6 
#
# 1 236.0949 33.1916 -7.8926 0.0000 0.0000 0.0000
# 2 33.1916 171.2883 2.3896 0.0000 0.0000 0.0000
# 3 -7.8926 2.3896 19.2212 0.0000 0.0000 0.0000
# 4 0.0000 0.0000 0.0000 28.5964 0.0000 0.0000
# 5 0.0000 0.0000 0.0000 0.0000 27.0658 0.0000
# 6 0.0000 0.0000 0.0000 0.0000 0.0000 41.8060
#
#
#
# Elastic Compliance Matrix: (Units=1/GPa)
#
#
# Indices 1 2 3 4 5 6 
#
# 1 0.004424 -0.000884 0.001927 0.000000 0.000000 0.000000
# 2 -0.000884 0.006025 -0.001112 0.000000 0.000000 0.000000
# 3 0.001927 -0.001112 0.052955 0.000000 0.000000 0.000000
# 4 0.000000 0.000000 0.000000 0.034969 0.000000 0.000000
# 5 0.000000 0.000000 0.000000 0.000000 0.036947 0.000000
# 6 0.000000 0.000000 0.000000 0.000000 0.000000 0.023920
#
#
# Mechanical properties :
#
#
# Convention : Reuss Voigt Hill
#
# Bulk Modulus (GPa) = 15.80650 53.55351 34.68001
# Shear Modulus (GPa) = 27.70565 46.08803 36.89684
#
# Velocity S-wave (km/s) = 3.19494 4.12071 3.68699
# Velocity P-wave (km/s) = 4.40837 6.50931 5.55899
#
# Compressibility (1/GPa) = 0.06326511
#
# Stress axis : x y z
#
# Youngs Moduli (GPa) = 226.02453 165.97610 18.88389
#
# Poissons Ratio (x) = 0.14676 -0.03638
# Poissons Ratio (y) = 0.19985 0.02100
# Poissons Ratio (z) = -0.43547 0.18458
#
# Static dielectric constant tensor:
#      x y z
#    x 2.483200 0.000000 0.000000 
#    y 0.000000 2.071630 0.000000 
#    z 0.000000 0.000000 2.379090 
# 
# From -- ./inp_files/10635.got.cif
#   From: 2010.05.17/outbox.cif.g08.bks.cpg/sg62_6_cif.got.tgz:10635.got - 2010.06.03 15:25:27.
