data_PCOD9463287
_publ_section_title
;
Structure prediction by ZEFSAII (Michael W. Deem and Ramdas Pophale) SiO2 
 PCOD9463287
Probable space group: P N M A
;
_chemical_formula_sum "Si O2"
_cell_formula_units_Z 56
_cell_length_a 25.642197
_cell_length_b 21.355296
_cell_length_c 5.364758
_cell_angle_alpha 90.000000
_cell_angle_beta 90.000000
_cell_angle_gamma 90.000000
_cell_volume 2937.723815
_symmetry_space_group_name_H-M "P N M A"
_symmetry_group_IT_number 62
_symmetry_cell_setting 'orthorhombic'
loop_
_space_group_symop_operation_xyz
x,y,z
1/2-x,-y,1/2+z
1/2+x,1/2-y,1/2-z
-x,1/2+y,-z
-x,-y,-z
1/2+x,y,1/2-z
1/2-x,1/2+y,1/2+z
x,1/2-y,z
loop_
_atom_site_type_symbol
_atom_site_label
_atom_site_fract_x
_atom_site_fract_y
_atom_site_fract_z
Si Si1 0.992891 0.041118 0.247125
Si Si2 0.618807 0.523931 0.817653
Si Si3 0.684103 0.438054 0.507925
Si Si4 0.096356 0.403090 0.386229
Si Si5 0.220004 0.677909 0.947036
Si Si6 0.798463 0.101577 0.545656
Si Si7 0.833019 0.819469 0.369938
O O1 0.932493 0.062243 0.241104
O O2 0.040434 0.090655 0.255749
O O3 0.000000 0.000000 0.500000
O O4 0.000000 0.000000 0.000000
O O5 0.662170 0.503014 0.618769
O O6 0.650156 0.559427 0.031210
O O7 0.597254 0.455990 0.899609
O O8 0.645837 0.424003 0.279444
O O9 0.746573 0.439869 0.489330
O O10 0.676302 0.376195 0.679966
O O11 0.113168 0.336366 0.493486
O O12 0.203327 0.750000 0.977189
O O13 0.205740 0.637634 0.192243
O O14 0.283384 0.678136 0.945063
O O15 0.199906 0.649032 0.689381
O O16 0.833237 0.750000 0.257070
#
# Coordination Sequence:
#
# PCOD9463287 Si02
#       7
#     8   8   8   8   8   8   8
#     4  10  20  36  56  79 108 147 186 222 267 333
#     4  10  23  34  54  83 119 149 184 227 285 346
#     4  10  20  32  51  81 114 146 180 230 285 338
#     4  10  19  35  54  80 111 145 185 232 279 330
#     4  10  21  38  56  79 109 146 193 234 275 336
#     4  11  23  34  56  83 114 149 183 228 291 342
#     4   9  19  34  52  79 109 144 187 234 284 331
#
# _framework density 19.062377999999999
#
# number of rings (size 3 to 8) (size 9 to 14) (size 15 to 20)
#    0.000    2.000    2.857    0.429    4.000    1.143 
#    0.000    0.000    0.000    1.714    0.000    0.000 
#    0.000    0.000    0.000    0.000    0.000    0.000 
#
# Total GULP energy -311837.745567 kJ/mol
# GULP energy per Si atom -5568.531171 kJ/mol
# Density = 1.901899 g / cm^3
# Si number density = 19.062378 Si / 1000 Ang^3
#
#
#
# Elastic Constant Matrix: (Units=GPa)
#
#
# Indices 1 2 3 4 5 6 
#
# 1 108.6476 30.1782 6.3564 0.0000 0.0000 0.0000
# 2 30.1782 52.3262 12.0550 0.0000 0.0000 0.0000
# 3 6.3564 12.0550 67.7378 0.0000 0.0000 0.0000
# 4 0.0000 0.0000 0.0000 21.2671 0.0000 0.0000
# 5 0.0000 0.0000 0.0000 0.0000 17.6634 0.0000
# 6 0.0000 0.0000 0.0000 0.0000 0.0000 19.1555
#
#
#
# Elastic Compliance Matrix: (Units=1/GPa)
#
#
# Indices 1 2 3 4 5 6 
#
# 1 0.010960 -0.006344 0.000101 0.000000 0.000000 0.000000
# 2 -0.006344 0.023600 -0.003605 0.000000 0.000000 0.000000
# 3 0.000101 -0.003605 0.015395 0.000000 0.000000 0.000000
# 4 0.000000 0.000000 0.000000 0.047021 0.000000 0.000000
# 5 0.000000 0.000000 0.000000 0.000000 0.056614 0.000000
# 6 0.000000 0.000000 0.000000 0.000000 0.000000 0.052204
#
#
# Mechanical properties :
#
#
# Convention : Reuss Voigt Hill
#
# Bulk Modulus (GPa) = 33.04844 36.21010 34.62927
# Shear Modulus (GPa) = 21.22435 23.62533 22.42484
#
# Velocity S-wave (km/s) = 3.34041 3.52429 3.43358
# Velocity P-wave (km/s) = 5.67912 5.96637 5.82452
#
# Compressibility (1/GPa) = 0.03025861
#
# Stress axis : x y z
#
# Youngs Moduli (GPa) = 91.23745 42.37222 64.95665
#
# Poissons Ratio (x) = 0.26883 -0.00653
# Poissons Ratio (y) = 0.57885 0.23415
# Poissons Ratio (z) = -0.00918 0.15274
#
# Static dielectric constant tensor:
#      x y z
#    x 1.735280 0.000000 0.000000 
#    y 0.000000 1.673830 0.000000 
#    z 0.000000 0.000000 1.722950 
# 
# From -- ./inp_files/2810.got.cif
#   From: 2010.05.17/outbox.cif.g08.bks.cpg/sg62_2_cif.got.tgz:2810.got - 2010.06.03 15:25:27.
