data_PCOD9463514
_publ_section_title
;
Structure prediction by ZEFSAII (Michael W. Deem and Ramdas Pophale) SiO2 
 PCOD9463514
Probable space group: P N M A
;
_chemical_formula_sum "Si O2"
_cell_formula_units_Z 40
_cell_length_a 13.569724
_cell_length_b 15.656942
_cell_length_c 8.914038
_cell_angle_alpha 90.000000
_cell_angle_beta 90.000000
_cell_angle_gamma 90.000000
_cell_volume 1893.879915
_symmetry_space_group_name_H-M "P N M A"
_symmetry_group_IT_number 62
_symmetry_cell_setting 'orthorhombic'
loop_
_space_group_symop_operation_xyz
x,y,z
1/2-x,-y,1/2+z
1/2+x,1/2-y,1/2-z
-x,1/2+y,-z
-x,-y,-z
1/2+x,y,1/2-z
1/2-x,1/2+y,1/2+z
x,1/2-y,z
loop_
_atom_site_type_symbol
_atom_site_label
_atom_site_fract_x
_atom_site_fract_y
_atom_site_fract_z
Si Si1 0.804592 0.073182 0.013475
Si Si2 0.467110 0.474763 0.725608
Si Si3 0.185680 0.419482 0.778431
Si Si4 0.358873 0.156494 0.932903
Si Si5 0.066609 0.842985 0.761297
O O1 0.717173 0.088841 0.895676
O O2 0.890564 0.032362 0.910325
O O3 0.860251 0.149522 0.097080
O O4 0.777770 0.008963 0.147638
O O5 0.569433 0.424234 0.699576
O O6 0.418030 0.422445 0.861544
O O7 0.496596 0.573871 0.744620
O O8 0.247962 0.351476 0.871971
O O9 0.398518 0.250000 0.885785
O O10 0.368419 0.151415 0.110612
O O11 0.016582 0.750000 0.762049
#
# Coordination Sequence:
#
# PCOD9463514 Si02
#       5
#     8   8   8   8   8
#     4  10  21  36  59  87 114 153 199 247 293 355
#     4  10  21  39  63  88 118 158 200 249 305 363
#     4  10  19  36  59  82 113 151 191 239 301 355
#     4  10  22  38  59  88 121 156 200 251 300 362
#     4  10  20  37  59  85 119 158 199 248 302 357
#
# _framework density 21.120663
#
# number of rings (size 3 to 8) (size 9 to 14) (size 15 to 20)
#    0.000    2.000    0.000    5.400    0.000    5.600 
#    0.000    5.000    0.000   33.600    0.000    0.000 
#    0.000    0.000    0.000    0.000    0.000    0.000 
#
# Total GULP energy -222987.482472 kJ/mol
# GULP energy per Si atom -5574.687062 kJ/mol
# Density = 2.107259 g / cm^3
# Si number density = 21.120663 Si / 1000 Ang^3
#
#
#
# Elastic Constant Matrix: (Units=GPa)
#
#
# Indices 1 2 3 4 5 6 
#
# 1 59.9578 11.2919 12.6766 0.0000 0.0000 0.0000
# 2 11.2919 118.1415 39.4929 0.0000 0.0000 0.0000
# 3 12.6766 39.4929 82.3979 0.0000 0.0000 0.0000
# 4 0.0000 0.0000 0.0000 23.7729 0.0000 0.0000
# 5 0.0000 0.0000 0.0000 0.0000 19.5556 0.0000
# 6 0.0000 0.0000 0.0000 0.0000 0.0000 11.7333
#
#
#
# Elastic Compliance Matrix: (Units=1/GPa)
#
#
# Indices 1 2 3 4 5 6 
#
# 1 0.017321 -0.000911 -0.002228 0.000000 0.000000 0.000000
# 2 -0.000911 0.010127 -0.004714 0.000000 0.000000 0.000000
# 3 -0.002228 -0.004714 0.014738 0.000000 0.000000 0.000000
# 4 0.000000 0.000000 0.000000 0.042065 0.000000 0.000000
# 5 0.000000 0.000000 0.000000 0.000000 0.051136 0.000000
# 6 0.000000 0.000000 0.000000 0.000000 0.000000 0.085228
#
#
# Mechanical properties :
#
#
# Convention : Reuss Voigt Hill
#
# Bulk Modulus (GPa) = 37.76284 43.04666 40.40475
# Shear Modulus (GPa) = 20.39587 24.14808 22.27198
#
# Velocity S-wave (km/s) = 3.11092 3.38500 3.25085
# Velocity P-wave (km/s) = 5.55177 5.97521 5.76738
#
# Compressibility (1/GPa) = 0.02648106
#
# Stress axis : x y z
#
# Youngs Moduli (GPa) = 57.73332 98.74379 67.85019
#
# Poissons Ratio (x) = 0.08992 0.15119
# Poissons Ratio (y) = 0.05257 0.31983
# Poissons Ratio (z) = 0.12865 0.46546
#
# Static dielectric constant tensor:
#      x y z
#    x 1.788540 0.000000 0.000000 
#    y 0.000000 1.822960 0.000000 
#    z 0.000000 0.000000 1.788950 
# 
# From -- ./inp_files/6132.got.cif
#   From: 2010.05.17/outbox.cif.g08.bks.cpg/sg62_4_cif.got.tgz:6132.got - 2010.06.03 15:25:27.
