data_PCOD9463349
_publ_section_title
;
Structure prediction by ZEFSAII (Michael W. Deem and Ramdas Pophale) SiO2 
 PCOD9463349
Probable space group: P N M A
;
_chemical_formula_sum "Si O2"
_cell_formula_units_Z 56
_cell_length_a 19.345534
_cell_length_b 15.512685
_cell_length_c 7.973636
_cell_angle_alpha 90.000000
_cell_angle_beta 90.000000
_cell_angle_gamma 90.000000
_cell_volume 2392.897533
_symmetry_space_group_name_H-M "P N M A"
_symmetry_group_IT_number 62
_symmetry_cell_setting 'orthorhombic'
loop_
_space_group_symop_operation_xyz
x,y,z
1/2-x,-y,1/2+z
1/2+x,1/2-y,1/2-z
-x,1/2+y,-z
-x,-y,-z
1/2+x,y,1/2-z
1/2-x,1/2+y,1/2+z
x,1/2-y,z
loop_
_atom_site_type_symbol
_atom_site_label
_atom_site_fract_x
_atom_site_fract_y
_atom_site_fract_z
Si Si1 0.421979 0.348340 0.304254
Si Si2 0.511198 0.605386 0.341216
Si Si3 0.774987 0.652932 0.288921
Si Si4 0.136793 0.658100 0.347636
Si Si5 0.138264 0.996203 0.590435
Si Si6 0.446741 0.574490 0.811543
Si Si7 0.870547 0.850039 0.987547
O O1 0.394821 0.250000 0.296412
O O2 0.449883 0.367071 0.489300
O O3 0.491769 0.356421 0.190973
O O4 0.377021 0.430893 0.244434
O O5 0.557034 0.653951 0.203417
O O6 0.522713 0.506830 0.290725
O O7 0.431341 0.623129 0.380955
O O8 0.799936 0.750000 0.338820
O O9 0.692276 0.654467 0.302354
O O10 0.806626 0.570517 0.378826
O O11 0.800644 0.641816 0.094715
O O12 0.150148 0.750000 0.432914
O O13 0.155283 0.574217 0.450711
O O14 0.075130 0.046796 0.497736
O O15 0.383488 0.602974 0.689633
O O16 0.881299 0.750000 0.950954
#
# Coordination Sequence:
#
# PCOD9463349 Si02
#       7
#     8   8   8   8   8   8   8
#     4  11  21  35  57  88 122 155 193 242 292 346
#     4  10  19  35  60  83 111 151 196 239 283 343
#     4  10  23  41  61  85 118 155 196 243 292 343
#     4  10  22  41  60  84 116 153 195 240 288 344
#     4  11  23  37  57  84 116 154 193 239 297 350
#     4  10  20  34  55  84 116 149 190 240 290 344
#     4  10  19  35  58  82 108 147 192 235 282 340
#
# _framework density 23.40259
#
# number of rings (size 3 to 8) (size 9 to 14) (size 15 to 20)
#    0.000    1.714    0.000    6.857    0.000    5.714 
#    0.000    2.857    0.000    4.286    0.000    0.000 
#    0.000    0.000    0.000    0.000    0.000    0.000 
#
# Total GULP energy -312344.128174 kJ/mol
# GULP energy per Si atom -5577.573717 kJ/mol
# Density = 2.334932 g / cm^3
# Si number density = 23.402590 Si / 1000 Ang^3
#
#
#
# Elastic Constant Matrix: (Units=GPa)
#
#
# Indices 1 2 3 4 5 6 
#
# 1 46.1454 -4.6969 -6.6242 0.0000 0.0000 0.0000
# 2 -4.6969 127.6840 12.5898 0.0000 0.0000 0.0000
# 3 -6.6242 12.5898 51.8142 0.0000 0.0000 0.0000
# 4 0.0000 0.0000 0.0000 -4.1092 0.0000 0.0000
# 5 0.0000 0.0000 0.0000 0.0000 14.4475 0.0000
# 6 0.0000 0.0000 0.0000 0.0000 0.0000 21.8846
#
#
#
# Elastic Compliance Matrix: (Units=1/GPa)
#
#
# Indices 1 2 3 4 5 6 
#
# 1 0.022113 0.000548 0.002694 0.000000 0.000000 0.000000
# 2 0.000548 0.008038 -0.001883 0.000000 0.000000 0.000000
# 3 0.002694 -0.001883 0.020102 0.000000 0.000000 0.000000
# 4 0.000000 0.000000 0.000000 -0.243355 0.000000 0.000000
# 5 0.000000 0.000000 0.000000 0.000000 0.069216 0.000000
# 6 0.000000 0.000000 0.000000 0.000000 0.000000 0.045694
#
#
# Mechanical properties :
#
#
# Convention : Reuss Voigt Hill
#
# Bulk Modulus (GPa) = 18.87862 25.35346 22.11604
# Shear Modulus (GPa) = -79.04747 21.40291 -28.82228
#
# Velocity S-wave (km/s) = -5.81812 3.02744 -3.51320
# Velocity P-wave (km/s) = 6.08684 4.80392 2.64311
#
# Compressibility (1/GPa) = 0.05296997
#
# Stress axis : x y z
#
# Youngs Moduli (GPa) = 45.22209 124.41456 49.74717
#
# Poissons Ratio (x) = -0.06815 -0.13402
# Poissons Ratio (y) = -0.02477 0.09367
# Poissons Ratio (z) = -0.12183 0.23427
#
# Static dielectric constant tensor:
#      x y z
#    x 1.947450 0.000000 0.000000 
#    y 0.000000 1.880490 0.000000 
#    z 0.000000 0.000000 1.937770 
# 
# From -- ./inp_files/8728.got.cif
#   From: 2010.05.17/outbox.cif.g08.bks.cpg/sg62_5_cif.got.tgz:8728.got - 2010.06.03 15:25:27.
