data_PCOD9463321
_publ_section_title
;
Structure prediction by ZEFSAII (Michael W. Deem and Ramdas Pophale) SiO2 
 PCOD9463321
Probable space group: P N M A
;
_chemical_formula_sum "Si O2"
_cell_formula_units_Z 64
_cell_length_a 18.295687
_cell_length_b 7.697846
_cell_length_c 21.276683
_cell_angle_alpha 90.000000
_cell_angle_beta 90.000000
_cell_angle_gamma 90.000000
_cell_volume 2996.552310
_symmetry_space_group_name_H-M "P N M A"
_symmetry_group_IT_number 62
_symmetry_cell_setting 'orthorhombic'
loop_
_space_group_symop_operation_xyz
x,y,z
1/2-x,-y,1/2+z
1/2+x,1/2-y,1/2-z
-x,1/2+y,-z
-x,-y,-z
1/2+x,y,1/2-z
1/2-x,1/2+y,1/2+z
x,1/2-y,z
loop_
_atom_site_type_symbol
_atom_site_label
_atom_site_fract_x
_atom_site_fract_y
_atom_site_fract_z
Si Si1 0.414679 0.459305 0.004826
Si Si2 0.334575 0.537177 0.630397
Si Si3 0.827889 0.452986 0.615805
Si Si4 0.907846 0.950939 0.740900
Si Si5 0.662828 0.036699 0.623796
Si Si6 0.414666 0.541520 0.504172
Si Si7 0.925844 0.954668 0.245424
Si Si8 0.334608 0.039601 0.131159
O O1 0.408829 0.250000 0.005177
O O2 0.378392 0.521714 0.069593
O O3 0.500000 0.500000 0.000000
O O4 0.370869 0.527553 0.944062
O O5 0.336612 0.750000 0.630071
O O6 0.373097 0.478232 0.694672
O O7 0.377800 0.477030 0.568510
O O8 0.249893 0.484495 0.628918
O O9 0.816641 0.250000 0.601230
O O10 0.876106 0.464373 0.678302
O O11 0.746648 0.524069 0.627026
O O12 0.886077 0.750000 0.736507
O O13 0.995071 0.962897 0.744261
O O14 0.662258 0.250000 0.625722
O O15 0.626732 0.980150 0.558362
O O16 0.615432 0.978344 0.683421
O O17 0.500000 0.500000 0.500000
O O18 0.407213 0.750000 0.504782
O O19 0.938961 0.750000 0.237079
O O20 0.874758 0.981025 0.305768
O O21 0.335199 0.250000 0.130992
#
# Coordination Sequence:
#
# PCOD9463321 Si02
#       8
#     8   8   8   8   8   8   8   8
#     4  10  21  35  55  79 105 136 174 216 262 312
#     4   9  19  35  57  81 107 139 179 221 266 316
#     4  10  20  37  58  80 105 139 179 222 268 317
#     4  11  22  36  54  80 110 142 177 218 264 316
#     4   9  19  35  57  81 107 139 179 221 266 316
#     4  10  19  35  57  81 109 144 181 220 264 316
#     4  11  22  36  54  80 110 142 177 218 264 316
#     4  10  20  37  58  80 105 139 179 222 268 317
#
# _framework density 21.357876999999998
#
# number of rings (size 3 to 8) (size 9 to 14) (size 15 to 20)
#    0.000    2.000    0.000    3.750    0.000    6.000 
#    0.000    3.750    0.000    1.500    0.000    0.000 
#    0.000    0.000    0.000    0.000    0.000    0.000 
#
# Total GULP energy -357765.378590 kJ/mol
# GULP energy per Si atom -5590.084040 kJ/mol
# Density = 2.130927 g / cm^3
# Si number density = 21.357877 Si / 1000 Ang^3
#
#
#
# Elastic Constant Matrix: (Units=GPa)
#
#
# Indices 1 2 3 4 5 6 
#
# 1 125.3483 -13.3645 45.8606 0.0000 0.0000 0.0000
# 2 -13.3645 33.7425 -7.7995 0.0000 0.0000 0.0000
# 3 45.8606 -7.7995 147.6910 0.0000 0.0000 0.0000
# 4 0.0000 0.0000 0.0000 1.6599 0.0000 0.0000
# 5 0.0000 0.0000 0.0000 0.0000 35.0282 0.0000
# 6 0.0000 0.0000 0.0000 0.0000 0.0000 20.6237
#
#
#
# Elastic Compliance Matrix: (Units=1/GPa)
#
#
# Indices 1 2 3 4 5 6 
#
# 1 0.009301 0.003054 -0.002727 0.000000 0.000000 0.000000
# 2 0.003054 0.031005 0.000689 0.000000 0.000000 0.000000
# 3 -0.002727 0.000689 0.007654 0.000000 0.000000 0.000000
# 4 0.000000 0.000000 0.000000 0.602461 0.000000 0.000000
# 5 0.000000 0.000000 0.000000 0.000000 0.028548 0.000000
# 6 0.000000 0.000000 0.000000 0.000000 0.000000 0.048488
#
#
# Mechanical properties :
#
#
# Convention : Reuss Voigt Hill
#
# Bulk Modulus (GPa) = 20.00331 39.57499 29.78915
# Shear Modulus (GPa) = 6.73774 30.26805 18.50290
#
# Velocity S-wave (km/s) = 1.77807 3.76864 2.94654
# Velocity P-wave (km/s) = 3.68802 6.12426 5.05510
#
# Compressibility (1/GPa) = 0.04999173
#
# Stress axis : x y z
#
# Youngs Moduli (GPa) = 107.51524 32.25294 130.65020
#
# Poissons Ratio (x) = -0.09849 0.35627
# Poissons Ratio (y) = -0.32831 -0.09004
# Poissons Ratio (z) = 0.29318 -0.02223
#
# Static dielectric constant tensor:
#      x y z
#    x 1.716560 0.000000 0.000000 
#    y 0.000000 1.831220 0.000000 
#    z 0.000000 0.000000 1.739080 
# 
# From -- ./inp_files/27741.got.cif
#   From: 2010.05.17/outbox.cif.g08.bks.cpg/sg62_14_cif.got.tgz:27741.got - 2010.06.03 15:25:27.
