data_PCOD9463140
_publ_section_title
;
Structure prediction by ZEFSAII (Michael W. Deem and Ramdas Pophale) SiO2 
 PCOD9463140
Probable space group: P N M A
;
_chemical_formula_sum "Si O2"
_cell_formula_units_Z 56
_cell_length_a 18.666764
_cell_length_b 8.313331
_cell_length_c 19.724847
_cell_angle_alpha 90.000000
_cell_angle_beta 90.000000
_cell_angle_gamma 90.000000
_cell_volume 3060.960692
_symmetry_space_group_name_H-M "P N M A"
_symmetry_group_IT_number 62
_symmetry_cell_setting 'orthorhombic'
loop_
_space_group_symop_operation_xyz
x,y,z
1/2-x,-y,1/2+z
1/2+x,1/2-y,1/2-z
-x,1/2+y,-z
-x,-y,-z
1/2+x,y,1/2-z
1/2-x,1/2+y,1/2+z
x,1/2-y,z
loop_
_atom_site_type_symbol
_atom_site_label
_atom_site_fract_x
_atom_site_fract_y
_atom_site_fract_z
Si Si1 0.528095 0.941523 0.071853
Si Si2 0.656001 0.564164 0.249466
Si Si3 0.455403 0.945189 0.358330
Si Si4 0.814536 0.560073 0.607277
Si Si5 0.331858 0.444583 0.459290
Si Si6 0.485978 0.936506 0.213482
Si Si7 0.617142 0.553349 0.393555
O O1 0.521057 0.750000 0.074562
O O2 0.485250 0.008858 0.137986
O O3 0.611442 0.982983 0.082379
O O4 0.500000 0.000000 0.000000
O O5 0.679866 0.750000 0.247571
O O6 0.692494 0.472680 0.187693
O O7 0.570531 0.564254 0.233262
O O8 0.659976 0.500614 0.326183
O O9 0.455434 0.750000 0.356243
O O10 0.448118 0.005442 0.280400
O O11 0.533882 0.995111 0.385864
O O12 0.393526 0.002818 0.407613
O O13 0.820687 0.750000 0.596246
O O14 0.745047 0.498522 0.567659
O O15 0.330503 0.250000 0.460441
O O16 0.350577 0.500061 0.535228
O O17 0.462719 0.750000 0.208177
O O18 0.617931 0.750000 0.391653
#
# Coordination Sequence:
#
# PCOD9463140 Si02
#       7
#     8   8   8   8   8   8   8
#     4  10  19  34  56  77  97 124 163 209 252 292
#     4   8  14  29  52  69  84 115 161 204 236 277
#     4   9  16  29  50  72  94 124 165 204 236 283
#     4  10  20  33  48  69 100 134 164 197 244 297
#     4  10  20  32  46  69 104 136 159 195 249 299
#     4   7  13  27  47  70  92 115 147 191 238 282
#     4   8  15  30  51  72  94 126 167 204 240 288
#
# _framework density 18.294910999999999
#
# number of rings (size 3 to 8) (size 9 to 14) (size 15 to 20)
#    0.000    3.143    0.000    3.857    0.000    1.143 
#    0.000    9.286    0.000    6.857    0.000    0.000 
#    0.000    0.000    0.000    0.000    0.000    0.000 
#
# Total GULP energy -311816.487086 kJ/mol
# GULP energy per Si atom -5568.151555 kJ/mol
# Density = 1.825327 g / cm^3
# Si number density = 18.294911 Si / 1000 Ang^3
#
#
#
# Elastic Constant Matrix: (Units=GPa)
#
#
# Indices 1 2 3 4 5 6 
#
# 1 57.3764 6.7724 69.9670 0.0000 0.0000 0.0000
# 2 6.7724 12.9640 15.8191 0.0000 0.0000 0.0000
# 3 69.9670 15.8191 208.3355 0.0000 0.0000 0.0000
# 4 0.0000 0.0000 0.0000 26.2251 0.0000 0.0000
# 5 0.0000 0.0000 0.0000 0.0000 17.9600 0.0000
# 6 0.0000 0.0000 0.0000 0.0000 0.0000 17.1336
#
#
#
# Elastic Compliance Matrix: (Units=1/GPa)
#
#
# Indices 1 2 3 4 5 6 
#
# 1 0.029676 -0.003683 -0.009687 0.000000 0.000000 0.000000
# 2 -0.003683 0.085471 -0.005253 0.000000 0.000000 0.000000
# 3 -0.009687 -0.005253 0.008452 0.000000 0.000000 0.000000
# 4 0.000000 0.000000 0.000000 0.038131 0.000000 0.000000
# 5 0.000000 0.000000 0.000000 0.000000 0.055679 0.000000
# 6 0.000000 0.000000 0.000000 0.000000 0.000000 0.058365
#
#
# Mechanical properties :
#
#
# Convention : Reuss Voigt Hill
#
# Bulk Modulus (GPa) = 11.58028 51.53255 31.55641
# Shear Modulus (GPa) = 14.62831 24.67157 19.64994
#
# Velocity S-wave (km/s) = 2.83076 3.67624 3.28085
# Velocity P-wave (km/s) = 4.12647 6.80063 5.62478
#
# Compressibility (1/GPa) = 0.08635369
#
# Stress axis : x y z
#
# Youngs Moduli (GPa) = 33.69772 11.69991 118.31594
#
# Poissons Ratio (x) = 0.04309 1.14608
# Poissons Ratio (y) = 0.12409 0.62153
# Poissons Ratio (z) = 0.32642 0.06146
#
# Static dielectric constant tensor:
#      x y z
#    x 1.599580 0.000000 0.000000 
#    y 0.000000 1.640690 0.000000 
#    z 0.000000 0.000000 1.679420 
# 
# From -- ./inp_files/24657.got.cif
#   From: 2010.05.17/outbox.cif.g08.bks.cpg/sg62_13_cif.got.tgz:24657.got - 2010.06.03 15:25:27.
