data_PCOD9463547
_publ_section_title
;
Structure prediction by ZEFSAII (Michael W. Deem and Ramdas Pophale) SiO2 
 PCOD9463547
Probable space group: P N M A
;
_chemical_formula_sum "Si O2"
_cell_formula_units_Z 56
_cell_length_a 25.274158
_cell_length_b 7.815632
_cell_length_c 12.966465
_cell_angle_alpha 90.000000
_cell_angle_beta 90.000000
_cell_angle_gamma 90.000000
_cell_volume 2561.311448
_symmetry_space_group_name_H-M "P N M A"
_symmetry_group_IT_number 62
_symmetry_cell_setting 'orthorhombic'
loop_
_space_group_symop_operation_xyz
x,y,z
1/2-x,-y,1/2+z
1/2+x,1/2-y,1/2-z
-x,1/2+y,-z
-x,-y,-z
1/2+x,y,1/2-z
1/2-x,1/2+y,1/2+z
x,1/2-y,z
loop_
_atom_site_type_symbol
_atom_site_label
_atom_site_fract_x
_atom_site_fract_y
_atom_site_fract_z
Si Si1 0.393687 0.049835 0.870759
Si Si2 0.509115 0.957259 0.826697
Si Si3 0.672714 0.449615 0.320885
Si Si4 0.149958 0.952529 0.947476
Si Si5 0.875135 0.041079 0.406219
Si Si6 0.533466 0.955876 0.599923
Si Si7 0.785438 0.040468 0.242422
O O1 0.382039 0.250000 0.862451
O O2 0.371983 0.968110 0.766273
O O3 0.456770 0.026294 0.880877
O O4 0.367139 0.982966 0.976024
O O5 0.506843 0.750000 0.831839
O O6 0.566081 0.011223 0.870461
O O7 0.508118 0.014000 0.707097
O O8 0.819486 0.750000 0.841110
O O9 0.658665 0.525345 0.431582
O O10 0.727625 0.521057 0.275360
O O11 0.147332 0.750000 0.927861
O O12 0.195396 0.017876 0.870584
O O13 0.092953 0.023878 0.913881
O O14 0.875229 0.250000 0.406371
O O15 0.829965 0.988972 0.325903
O O16 0.536160 0.750000 0.606871
O O17 0.500000 0.000000 0.500000
O O18 0.783455 0.250000 0.242378
#
# Coordination Sequence:
#
# PCOD9463547 Si02
#       7
#     8   8   8   8   8   8   8
#     4  11  23  37  58  87 121 156 193 237 288 347
#     4  10  19  36  60  85 115 150 192 239 291 349
#     4  11  24  39  59  87 119 155 195 240 289 342
#     4  10  20  39  63  85 112 149 194 239 286 342
#     4   9  18  36  61  86 113 152 194 237 292 351
#     4  10  20  33  55  82 111 149 188 230 281 339
#     4   9  19  38  62  85 112 149 193 238 291 347
#
# _framework density 21.863799
#
# number of rings (size 3 to 8) (size 9 to 14) (size 15 to 20)
#    0.000    2.000    1.429    2.143    2.000    3.429 
#    0.000    1.429    0.000    3.429    0.000    0.000 
#    0.000    0.000    0.000    0.000    0.000    0.000 
#
# Total GULP energy -312879.571713 kJ/mol
# GULP energy per Si atom -5587.135209 kJ/mol
# Density = 2.181404 g / cm^3
# Si number density = 21.863799 Si / 1000 Ang^3
#
#
#
# Elastic Constant Matrix: (Units=GPa)
#
#
# Indices 1 2 3 4 5 6 
#
# 1 65.8480 -6.8351 -8.7895 0.0000 0.0000 0.0000
# 2 -6.8351 21.4530 -4.8239 0.0000 0.0000 0.0000
# 3 -8.7895 -4.8239 82.4280 0.0000 0.0000 0.0000
# 4 0.0000 0.0000 0.0000 -6.7269 0.0000 0.0000
# 5 0.0000 0.0000 0.0000 0.0000 23.7562 0.0000
# 6 0.0000 0.0000 0.0000 0.0000 0.0000 13.9726
#
#
#
# Elastic Compliance Matrix: (Units=1/GPa)
#
#
# Indices 1 2 3 4 5 6 
#
# 1 0.016036 0.005567 0.002036 0.000000 0.000000 0.000000
# 2 0.005567 0.049168 0.003471 0.000000 0.000000 0.000000
# 3 0.002036 0.003471 0.012552 0.000000 0.000000 0.000000
# 4 0.000000 0.000000 0.000000 -0.148656 0.000000 0.000000
# 5 0.000000 0.000000 0.000000 0.000000 0.042094 0.000000
# 6 0.000000 0.000000 0.000000 0.000000 0.000000 0.071569
#
#
# Mechanical properties :
#
#
# Convention : Reuss Voigt Hill
#
# Bulk Modulus (GPa) = 10.00968 14.31467 12.16217
# Shear Modulus (GPa) = 92.73689 18.87886 55.80788
#
# Velocity S-wave (km/s) = 6.51980 2.94168 5.05773
# Velocity P-wave (km/s) = 7.82721 4.25434 6.29939
#
# Compressibility (1/GPa) = 0.09990327
#
# Stress axis : x y z
#
# Youngs Moduli (GPa) = 62.35935 20.33859 79.66850
#
# Poissons Ratio (x) = -0.11322 -0.16219
# Poissons Ratio (y) = -0.34715 -0.27653
# Poissons Ratio (z) = -0.12695 -0.07060
#
# Static dielectric constant tensor:
#      x y z
#    x 1.797010 0.000000 0.000000 
#    y 0.000000 1.807750 0.000000 
#    z 0.000000 0.000000 1.786070 
# 
# From -- ./inp_files/14778.got.cif
#   From: 2010.05.17/outbox.cif.g08.bks.cpg/sg62_8_cif.got.tgz:14778.got - 2010.06.03 15:25:27.
