data_PCOD9463195
_publ_section_title
;
Structure prediction by ZEFSAII (Michael W. Deem and Ramdas Pophale) SiO2 
 PCOD9463195
Probable space group: P N M A
;
_chemical_formula_sum "Si O2"
_cell_formula_units_Z 64
_cell_length_a 25.578622
_cell_length_b 8.917059
_cell_length_c 14.559635
_cell_angle_alpha 90.000000
_cell_angle_beta 90.000000
_cell_angle_gamma 90.000000
_cell_volume 3320.850095
_symmetry_space_group_name_H-M "P N M A"
_symmetry_group_IT_number 62
_symmetry_cell_setting 'orthorhombic'
loop_
_space_group_symop_operation_xyz
x,y,z
1/2-x,-y,1/2+z
1/2+x,1/2-y,1/2-z
-x,1/2+y,-z
-x,-y,-z
1/2+x,y,1/2-z
1/2-x,1/2+y,1/2+z
x,1/2-y,z
loop_
_atom_site_type_symbol
_atom_site_label
_atom_site_fract_x
_atom_site_fract_y
_atom_site_fract_z
Si Si1 0.625868 0.927516 0.362341
Si Si2 0.548500 0.070112 0.221879
Si Si3 0.826381 0.572916 0.031073
Si Si4 0.331573 0.928073 0.252215
Si Si5 0.782337 0.924639 0.541838
Si Si6 0.399281 0.932339 0.969537
Si Si7 0.442385 0.569625 0.159684
Si Si8 0.223722 0.423012 0.235914
O O1 0.621189 0.750000 0.360554
O O2 0.577677 0.002148 0.309249
O O3 0.633919 0.987210 0.465237
O O4 0.678260 0.979948 0.309163
O O5 0.550226 0.250000 0.226024
O O6 0.579816 0.020464 0.129665
O O7 0.489850 0.012218 0.208927
O O8 0.830707 0.750000 0.016394
O O9 0.835389 0.541546 0.138727
O O10 0.767437 0.518010 0.009472
O O11 0.321897 0.750000 0.240275
O O12 0.386390 0.964000 0.205146
O O13 0.281444 0.015993 0.214715
O O14 0.775907 0.750000 0.514068
O O15 0.839527 0.980357 0.512571
O O16 0.782434 0.929100 0.653287
O O17 0.397336 0.750000 0.968736
O O18 0.436677 0.976768 0.053040
O O19 0.450173 0.750000 0.164040
O O20 0.217514 0.250000 0.207836
#
# Coordination Sequence:
#
# PCOD9463195 Si02
#       8
#     8   8   8   8   8   8   8   8
#     4  12  24  38  59  85 113 153 200 244 296 354
#     4  11  22  40  60  84 118 155 196 246 294 342
#     4  10  21  37  56  84 119 153 191 243 294 345
#     4   9  20  38  59  85 120 156 195 240 291 349
#     4   9  17  33  55  83 118 158 189 223 281 347
#     4   9  18  34  57  84 120 158 190 228 284 345
#     4  10  21  38  60  86 115 155 198 239 286 349
#     4  10  19  34  57  84 119 154 190 237 289 344
#
# _framework density 19.272175000000001
#
# number of rings (size 3 to 8) (size 9 to 14) (size 15 to 20)
#    0.000    2.000    1.250    2.625    1.750    1.500 
#    0.000    1.875    0.000    0.000    0.000    0.000 
#    0.000    0.000    0.000    0.000    0.000    0.000 
#
# Total GULP energy -357632.129201 kJ/mol
# GULP energy per Si atom -5588.002019 kJ/mol
# Density = 1.922831 g / cm^3
# Si number density = 19.272175 Si / 1000 Ang^3
#
#
#
# Elastic Constant Matrix: (Units=GPa)
#
#
# Indices 1 2 3 4 5 6 
#
# 1 64.5813 19.4382 7.5380 0.0000 0.0000 0.0000
# 2 19.4382 57.8960 14.9267 0.0000 0.0000 0.0000
# 3 7.5380 14.9267 34.4922 0.0000 0.0000 0.0000
# 4 0.0000 0.0000 0.0000 20.2630 0.0000 0.0000
# 5 0.0000 0.0000 0.0000 0.0000 28.2288 0.0000
# 6 0.0000 0.0000 0.0000 0.0000 0.0000 31.5935
#
#
#
# Elastic Compliance Matrix: (Units=1/GPa)
#
#
# Indices 1 2 3 4 5 6 
#
# 1 0.017287 -0.005437 -0.001425 0.000000 0.000000 0.000000
# 2 -0.005437 0.021151 -0.007965 0.000000 0.000000 0.000000
# 3 -0.001425 -0.007965 0.032751 0.000000 0.000000 0.000000
# 4 0.000000 0.000000 0.000000 0.049351 0.000000 0.000000
# 5 0.000000 0.000000 0.000000 0.000000 0.035425 0.000000
# 6 0.000000 0.000000 0.000000 0.000000 0.000000 0.031652
#
#
# Mechanical properties :
#
#
# Convention : Reuss Voigt Hill
#
# Bulk Modulus (GPa) = 24.07620 26.75281 25.41451
# Shear Modulus (GPa) = 21.63419 23.68816 22.66118
#
# Velocity S-wave (km/s) = 3.35410 3.50971 3.43279
# Velocity P-wave (km/s) = 5.24593 5.50779 5.37846
#
# Compressibility (1/GPa) = 0.04153479
#
# Stress axis : x y z
#
# Youngs Moduli (GPa) = 57.84679 47.27859 30.53388
#
# Poissons Ratio (x) = 0.25703 0.04352
# Poissons Ratio (y) = 0.31449 0.24321
# Poissons Ratio (z) = 0.08245 0.37658
#
# Static dielectric constant tensor:
#      x y z
#    x 1.646950 0.000000 0.000000 
#    y 0.000000 1.643660 0.000000 
#    z 0.000000 0.000000 1.702400 
# 
# From -- ./inp_files/20812.got.cif
#   From: 2010.05.17/outbox.cif.g08.bks.cpg/sg62_11_cif.got.tgz:20812.got - 2010.06.03 15:25:27.
