data_PCOD9463122
_publ_section_title
;
Structure prediction by ZEFSAII (Michael W. Deem and Ramdas Pophale) SiO2 
 PCOD9463122
Probable space group: P N M A
;
_chemical_formula_sum "Si O2"
_cell_formula_units_Z 48
_cell_length_a 20.696689
_cell_length_b 7.553242
_cell_length_c 14.626797
_cell_angle_alpha 90.000000
_cell_angle_beta 90.000000
_cell_angle_gamma 90.000000
_cell_volume 2286.564766
_symmetry_space_group_name_H-M "P N M A"
_symmetry_group_IT_number 62
_symmetry_cell_setting 'orthorhombic'
loop_
_space_group_symop_operation_xyz
x,y,z
1/2-x,-y,1/2+z
1/2+x,1/2-y,1/2-z
-x,1/2+y,-z
-x,-y,-z
1/2+x,y,1/2-z
1/2-x,1/2+y,1/2+z
x,1/2-y,z
loop_
_atom_site_type_symbol
_atom_site_label
_atom_site_fract_x
_atom_site_fract_y
_atom_site_fract_z
Si Si1 0.064200 0.038380 0.943176
Si Si2 0.690647 0.546042 0.052015
Si Si3 0.487181 0.967046 0.251360
Si Si4 0.186405 0.035434 0.059142
Si Si5 0.863775 0.039704 0.741237
Si Si6 0.564222 0.460659 0.942819
O O1 0.072190 0.250000 0.936695
O O2 0.050456 0.971873 0.841304
O O3 0.125780 0.971164 0.998675
O O4 0.000000 0.000000 0.000000
O O5 0.709706 0.750000 0.069817
O O6 0.672401 0.466844 0.151187
O O7 0.748590 0.470433 0.990624
O O8 0.625649 0.542399 0.992388
O O9 0.488485 0.750000 0.252555
O O10 0.562215 0.027138 0.250818
O O11 0.450653 0.022120 0.159688
O O12 0.186778 0.250000 0.059493
O O13 0.174531 0.984795 0.164402
O O14 0.870613 0.250000 0.725604
O O15 0.574588 0.250000 0.941032
O O16 0.500000 0.500000 0.000000
#
# Coordination Sequence:
#
# PCOD9463122 Si02
#       6
#     8   8   8   8   8   8
#     4  10  19  34  55  80 108 141 183 229 277 328
#     4  10  22  40  57  80 117 154 187 231 286 340
#     4   9  18  33  56  84 111 142 184 229 273 334
#     4  10  22  37  56  83 115 147 184 236 288 332
#     4  10  19  36  60  81 109 151 189 226 281 344
#     4  11  21  36  59  86 113 146 190 235 280 335
#
# _framework density 20.992189
#
# number of rings (size 3 to 8) (size 9 to 14) (size 15 to 20)
#    0.000    2.000    3.333    0.500    0.000    2.667 
#    0.000    5.000    0.000    0.000    0.000    0.000 
#    0.000    0.000    0.000    0.000    0.000    0.000 
#
# Total GULP energy -268037.544149 kJ/mol
# GULP energy per Si atom -5584.115503 kJ/mol
# Density = 2.094441 g / cm^3
# Si number density = 20.992189 Si / 1000 Ang^3
#
#
#
# Elastic Constant Matrix: (Units=GPa)
#
#
# Indices 1 2 3 4 5 6 
#
# 1 147.3692 -14.0049 88.3327 0.0000 0.0000 0.0000
# 2 -14.0049 49.5675 -8.8954 0.0000 0.0000 0.0000
# 3 88.3327 -8.8954 226.3399 0.0000 0.0000 0.0000
# 4 0.0000 0.0000 0.0000 8.3645 0.0000 0.0000
# 5 0.0000 0.0000 0.0000 0.0000 30.4407 0.0000
# 6 0.0000 0.0000 0.0000 0.0000 0.0000 14.1192
#
#
#
# Elastic Compliance Matrix: (Units=1/GPa)
#
#
# Indices 1 2 3 4 5 6 
#
# 1 0.009038 0.001934 -0.003451 0.000000 0.000000 0.000000
# 2 0.001934 0.020732 0.000060 0.000000 0.000000 0.000000
# 3 -0.003451 0.000060 0.005767 0.000000 0.000000 0.000000
# 4 0.000000 0.000000 0.000000 0.119552 0.000000 0.000000
# 5 0.000000 0.000000 0.000000 0.000000 0.032851 0.000000
# 6 0.000000 0.000000 0.000000 0.000000 0.000000 0.070825
#
#
# Mechanical properties :
#
#
# Convention : Reuss Voigt Hill
#
# Bulk Modulus (GPa) = 30.65302 61.57125 46.11214
# Shear Modulus (GPa) = 18.34497 34.44118 26.39307
#
# Velocity S-wave (km/s) = 2.95938 4.05491 3.54966
# Velocity P-wave (km/s) = 5.12943 7.16361 6.23010
#
# Compressibility (1/GPa) = 0.03262321
#
# Stress axis : x y z
#
# Youngs Moduli (GPa) = 110.64170 48.23511 173.38829
#
# Poissons Ratio (x) = -0.09330 0.59841
# Poissons Ratio (y) = -0.21401 -0.01038
# Poissons Ratio (z) = 0.38185 -0.00289
#
# Static dielectric constant tensor:
#      x y z
#    x 1.710060 0.000000 0.000000 
#    y 0.000000 1.801790 0.000000 
#    z 0.000000 0.000000 1.790400 
# 
# From -- ./inp_files/19538.got.cif
#   From: 2010.05.17/outbox.cif.g08.bks.cpg/sg62_10_cif.got.tgz:19538.got - 2010.06.03 15:25:27.
