data_PCOD9463669
_publ_section_title
;
Structure prediction by ZEFSAII (Michael W. Deem and Ramdas Pophale) SiO2 
 PCOD9463669
Probable space group: P N M A
;
_chemical_formula_sum "Si O2"
_cell_formula_units_Z 60
_cell_length_a 8.292729
_cell_length_b 21.819042
_cell_length_c 14.062309
_cell_angle_alpha 90.000000
_cell_angle_beta 90.000000
_cell_angle_gamma 90.000000
_cell_volume 2544.425786
_symmetry_space_group_name_H-M "P N M A"
_symmetry_group_IT_number 62
_symmetry_cell_setting 'orthorhombic'
loop_
_space_group_symop_operation_xyz
x,y,z
1/2-x,-y,1/2+z
1/2+x,1/2-y,1/2-z
-x,1/2+y,-z
-x,-y,-z
1/2+x,y,1/2-z
1/2-x,1/2+y,1/2+z
x,1/2-y,z
loop_
_atom_site_type_symbol
_atom_site_label
_atom_site_fract_x
_atom_site_fract_y
_atom_site_fract_z
Si Si1 0.392640 0.679536 0.431856
Si Si2 0.310837 0.635682 0.964596
Si Si3 0.516801 0.577624 0.801454
Si Si4 0.136302 0.407613 0.109649
Si Si5 0.536394 0.820309 0.131729
Si Si6 0.591265 0.437373 0.760182
Si Si7 0.383236 0.048625 0.603104
Si Si8 0.624079 0.750000 0.473596
O O1 0.410098 0.750000 0.483358
O O2 0.378091 0.635582 0.520195
O O3 0.230984 0.680110 0.372850
O O4 0.570510 0.692767 0.391774
O O5 0.461685 0.658764 0.029972
O O6 0.207327 0.584547 0.020686
O O7 0.201359 0.695537 0.959039
O O8 0.380875 0.604478 0.870534
O O9 0.488763 0.601772 0.695148
O O10 0.687735 0.596672 0.843885
O O11 0.517150 0.502999 0.795123
O O12 0.114616 0.477596 0.077542
O O13 0.481213 0.750000 0.149774
O O14 0.476393 0.874277 0.198585
O O15 0.769866 0.442613 0.803236
O O16 0.558238 0.433447 0.646666
#
# Coordination Sequence:
#
# PCOD9463669 Si02
#       8
#     8   8   8   8   8   8   8   4
#     4   9  21  38  56  81 118 152 186 240 286 347
#     4  11  21  39  62  88 115 160 194 245 293 346
#     4  10  22  36  63  87 119 154 196 247 291 347
#     4  10  20  39  59  88 119 152 198 241 292 354
#     4  10  19  37  63  85 111 155 199 231 288 355
#     4   9  20  38  58  90 120 147 196 246 289 349
#     4   9  21  37  63  86 120 150 197 245 296 346
#     4  10  24  38  54  84 124 140 198 246 284 346
#
# _framework density 23.580959
#
# number of rings (size 3 to 8) (size 9 to 14) (size 15 to 20)
#    0.400    1.867    2.000    0.000    3.733    2.667 
#    2.400    0.667    0.000    0.000    0.000    0.000 
#    0.000    0.000    0.000    0.000    0.000    0.000 
#
# Total GULP energy -334251.687324 kJ/mol
# GULP energy per Si atom -5570.861455 kJ/mol
# Density = 2.352729 g / cm^3
# Si number density = 23.580959 Si / 1000 Ang^3
#
#
#
# Elastic Constant Matrix: (Units=GPa)
#
#
# Indices 1 2 3 4 5 6 
#
# 1 85.5320 23.7563 18.3600 0.0000 0.0000 0.0000
# 2 23.7563 71.0088 40.9319 0.0000 0.0000 0.0000
# 3 18.3600 40.9319 79.5806 0.0000 0.0000 0.0000
# 4 0.0000 0.0000 0.0000 20.7107 0.0000 0.0000
# 5 0.0000 0.0000 0.0000 0.0000 44.7862 0.0000
# 6 0.0000 0.0000 0.0000 0.0000 0.0000 43.4649
#
#
#
# Elastic Compliance Matrix: (Units=1/GPa)
#
#
# Indices 1 2 3 4 5 6 
#
# 1 0.012954 -0.003712 -0.001080 0.000000 0.000000 0.000000
# 2 -0.003712 0.021081 -0.009987 0.000000 0.000000 0.000000
# 3 -0.001080 -0.009987 0.017952 0.000000 0.000000 0.000000
# 4 0.000000 0.000000 0.000000 0.048284 0.000000 0.000000
# 5 0.000000 0.000000 0.000000 0.000000 0.022328 0.000000
# 6 0.000000 0.000000 0.000000 0.000000 0.000000 0.023007
#
#
# Mechanical properties :
#
#
# Convention : Reuss Voigt Hill
#
# Bulk Modulus (GPa) = 44.58091 44.69088 44.63589
# Shear Modulus (GPa) = 27.37636 31.99724 29.68680
#
# Velocity S-wave (km/s) = 3.41097 3.68762 3.55199
# Velocity P-wave (km/s) = 5.87022 6.09300 5.98265
#
# Compressibility (1/GPa) = 0.02243113
#
# Stress axis : x y z
#
# Youngs Moduli (GPa) = 77.19537 47.43575 55.70546
#
# Poissons Ratio (x) = 0.17606 0.06014
# Poissons Ratio (y) = 0.28651 0.55631
# Poissons Ratio (z) = 0.08334 0.47373
#
# Static dielectric constant tensor:
#      x y z
#    x 1.989060 0.000000 0.000000 
#    y 0.000000 2.058410 0.000000 
#    z 0.000000 0.000000 1.916530 
# 
# From -- ./inp_files/17335.got.cif
#   From: 2010.05.17/outbox.cif.g08.bks.cpg/sg62_9_cif.got.tgz:17335.got - 2010.06.03 15:25:27.
