data_PCOD9463144
_publ_section_title
;
Structure prediction by ZEFSAII (Michael W. Deem and Ramdas Pophale) SiO2 
 PCOD9463144
Probable space group: P N M A
;
_chemical_formula_sum "Si O2"
_cell_formula_units_Z 64
_cell_length_a 11.431729
_cell_length_b 31.613810
_cell_length_c 8.333049
_cell_angle_alpha 90.000000
_cell_angle_beta 90.000000
_cell_angle_gamma 90.000000
_cell_volume 3011.568147
_symmetry_space_group_name_H-M "P N M A"
_symmetry_group_IT_number 62
_symmetry_cell_setting 'orthorhombic'
loop_
_space_group_symop_operation_xyz
x,y,z
1/2-x,-y,1/2+z
1/2+x,1/2-y,1/2-z
-x,1/2+y,-z
-x,-y,-z
1/2+x,y,1/2-z
1/2-x,1/2+y,1/2+z
x,1/2-y,z
loop_
_atom_site_type_symbol
_atom_site_label
_atom_site_fract_x
_atom_site_fract_y
_atom_site_fract_z
Si Si1 0.400994 0.296105 0.613249
Si Si2 0.658026 0.204398 0.473122
Si Si3 0.839780 0.884647 0.597506
Si Si4 0.112036 0.028595 0.505731
Si Si5 0.157947 0.388023 0.022028
Si Si6 0.337531 0.705453 0.909885
Si Si7 0.602430 0.889991 0.387719
Si Si8 0.272474 0.041311 0.808565
O O1 0.403994 0.250000 0.699626
O O2 0.518510 0.296298 0.505371
O O3 0.286589 0.295030 0.500333
O O4 0.399544 0.342833 0.692610
O O5 0.700527 0.250000 0.539039
O O6 0.697798 0.158852 0.539110
O O7 0.680128 0.204969 0.282217
O O8 0.916499 0.924103 0.546946
O O9 0.824760 0.887095 0.787769
O O10 0.894437 0.839416 0.550261
O O11 0.714398 0.889261 0.508252
O O12 0.174533 0.032708 0.675572
O O13 0.195936 0.003800 0.382857
O O14 0.000000 0.000000 0.500000
O O15 0.020930 0.393437 0.978494
O O16 0.224698 0.426594 0.941939
O O17 0.397662 0.750000 0.951652
O O18 0.625197 0.930895 0.276686
#
# Coordination Sequence:
#
# PCOD9463144 Si02
#       8
#     8   8   8   8   8   8   8   8
#     4   8  13  24  45  71 100 136 173 208 253 305
#     4   8  14  25  44  72 103 136 173 209 253 309
#     4   9  19  34  54  81 107 136 177 215 262 321
#     4  11  24  41  59  80 108 140 176 223 270 315
#     4  10  19  34  56  79 108 143 176 220 268 310
#     4   8  13  24  45  73 103 131 164 210 255 301
#     4   9  19  35  53  78 110 140 175 221 263 309
#     4  11  23  39  57  80 103 136 181 220 265 324
#
# _framework density 21.251387000000001
#
# number of rings (size 3 to 8) (size 9 to 14) (size 15 to 20)
#    0.000    2.750    0.000    1.500    0.000    3.000 
#    0.000    6.250    0.000    0.750    0.000    0.875 
#    0.000    0.000    0.000    0.000    0.000    0.000 
#
# Total GULP energy -356439.622134 kJ/mol
# GULP energy per Si atom -5569.369096 kJ/mol
# Density = 2.120302 g / cm^3
# Si number density = 21.251387 Si / 1000 Ang^3
#
#
#
# Elastic Constant Matrix: (Units=GPa)
#
#
# Indices 1 2 3 4 5 6 
#
# 1 14.2941 12.1067 7.0148 0.0000 0.0000 0.0000
# 2 12.1067 151.2238 16.3532 0.0000 0.0000 0.0000
# 3 7.0148 16.3532 28.7619 0.0000 0.0000 0.0000
# 4 0.0000 0.0000 0.0000 19.3920 0.0000 0.0000
# 5 0.0000 0.0000 0.0000 0.0000 7.2331 0.0000
# 6 0.0000 0.0000 0.0000 0.0000 0.0000 -86.5339
#
#
#
# Elastic Compliance Matrix: (Units=1/GPa)
#
#
# Indices 1 2 3 4 5 6 
#
# 1 0.082516 -0.004720 -0.017441 0.000000 0.000000 0.000000
# 2 -0.004720 0.007316 -0.003008 0.000000 0.000000 0.000000
# 3 -0.017441 -0.003008 0.040732 0.000000 0.000000 0.000000
# 4 0.000000 0.000000 0.000000 0.051568 0.000000 0.000000
# 5 0.000000 0.000000 0.000000 0.000000 0.138253 0.000000
# 6 0.000000 0.000000 0.000000 0.000000 0.000000 -0.011556
#
#
# Mechanical properties :
#
#
# Convention : Reuss Voigt Hill
#
# Bulk Modulus (GPa) = 12.46497 29.46991 20.96744
# Shear Modulus (GPa) = 12.95643 -1.39472 5.78085
#
# Velocity S-wave (km/s) = 2.47184 -0.81100 1.65110
# Velocity P-wave (km/s) = 3.74498 3.60838 3.67731
#
# Compressibility (1/GPa) = 0.08022484
#
# Stress axis : x y z
#
# Youngs Moduli (GPa) = 12.11892 136.68826 24.55046
#
# Poissons Ratio (x) = 0.64516 0.42819
# Poissons Ratio (y) = 0.05720 0.07386
# Poissons Ratio (z) = 0.21137 0.41122
#
# Static dielectric constant tensor:
#      x y z
#    x 1.804550 0.000000 0.000000 
#    y 0.000000 1.927960 0.000000 
#    z 0.000000 0.000000 1.799330 
# 
# From -- ./inp_files/5518.got.cif
#   From: 2010.05.17/outbox.cif.g08.bks.cpg/sg62_3_cif.got.tgz:5518.got - 2010.06.03 15:25:27.
