data_PCOD9463430
_publ_section_title
;
Structure prediction by ZEFSAII (Michael W. Deem and Ramdas Pophale) SiO2 
 PCOD9463430
Probable space group: P N M A
;
_chemical_formula_sum "Si O2"
_cell_formula_units_Z 64
_cell_length_a 15.901575
_cell_length_b 11.283825
_cell_length_c 19.241552
_cell_angle_alpha 90.000000
_cell_angle_beta 90.000000
_cell_angle_gamma 90.000000
_cell_volume 3452.523019
_symmetry_space_group_name_H-M "P N M A"
_symmetry_group_IT_number 62
_symmetry_cell_setting 'orthorhombic'
loop_
_space_group_symop_operation_xyz
x,y,z
1/2-x,-y,1/2+z
1/2+x,1/2-y,1/2-z
-x,1/2+y,-z
-x,-y,-z
1/2+x,y,1/2-z
1/2-x,1/2+y,1/2+z
x,1/2-y,z
loop_
_atom_site_type_symbol
_atom_site_label
_atom_site_fract_x
_atom_site_fract_y
_atom_site_fract_z
Si Si1 0.565450 0.608817 0.602749
Si Si2 0.990021 0.490676 0.614005
Si Si3 0.178729 0.618385 0.344235
Si Si4 0.611939 0.385956 0.001306
Si Si5 0.280649 0.524681 0.468957
Si Si6 0.120593 0.390490 0.100448
Si Si7 0.409509 0.113648 0.233264
Si Si8 0.288707 0.607921 0.743646
O O1 0.571885 0.750000 0.588789
O O2 0.641220 0.543887 0.564872
O O3 0.472570 0.561740 0.584128
O O4 0.574418 0.592137 0.685555
O O5 0.917499 0.395127 0.629852
O O6 0.939809 0.592756 0.572441
O O7 0.060697 0.448043 0.560334
O O8 0.034683 0.533180 0.683733
O O9 0.189760 0.750000 0.311457
O O10 0.240819 0.609720 0.410435
O O11 0.195296 0.497341 0.299569
O O12 0.618051 0.250000 0.984775
O O13 0.703658 0.439568 0.011731
O O14 0.314564 0.581702 0.539531
O O15 0.110117 0.250000 0.103982
O O16 0.154962 0.422773 0.176563
O O17 0.432179 0.250000 0.218411
O O18 0.309445 0.100769 0.222564
O O19 0.302906 0.750000 0.763805
#
# Coordination Sequence:
#
# PCOD9463430 Si02
#       8
#     8   8   8   8   8   8   8   8
#     4  10  20  35  57  85 115 148 194 253 299 344
#     4  10  21  36  58  84 116 155 193 241 298 360
#     4  11  23  39  60  86 123 162 195 240 302 365
#     4  10  21  36  56  85 116 150 196 245 298 354
#     4  11  21  37  60  82 117 156 197 241 297 359
#     4  10  21  37  59  85 113 150 200 251 295 344
#     4  10  19  35  60  88 115 148 199 251 296 348
#     4  10  21  39  64  90 117 155 202 250 295 351
#
# _framework density 18.537168999999999
#
# number of rings (size 3 to 8) (size 9 to 14) (size 15 to 20)
#    0.000    1.750    1.250    3.375    0.000    3.500 
#    0.000    7.500    0.000    2.250    0.000    0.000 
#    0.000    0.000    0.000    0.000    0.000    0.000 
#
# Total GULP energy -356935.522312 kJ/mol
# GULP energy per Si atom -5577.117536 kJ/mol
# Density = 1.849498 g / cm^3
# Si number density = 18.537169 Si / 1000 Ang^3
#
#
#
# Elastic Constant Matrix: (Units=GPa)
#
#
# Indices 1 2 3 4 5 6 
#
# 1 112.7517 31.1522 28.7670 0.0000 0.0000 0.0000
# 2 31.1522 61.2796 28.1888 0.0000 0.0000 0.0000
# 3 28.7670 28.1888 47.0317 0.0000 0.0000 0.0000
# 4 0.0000 0.0000 0.0000 14.3809 0.0000 0.0000
# 5 0.0000 0.0000 0.0000 0.0000 43.2986 0.0000
# 6 0.0000 0.0000 0.0000 0.0000 0.0000 1.3056
#
#
#
# Elastic Compliance Matrix: (Units=1/GPa)
#
#
# Indices 1 2 3 4 5 6 
#
# 1 0.011014 -0.003452 -0.004668 0.000000 0.000000 0.000000
# 2 -0.003452 0.023612 -0.012041 0.000000 0.000000 0.000000
# 3 -0.004668 -0.012041 0.031334 0.000000 0.000000 0.000000
# 4 0.000000 0.000000 0.000000 0.069537 0.000000 0.000000
# 5 0.000000 0.000000 0.000000 0.000000 0.023095 0.000000
# 6 0.000000 0.000000 0.000000 0.000000 0.000000 0.765916
#
#
# Mechanical properties :
#
#
# Convention : Reuss Voigt Hill
#
# Bulk Modulus (GPa) = 39.00266 44.14209 41.57238
# Shear Modulus (GPa) = 5.13676 20.66070 12.89873
#
# Velocity S-wave (km/s) = 1.66646 3.34212 2.64072
# Velocity P-wave (km/s) = 4.97882 6.22555 5.63676
#
# Compressibility (1/GPa) = 0.02563928
#
# Stress axis : x y z
#
# Youngs Moduli (GPa) = 90.79672 42.35090 31.91419
#
# Poissons Ratio (x) = 0.14619 0.14896
# Poissons Ratio (y) = 0.31341 0.38428
# Poissons Ratio (z) = 0.42381 0.50994
#
# Static dielectric constant tensor:
#      x y z
#    x 1.600000 0.000000 0.000000 
#    y 0.000000 1.632940 0.000000 
#    z 0.000000 0.000000 1.632310 
# 
# From -- ./inp_files/24008.got.cif
#   From: 2010.05.17/outbox.cif.g08.bks.cpg/sg62_13_cif.got.tgz:24008.got - 2010.06.03 15:25:27.
