data_PCOD9463977
_publ_section_title
;
Structure prediction by ZEFSAII (Michael W. Deem and Ramdas Pophale) SiO2 
 PCOD9463977
Probable space group: P N M A
;
_chemical_formula_sum "Si O2"
_cell_formula_units_Z 48
_cell_length_a 10.562547
_cell_length_b 13.024301
_cell_length_c 17.201674
_cell_angle_alpha 90.000000
_cell_angle_beta 90.000000
_cell_angle_gamma 90.000000
_cell_volume 2366.430705
_symmetry_space_group_name_H-M "P N M A"
_symmetry_group_IT_number 62
_symmetry_cell_setting 'orthorhombic'
loop_
_space_group_symop_operation_xyz
x,y,z
1/2-x,-y,1/2+z
1/2+x,1/2-y,1/2-z
-x,1/2+y,-z
-x,-y,-z
1/2+x,y,1/2-z
1/2-x,1/2+y,1/2+z
x,1/2-y,z
loop_
_atom_site_type_symbol
_atom_site_label
_atom_site_fract_x
_atom_site_fract_y
_atom_site_fract_z
Si Si1 0.122853 0.006172 0.054233
Si Si2 0.248292 0.137423 0.937383
Si Si3 0.955060 0.530252 0.607885
Si Si4 0.385026 0.484069 0.734153
Si Si5 0.632661 0.364914 0.724170
Si Si6 0.858551 0.630551 0.458675
O O1 0.099736 0.018656 0.145585
O O2 0.212446 0.906658 0.038542
O O3 0.196660 0.104373 0.020153
O O4 0.000000 0.000000 0.000000
O O5 0.305845 0.250000 0.937557
O O6 0.347520 0.053282 0.911476
O O7 0.142725 0.135086 0.869863
O O8 0.926415 0.561332 0.696569
O O9 0.931306 0.614748 0.541441
O O10 0.079374 0.460432 0.594073
O O11 0.490636 0.395176 0.745792
O O12 0.243616 0.440624 0.746831
O O13 0.663235 0.250000 0.750898
O O14 0.868693 0.750000 0.435095
#
# Coordination Sequence:
#
# PCOD9463977 Si02
#       6
#     8   8   8   8   8   8
#     4  11  22  36  54  83 117 155 193 233 288 345
#     4   9  18  35  56  78 112 152 189 232 289 348
#     4   9  20  37  59  89 115 150 191 243 296 338
#     4  11  21  35  55  82 119 150 189 242 294 343
#     4  10  20  33  53  81 112 147 188 238 295 350
#     4  10  21  39  62  86 115 153 197 238 289 353
#
# _framework density 20.283711
#
# number of rings (size 3 to 8) (size 9 to 14) (size 15 to 20)
#    0.000    2.000    1.667    2.000    0.000    5.333 
#    0.000    0.833    0.000    0.000    0.000    0.000 
#    0.000    0.000    0.000    0.000    0.000    0.000 
#
# Total GULP energy -267463.202953 kJ/mol
# GULP energy per Si atom -5572.150062 kJ/mol
# Density = 2.023754 g / cm^3
# Si number density = 20.283711 Si / 1000 Ang^3
#
#
#
# Elastic Constant Matrix: (Units=GPa)
#
#
# Indices 1 2 3 4 5 6 
#
# 1 77.5114 1.3405 22.8351 0.0000 0.0000 0.0000
# 2 1.3405 36.9725 14.9350 0.0000 0.0000 0.0000
# 3 22.8351 14.9350 170.0689 0.0000 0.0000 0.0000
# 4 0.0000 0.0000 0.0000 12.4419 0.0000 0.0000
# 5 0.0000 0.0000 0.0000 0.0000 29.8747 0.0000
# 6 0.0000 0.0000 0.0000 0.0000 0.0000 12.8924
#
#
#
# Elastic Compliance Matrix: (Units=1/GPa)
#
#
# Indices 1 2 3 4 5 6 
#
# 1 0.013435 0.000250 -0.001826 0.000000 0.000000 0.000000
# 2 0.000250 0.028047 -0.002497 0.000000 0.000000 0.000000
# 3 -0.001826 -0.002497 0.006344 0.000000 0.000000 0.000000
# 4 0.000000 0.000000 0.000000 0.080373 0.000000 0.000000
# 5 0.000000 0.000000 0.000000 0.000000 0.033473 0.000000
# 6 0.000000 0.000000 0.000000 0.000000 0.000000 0.077565
#
#
# Mechanical properties :
#
#
# Convention : Reuss Voigt Hill
#
# Bulk Modulus (GPa) = 25.20047 40.30820 32.75433
# Shear Modulus (GPa) = 19.18584 27.40462 23.29523
#
# Velocity S-wave (km/s) = 3.07884 3.67967 3.39258
# Velocity P-wave (km/s) = 5.00899 6.16187 5.61510
#
# Compressibility (1/GPa) = 0.03968180
#
# Stress axis : x y z
#
# Youngs Moduli (GPa) = 74.43290 35.65500 157.61991
#
# Poissons Ratio (x) = -0.00893 0.28780
# Poissons Ratio (y) = -0.01864 0.39351
# Poissons Ratio (z) = 0.13591 0.08902
#
# Static dielectric constant tensor:
#      x y z
#    x 1.770050 0.000000 0.000000 
#    y 0.000000 1.702870 0.000000 
#    z 0.000000 0.000000 1.836240 
# 
# From -- ./inp_files/22999.got.cif
#   From: 2010.05.17/outbox.cif.g08.bks.cpg/sg62_12_cif.got.tgz:22999.got - 2010.06.03 15:25:27.
