data_PCOD9463486
_publ_section_title
;
Structure prediction by ZEFSAII (Michael W. Deem and Ramdas Pophale) SiO2 
 PCOD9463486
Probable space group: P N M A
;
_chemical_formula_sum "Si O2"
_cell_formula_units_Z 64
_cell_length_a 5.229950
_cell_length_b 18.496886
_cell_length_c 33.581171
_cell_angle_alpha 90.000000
_cell_angle_beta 90.000000
_cell_angle_gamma 90.000000
_cell_volume 3248.568232
_symmetry_space_group_name_H-M "P N M A"
_symmetry_group_IT_number 62
_symmetry_cell_setting 'orthorhombic'
loop_
_space_group_symop_operation_xyz
x,y,z
1/2-x,-y,1/2+z
1/2+x,1/2-y,1/2-z
-x,1/2+y,-z
-x,-y,-z
1/2+x,y,1/2-z
1/2-x,1/2+y,1/2+z
x,1/2-y,z
loop_
_atom_site_type_symbol
_atom_site_label
_atom_site_fract_x
_atom_site_fract_y
_atom_site_fract_z
Si Si1 0.361109 0.410702 0.338313
Si Si2 0.250529 0.538015 0.018585
Si Si3 0.312346 0.833819 0.723648
Si Si4 0.685762 0.672157 0.223203
Si Si5 0.345624 0.944660 0.588335
Si Si6 0.022684 0.326853 0.389501
Si Si7 0.367348 0.332141 0.467111
Si Si8 0.396072 0.484754 0.777497
O O1 0.601638 0.385478 0.311886
O O2 0.440437 0.454303 0.378098
O O3 0.231607 0.337808 0.355201
O O4 0.178225 0.457147 0.310375
O O5 0.237878 0.515788 0.064857
O O6 0.500000 0.500000 0.000000
O O7 0.234227 0.621187 0.004492
O O8 0.000000 0.500000 0.000000
O O9 0.035580 0.844613 0.743257
O O10 0.325080 0.750000 0.711193
O O11 0.469811 0.671383 0.258060
O O12 0.653227 0.750000 0.202207
O O13 0.636400 0.595208 0.203157
O O14 0.430529 0.884251 0.555400
O O15 0.129509 0.900888 0.611152
O O16 0.883677 0.250000 0.384396
O O17 0.153104 0.325855 0.432869
O O18 0.453742 0.250000 0.476164
O O19 0.673707 0.489948 0.756700
#
# Coordination Sequence:
#
# PCOD9463486 Si02
#       8
#     8   8   8   8   8   8   8   8
#     4  11  23  34  50  75 105 144 184 228 278 325
#     4  10  19  36  57  82 111 144 177 218 273 330
#     4  10  22  38  53  70  97 138 185 231 275 321
#     4   8  14  27  48  74  98 119 152 206 266 316
#     4  10  21  34  54  79 113 146 183 229 282 333
#     4  10  20  33  51  76 105 139 180 227 276 321
#     4   9  18  34  55  83 111 141 184 228 271 325
#     4  10  21  35  54  77 104 139 185 231 274 328
#
# _framework density 19.700987999999999
#
# number of rings (size 3 to 8) (size 9 to 14) (size 15 to 20)
#    0.000    2.250    1.250    1.500    3.500    1.500 
#    0.000    0.000    0.000    0.750    0.000    0.875 
#    0.000    0.000    0.000    0.000    0.000    0.000 
#
# Total GULP energy -356698.960879 kJ/mol
# GULP energy per Si atom -5573.421264 kJ/mol
# Density = 1.965615 g / cm^3
# Si number density = 19.700988 Si / 1000 Ang^3
#
#
#
# Elastic Constant Matrix: (Units=GPa)
#
#
# Indices 1 2 3 4 5 6 
#
# 1 80.7705 4.8363 18.6760 0.0000 0.0000 0.0000
# 2 4.8363 112.2776 52.9839 0.0000 0.0000 0.0000
# 3 18.6760 52.9839 81.3813 0.0000 0.0000 0.0000
# 4 0.0000 0.0000 0.0000 -12.4236 0.0000 0.0000
# 5 0.0000 0.0000 0.0000 0.0000 18.4764 0.0000
# 6 0.0000 0.0000 0.0000 0.0000 0.0000 21.4730
#
#
#
# Elastic Compliance Matrix: (Units=1/GPa)
#
#
# Indices 1 2 3 4 5 6 
#
# 1 0.013193 0.001242 -0.003836 0.000000 0.000000 0.000000
# 2 0.001242 0.012973 -0.008731 0.000000 0.000000 0.000000
# 3 -0.003836 -0.008731 0.018853 0.000000 0.000000 0.000000
# 4 0.000000 0.000000 0.000000 -0.080492 0.000000 0.000000
# 5 0.000000 0.000000 0.000000 0.000000 0.054123 0.000000
# 6 0.000000 0.000000 0.000000 0.000000 0.000000 0.046570
#
#
# Mechanical properties :
#
#
# Convention : Reuss Voigt Hill
#
# Bulk Modulus (GPa) = 44.70630 47.49132 46.09881
# Shear Modulus (GPa) = 52.45020 18.70070 35.57545
#
# Velocity S-wave (km/s) = 5.16536 3.08429 4.25405
# Velocity P-wave (km/s) = 7.63651 6.06978 6.89777
#
# Compressibility (1/GPa) = 0.02236821
#
# Stress axis : x y z
#
# Youngs Moduli (GPa) = 75.79516 77.08081 53.04206
#
# Poissons Ratio (x) = -0.09574 0.20349
# Poissons Ratio (y) = -0.09415 0.46314
# Poissons Ratio (z) = 0.29078 0.67303
#
# Static dielectric constant tensor:
#      x y z
#    x 1.793030 0.000000 0.000000 
#    y 0.000000 2.659660 0.000000 
#    z 0.000000 0.000000 1.687670 
# 
# From -- ./inp_files/30555.got.cif
#   From: 2010.05.17/outbox.cif.g08.bks.cpg/sg62_16_cif.got.tgz:30555.got - 2010.06.03 15:25:27.
