data_PCOD9463087
_publ_section_title
;
Structure prediction by ZEFSAII (Michael W. Deem and Ramdas Pophale) SiO2 
 PCOD9463087
Probable space group: P N M A
;
_chemical_formula_sum "Si O2"
_cell_formula_units_Z 56
_cell_length_a 9.287686
_cell_length_b 13.653341
_cell_length_c 21.498885
_cell_angle_alpha 90.000000
_cell_angle_beta 90.000000
_cell_angle_gamma 90.000000
_cell_volume 2726.229406
_symmetry_space_group_name_H-M "P N M A"
_symmetry_group_IT_number 62
_symmetry_cell_setting 'orthorhombic'
loop_
_space_group_symop_operation_xyz
x,y,z
1/2-x,-y,1/2+z
1/2+x,1/2-y,1/2-z
-x,1/2+y,-z
-x,-y,-z
1/2+x,y,1/2-z
1/2-x,1/2+y,1/2+z
x,1/2-y,z
loop_
_atom_site_type_symbol
_atom_site_label
_atom_site_fract_x
_atom_site_fract_y
_atom_site_fract_z
Si Si1 0.991521 0.470052 0.659751
Si Si2 0.835770 0.857907 0.436782
Si Si3 0.976408 0.640650 0.808467
Si Si4 0.801171 0.976603 0.995355
Si Si5 0.767289 0.481670 0.241237
Si Si6 0.031540 0.862583 0.557287
Si Si7 0.447236 0.139172 0.447095
O O1 0.835340 0.461292 0.692219
O O2 0.038886 0.388393 0.610514
O O3 0.116967 0.467867 0.712638
O O4 0.000660 0.571062 0.618420
O O5 0.782405 0.750000 0.421787
O O6 0.905615 0.859603 0.505763
O O7 0.713455 0.941540 0.439844
O O8 0.963153 0.750000 0.782660
O O9 0.850823 0.574099 0.782282
O O10 0.132312 0.597228 0.792872
O O11 0.970412 0.643411 0.882290
O O12 0.659090 0.914401 0.982025
O O13 0.931941 0.900731 0.993917
O O14 0.832674 0.050052 0.052699
O O15 0.065390 0.750000 0.574605
O O16 0.394440 0.250000 0.459698
#
# Coordination Sequence:
#
# PCOD9463087 Si02
#       7
#     8   8   8   8   8   8   8
#     4  10  21  39  58  83 117 151 188 242 287 348
#     4  10  21  37  60  86 109 145 195 246 292 338
#     4  10  20  33  50  75 108 144 184 226 270 334
#     4  10  19  34  53  79 113 146 180 229 285 341
#     4  10  22  35  54  80 110 152 192 225 287 342
#     4  10  21  35  59  87 114 148 189 236 293 348
#     4  10  21  33  52  79 112 150 184 224 279 342
#
# _framework density 20.541191000000001
#
# number of rings (size 3 to 8) (size 9 to 14) (size 15 to 20)
#    0.000    2.000    0.000    4.714    4.000    4.571 
#    0.000    0.714    0.000    0.000    0.000    0.000 
#    0.000    0.000    0.000    0.000    0.000    0.000 
#
# Total GULP energy -311819.275277 kJ/mol
# GULP energy per Si atom -5568.201344 kJ/mol
# Density = 2.049444 g / cm^3
# Si number density = 20.541191 Si / 1000 Ang^3
#
#
#
# Elastic Constant Matrix: (Units=GPa)
#
#
# Indices 1 2 3 4 5 6 
#
# 1 87.9806 7.6983 9.4941 0.0000 0.0000 0.0000
# 2 7.6983 71.2417 11.7007 0.0000 0.0000 0.0000
# 3 9.4941 11.7007 51.7316 0.0000 0.0000 0.0000
# 4 0.0000 0.0000 0.0000 11.7228 0.0000 0.0000
# 5 0.0000 0.0000 0.0000 0.0000 30.0918 0.0000
# 6 0.0000 0.0000 0.0000 0.0000 0.0000 14.1136
#
#
#
# Elastic Compliance Matrix: (Units=1/GPa)
#
#
# Indices 1 2 3 4 5 6 
#
# 1 0.011657 -0.000943 -0.001926 0.000000 0.000000 0.000000
# 2 -0.000943 0.014655 -0.003141 0.000000 0.000000 0.000000
# 3 -0.001926 -0.003141 0.020395 0.000000 0.000000 0.000000
# 4 0.000000 0.000000 0.000000 0.085304 0.000000 0.000000
# 5 0.000000 0.000000 0.000000 0.000000 0.033232 0.000000
# 6 0.000000 0.000000 0.000000 0.000000 0.000000 0.070853
#
#
# Mechanical properties :
#
#
# Convention : Reuss Voigt Hill
#
# Bulk Modulus (GPa) = 28.83148 29.86001 29.34575
# Shear Modulus (GPa) = 19.25465 23.32303 21.28884
#
# Velocity S-wave (km/s) = 3.06497 3.37327 3.22281
# Velocity P-wave (km/s) = 5.15672 5.45345 5.30716
#
# Compressibility (1/GPa) = 0.03468431
#
# Stress axis : x y z
#
# Youngs Moduli (GPa) = 85.78897 68.23792 49.03273
#
# Poissons Ratio (x) = 0.06437 0.09443
# Poissons Ratio (y) = 0.08092 0.15403
# Poissons Ratio (z) = 0.16522 0.21437
#
# Static dielectric constant tensor:
#      x y z
#    x 1.798320 0.000000 0.000000 
#    y 0.000000 1.773240 0.000000 
#    z 0.000000 0.000000 1.780080 
# 
# From -- ./inp_files/25963.got.cif
#   From: 2010.05.17/outbox.cif.g08.bks.cpg/sg62_13_cif.got.tgz:25963.got - 2010.06.03 15:25:27.
