data_PCOD9463680
_publ_section_title
;
Structure prediction by ZEFSAII (Michael W. Deem and Ramdas Pophale) SiO2 
 PCOD9463680
Probable space group: P N M A
;
_chemical_formula_sum "Si O2"
_cell_formula_units_Z 56
_cell_length_a 9.508006
_cell_length_b 14.495965
_cell_length_c 19.541522
_cell_angle_alpha 90.000000
_cell_angle_beta 90.000000
_cell_angle_gamma 90.000000
_cell_volume 2693.363465
_symmetry_space_group_name_H-M "P N M A"
_symmetry_group_IT_number 62
_symmetry_cell_setting 'orthorhombic'
loop_
_space_group_symop_operation_xyz
x,y,z
1/2-x,-y,1/2+z
1/2+x,1/2-y,1/2-z
-x,1/2+y,-z
-x,-y,-z
1/2+x,y,1/2-z
1/2-x,1/2+y,1/2+z
x,1/2-y,z
loop_
_atom_site_type_symbol
_atom_site_label
_atom_site_fract_x
_atom_site_fract_y
_atom_site_fract_z
Si Si1 0.598930 0.146254 0.026404
Si Si2 0.927185 0.384988 0.335989
Si Si3 0.333390 0.494084 0.506275
Si Si4 0.853932 0.014771 0.696481
Si Si5 0.161176 0.639918 0.431221
Si Si6 0.121967 0.854654 0.816843
Si Si7 0.143455 0.466528 0.152128
O O1 0.645618 0.250000 0.011581
O O2 0.508925 0.148347 0.097102
O O3 0.489664 0.116301 0.966729
O O4 0.732948 0.079517 0.031431
O O5 0.988291 0.487472 0.325047
O O6 0.944700 0.345198 0.259790
O O7 0.761360 0.387013 0.345473
O O8 0.500000 0.500000 0.500000
O O9 0.272578 0.592037 0.481617
O O10 0.314006 0.475635 0.586533
O O11 0.813921 0.094456 0.643530
O O12 0.756593 0.922641 0.687308
O O13 0.854355 0.025795 0.778225
O O14 0.172211 0.750000 0.429115
O O15 0.151776 0.750000 0.841142
O O16 0.004539 0.914083 0.856155
#
# Coordination Sequence:
#
# PCOD9463680 Si02
#       7
#     8   8   8   8   8   8   8
#     4  11  23  40  68  97 124 161 212 274 331 387
#     4  10  19  37  64  90 128 159 206 260 318 382
#     4  12  24  42  64  92 131 169 214 270 330 391
#     4  10  21  40  61  91 128 171 209 262 325 384
#     4  11  23  42  69  96 124 171 227 272 320 384
#     4  10  22  37  58  93 133 168 205 253 325 394
#     4  10  22  37  61  88 128 171 207 260 317 379
#
# _framework density 20.791848000000002
#
# number of rings (size 3 to 8) (size 9 to 14) (size 15 to 20)
#    0.000    1.429    2.857    2.571    0.000    7.429 
#    0.000    0.714    0.000   12.857    0.000    0.000 
#    0.000    0.000    0.000    0.000    0.000    0.000 
#
# Total GULP energy -312116.786717 kJ/mol
# GULP energy per Si atom -5573.514049 kJ/mol
# Density = 2.074452 g / cm^3
# Si number density = 20.791848 Si / 1000 Ang^3
#
#
#
# Elastic Constant Matrix: (Units=GPa)
#
#
# Indices 1 2 3 4 5 6 
#
# 1 106.3095 40.6280 14.5424 0.0000 0.0000 0.0000
# 2 40.6280 73.7697 39.3996 0.0000 0.0000 0.0000
# 3 14.5424 39.3996 136.4202 0.0000 0.0000 0.0000
# 4 0.0000 0.0000 0.0000 9.4489 0.0000 0.0000
# 5 0.0000 0.0000 0.0000 0.0000 32.6260 0.0000
# 6 0.0000 0.0000 0.0000 0.0000 0.0000 8.5432
#
#
#
# Elastic Compliance Matrix: (Units=1/GPa)
#
#
# Indices 1 2 3 4 5 6 
#
# 1 0.011977 -0.006993 0.000743 0.000000 0.000000 0.000000
# 2 -0.006993 0.020111 -0.005063 0.000000 0.000000 0.000000
# 3 0.000743 -0.005063 0.008713 0.000000 0.000000 0.000000
# 4 0.000000 0.000000 0.000000 0.105832 0.000000 0.000000
# 5 0.000000 0.000000 0.000000 0.000000 0.030650 0.000000
# 6 0.000000 0.000000 0.000000 0.000000 0.000000 0.117052
#
#
# Mechanical properties :
#
#
# Convention : Reuss Voigt Hill
#
# Bulk Modulus (GPa) = 55.01884 56.18215 55.60050
# Shear Modulus (GPa) = 15.47882 24.91892 20.19887
#
# Velocity S-wave (km/s) = 2.73145 3.46568 3.12024
# Velocity P-wave (km/s) = 6.03879 6.56464 6.30720
#
# Compressibility (1/GPa) = 0.01817559
#
# Stress axis : x y z
#
# Youngs Moduli (GPa) = 83.49018 49.72362 114.76716
#
# Poissons Ratio (x) = 0.34773 -0.08526
# Poissons Ratio (y) = 0.58387 0.58105
# Poissons Ratio (z) = -0.06203 0.25174
#
# Static dielectric constant tensor:
#      x y z
#    x 1.761970 0.000000 0.000000 
#    y 0.000000 1.746870 0.000000 
#    z 0.000000 0.000000 1.830180 
# 
# From -- ./inp_files/26024.got.cif
#   From: 2010.05.17/outbox.cif.g08.bks.cpg/sg62_14_cif.got.tgz:26024.got - 2010.06.03 15:25:27.
