data_PCOD9463643
_publ_section_title
;
Structure prediction by ZEFSAII (Michael W. Deem and Ramdas Pophale) SiO2 
 PCOD9463643
Probable space group: P N M A
;
_chemical_formula_sum "Si O2"
_cell_formula_units_Z 64
_cell_length_a 25.376352
_cell_length_b 7.609507
_cell_length_c 14.549675
_cell_angle_alpha 90.000000
_cell_angle_beta 90.000000
_cell_angle_gamma 90.000000
_cell_volume 2809.564477
_symmetry_space_group_name_H-M "P N M A"
_symmetry_group_IT_number 62
_symmetry_cell_setting 'orthorhombic'
loop_
_space_group_symop_operation_xyz
x,y,z
1/2-x,-y,1/2+z
1/2+x,1/2-y,1/2-z
-x,1/2+y,-z
-x,-y,-z
1/2+x,y,1/2-z
1/2-x,1/2+y,1/2+z
x,1/2-y,z
loop_
_atom_site_type_symbol
_atom_site_label
_atom_site_fract_x
_atom_site_fract_y
_atom_site_fract_z
Si Si1 0.751175 0.544391 0.821795
Si Si2 0.444674 0.041599 0.547579
Si Si3 0.936219 0.033685 0.742956
Si Si4 0.172924 0.951839 0.340582
Si Si5 0.128071 0.037348 0.689730
Si Si6 0.363829 0.956975 0.389696
Si Si7 0.242430 0.466492 0.973089
Si Si8 0.475649 0.539247 0.099007
O O1 0.764093 0.750000 0.814300
O O2 0.783431 0.454130 0.740491
O O3 0.688112 0.523563 0.819990
O O4 0.767373 0.478869 0.922665
O O5 0.439593 0.250000 0.553664
O O6 0.440740 0.973081 0.651640
O O7 0.500000 0.000000 0.500000
O O8 0.399724 0.979179 0.478345
O O9 0.935927 0.250000 0.744716
O O10 0.881376 0.972231 0.697467
O O11 0.984769 0.977965 0.679153
O O12 0.160711 0.750000 0.363996
O O13 0.202747 0.028849 0.429021
O O14 0.129351 0.250000 0.683625
O O15 0.111969 0.980879 0.793582
O O16 0.083696 0.973627 0.618736
O O17 0.356320 0.750000 0.376185
O O18 0.305968 0.029787 0.410787
O O19 0.243390 0.250000 0.972772
O O20 0.473597 0.750000 0.106758
O O21 0.500000 0.500000 0.000000
#
# Coordination Sequence:
#
# PCOD9463643 Si02
#       8
#     8   8   8   8   8   8   8   8
#     4  11  22  35  56  90 121 148 191 247 293 334
#     4  11  22  37  58  88 116 149 190 235 288 343
#     4   9  20  38  62  85 112 151 198 238 281 350
#     4  10  19  38  62  83 112 157 195 227 285 356
#     4  10  21  39  61  82 115 161 200 232 286 359
#     4  10  19  37  61  84 113 151 191 235 286 348
#     4   9  19  34  56  83 112 150 190 228 289 352
#     4  10  22  40  61  86 114 153 201 246 289 339
#
# _framework density 22.779333999999999
#
# number of rings (size 3 to 8) (size 9 to 14) (size 15 to 20)
#    0.000    2.000    1.250    2.250    1.750    3.000 
#    0.000    5.625    0.000    0.000    0.000    0.000 
#    0.000    0.000    0.000    0.000    0.000    0.000 
#
# Total GULP energy -357563.342233 kJ/mol
# GULP energy per Si atom -5586.927222 kJ/mol
# Density = 2.272749 g / cm^3
# Si number density = 22.779334 Si / 1000 Ang^3
#
#
#
# Elastic Constant Matrix: (Units=GPa)
#
#
# Indices 1 2 3 4 5 6 
#
# 1 69.7581 -11.7585 -31.6552 0.0000 0.0000 0.0000
# 2 -11.7585 42.7611 -8.9502 0.0000 0.0000 0.0000
# 3 -31.6552 -8.9502 31.7120 0.0000 0.0000 0.0000
# 4 0.0000 0.0000 0.0000 20.9345 0.0000 0.0000
# 5 0.0000 0.0000 0.0000 0.0000 39.7206 0.0000
# 6 0.0000 0.0000 0.0000 0.0000 0.0000 12.3223
#
#
#
# Elastic Compliance Matrix: (Units=1/GPa)
#
#
# Indices 1 2 3 4 5 6 
#
# 1 0.036340 0.018690 0.041550 0.000000 0.000000 0.000000
# 2 0.018690 0.034466 0.028384 0.000000 0.000000 0.000000
# 3 0.041550 0.028384 0.081020 0.000000 0.000000 0.000000
# 4 0.000000 0.000000 0.000000 0.047768 0.000000 0.000000
# 5 0.000000 0.000000 0.000000 0.000000 0.025176 0.000000
# 6 0.000000 0.000000 0.000000 0.000000 0.000000 0.081154
#
#
# Mechanical properties :
#
#
# Convention : Reuss Voigt Hill
#
# Bulk Modulus (GPa) = 3.03884 4.38928 3.71406
# Shear Modulus (GPa) = 20.97591 27.70181 24.33886
#
# Velocity S-wave (km/s) = 3.03781 3.49104 3.27228
# Velocity P-wave (km/s) = 3.69342 4.26390 3.98887
#
# Compressibility (1/GPa) = 0.32907306
#
# Stress axis : x y z
#
# Youngs Moduli (GPa) = 27.51760 29.01415 12.34260
#
# Poissons Ratio (x) = -0.54226 -0.51284
# Poissons Ratio (y) = -0.51429 -0.35033
# Poissons Ratio (z) = -1.14336 -0.82353
#
# Static dielectric constant tensor:
#      x y z
#    x 1.835960 0.000000 0.000000 
#    y 0.000000 1.905290 0.000000 
#    z 0.000000 0.000000 1.743660 
# 
# From -- ./inp_files/20878.got.cif
#   From: 2010.05.17/outbox.cif.g08.bks.cpg/sg62_11_cif.got.tgz:20878.got - 2010.06.03 15:25:27.
