data_PCOD9463734
_publ_section_title
;
Structure prediction by ZEFSAII (Michael W. Deem and Ramdas Pophale) SiO2 
 PCOD9463734
Probable space group: P N M A
;
_chemical_formula_sum "Si O2"
_cell_formula_units_Z 64
_cell_length_a 15.720741
_cell_length_b 7.908426
_cell_length_c 24.952309
_cell_angle_alpha 90.000000
_cell_angle_beta 90.000000
_cell_angle_gamma 90.000000
_cell_volume 3102.228675
_symmetry_space_group_name_H-M "P N M A"
_symmetry_group_IT_number 62
_symmetry_cell_setting 'orthorhombic'
loop_
_space_group_symop_operation_xyz
x,y,z
1/2-x,-y,1/2+z
1/2+x,1/2-y,1/2-z
-x,1/2+y,-z
-x,-y,-z
1/2+x,y,1/2-z
1/2-x,1/2+y,1/2+z
x,1/2-y,z
loop_
_atom_site_type_symbol
_atom_site_label
_atom_site_fract_x
_atom_site_fract_y
_atom_site_fract_z
Si Si1 0.325645 0.550767 0.384816
Si Si2 0.730973 0.546890 0.803963
Si Si3 0.244659 0.048885 0.571647
Si Si4 0.097724 0.045266 0.490541
Si Si5 0.360023 0.944366 0.874035
Si Si6 0.398975 0.957519 0.758498
Si Si7 0.915256 0.455242 0.221759
Si Si8 0.900734 0.548766 0.002108
O O1 0.305190 0.750000 0.389992
O O2 0.241229 0.450606 0.369443
O O3 0.388884 0.525721 0.335683
O O4 0.361839 0.486730 0.441374
O O5 0.730673 0.750000 0.800368
O O6 0.732199 0.505183 0.866857
O O7 0.817351 0.485135 0.775222
O O8 0.650167 0.488547 0.768591
O O9 0.239423 0.250000 0.570859
O O10 0.167543 0.982463 0.533648
O O11 0.336272 0.003903 0.545439
O O12 0.105310 0.250000 0.490256
O O13 0.119216 0.977784 0.431322
O O14 0.000000 0.000000 0.500000
O O15 0.390276 0.750000 0.875871
O O16 0.395306 0.020721 0.819566
O O17 0.395144 0.750000 0.759970
O O18 0.488670 0.005723 0.734009
O O19 0.911575 0.250000 0.219501
O O20 0.898627 0.750000 0.003330
O O21 0.000000 0.500000 0.000000
#
# Coordination Sequence:
#
# PCOD9463734 Si02
#       8
#     8   8   8   8   8   8   8   8
#     4  11  23  39  61  90 120 151 194 251 306 353
#     4  10  21  38  60  87 119 159 203 245 294 353
#     4  11  24  42  61  88 126 163 202 250 308 365
#     4  10  23  39  62  90 120 160 201 248 303 357
#     4  10  19  39  65  86 114 155 202 248 292 352
#     4   9  19  36  60  89 113 147 201 245 285 344
#     4  10  21  38  62  87 117 158 199 242 291 354
#     4  11  25  43  64  91 122 160 205 253 306 367
#
# _framework density 20.630330000000001
#
# number of rings (size 3 to 8) (size 9 to 14) (size 15 to 20)
#    0.000    1.750    2.500    1.125    3.500    3.500 
#    0.000    0.625    0.000    0.000    0.000    0.000 
#    0.000    0.000    0.000    0.000    0.000    0.000 
#
# Total GULP energy -357333.422969 kJ/mol
# GULP energy per Si atom -5583.334734 kJ/mol
# Density = 2.058337 g / cm^3
# Si number density = 20.630330 Si / 1000 Ang^3
#
#
#
# Elastic Constant Matrix: (Units=GPa)
#
#
# Indices 1 2 3 4 5 6 
#
# 1 62.6777 -4.3819 -9.9278 0.0000 0.0000 0.0000
# 2 -4.3819 23.7612 -0.6656 0.0000 0.0000 0.0000
# 3 -9.9278 -0.6656 83.3083 0.0000 0.0000 0.0000
# 4 0.0000 0.0000 0.0000 24.5994 0.0000 0.0000
# 5 0.0000 0.0000 0.0000 0.0000 39.4995 0.0000
# 6 0.0000 0.0000 0.0000 0.0000 0.0000 18.8138
#
#
#
# Elastic Compliance Matrix: (Units=1/GPa)
#
#
# Indices 1 2 3 4 5 6 
#
# 1 0.016486 0.003096 0.001989 0.000000 0.000000 0.000000
# 2 0.003096 0.042676 0.000710 0.000000 0.000000 0.000000
# 3 0.001989 0.000710 0.012246 0.000000 0.000000 0.000000
# 4 0.000000 0.000000 0.000000 0.040651 0.000000 0.000000
# 5 0.000000 0.000000 0.000000 0.000000 0.025317 0.000000
# 6 0.000000 0.000000 0.000000 0.000000 0.000000 0.053153
#
#
# Mechanical properties :
#
#
# Convention : Reuss Voigt Hill
#
# Bulk Modulus (GPa) = 12.04829 15.53295 13.79062
# Shear Modulus (GPa) = 24.20073 28.89737 26.54905
#
# Velocity S-wave (km/s) = 3.42872 3.74668 3.59122
# Velocity P-wave (km/s) = 4.63978 5.12468 4.88825
#
# Compressibility (1/GPa) = 0.08299935
#
# Stress axis : x y z
#
# Youngs Moduli (GPa) = 60.65683 23.43226 81.65691
#
# Poissons Ratio (x) = -0.07255 -0.16245
# Poissons Ratio (y) = -0.18779 -0.05797
# Poissons Ratio (z) = -0.12067 -0.01663
#
# Static dielectric constant tensor:
#      x y z
#    x 1.748200 0.000000 0.000000 
#    y 0.000000 1.761070 0.000000 
#    z 0.000000 0.000000 1.759950 
# 
# From -- ./inp_files/29799.got.cif
#   From: 2010.05.17/outbox.cif.g08.bks.cpg/sg62_15_cif.got.tgz:29799.got - 2010.06.03 15:25:27.
