data_PCOD9463120
_publ_section_title
;
Structure prediction by ZEFSAII (Michael W. Deem and Ramdas Pophale) SiO2 
 PCOD9463120
Probable space group: P N M A
;
_chemical_formula_sum "Si O2"
_cell_formula_units_Z 56
_cell_length_a 17.848661
_cell_length_b 27.576691
_cell_length_c 4.990795
_cell_angle_alpha 90.000000
_cell_angle_beta 90.000000
_cell_angle_gamma 90.000000
_cell_volume 2456.504280
_symmetry_space_group_name_H-M "P N M A"
_symmetry_group_IT_number 62
_symmetry_cell_setting 'orthorhombic'
loop_
_space_group_symop_operation_xyz
x,y,z
1/2-x,-y,1/2+z
1/2+x,1/2-y,1/2-z
-x,1/2+y,-z
-x,-y,-z
1/2+x,y,1/2-z
1/2-x,1/2+y,1/2+z
x,1/2-y,z
loop_
_atom_site_type_symbol
_atom_site_label
_atom_site_fract_x
_atom_site_fract_y
_atom_site_fract_z
Si Si1 0.189833 0.808631 0.362503
Si Si2 0.553172 0.340338 0.119414
Si Si3 0.914457 0.505159 0.918668
Si Si4 0.780863 0.691727 0.648264
Si Si5 0.731293 0.532023 0.557651
Si Si6 0.380421 0.936249 0.082216
Si Si7 0.033364 0.806245 0.123248
O O1 0.180496 0.750000 0.382186
O O2 0.217580 0.827309 0.648014
O O3 0.111301 0.825972 0.242930
O O4 0.255838 0.818668 0.153042
O O5 0.635837 0.324918 0.212812
O O6 0.564744 0.393527 0.998952
O O7 0.497581 0.335016 0.368435
O O8 0.524403 0.308547 0.870401
O O9 0.856357 0.462119 0.993500
O O10 0.886294 0.549386 0.108786
O O11 0.904620 0.519086 0.609498
O O12 0.000000 0.500000 0.000000
O O13 0.780682 0.750000 0.675230
O O14 0.756622 0.488590 0.354349
O O15 0.793186 0.572610 0.495160
O O16 0.043353 0.750000 0.037604
#
# Coordination Sequence:
#
# PCOD9463120 Si02
#       7
#     8   8   8   8   8   8   8
#     4   9  19  35  55  75 102 139 191 246 286 332
#     4  12  23  36  57  85 119 152 190 250 297 339
#     4  10  19  36  62  86 108 144 189 227 269 343
#     4  10  19  34  55  80 106 145 195 240 285 343
#     4   8  16  32  55  77 104 139 175 212 263 334
#     4  10  21  37  54  83 118 147 179 227 290 335
#     4  11  22  38  58  82 113 160 206 242 293 354
#
# _framework density 22.796621999999999
#
# number of rings (size 3 to 8) (size 9 to 14) (size 15 to 20)
#    0.000    2.000    0.000    4.286    0.000    3.429 
#    0.000    4.286    0.000    3.429    0.000    0.000 
#    0.000    0.000    0.000    0.000    0.000    0.000 
#
# Total GULP energy -312766.902697 kJ/mol
# GULP energy per Si atom -5585.123262 kJ/mol
# Density = 2.274474 g / cm^3
# Si number density = 22.796622 Si / 1000 Ang^3
#
#
#
# Elastic Constant Matrix: (Units=GPa)
#
#
# Indices 1 2 3 4 5 6 
#
# 1 89.0478 -5.5847 -14.7896 0.0000 0.0000 0.0000
# 2 -5.5847 10.2535 -1.6717 0.0000 0.0000 0.0000
# 3 -14.7896 -1.6717 79.0800 0.0000 0.0000 0.0000
# 4 0.0000 0.0000 0.0000 18.6060 0.0000 0.0000
# 5 0.0000 0.0000 0.0000 0.0000 28.0987 0.0000
# 6 0.0000 0.0000 0.0000 0.0000 0.0000 -9.1118
#
#
#
# Elastic Compliance Matrix: (Units=1/GPa)
#
#
# Indices 1 2 3 4 5 6 
#
# 1 0.012066 0.006964 0.002404 0.000000 0.000000 0.000000
# 2 0.006964 0.101884 0.003456 0.000000 0.000000 0.000000
# 3 0.002404 0.003456 0.013168 0.000000 0.000000 0.000000
# 4 0.000000 0.000000 0.000000 0.053746 0.000000 0.000000
# 5 0.000000 0.000000 0.000000 0.000000 0.035589 0.000000
# 6 0.000000 0.000000 0.000000 0.000000 0.000000 -0.109748
#
#
# Mechanical properties :
#
#
# Convention : Reuss Voigt Hill
#
# Bulk Modulus (GPa) = 6.54602 14.92105 10.73353
# Shear Modulus (GPa) = 37.88471 20.88039 29.38255
#
# Velocity S-wave (km/s) = 4.08101 3.02974 3.59402
# Velocity P-wave (km/s) = 5.00838 4.33573 4.68415
#
# Compressibility (1/GPa) = 0.15276469
#
# Stress axis : x y z
#
# Youngs Moduli (GPa) = 82.87827 9.81512 75.94152
#
# Poissons Ratio (x) = -0.06835 -0.18255
# Poissons Ratio (y) = -0.57714 -0.26246
# Poissons Ratio (z) = -0.19922 -0.03392
#
# Static dielectric constant tensor:
#      x y z
#    x 1.890720 0.000000 0.000000 
#    y 0.000000 1.870920 0.000000 
#    z 0.000000 0.000000 1.795730 
# 
# From -- ./inp_files/1289.got.cif
#   From: 2010.05.17/outbox.cif.g08.bks.cpg/sg62_1_cif.got.tgz:1289.got - 2010.06.03 15:25:27.
