data_PCOD9463876
_publ_section_title
;
Structure prediction by ZEFSAII (Michael W. Deem and Ramdas Pophale) SiO2 
 PCOD9463876
Probable space group: P N M A
;
_chemical_formula_sum "Si O2"
_cell_formula_units_Z 64
_cell_length_a 25.559313
_cell_length_b 7.585701
_cell_length_c 14.884524
_cell_angle_alpha 90.000000
_cell_angle_beta 90.000000
_cell_angle_gamma 90.000000
_cell_volume 2885.890493
_symmetry_space_group_name_H-M "P N M A"
_symmetry_group_IT_number 62
_symmetry_cell_setting 'orthorhombic'
loop_
_space_group_symop_operation_xyz
x,y,z
1/2-x,-y,1/2+z
1/2+x,1/2-y,1/2-z
-x,1/2+y,-z
-x,-y,-z
1/2+x,y,1/2-z
1/2-x,1/2+y,1/2+z
x,1/2-y,z
loop_
_atom_site_type_symbol
_atom_site_label
_atom_site_fract_x
_atom_site_fract_y
_atom_site_fract_z
Si Si1 0.558877 0.547761 0.203946
Si Si2 0.828484 0.465895 0.042093
Si Si3 0.778234 0.963214 0.766886
Si Si4 0.600782 0.453120 0.012285
Si Si5 0.212772 0.463969 0.444754
Si Si6 0.119050 0.951611 0.128503
Si Si7 0.162679 0.535259 0.750213
Si Si8 0.555671 0.951796 0.836269
O O1 0.577360 0.750000 0.200539
O O2 0.580855 0.468405 0.296614
O O3 0.496555 0.543536 0.196789
O O4 0.581896 0.460170 0.114819
O O5 0.828389 0.250000 0.039224
O O6 0.870265 0.530649 0.969489
O O7 0.769064 0.523391 0.019253
O O8 0.839216 0.515307 0.144837
O O9 0.781472 0.750000 0.775215
O O10 0.788019 0.005882 0.661686
O O11 0.718959 0.021542 0.788285
O O12 0.823624 0.045549 0.825904
O O13 0.602056 0.250000 0.984510
O O14 0.561567 0.545039 0.943884
O O15 0.659718 0.529098 0.009367
O O16 0.211485 0.250000 0.449938
O O17 0.101306 0.750000 0.114299
O O18 0.163635 0.750000 0.746913
O O19 0.110597 0.475117 0.700469
O O20 0.551212 0.750000 0.805943
#
# Coordination Sequence:
#
# PCOD9463876 Si02
#       8
#     8   8   8   8   8   8   8   8
#     4  11  23  39  54  77 111 146 181 226 273 318
#     4   8  15  31  53  79 110 142 175 212 260 324
#     4   9  16  31  53  77 107 141 173 211 261 323
#     4  11  21  35  56  83 109 143 180 221 269 323
#     4   8  15  28  50  78 107 139 172 203 251 321
#     4  10  20  32  54  83 109 138 178 224 267 312
#     4   8  17  34  56  79 107 141 179 221 266 319
#     4  11  23  38  56  79 105 143 187 229 272 318
#
# _framework density 22.176863999999998
#
# number of rings (size 3 to 8) (size 9 to 14) (size 15 to 20)
#    0.000    2.500    1.250    3.000    1.750    0.500 
#    0.000    1.250    0.000    4.500    0.000    0.000 
#    0.000    0.000    0.000    0.000    0.000    0.000 
#
# Total GULP energy -357405.807898 kJ/mol
# GULP energy per Si atom -5584.465748 kJ/mol
# Density = 2.212639 g / cm^3
# Si number density = 22.176864 Si / 1000 Ang^3
#
#
#
# Elastic Constant Matrix: (Units=GPa)
#
#
# Indices 1 2 3 4 5 6 
#
# 1 86.9125 1.3065 9.7657 0.0000 0.0000 0.0000
# 2 1.3065 56.0065 0.9695 0.0000 0.0000 0.0000
# 3 9.7657 0.9695 21.4494 0.0000 0.0000 0.0000
# 4 0.0000 0.0000 0.0000 1.6827 0.0000 0.0000
# 5 0.0000 0.0000 0.0000 0.0000 35.4901 0.0000
# 6 0.0000 0.0000 0.0000 0.0000 0.0000 5.7359
#
#
#
# Elastic Compliance Matrix: (Units=1/GPa)
#
#
# Indices 1 2 3 4 5 6 
#
# 1 0.012128 -0.000187 -0.005513 0.000000 0.000000 0.000000
# 2 -0.000187 0.017872 -0.000722 0.000000 0.000000 0.000000
# 3 -0.005513 -0.000722 0.049164 0.000000 0.000000 0.000000
# 4 0.000000 0.000000 0.000000 0.594289 0.000000 0.000000
# 5 0.000000 0.000000 0.000000 0.000000 0.028177 0.000000
# 6 0.000000 0.000000 0.000000 0.000000 0.000000 0.174339
#
#
# Mechanical properties :
#
#
# Convention : Reuss Voigt Hill
#
# Bulk Modulus (GPa) = 15.07893 20.93909 18.00901
# Shear Modulus (GPa) = 5.48895 18.73686 12.11290
#
# Velocity S-wave (km/s) = 1.57494 2.90984 2.33962
# Velocity P-wave (km/s) = 3.18142 4.55543 3.92895
#
# Compressibility (1/GPa) = 0.06631769
#
# Stress axis : x y z
#
# Youngs Moduli (GPa) = 82.45288 55.95365 20.34004
#
# Poissons Ratio (x) = 0.01049 0.11214
# Poissons Ratio (y) = 0.01546 0.01469
# Poissons Ratio (z) = 0.45459 0.04042
#
# Static dielectric constant tensor:
#      x y z
#    x 1.808500 0.000000 0.000000 
#    y 0.000000 1.806920 0.000000 
#    z 0.000000 0.000000 1.824250 
# 
# From -- ./inp_files/20986.got.cif
#   From: 2010.05.17/outbox.cif.g08.bks.cpg/sg62_11_cif.got.tgz:20986.got - 2010.06.03 15:25:27.
