data_PCOD9463118
_publ_section_title
;
Structure prediction by ZEFSAII (Michael W. Deem and Ramdas Pophale) SiO2 
 PCOD9463118
Probable space group: P N M A
;
_chemical_formula_sum "Si O2"
_cell_formula_units_Z 56
_cell_length_a 21.770330
_cell_length_b 7.823852
_cell_length_c 15.445541
_cell_angle_alpha 90.000000
_cell_angle_beta 90.000000
_cell_angle_gamma 90.000000
_cell_volume 2630.805635
_symmetry_space_group_name_H-M "P N M A"
_symmetry_group_IT_number 62
_symmetry_cell_setting 'orthorhombic'
loop_
_space_group_symop_operation_xyz
x,y,z
1/2-x,-y,1/2+z
1/2+x,1/2-y,1/2-z
-x,1/2+y,-z
-x,-y,-z
1/2+x,y,1/2-z
1/2-x,1/2+y,1/2+z
x,1/2-y,z
loop_
_atom_site_type_symbol
_atom_site_label
_atom_site_fract_x
_atom_site_fract_y
_atom_site_fract_z
Si Si1 0.646154 0.043900 0.946647
Si Si2 0.265396 0.955693 0.317595
Si Si3 0.277530 0.553428 0.512455
Si Si4 0.104219 0.041429 0.738003
Si Si5 0.526891 0.555428 0.268596
Si Si6 0.161266 0.449559 0.179365
Si Si7 0.453737 0.546486 0.923251
O O1 0.654413 0.250000 0.942485
O O2 0.606031 0.993787 0.863374
O O3 0.711128 0.954554 0.942991
O O4 0.612294 0.002984 0.035934
O O5 0.266737 0.750000 0.320475
O O6 0.266741 0.022284 0.416626
O O7 0.330234 0.012889 0.275976
O O8 0.206363 0.994463 0.257568
O O9 0.297370 0.750000 0.497833
O O10 0.321165 0.471947 0.585551
O O11 0.101989 0.250000 0.741909
O O12 0.041464 0.979912 0.783370
O O13 0.527135 0.750000 0.300109
O O14 0.589363 0.472340 0.301940
O O15 0.533184 0.550827 0.164485
O O16 0.174113 0.250000 0.171462
O O17 0.456003 0.750000 0.906631
O O18 0.500000 0.500000 0.000000
#
# Coordination Sequence:
#
# PCOD9463118 Si02
#       7
#     8   8   8   8   8   8   8
#     4  10  19  34  55  79 109 146 185 230 279 335
#     4  10  20  39  64  85 109 152 198 237 283 340
#     4  10  22  37  57  85 114 144 187 239 289 340
#     4   9  18  35  58  82 108 143 192 237 276 330
#     4  11  22  38  57  81 113 152 197 239 284 345
#     4  11  23  39  56  85 122 151 183 236 296 346
#     4  11  21  33  51  80 116 150 184 229 286 348
#
# _framework density 21.286254
#
# number of rings (size 3 to 8) (size 9 to 14) (size 15 to 20)
#    0.000    1.714    2.857    2.143    0.000    4.571 
#    0.000    2.143    0.000    0.000    0.000    0.000 
#    0.000    0.000    0.000    0.000    0.000    0.000 
#
# Total GULP energy -312388.580144 kJ/mol
# GULP energy per Si atom -5578.367503 kJ/mol
# Density = 2.123781 g / cm^3
# Si number density = 21.286254 Si / 1000 Ang^3
#
#
#
# Elastic Constant Matrix: (Units=GPa)
#
#
# Indices 1 2 3 4 5 6 
#
# 1 105.9686 -1.2754 17.6843 0.0000 0.0000 0.0000
# 2 -1.2754 26.0261 3.5397 0.0000 0.0000 0.0000
# 3 17.6843 3.5397 66.3294 0.0000 0.0000 0.0000
# 4 0.0000 0.0000 0.0000 14.1084 0.0000 0.0000
# 5 0.0000 0.0000 0.0000 0.0000 32.7126 0.0000
# 6 0.0000 0.0000 0.0000 0.0000 0.0000 5.3498
#
#
#
# Elastic Compliance Matrix: (Units=1/GPa)
#
#
# Indices 1 2 3 4 5 6 
#
# 1 0.009895 0.000850 -0.002683 0.000000 0.000000 0.000000
# 2 0.000850 0.038777 -0.002296 0.000000 0.000000 0.000000
# 3 -0.002683 -0.002296 0.015914 0.000000 0.000000 0.000000
# 4 0.000000 0.000000 0.000000 0.070880 0.000000 0.000000
# 5 0.000000 0.000000 0.000000 0.000000 0.030569 0.000000
# 6 0.000000 0.000000 0.000000 0.000000 0.000000 0.186922
#
#
# Mechanical properties :
#
#
# Convention : Reuss Voigt Hill
#
# Bulk Modulus (GPa) = 17.75353 26.46905 22.11129
# Shear Modulus (GPa) = 13.15819 22.32587 17.74203
#
# Velocity S-wave (km/s) = 2.48897 3.24209 2.89017
# Velocity P-wave (km/s) = 4.07657 5.14555 4.64194
#
# Compressibility (1/GPa) = 0.05632682
#
# Stress axis : x y z
#
# Youngs Moduli (GPa) = 101.06317 25.78858 62.83684
#
# Poissons Ratio (x) = -0.02192 0.16862
# Poissons Ratio (y) = -0.08589 0.14427
# Poissons Ratio (z) = 0.27120 0.05921
#
# Static dielectric constant tensor:
#      x y z
#    x 1.799290 0.000000 0.000000 
#    y 0.000000 1.785030 0.000000 
#    z 0.000000 0.000000 1.799250 
# 
# From -- ./inp_files/20369.got.cif
#   From: 2010.05.17/outbox.cif.g08.bks.cpg/sg62_11_cif.got.tgz:20369.got - 2010.06.03 15:25:27.
