data_PCOD9463301
_publ_section_title
;
Structure prediction by ZEFSAII (Michael W. Deem and Ramdas Pophale) SiO2 
 PCOD9463301
Probable space group: P N M A
;
_chemical_formula_sum "Si O2"
_cell_formula_units_Z 64
_cell_length_a 24.675514
_cell_length_b 7.471652
_cell_length_c 15.362568
_cell_angle_alpha 90.000000
_cell_angle_beta 90.000000
_cell_angle_gamma 90.000000
_cell_volume 2832.348324
_symmetry_space_group_name_H-M "P N M A"
_symmetry_group_IT_number 62
_symmetry_cell_setting 'orthorhombic'
loop_
_space_group_symop_operation_xyz
x,y,z
1/2-x,-y,1/2+z
1/2+x,1/2-y,1/2-z
-x,1/2+y,-z
-x,-y,-z
1/2+x,y,1/2-z
1/2-x,1/2+y,1/2+z
x,1/2-y,z
loop_
_atom_site_type_symbol
_atom_site_label
_atom_site_fract_x
_atom_site_fract_y
_atom_site_fract_z
Si Si1 0.668860 0.530996 0.552964
Si Si2 0.034951 0.961883 0.585310
Si Si3 0.979448 0.530456 0.761774
Si Si4 0.245805 0.960804 0.787137
Si Si5 0.954858 0.464120 0.072613
Si Si6 0.631419 0.031665 0.197362
Si Si7 0.255156 0.966562 0.085989
Si Si8 0.860282 0.957228 0.506477
O O1 0.668511 0.750000 0.553885
O O2 0.703751 0.472701 0.638898
O O3 0.606339 0.469540 0.555926
O O4 0.700278 0.477148 0.464109
O O5 0.039542 0.750000 0.594420
O O6 0.005774 0.028734 0.671202
O O7 0.094737 0.032183 0.567272
O O8 0.000000 0.000000 0.500000
O O9 0.979107 0.750000 0.763508
O O10 0.916530 0.472376 0.761304
O O11 0.017536 0.467959 0.839111
O O12 0.249944 0.750000 0.806344
O O13 0.307290 0.033514 0.791346
O O14 0.232374 0.979873 0.685114
O O15 0.949570 0.250000 0.080446
O O16 0.000000 0.500000 0.000000
O O17 0.631799 0.250000 0.204256
O O18 0.617081 0.976200 0.098382
O O19 0.255031 0.750000 0.086397
O O20 0.304153 0.035704 0.025831
O O21 0.848386 0.750000 0.523886
#
# Coordination Sequence:
#
# PCOD9463301 Si02
#       8
#     8   8   8   8   8   8   8   8
#     4   9  19  38  60  81 112 152 191 228 281 350
#     4  11  21  34  55  84 116 150 184 225 275 335
#     4   9  19  34  55  79 108 147 187 223 270 333
#     4  10  20  35  60  86 106 142 193 237 276 336
#     4  10  22  40  60  81 109 148 194 241 281 329
#     4   9  16  32  56  79 105 142 187 227 273 337
#     4  10  21  37  57  81 112 150 184 228 292 343
#     4  10  19  35  56  78 110 149 186 225 278 344
#
# _framework density 22.596091999999999
#
# number of rings (size 3 to 8) (size 9 to 14) (size 15 to 20)
#    0.000    2.250    2.500    0.375    3.500    0.500 
#    0.000    3.125    0.000    0.000    0.000    0.000 
#    0.000    0.000    0.000    0.000    0.000    0.000 
#
# Total GULP energy -357121.628944 kJ/mol
# GULP energy per Si atom -5580.025452 kJ/mol
# Density = 2.254466 g / cm^3
# Si number density = 22.596092 Si / 1000 Ang^3
#
#
#
# Elastic Constant Matrix: (Units=GPa)
#
#
# Indices 1 2 3 4 5 6 
#
# 1 148.5893 -7.0945 27.0803 0.0000 0.0000 0.0000
# 2 -7.0945 59.5997 -12.9654 0.0000 0.0000 0.0000
# 3 27.0803 -12.9654 81.2858 0.0000 0.0000 0.0000
# 4 0.0000 0.0000 0.0000 17.3117 0.0000 0.0000
# 5 0.0000 0.0000 0.0000 0.0000 34.8814 0.0000
# 6 0.0000 0.0000 0.0000 0.0000 0.0000 7.8660
#
#
#
# Elastic Compliance Matrix: (Units=1/GPa)
#
#
# Indices 1 2 3 4 5 6 
#
# 1 0.007172 0.000346 -0.002334 0.000000 0.000000 0.000000
# 2 0.000346 0.017398 0.002660 0.000000 0.000000 0.000000
# 3 -0.002334 0.002660 0.013504 0.000000 0.000000 0.000000
# 4 0.000000 0.000000 0.000000 0.057764 0.000000 0.000000
# 5 0.000000 0.000000 0.000000 0.000000 0.028669 0.000000
# 6 0.000000 0.000000 0.000000 0.000000 0.000000 0.127130
#
#
# Mechanical properties :
#
#
# Convention : Reuss Voigt Hill
#
# Bulk Modulus (GPa) = 25.36923 33.72394 29.54659
# Shear Modulus (GPa) = 18.98015 30.84211 24.91113
#
# Velocity S-wave (km/s) = 2.90138 3.69851 3.32392
# Velocity P-wave (km/s) = 4.74085 5.76157 5.27595
#
# Compressibility (1/GPa) = 0.03941783
#
# Stress axis : x y z
#
# Youngs Moduli (GPa) = 139.43363 57.47646 74.05135
#
# Poissons Ratio (x) = -0.01988 0.17285
# Poissons Ratio (y) = -0.04824 -0.19697
# Poissons Ratio (z) = 0.32546 -0.15288
#
# Static dielectric constant tensor:
#      x y z
#    x 1.843260 0.000000 0.000000 
#    y 0.000000 1.863670 0.000000 
#    z 0.000000 0.000000 1.852970 
# 
# From -- ./inp_files/20790.got.cif
#   From: 2010.05.17/outbox.cif.g08.bks.cpg/sg62_11_cif.got.tgz:20790.got - 2010.06.03 15:25:27.
