data_PCOD9463077
_publ_section_title
;
Structure prediction by ZEFSAII (Michael W. Deem and Ramdas Pophale) SiO2 
 PCOD9463077
Probable space group: P N M A
;
_chemical_formula_sum "Si O2"
_cell_formula_units_Z 64
_cell_length_a 20.083505
_cell_length_b 7.266311
_cell_length_c 18.472065
_cell_angle_alpha 90.000000
_cell_angle_beta 90.000000
_cell_angle_gamma 90.000000
_cell_volume 2695.683738
_symmetry_space_group_name_H-M "P N M A"
_symmetry_group_IT_number 62
_symmetry_cell_setting 'orthorhombic'
loop_
_space_group_symop_operation_xyz
x,y,z
1/2-x,-y,1/2+z
1/2+x,1/2-y,1/2-z
-x,1/2+y,-z
-x,-y,-z
1/2+x,y,1/2-z
1/2-x,1/2+y,1/2+z
x,1/2-y,z
loop_
_atom_site_type_symbol
_atom_site_label
_atom_site_fract_x
_atom_site_fract_y
_atom_site_fract_z
Si Si1 0.761438 0.526476 0.920567
Si Si2 0.873088 0.027073 0.500930
Si Si3 0.225077 0.474795 0.246674
Si Si4 0.953464 0.473588 0.367442
Si Si5 0.095416 0.473783 0.029520
Si Si6 0.522501 0.541431 0.619752
Si Si7 0.098346 0.039957 0.333897
Si Si8 0.870201 0.473767 0.231374
O O1 0.759227 0.750000 0.919298
O O2 0.768561 0.470368 0.837083
O O3 0.695232 0.468256 0.962110
O O4 0.828701 0.471470 0.961249
O O5 0.873651 0.250000 0.503928
O O6 0.932903 0.967332 0.447782
O O7 0.879005 0.959825 0.582462
O O8 0.223747 0.250000 0.248875
O O9 0.157895 0.539617 0.285645
O O10 0.294755 0.532843 0.283509
O O11 0.957157 0.250000 0.369371
O O12 0.894427 0.520296 0.312029
O O13 0.024057 0.541128 0.337178
O O14 0.091809 0.250000 0.027840
O O15 0.062972 0.542703 0.955655
O O16 0.049037 0.536088 0.096656
O O17 0.509401 0.750000 0.644771
O O18 0.572563 0.457661 0.677613
O O19 0.089975 0.250000 0.308138
O O20 0.869589 0.250000 0.226528
#
# Coordination Sequence:
#
# PCOD9463077 Si02
#       8
#     8   8   8   8   8   8   8   8
#     4   9  17  30  49  71  95 127 165 198 232 281
#     4  10  19  34  53  71  97 136 167 192 238 301
#     4   9  17  30  47  72 100 123 155 200 242 279
#     4   9  17  31  50  74  99 127 164 204 244 286
#     4   9  18  31  47  70  97 124 158 199 236 280
#     4   9  18  30  48  72  96 124 157 196 242 286
#     4  10  21  32  51  80 102 120 157 213 253 277
#     4   9  16  28  47  71  98 125 157 197 239 284
#
# _framework density 23.741655999999999
#
# number of rings (size 3 to 8) (size 9 to 14) (size 15 to 20)
#    0.000    2.750    1.250    0.375    3.500    0.000 
#    0.000    0.000    0.000    3.000    0.000    0.000 
#    0.000    0.000    0.000    0.000    0.000    0.000 
#
# Total GULP energy -357556.318140 kJ/mol
# GULP energy per Si atom -5586.817471 kJ/mol
# Density = 2.368762 g / cm^3
# Si number density = 23.741656 Si / 1000 Ang^3
#
#
#
# Elastic Constant Matrix: (Units=GPa)
#
#
# Indices 1 2 3 4 5 6 
#
# 1 156.1809 0.2562 21.3972 0.0000 0.0000 0.0000
# 2 0.2562 108.1887 -8.3115 0.0000 0.0000 0.0000
# 3 21.3972 -8.3115 36.7734 0.0000 0.0000 0.0000
# 4 0.0000 0.0000 0.0000 1.7082 0.0000 0.0000
# 5 0.0000 0.0000 0.0000 0.0000 45.5177 0.0000
# 6 0.0000 0.0000 0.0000 0.0000 0.0000 -14.5316
#
#
#
# Elastic Compliance Matrix: (Units=1/GPa)
#
#
# Indices 1 2 3 4 5 6 
#
# 1 0.006969 -0.000334 -0.004131 0.000000 0.000000 0.000000
# 2 -0.000334 0.009422 0.002324 0.000000 0.000000 0.000000
# 3 -0.004131 0.002324 0.030122 0.000000 0.000000 0.000000
# 4 0.000000 0.000000 0.000000 0.585417 0.000000 0.000000
# 5 0.000000 0.000000 0.000000 0.000000 0.021969 0.000000
# 6 0.000000 0.000000 0.000000 0.000000 0.000000 -0.068815
#
#
# Mechanical properties :
#
#
# Convention : Reuss Voigt Hill
#
# Bulk Modulus (GPa) = 23.67826 36.42520 30.05173
# Shear Modulus (GPa) = 8.28578 25.72560 17.00569
#
# Velocity S-wave (km/s) = 1.87017 3.29532 2.67925
# Velocity P-wave (km/s) = 3.82862 5.46393 4.71767
#
# Compressibility (1/GPa) = 0.04223284
#
# Stress axis : x y z
#
# Youngs Moduli (GPa) = 143.48669 106.12975 33.19799
#
# Poissons Ratio (x) = 0.03543 0.13713
# Poissons Ratio (y) = 0.04790 -0.07715
# Poissons Ratio (z) = 0.59269 -0.24663
#
# Static dielectric constant tensor:
#      x y z
#    x 1.882080 0.000000 0.000000 
#    y 0.000000 1.906010 0.000000 
#    z 0.000000 0.000000 1.847890 
# 
# From -- ./inp_files/24485.got.cif
#   From: 2010.05.17/outbox.cif.g08.bks.cpg/sg62_13_cif.got.tgz:24485.got - 2010.06.03 15:25:27.
