data_PCOD9463566
_publ_section_title
;
Structure prediction by ZEFSAII (Michael W. Deem and Ramdas Pophale) SiO2 
 PCOD9463566
Probable space group: P N M A
;
_chemical_formula_sum "Si O2"
_cell_formula_units_Z 56
_cell_length_a 15.339746
_cell_length_b 8.025926
_cell_length_c 22.103959
_cell_angle_alpha 90.000000
_cell_angle_beta 90.000000
_cell_angle_gamma 90.000000
_cell_volume 2721.343639
_symmetry_space_group_name_H-M "P N M A"
_symmetry_group_IT_number 62
_symmetry_cell_setting 'orthorhombic'
loop_
_space_group_symop_operation_xyz
x,y,z
1/2-x,-y,1/2+z
1/2+x,1/2-y,1/2-z
-x,1/2+y,-z
-x,-y,-z
1/2+x,y,1/2-z
1/2-x,1/2+y,1/2+z
x,1/2-y,z
loop_
_atom_site_type_symbol
_atom_site_label
_atom_site_fract_x
_atom_site_fract_y
_atom_site_fract_z
Si Si1 0.638489 0.048309 0.514586
Si Si2 0.427581 0.453681 0.723979
Si Si3 0.472512 0.050702 0.592095
Si Si4 0.425715 0.549105 0.184408
Si Si5 0.737489 0.453765 0.735257
Si Si6 0.982181 0.946372 0.568763
Si Si7 0.213050 0.950149 0.398573
O O1 0.638017 0.250000 0.513513
O O2 0.558372 0.989072 0.557261
O O3 0.728042 0.990777 0.545125
O O4 0.612114 0.988768 0.448143
O O5 0.429166 0.250000 0.723776
O O6 0.463495 0.513124 0.659825
O O7 0.489405 0.508095 0.778279
O O8 0.328475 0.502895 0.734403
O O9 0.481405 0.250000 0.595528
O O10 0.423190 0.750000 0.185622
O O11 0.342499 0.489437 0.222996
O O12 0.441627 0.499448 0.115242
O O13 0.732824 0.250000 0.733588
O O14 0.745423 0.509359 0.665197
O O15 0.977027 0.750000 0.569917
O O16 0.888567 0.012145 0.592335
O O17 0.000000 0.000000 0.500000
O O18 0.220273 0.750000 0.396907
#
# Coordination Sequence:
#
# PCOD9463566 Si02
#       7
#     8   8   8   8   8   8   8
#     4   9  18  31  50  77 110 149 188 231 286 337
#     4   9  16  29  52  81 109 139 181 231 274 325
#     4   9  17  30  49  77 113 151 190 233 279 335
#     4  10  19  36  61  87 117 151 194 245 295 351
#     4   9  17  30  57  89 111 143 188 235 289 348
#     4  12  26  43  62  85 116 156 199 247 303 359
#     4  10  19  37  61  86 116 152 197 244 293 355
#
# _framework density 20.57807
#
# number of rings (size 3 to 8) (size 9 to 14) (size 15 to 20)
#    0.000    2.286    1.429    2.143    0.000    5.143 
#    0.000    2.857    0.000    1.714    0.000    0.000 
#    0.000    0.000    0.000    0.000    0.000    0.000 
#
# Total GULP energy -312478.524092 kJ/mol
# GULP energy per Si atom -5579.973644 kJ/mol
# Density = 2.053123 g / cm^3
# Si number density = 20.578070 Si / 1000 Ang^3
#
#
#
# Elastic Constant Matrix: (Units=GPa)
#
#
# Indices 1 2 3 4 5 6 
#
# 1 85.2906 -2.6429 29.7603 0.0000 0.0000 0.0000
# 2 -2.6429 10.3581 1.2563 0.0000 0.0000 0.0000
# 3 29.7603 1.2563 131.7673 0.0000 0.0000 0.0000
# 4 0.0000 0.0000 0.0000 16.6406 0.0000 0.0000
# 5 0.0000 0.0000 0.0000 0.0000 33.1268 0.0000
# 6 0.0000 0.0000 0.0000 0.0000 0.0000 13.1478
#
#
#
# Elastic Compliance Matrix: (Units=1/GPa)
#
#
# Indices 1 2 3 4 5 6 
#
# 1 0.012863 0.003639 -0.002940 0.000000 0.000000 0.000000
# 2 0.003639 0.097684 -0.001753 0.000000 0.000000 0.000000
# 3 -0.002940 -0.001753 0.008270 0.000000 0.000000 0.000000
# 4 0.000000 0.000000 0.000000 0.060094 0.000000 0.000000
# 5 0.000000 0.000000 0.000000 0.000000 0.030187 0.000000
# 6 0.000000 0.000000 0.000000 0.000000 0.000000 0.076059
#
#
# Mechanical properties :
#
#
# Convention : Reuss Voigt Hill
#
# Bulk Modulus (GPa) = 8.56835 31.57370 20.07103
# Shear Modulus (GPa) = 15.32950 25.85252 20.59101
#
# Velocity S-wave (km/s) = 2.73233 3.54830 3.16670
# Velocity P-wave (km/s) = 3.75859 5.67132 4.81097
#
# Compressibility (1/GPa) = 0.11670858
#
# Stress axis : x y z
#
# Youngs Moduli (GPa) = 77.74119 10.23707 120.92124
#
# Poissons Ratio (x) = -0.03725 0.35550
# Poissons Ratio (y) = -0.28288 0.21199
# Poissons Ratio (z) = 0.22855 0.01795
#
# Static dielectric constant tensor:
#      x y z
#    x 1.711370 0.000000 0.000000 
#    y 0.000000 1.741210 0.000000 
#    z 0.000000 0.000000 1.736930 
# 
# From -- ./inp_files/27165.got.cif
#   From: 2010.05.17/outbox.cif.g08.bks.cpg/sg62_14_cif.got.tgz:27165.got - 2010.06.03 15:25:27.
