data_PCOD9463933
_publ_section_title
;
Structure prediction by ZEFSAII (Michael W. Deem and Ramdas Pophale) SiO2 
 PCOD9463933
Probable space group: P N M A
;
_chemical_formula_sum "Si O2"
_cell_formula_units_Z 64
_cell_length_a 8.225490
_cell_length_b 15.372435
_cell_length_c 25.668621
_cell_angle_alpha 90.000000
_cell_angle_beta 90.000000
_cell_angle_gamma 90.000000
_cell_volume 3245.689583
_symmetry_space_group_name_H-M "P N M A"
_symmetry_group_IT_number 62
_symmetry_cell_setting 'orthorhombic'
loop_
_space_group_symop_operation_xyz
x,y,z
1/2-x,-y,1/2+z
1/2+x,1/2-y,1/2-z
-x,1/2+y,-z
-x,-y,-z
1/2+x,y,1/2-z
1/2-x,1/2+y,1/2+z
x,1/2-y,z
loop_
_atom_site_type_symbol
_atom_site_label
_atom_site_fract_x
_atom_site_fract_y
_atom_site_fract_z
Si Si1 0.734020 0.150386 0.220208
Si Si2 0.760149 0.656163 0.558309
Si Si3 0.910377 0.653515 0.994763
Si Si4 0.219404 0.025327 0.089669
Si Si5 0.863137 0.478656 0.140201
Si Si6 0.375442 0.150754 0.170699
Si Si7 0.256455 0.650003 0.399715
Si Si8 0.045285 0.087679 0.531481
O O1 0.791276 0.250000 0.210382
O O2 0.843345 0.078668 0.191700
O O3 0.552465 0.142231 0.197278
O O4 0.747363 0.138993 0.282176
O O5 0.769720 0.750000 0.585906
O O6 0.592960 0.653237 0.525873
O O7 0.742980 0.576295 0.597774
O O8 0.899052 0.648772 0.515564
O O9 0.841466 0.750000 0.984139
O O10 0.818781 0.580646 0.962288
O O11 0.896380 0.639564 0.056165
O O12 0.339493 0.081703 0.125943
O O13 0.048357 0.017117 0.119900
O O14 0.307481 0.938710 0.070008
O O15 0.789956 0.575402 0.142332
O O16 0.359498 0.250000 0.150829
O O17 0.252097 0.750000 0.381920
O O18 0.096682 0.626764 0.433344
O O19 0.000000 0.000000 0.500000
#
# Coordination Sequence:
#
# PCOD9463933 Si02
#       8
#     8   8   8   8   8   8   8   8
#     4  10  21  37  58  85 119 150 183 227 276 334
#     4  10  20  33  51  75 107 145 183 225 273 329
#     4   9  18  32  49  73 105 143 183 222 268 322
#     4  11  21  34  54  78 109 150 187 228 276 332
#     4  11  21  36  56  80 108 145 191 232 280 337
#     4  10  21  36  56  85 118 151 185 224 275 336
#     4  11  22  36  53  76 107 145 187 236 282 329
#     4  12  21  34  50  75 110 147 188 232 278 330
#
# _framework density 19.71846
#
# number of rings (size 3 to 8) (size 9 to 14) (size 15 to 20)
#    0.000    1.500    2.500    3.375    0.000    4.500 
#    0.000    0.625    0.000    0.000    0.000    8.750 
#    0.000    0.000    0.000    0.000    0.000    0.000 
#
# Total GULP energy -357547.295549 kJ/mol
# GULP energy per Si atom -5586.676493 kJ/mol
# Density = 1.967358 g / cm^3
# Si number density = 19.718460 Si / 1000 Ang^3
#
#
#
# Elastic Constant Matrix: (Units=GPa)
#
#
# Indices 1 2 3 4 5 6 
#
# 1 50.8373 15.5239 1.0055 0.0000 0.0000 0.0000
# 2 15.5239 102.0109 18.4292 0.0000 0.0000 0.0000
# 3 1.0055 18.4292 37.1263 0.0000 0.0000 0.0000
# 4 0.0000 0.0000 0.0000 24.0204 0.0000 0.0000
# 5 0.0000 0.0000 0.0000 0.0000 30.8138 0.0000
# 6 0.0000 0.0000 0.0000 0.0000 0.0000 20.6729
#
#
#
# Elastic Compliance Matrix: (Units=1/GPa)
#
#
# Indices 1 2 3 4 5 6 
#
# 1 0.020670 -0.003344 0.001100 0.000000 0.000000 0.000000
# 2 -0.003344 0.011310 -0.005523 0.000000 0.000000 0.000000
# 3 0.001100 -0.005523 0.029647 0.000000 0.000000 0.000000
# 4 0.000000 0.000000 0.000000 0.041631 0.000000 0.000000
# 5 0.000000 0.000000 0.000000 0.000000 0.032453 0.000000
# 6 0.000000 0.000000 0.000000 0.000000 0.000000 0.048372
#
#
# Mechanical properties :
#
#
# Convention : Reuss Voigt Hill
#
# Bulk Modulus (GPa) = 21.69582 28.87687 25.28635
# Shear Modulus (GPa) = 23.25772 25.43583 24.34678
#
# Velocity S-wave (km/s) = 3.43810 3.59548 3.51767
# Velocity P-wave (km/s) = 5.17565 5.64916 5.41758
#
# Compressibility (1/GPa) = 0.04609182
#
# Stress axis : x y z
#
# Youngs Moduli (GPa) = 48.37910 88.41988 33.73016
#
# Poissons Ratio (x) = 0.29571 -0.03711
# Poissons Ratio (y) = 0.16180 0.18631
# Poissons Ratio (z) = -0.05323 0.48838
#
# Static dielectric constant tensor:
#      x y z
#    x 1.748010 0.000000 0.000000 
#    y 0.000000 1.709740 0.000000 
#    z 0.000000 0.000000 1.682040 
# 
# From -- ./inp_files/28992.got.cif
#   From: 2010.05.17/outbox.cif.g08.bks.cpg/sg62_15_cif.got.tgz:28992.got - 2010.06.03 15:25:27.
