data_PCOD9463840
_publ_section_title
;
Structure prediction by ZEFSAII (Michael W. Deem and Ramdas Pophale) SiO2 
 PCOD9463840
Probable space group: P N M A
;
_chemical_formula_sum "Si O2"
_cell_formula_units_Z 56
_cell_length_a 19.648986
_cell_length_b 7.823722
_cell_length_c 20.075054
_cell_angle_alpha 90.000000
_cell_angle_beta 90.000000
_cell_angle_gamma 90.000000
_cell_volume 3086.101998
_symmetry_space_group_name_H-M "P N M A"
_symmetry_group_IT_number 62
_symmetry_cell_setting 'orthorhombic'
loop_
_space_group_symop_operation_xyz
x,y,z
1/2-x,-y,1/2+z
1/2+x,1/2-y,1/2-z
-x,1/2+y,-z
-x,-y,-z
1/2+x,y,1/2-z
1/2-x,1/2+y,1/2+z
x,1/2-y,z
loop_
_atom_site_type_symbol
_atom_site_label
_atom_site_fract_x
_atom_site_fract_y
_atom_site_fract_z
Si Si1 0.945057 0.045601 0.943852
Si Si2 0.362620 0.550190 0.271189
Si Si3 0.270664 0.547651 0.154945
Si Si4 0.985083 0.549650 0.794722
Si Si5 0.656197 0.041674 0.239683
Si Si6 0.253119 0.449847 0.375226
Si Si7 0.291680 0.460456 0.520182
O O1 0.943021 0.250000 0.936800
O O2 0.869607 0.987360 0.965441
O O3 0.966575 0.972706 0.872392
O O4 0.000000 0.000000 0.000000
O O5 0.344254 0.750000 0.275077
O O6 0.331730 0.480897 0.201582
O O7 0.442807 0.532572 0.278312
O O8 0.321988 0.463913 0.331726
O O9 0.281766 0.750000 0.146799
O O10 0.203155 0.518832 0.199213
O O11 0.255252 0.479866 0.081458
O O12 0.992571 0.750000 0.780905
O O13 0.920660 0.484122 0.752473
O O14 0.657347 0.250000 0.240497
O O15 0.693232 0.980427 0.172256
O O16 0.237538 0.250000 0.384396
O O17 0.265966 0.522184 0.448421
O O18 0.292111 0.250000 0.519447
#
# Coordination Sequence:
#
# PCOD9463840 Si02
#       7
#     8   8   8   8   8   8   8
#     4  11  21  32  48  73 105 137 165 197 245 301
#     4  10  20  32  49  72  97 127 164 206 249 294
#     4   9  17  32  51  71  94 123 163 205 247 298
#     4  11  21  33  48  69  99 134 169 204 243 292
#     4   9  18  31  49  72  95 126 166 204 242 289
#     4   9  17  32  52  73  98 126 160 202 249 298
#     4   9  17  30  50  72  95 126 158 196 246 297
#
# _framework density 18.145869000000001
#
# number of rings (size 3 to 8) (size 9 to 14) (size 15 to 20)
#    0.000    2.286    1.429    2.143    0.000    2.286 
#    0.000    1.429    0.000    0.857    0.000    0.000 
#    0.000    0.000    0.000    0.000    0.000    0.571 
#
# Total GULP energy -312362.663219 kJ/mol
# GULP energy per Si atom -5577.904700 kJ/mol
# Density = 1.810457 g / cm^3
# Si number density = 18.145869 Si / 1000 Ang^3
#
#
#
# Elastic Constant Matrix: (Units=GPa)
#
#
# Indices 1 2 3 4 5 6 
#
# 1 87.9601 -10.6600 82.9310 0.0000 0.0000 0.0000
# 2 -10.6600 18.8041 -7.0494 0.0000 0.0000 0.0000
# 3 82.9310 -7.0494 159.9004 0.0000 0.0000 0.0000
# 4 0.0000 0.0000 0.0000 12.9115 0.0000 0.0000
# 5 0.0000 0.0000 0.0000 0.0000 22.7820 0.0000
# 6 0.0000 0.0000 0.0000 0.0000 0.0000 34.1302
#
#
#
# Elastic Compliance Matrix: (Units=1/GPa)
#
#
# Indices 1 2 3 4 5 6 
#
# 1 0.023643 0.008954 -0.011867 0.000000 0.000000 0.000000
# 2 0.008954 0.057465 -0.002111 0.000000 0.000000 0.000000
# 3 -0.011867 -0.002111 0.012316 0.000000 0.000000 0.000000
# 4 0.000000 0.000000 0.000000 0.077451 0.000000 0.000000
# 5 0.000000 0.000000 0.000000 0.000000 0.043894 0.000000
# 6 0.000000 0.000000 0.000000 0.000000 0.000000 0.029300
#
#
# Mechanical properties :
#
#
# Convention : Reuss Voigt Hill
#
# Bulk Modulus (GPa) = 11.99391 44.12308 28.05850
# Shear Modulus (GPa) = 17.73632 27.39426 22.56529
#
# Velocity S-wave (km/s) = 3.12978 3.88966 3.53023
# Velocity P-wave (km/s) = 4.43675 6.67392 5.66683
#
# Compressibility (1/GPa) = 0.08337563
#
# Stress axis : x y z
#
# Youngs Moduli (GPa) = 42.29601 17.40199 81.19656
#
# Poissons Ratio (x) = -0.15582 0.96359
# Poissons Ratio (y) = -0.37873 0.17137
# Poissons Ratio (z) = 0.50195 0.03673
#
# Static dielectric constant tensor:
#      x y z
#    x 1.369380 0.000000 0.000000 
#    y 0.000000 1.679610 0.000000 
#    z 0.000000 0.000000 1.670130 
# 
# From -- ./inp_files/24636.got.cif
#   From: 2010.05.17/outbox.cif.g08.bks.cpg/sg62_13_cif.got.tgz:24636.got - 2010.06.03 15:25:27.
