data_PCOD9463137
_publ_section_title
;
Structure prediction by ZEFSAII (Michael W. Deem and Ramdas Pophale) SiO2 
 PCOD9463137
Probable space group: P N M A
;
_chemical_formula_sum "Si O2"
_cell_formula_units_Z 56
_cell_length_a 15.093638
_cell_length_b 13.553203
_cell_length_c 12.479279
_cell_angle_alpha 90.000000
_cell_angle_beta 90.000000
_cell_angle_gamma 90.000000
_cell_volume 2552.850412
_symmetry_space_group_name_H-M "P N M A"
_symmetry_group_IT_number 62
_symmetry_cell_setting 'orthorhombic'
loop_
_space_group_symop_operation_xyz
x,y,z
1/2-x,-y,1/2+z
1/2+x,1/2-y,1/2-z
-x,1/2+y,-z
-x,-y,-z
1/2+x,y,1/2-z
1/2-x,1/2+y,1/2+z
x,1/2-y,z
loop_
_atom_site_type_symbol
_atom_site_label
_atom_site_fract_x
_atom_site_fract_y
_atom_site_fract_z
Si Si1 0.004173 0.137723 0.884089
Si Si2 0.163445 0.137446 0.722342
Si Si3 0.385881 0.491844 0.498043
Si Si4 0.164512 0.138008 0.251667
Si Si5 0.166950 0.929492 0.615103
Si Si6 0.958540 0.139147 0.197326
Si Si7 0.709176 0.544625 0.101632
O O1 0.977750 0.250000 0.899481
O O2 0.066879 0.131825 0.780649
O O3 0.068196 0.097582 0.978727
O O4 0.919444 0.066934 0.898419
O O5 0.175786 0.250000 0.684024
O O6 0.166115 0.047248 0.640301
O O7 0.238493 0.112790 0.813078
O O8 0.419564 0.432118 0.393296
O O9 0.284061 0.503249 0.478977
O O10 0.179535 0.250000 0.292717
O O11 0.241429 0.116176 0.163943
O O12 0.172016 0.049415 0.336593
O O13 0.064045 0.134123 0.209902
O O14 0.089781 0.886977 0.691626
O O15 0.149301 0.905682 0.489744
O O16 0.934037 0.250000 0.166493
#
# Coordination Sequence:
#
# PCOD9463137 Si02
#       7
#     8   8   8   8   8   8   8
#     4   9  17  29  51  79 110 146 184 231 292 352
#     4   9  19  37  55  82 118 155 196 241 292 352
#     4  10  19  34  55  85 118 149 190 248 303 357
#     4  10  23  40  61  90 121 155 201 249 298 357
#     4  11  22  38  62  88 118 161 198 248 297 355
#     4  11  22  38  62  87 118 157 200 250 299 352
#     4  10  22  38  59  84 121 160 197 242 297 353
#
# _framework density 21.936264000000001
#
# number of rings (size 3 to 8) (size 9 to 14) (size 15 to 20)
#    0.000    2.000    4.286    0.857    6.000    2.857 
#    0.000    0.000    0.000    3.429    0.000    0.000 
#    0.000    0.000    0.000    0.000    0.000    0.000 
#
# Total GULP energy -312414.243860 kJ/mol
# GULP energy per Si atom -5578.825783 kJ/mol
# Density = 2.188634 g / cm^3
# Si number density = 21.936264 Si / 1000 Ang^3
#
#
#
# Elastic Constant Matrix: (Units=GPa)
#
#
# Indices 1 2 3 4 5 6 
#
# 1 32.4862 11.2964 -14.3068 0.0000 0.0000 0.0000
# 2 11.2964 58.9216 -23.3044 0.0000 0.0000 0.0000
# 3 -14.3068 -23.3044 25.8807 0.0000 0.0000 0.0000
# 4 0.0000 0.0000 0.0000 10.1570 0.0000 0.0000
# 5 0.0000 0.0000 0.0000 0.0000 22.4664 0.0000
# 6 0.0000 0.0000 0.0000 0.0000 0.0000 25.1379
#
#
#
# Elastic Compliance Matrix: (Units=1/GPa)
#
#
# Indices 1 2 3 4 5 6 
#
# 1 0.040798 0.001706 0.024089 0.000000 0.000000 0.000000
# 2 0.001706 0.026431 0.024743 0.000000 0.000000 0.000000
# 3 0.024089 0.024743 0.074235 0.000000 0.000000 0.000000
# 4 0.000000 0.000000 0.000000 0.098454 0.000000 0.000000
# 5 0.000000 0.000000 0.000000 0.000000 0.044511 0.000000
# 6 0.000000 0.000000 0.000000 0.000000 0.000000 0.039780
#
#
# Mechanical properties :
#
#
# Convention : Reuss Voigt Hill
#
# Bulk Modulus (GPa) = 4.12307 7.18434 5.65371
# Shear Modulus (GPa) = 16.44846 21.12583 18.78714
#
# Velocity S-wave (km/s) = 2.74127 3.10668 2.92968
# Velocity P-wave (km/s) = 3.45008 4.01881 3.74526
#
# Compressibility (1/GPa) = 0.24253761
#
# Stress axis : x y z
#
# Youngs Moduli (GPa) = 24.51112 37.83475 13.47081
#
# Poissons Ratio (x) = -0.06454 -0.32450
# Poissons Ratio (y) = -0.04181 -0.33330
# Poissons Ratio (z) = -0.59045 -0.93613
#
# Static dielectric constant tensor:
#      x y z
#    x 1.869850 0.000000 0.000000 
#    y 0.000000 1.931640 0.000000 
#    z 0.000000 0.000000 1.851170 
# 
# From -- ./inp_files/19117.got.cif
#   From: 2010.05.17/outbox.cif.g08.bks.cpg/sg62_10_cif.got.tgz:19117.got - 2010.06.03 15:25:27.
