data_PCOD9463518
_publ_section_title
;
Structure prediction by ZEFSAII (Michael W. Deem and Ramdas Pophale) SiO2 
 PCOD9463518
Probable space group: P N M A
;
_chemical_formula_sum "Si O2"
_cell_formula_units_Z 48
_cell_length_a 5.404107
_cell_length_b 27.603765
_cell_length_c 12.586064
_cell_angle_alpha 90.000000
_cell_angle_beta 90.000000
_cell_angle_gamma 90.000000
_cell_volume 1877.509731
_symmetry_space_group_name_H-M "P N M A"
_symmetry_group_IT_number 62
_symmetry_cell_setting 'orthorhombic'
loop_
_space_group_symop_operation_xyz
x,y,z
1/2-x,-y,1/2+z
1/2+x,1/2-y,1/2-z
-x,1/2+y,-z
-x,-y,-z
1/2+x,y,1/2-z
1/2-x,1/2+y,1/2+z
x,1/2-y,z
loop_
_atom_site_type_symbol
_atom_site_label
_atom_site_fract_x
_atom_site_fract_y
_atom_site_fract_z
Si Si1 0.696041 0.695568 0.102450
Si Si2 0.768707 0.448341 0.880188
Si Si3 0.398300 0.696449 0.896453
Si Si4 0.730539 0.446867 0.320430
Si Si5 0.228629 0.908494 0.356117
Si Si6 0.598766 0.342879 0.397491
O O1 0.724948 0.750000 0.145633
O O2 0.694373 0.648038 0.174662
O O3 0.460381 0.694084 0.023077
O O4 0.903404 0.681268 0.015203
O O5 0.783485 0.505520 0.894281
O O6 0.758590 0.438850 0.752543
O O7 0.513428 0.425391 0.919853
O O8 0.014439 0.420350 0.913569
O O9 0.306445 0.750000 0.872060
O O10 0.673321 0.688580 0.848914
O O11 0.186322 0.659263 0.864879
O O12 0.492974 0.449436 0.241184
O O13 0.701995 0.396306 0.380641
#
# Coordination Sequence:
#
# PCOD9463518 Si02
#       6
#     8   8   8   8   8   8
#     4   9  21  38  61  85 115 155 190 235 289 340
#     4  10  20  38  56  81 117 153 188 237 283 336
#     4   9  18  36  57  79 114 149 180 233 285 332
#     4  12  21  39  63  83 114 156 191 236 290 341
#     4  10  19  36  59  83 113 154 189 233 285 336
#     4  10  21  35  58  89 112 151 195 236 281 343
#
# _framework density 25.565778999999999
#
# number of rings (size 3 to 8) (size 9 to 14) (size 15 to 20)
#    1.000    1.000    3.333    2.000    2.333    0.000 
#    0.000    5.000    0.000   17.000    0.000    0.000 
#    0.000    0.000    0.000    0.000    0.000    0.000 
#
# Total GULP energy -267761.278149 kJ/mol
# GULP energy per Si atom -5578.359961 kJ/mol
# Density = 2.550759 g / cm^3
# Si number density = 25.565779 Si / 1000 Ang^3
#
#
#
# Elastic Constant Matrix: (Units=GPa)
#
#
# Indices 1 2 3 4 5 6 
#
# 1 204.4888 32.9989 3.4499 0.0000 0.0000 0.0000
# 2 32.9989 187.9274 -13.5425 0.0000 0.0000 0.0000
# 3 3.4499 -13.5425 29.0398 0.0000 0.0000 0.0000
# 4 0.0000 0.0000 0.0000 26.1745 0.0000 0.0000
# 5 0.0000 0.0000 0.0000 0.0000 49.5781 0.0000
# 6 0.0000 0.0000 0.0000 0.0000 0.0000 34.9341
#
#
#
# Elastic Compliance Matrix: (Units=1/GPa)
#
#
# Indices 1 2 3 4 5 6 
#
# 1 0.005064 -0.000965 -0.001052 0.000000 0.000000 0.000000
# 2 -0.000965 0.005690 0.002768 0.000000 0.000000 0.000000
# 3 -0.001052 0.002768 0.035851 0.000000 0.000000 0.000000
# 4 0.000000 0.000000 0.000000 0.038205 0.000000 0.000000
# 5 0.000000 0.000000 0.000000 0.000000 0.020170 0.000000
# 6 0.000000 0.000000 0.000000 0.000000 0.000000 0.028625
#
#
# Mechanical properties :
#
#
# Convention : Reuss Voigt Hill
#
# Bulk Modulus (GPa) = 20.78635 51.91875 36.35255
# Shear Modulus (GPa) = 33.75219 48.70731 41.22975
#
# Velocity S-wave (km/s) = 3.63741 4.36957 4.02019
# Velocity P-wave (km/s) = 5.07831 6.76827 5.98326
#
# Compressibility (1/GPa) = 0.04810848
#
# Stress axis : x y z
#
# Youngs Moduli (GPa) = 197.48415 175.74319 27.89300
#
# Poissons Ratio (x) = 0.16958 0.02933
# Poissons Ratio (y) = 0.19056 -0.07721
# Poissons Ratio (z) = 0.20766 -0.48649
#
# Static dielectric constant tensor:
#      x y z
#    x 2.046790 0.000000 0.000000 
#    y 0.000000 1.966030 0.000000 
#    z 0.000000 0.000000 2.114730 
# 
# From -- ./inp_files/16225.got.cif
#   From: 2010.05.17/outbox.cif.g08.bks.cpg/sg62_9_cif.got.tgz:16225.got - 2010.06.03 15:25:27.
