data_PCOD9463163
_publ_section_title
;
Structure prediction by ZEFSAII (Michael W. Deem and Ramdas Pophale) SiO2 
 PCOD9463163
Probable space group: P N M A
;
_chemical_formula_sum "Si O2"
_cell_formula_units_Z 56
_cell_length_a 19.052061
_cell_length_b 9.086361
_cell_length_c 14.438177
_cell_angle_alpha 90.000000
_cell_angle_beta 90.000000
_cell_angle_gamma 90.000000
_cell_volume 2499.449188
_symmetry_space_group_name_H-M "P N M A"
_symmetry_group_IT_number 62
_symmetry_cell_setting 'orthorhombic'
loop_
_space_group_symop_operation_xyz
x,y,z
1/2-x,-y,1/2+z
1/2+x,1/2-y,1/2-z
-x,1/2+y,-z
-x,-y,-z
1/2+x,y,1/2-z
1/2-x,1/2+y,1/2+z
x,1/2-y,z
loop_
_atom_site_type_symbol
_atom_site_label
_atom_site_fract_x
_atom_site_fract_y
_atom_site_fract_z
Si Si1 0.922509 0.076299 0.874420
Si Si2 0.208561 0.074941 0.221802
Si Si3 0.926876 0.924165 0.219805
Si Si4 0.714379 0.423975 0.938894
Si Si5 0.653043 0.579462 0.102987
Si Si6 0.854706 0.079843 0.061554
Si Si7 0.007249 0.079100 0.597226
O O1 0.902999 0.250000 0.857707
O O2 0.999448 0.052057 0.834282
O O3 0.864727 0.972472 0.827194
O O4 0.915093 0.053301 0.984560
O O5 0.216936 0.250000 0.224264
O O6 0.268036 0.998920 0.158677
O O7 0.200294 0.008175 0.323957
O O8 0.916147 0.750000 0.228153
O O9 0.940806 0.981712 0.323869
O O10 0.867808 0.989284 0.153849
O O11 0.702030 0.250000 0.928065
O O12 0.657206 0.503186 0.002617
O O13 0.784311 0.445045 0.002346
O O14 0.674562 0.750000 0.096375
O O15 0.572430 0.575922 0.136970
O O16 0.855865 0.250000 0.088484
O O17 0.024918 0.250000 0.580846
O O18 0.000000 0.000000 0.500000
#
# Coordination Sequence:
#
# PCOD9463163 Si02
#       7
#     8   8   8   8   8   8   8
#     4   9  17  33  54  80 118 154 188 236 292 348
#     4  11  21  35  60  91 118 154 201 246 299 367
#     4  10  19  34  56  82 116 156 194 237 294 354
#     4  10  22  41  61  88 124 160 203 254 304 362
#     4  11  22  42  67  89 119 159 201 253 307 358
#     4   9  19  33  53  84 121 154 185 235 293 350
#     4  10  23  42  63  87 117 155 201 252 302 356
#
# _framework density 22.404934999999998
#
# number of rings (size 3 to 8) (size 9 to 14) (size 15 to 20)
#    0.000    2.000    1.429    3.429    0.000    5.143 
#    2.571    0.000    0.000    0.000    0.000    0.000 
#    0.000    0.000    0.000    0.000    0.000    0.000 
#
# Total GULP energy -313097.455889 kJ/mol
# GULP energy per Si atom -5591.025998 kJ/mol
# Density = 2.235394 g / cm^3
# Si number density = 22.404935 Si / 1000 Ang^3
#
#
#
# Elastic Constant Matrix: (Units=GPa)
#
#
# Indices 1 2 3 4 5 6 
#
# 1 62.5504 22.4237 25.0791 0.0000 0.0000 0.0000
# 2 22.4237 85.8943 56.7373 0.0000 0.0000 0.0000
# 3 25.0791 56.7373 145.0864 0.0000 0.0000 0.0000
# 4 0.0000 0.0000 0.0000 35.0186 0.0000 0.0000
# 5 0.0000 0.0000 0.0000 0.0000 42.8784 0.0000
# 6 0.0000 0.0000 0.0000 0.0000 0.0000 18.1892
#
#
#
# Elastic Compliance Matrix: (Units=1/GPa)
#
#
# Indices 1 2 3 4 5 6 
#
# 1 0.017948 -0.003554 -0.001712 0.000000 0.000000 0.000000
# 2 -0.003554 0.016401 -0.005799 0.000000 0.000000 0.000000
# 3 -0.001712 -0.005799 0.009456 0.000000 0.000000 0.000000
# 4 0.000000 0.000000 0.000000 0.028556 0.000000 0.000000
# 5 0.000000 0.000000 0.000000 0.000000 0.023322 0.000000
# 6 0.000000 0.000000 0.000000 0.000000 0.000000 0.054978
#
#
# Mechanical properties :
#
#
# Convention : Reuss Voigt Hill
#
# Bulk Modulus (GPa) = 46.14067 55.77905 50.95986
# Shear Modulus (GPa) = 27.77513 31.83664 29.80588
#
# Velocity S-wave (km/s) = 3.52474 3.77366 3.65132
# Velocity P-wave (km/s) = 6.09949 6.62852 6.36950
#
# Compressibility (1/GPa) = 0.02167286
#
# Stress axis : x y z
#
# Youngs Moduli (GPa) = 55.71685 60.97249 105.74939
#
# Poissons Ratio (x) = 0.21672 0.18109
# Poissons Ratio (y) = 0.19804 0.61327
# Poissons Ratio (z) = 0.09541 0.35360
#
# Static dielectric constant tensor:
#      x y z
#    x 1.938170 0.000000 0.000000 
#    y 0.000000 1.752640 0.000000 
#    z 0.000000 0.000000 1.830530 
# 
# From -- ./inp_files/20201.got.cif
#   From: 2010.05.17/outbox.cif.g08.bks.cpg/sg62_11_cif.got.tgz:20201.got - 2010.06.03 15:25:27.
