data_PCOD9463392
_publ_section_title
;
Structure prediction by ZEFSAII (Michael W. Deem and Ramdas Pophale) SiO2 
 PCOD9463392
Probable space group: P N M A
;
_chemical_formula_sum "Si O2"
_cell_formula_units_Z 40
_cell_length_a 7.709634
_cell_length_b 13.331012
_cell_length_c 17.950254
_cell_angle_alpha 90.000000
_cell_angle_beta 90.000000
_cell_angle_gamma 90.000000
_cell_volume 1844.877265
_symmetry_space_group_name_H-M "P N M A"
_symmetry_group_IT_number 62
_symmetry_cell_setting 'orthorhombic'
loop_
_space_group_symop_operation_xyz
x,y,z
1/2-x,-y,1/2+z
1/2+x,1/2-y,1/2-z
-x,1/2+y,-z
-x,-y,-z
1/2+x,y,1/2-z
1/2-x,1/2+y,1/2+z
x,1/2-y,z
loop_
_atom_site_type_symbol
_atom_site_label
_atom_site_fract_x
_atom_site_fract_y
_atom_site_fract_z
Si Si1 0.681006 0.491194 0.099369
Si Si2 0.707140 0.863327 0.366053
Si Si3 0.011115 0.634637 0.843124
Si Si4 0.492864 0.446849 0.759804
Si Si5 0.709896 0.942773 0.944467
O O1 0.830202 0.408890 0.108261
O O2 0.660090 0.544983 0.178880
O O3 0.491912 0.442902 0.080202
O O4 0.719091 0.569685 0.033039
O O5 0.726795 0.750000 0.390096
O O6 0.542681 0.880995 0.313191
O O7 0.857211 0.899737 0.309636
O O8 0.719274 0.943660 0.431411
O O9 0.035674 0.750000 0.822808
O O10 0.006211 0.560397 0.771907
O O11 0.834513 0.621311 0.891398
#
# Coordination Sequence:
#
# PCOD9463392 Si02
#       5
#     8   8   8   8   8
#     4  10  20  42  63  84 124 168 196 257 313 353
#     4  10  19  35  59  85 113 152 198 251 310 360
#     4  11  23  39  62  92 127 167 209 251 309 375
#     4  10  20  38  57  87 122 153 205 254 299 367
#     4   9  22  40  64  88 124 158 207 259 305 370
#
# _framework density 21.681660000000001
#
# number of rings (size 3 to 8) (size 9 to 14) (size 15 to 20)
#    0.000    2.000    2.000    1.200    0.000    2.400 
#    0.000    9.000    0.000    0.000    0.000    0.000 
#    0.000    0.000    0.000    0.000    0.000    0.000 
#
# Total GULP energy -223141.922554 kJ/mol
# GULP energy per Si atom -5578.548064 kJ/mol
# Density = 2.163231 g / cm^3
# Si number density = 21.681660 Si / 1000 Ang^3
#
#
#
# Elastic Constant Matrix: (Units=GPa)
#
#
# Indices 1 2 3 4 5 6 
#
# 1 56.4932 -4.1844 -2.5162 0.0000 0.0000 0.0000
# 2 -4.1844 75.4779 -3.6740 0.0000 0.0000 0.0000
# 3 -2.5162 -3.6740 63.8651 0.0000 0.0000 0.0000
# 4 0.0000 0.0000 0.0000 3.3320 0.0000 0.0000
# 5 0.0000 0.0000 0.0000 0.0000 18.4227 0.0000
# 6 0.0000 0.0000 0.0000 0.0000 0.0000 5.6482
#
#
#
# Elastic Compliance Matrix: (Units=1/GPa)
#
#
# Indices 1 2 3 4 5 6 
#
# 1 0.017811 0.001024 0.000761 0.000000 0.000000 0.000000
# 2 0.001024 0.013345 0.000808 0.000000 0.000000 0.000000
# 3 0.000761 0.000808 0.015734 0.000000 0.000000 0.000000
# 4 0.000000 0.000000 0.000000 0.300118 0.000000 0.000000
# 5 0.000000 0.000000 0.000000 0.000000 0.054281 0.000000
# 6 0.000000 0.000000 0.000000 0.000000 0.000000 0.177048
#
#
# Mechanical properties :
#
#
# Convention : Reuss Voigt Hill
#
# Bulk Modulus (GPa) = 19.20240 19.45413 19.32827
# Shear Modulus (GPa) = 8.46726 19.22797 13.84761
#
# Velocity S-wave (km/s) = 1.97832 2.98120 2.52995
# Velocity P-wave (km/s) = 3.75421 4.56532 4.17949
#
# Compressibility (1/GPa) = 0.05207682
#
# Stress axis : x y z
#
# Youngs Moduli (GPa) = 56.14510 74.93426 63.55478
#
# Poissons Ratio (x) = -0.07677 -0.04834
# Poissons Ratio (y) = -0.05752 -0.05136
# Poissons Ratio (z) = -0.04271 -0.06055
#
# Static dielectric constant tensor:
#      x y z
#    x 1.982110 0.000000 0.000000 
#    y 0.000000 1.741840 0.000000 
#    z 0.000000 0.000000 1.803190 
# 
# From -- ./inp_files/21921.got.cif
#   From: 2010.05.17/outbox.cif.g08.bks.cpg/sg62_11_cif.got.tgz:21921.got - 2010.06.03 15:25:27.
