data_PCOD9463425
_publ_section_title
;
Structure prediction by ZEFSAII (Michael W. Deem and Ramdas Pophale) SiO2 
 PCOD9463425
Probable space group: P N M A
;
_chemical_formula_sum "Si O2"
_cell_formula_units_Z 40
_cell_length_a 8.456397
_cell_length_b 13.245084
_cell_length_c 17.241969
_cell_angle_alpha 90.000000
_cell_angle_beta 90.000000
_cell_angle_gamma 90.000000
_cell_volume 1931.198611
_symmetry_space_group_name_H-M "P N M A"
_symmetry_group_IT_number 62
_symmetry_cell_setting 'orthorhombic'
loop_
_space_group_symop_operation_xyz
x,y,z
1/2-x,-y,1/2+z
1/2+x,1/2-y,1/2-z
-x,1/2+y,-z
-x,-y,-z
1/2+x,y,1/2-z
1/2-x,1/2+y,1/2+z
x,1/2-y,z
loop_
_atom_site_type_symbol
_atom_site_label
_atom_site_fract_x
_atom_site_fract_y
_atom_site_fract_z
Si Si1 0.130846 0.027067 0.935688
Si Si2 0.684289 0.632456 0.934120
Si Si3 0.488112 0.997454 0.184926
Si Si4 0.296516 0.631629 0.295453
Si Si5 0.510775 0.864589 0.665009
O O1 0.141058 0.923247 0.886722
O O2 0.084105 0.105634 0.866899
O O3 0.267831 0.079376 0.985456
O O4 0.000000 0.000000 0.000000
O O5 0.636950 0.750000 0.944080
O O6 0.561531 0.561729 0.889182
O O7 0.844504 0.633531 0.881292
O O8 0.639062 0.925969 0.178102
O O9 0.352624 0.922366 0.217090
O O10 0.511504 0.076951 0.254825
O O11 0.276201 0.750000 0.286356
O O12 0.558200 0.750000 0.678982
#
# Coordination Sequence:
#
# PCOD9463425 Si02
#       5
#     8   8   8   8   8
#     4   9  20  38  60  87 120 157 203 244 299 372
#     4  10  19  35  60  86 120 159 199 254 307 355
#     4  11  21  38  59  91 123 157 211 254 302 369
#     4  11  23  40  62  86 123 166 205 254 308 362
#     4   9  18  35  58  86 118 158 203 250 304 358
#
# _framework density 20.712524999999999
#
# number of rings (size 3 to 8) (size 9 to 14) (size 15 to 20)
#    0.000    2.000    2.000    1.800    0.000    1.600 
#    0.000    3.000    0.000    0.000    0.000    0.000 
#    0.000    0.000    0.000    0.000    0.000    0.000 
#
# Total GULP energy -223088.576914 kJ/mol
# GULP energy per Si atom -5577.214423 kJ/mol
# Density = 2.066538 g / cm^3
# Si number density = 20.712525 Si / 1000 Ang^3
#
#
#
# Elastic Constant Matrix: (Units=GPa)
#
#
# Indices 1 2 3 4 5 6 
#
# 1 46.2417 34.7100 0.0403 0.0000 0.0000 0.0000
# 2 34.7100 190.9560 37.1943 0.0000 0.0000 0.0000
# 3 0.0403 37.1943 69.9865 0.0000 0.0000 0.0000
# 4 0.0000 0.0000 0.0000 19.5689 0.0000 0.0000
# 5 0.0000 0.0000 0.0000 0.0000 24.5691 0.0000
# 6 0.0000 0.0000 0.0000 0.0000 0.0000 29.6276
#
#
#
# Elastic Compliance Matrix: (Units=1/GPa)
#
#
# Indices 1 2 3 4 5 6 
#
# 1 0.025502 -0.005168 0.002732 0.000000 0.000000 0.000000
# 2 -0.005168 0.006889 -0.003658 0.000000 0.000000 0.000000
# 3 0.002732 -0.003658 0.016231 0.000000 0.000000 0.000000
# 4 0.000000 0.000000 0.000000 0.051102 0.000000 0.000000
# 5 0.000000 0.000000 0.000000 0.000000 0.040702 0.000000
# 6 0.000000 0.000000 0.000000 0.000000 0.000000 0.033752
#
#
# Mechanical properties :
#
#
# Convention : Reuss Voigt Hill
#
# Bulk Modulus (GPa) = 27.44711 50.11926 38.78319
# Shear Modulus (GPa) = 25.18773 30.43575 27.81174
#
# Velocity S-wave (km/s) = 3.49099 3.83748 3.66833
# Velocity P-wave (km/s) = 5.43411 6.62458 6.05866
#
# Compressibility (1/GPa) = 0.03643370
#
# Stress axis : x y z
#
# Youngs Moduli (GPa) = 39.21260 145.16724 61.61079
#
# Poissons Ratio (x) = 0.75016 -0.16830
# Poissons Ratio (y) = 0.20263 0.22537
# Poissons Ratio (z) = -0.10711 0.53102
#
# Static dielectric constant tensor:
#      x y z
#    x 1.828070 0.000000 0.000000 
#    y 0.000000 1.712270 0.000000 
#    z 0.000000 0.000000 1.773000 
# 
# From -- ./inp_files/21891.got.cif
#   From: 2010.05.17/outbox.cif.g08.bks.cpg/sg62_11_cif.got.tgz:21891.got - 2010.06.03 15:25:27.
