data_PCOD9463215
_publ_section_title
;
Structure prediction by ZEFSAII (Michael W. Deem and Ramdas Pophale) SiO2 
 PCOD9463215
Probable space group: P N M A
;
_chemical_formula_sum "Si O2"
_cell_formula_units_Z 56
_cell_length_a 19.928039
_cell_length_b 8.620938
_cell_length_c 18.047440
_cell_angle_alpha 90.000000
_cell_angle_beta 90.000000
_cell_angle_gamma 90.000000
_cell_volume 3100.521112
_symmetry_space_group_name_H-M "P N M A"
_symmetry_group_IT_number 62
_symmetry_cell_setting 'orthorhombic'
loop_
_space_group_symop_operation_xyz
x,y,z
1/2-x,-y,1/2+z
1/2+x,1/2-y,1/2-z
-x,1/2+y,-z
-x,-y,-z
1/2+x,y,1/2-z
1/2-x,1/2+y,1/2+z
x,1/2-y,z
loop_
_atom_site_type_symbol
_atom_site_label
_atom_site_fract_x
_atom_site_fract_y
_atom_site_fract_z
Si Si1 0.570101 0.435786 0.968541
Si Si2 0.615798 0.063642 0.211002
Si Si3 0.443121 0.063840 0.352853
Si Si4 0.812257 0.435911 0.571461
Si Si5 0.337699 0.937852 0.470859
Si Si6 0.466249 0.935868 0.194438
Si Si7 0.596809 0.061680 0.376478
O O1 0.569845 0.250000 0.975916
O O2 0.572106 0.475493 0.881291
O O3 0.500000 0.500000 0.000000
O O4 0.631507 0.503620 0.014845
O O5 0.615636 0.250000 0.207495
O O6 0.626180 0.014773 0.296567
O O7 0.668247 0.997708 0.152576
O O8 0.541572 0.003888 0.189453
O O9 0.441218 0.250000 0.352535
O O10 0.518469 0.014610 0.377617
O O11 0.388391 0.998329 0.408652
O O12 0.434397 0.003042 0.269209
O O13 0.814477 0.250000 0.572451
O O14 0.738175 0.486566 0.546725
O O15 0.339472 0.750000 0.470424
O O16 0.363375 0.992182 0.551456
O O17 0.470766 0.750000 0.199901
O O18 0.597410 0.250000 0.377338
#
# Coordination Sequence:
#
# PCOD9463215 Si02
#       7
#     8   8   8   8   8   8   8
#     4  11  22  36  59  84 112 147 190 239 284 337
#     4  10  19  34  58  83 111 143 185 237 286 336
#     4  10  20  35  59  88 114 144 189 239 288 339
#     4  11  23  37  55  80 115 156 193 230 286 347
#     4  10  21  39  58  79 115 154 191 234 285 344
#     4  10  20  35  57  85 114 144 184 230 285 341
#     4   8  17  35  59  85 109 142 188 235 283 334
#
# _framework density 18.06148
#
# number of rings (size 3 to 8) (size 9 to 14) (size 15 to 20)
#    0.000    2.000    1.429    3.429    0.000    2.857 
#    2.571    3.571    0.000    0.000    0.000    0.000 
#    0.000    0.000    0.000    0.000    0.000    0.000 
#
# Total GULP energy -312651.818757 kJ/mol
# GULP energy per Si atom -5583.068192 kJ/mol
# Density = 1.802037 g / cm^3
# Si number density = 18.061480 Si / 1000 Ang^3
#
#
#
# Elastic Constant Matrix: (Units=GPa)
#
#
# Indices 1 2 3 4 5 6 
#
# 1 134.5224 35.6630 117.3454 0.0000 0.0000 0.0000
# 2 35.6630 36.9299 40.6706 0.0000 0.0000 0.0000
# 3 117.3454 40.6706 183.3402 0.0000 0.0000 0.0000
# 4 0.0000 0.0000 0.0000 27.8030 0.0000 0.0000
# 5 0.0000 0.0000 0.0000 0.0000 17.4119 0.0000
# 6 0.0000 0.0000 0.0000 0.0000 0.0000 22.5209
#
#
#
# Elastic Compliance Matrix: (Units=1/GPa)
#
#
# Indices 1 2 3 4 5 6 
#
# 1 0.017828 -0.006153 -0.010046 0.000000 0.000000 0.000000
# 2 -0.006153 0.037956 -0.004482 0.000000 0.000000 0.000000
# 3 -0.010046 -0.004482 0.012878 0.000000 0.000000 0.000000
# 4 0.000000 0.000000 0.000000 0.035967 0.000000 0.000000
# 5 0.000000 0.000000 0.000000 0.000000 0.057432 0.000000
# 6 0.000000 0.000000 0.000000 0.000000 0.000000 0.044403
#
#
# Mechanical properties :
#
#
# Convention : Reuss Voigt Hill
#
# Bulk Modulus (GPa) = 36.62836 82.46117 59.54476
# Shear Modulus (GPa) = 19.46093 24.28808 21.87450
#
# Velocity S-wave (km/s) = 3.28606 3.67105 3.48388
# Velocity P-wave (km/s) = 5.89249 7.98272 7.01588
#
# Compressibility (1/GPa) = 0.02730125
#
# Stress axis : x y z
#
# Youngs Moduli (GPa) = 56.09206 26.34642 77.65115
#
# Poissons Ratio (x) = 0.16211 0.78005
# Poissons Ratio (y) = 0.34514 0.34800
# Poissons Ratio (z) = 0.56348 0.11807
#
# Static dielectric constant tensor:
#      x y z
#    x 1.586500 0.000000 0.000000 
#    y 0.000000 1.611680 0.000000 
#    z 0.000000 0.000000 1.627450 
# 
# From -- ./inp_files/24656.got.cif
#   From: 2010.05.17/outbox.cif.g08.bks.cpg/sg62_13_cif.got.tgz:24656.got - 2010.06.03 15:25:27.
