data_PCOD9463821
_publ_section_title
;
Structure prediction by ZEFSAII (Michael W. Deem and Ramdas Pophale) SiO2 
 PCOD9463821
Probable space group: P N M A
;
_chemical_formula_sum "Si O2"
_cell_formula_units_Z 64
_cell_length_a 8.197473
_cell_length_b 14.912200
_cell_length_c 27.297077
_cell_angle_alpha 90.000000
_cell_angle_beta 90.000000
_cell_angle_gamma 90.000000
_cell_volume 3336.859028
_symmetry_space_group_name_H-M "P N M A"
_symmetry_group_IT_number 62
_symmetry_cell_setting 'orthorhombic'
loop_
_space_group_symop_operation_xyz
x,y,z
1/2-x,-y,1/2+z
1/2+x,1/2-y,1/2-z
-x,1/2+y,-z
-x,-y,-z
1/2+x,y,1/2-z
1/2-x,1/2+y,1/2+z
x,1/2-y,z
loop_
_atom_site_type_symbol
_atom_site_label
_atom_site_fract_x
_atom_site_fract_y
_atom_site_fract_z
Si Si1 0.790488 0.852080 0.591321
Si Si2 0.338965 0.149040 0.051221
Si Si3 0.130752 0.851696 0.176302
Si Si4 0.730524 0.352081 0.720650
Si Si5 0.145393 0.970893 0.361795
Si Si6 0.657199 0.856298 0.488455
Si Si7 0.295364 0.644914 0.447474
Si Si8 0.719164 0.470082 0.903805
O O1 0.753326 0.750000 0.606593
O O2 0.676763 0.879152 0.545541
O O3 0.973328 0.851978 0.568180
O O4 0.793233 0.926975 0.633090
O O5 0.273009 0.250000 0.058158
O O6 0.247527 0.072732 0.081786
O O7 0.323291 0.128741 0.993631
O O8 0.151401 0.750000 0.156464
O O9 0.255277 0.865179 0.221269
O O10 0.158632 0.923035 0.133926
O O11 0.953322 0.857154 0.200838
O O12 0.791169 0.250000 0.711107
O O13 0.830986 0.424975 0.690433
O O14 0.247836 0.913608 0.401276
O O15 0.958753 0.966121 0.379387
O O16 0.692947 0.750000 0.484206
O O17 0.475409 0.872750 0.468647
O O18 0.774670 0.913533 0.453934
O O19 0.286833 0.750000 0.433850
#
# Coordination Sequence:
#
# PCOD9463821 Si02
#       8
#     8   8   8   8   8   8   8   8
#     4   9  19  35  51  69  98 135 172 209 248 290
#     4   9  19  35  51  69  98 135 172 209 248 290
#     4  10  21  37  56  78 104 131 159 196 244 296
#     4  10  21  37  56  78 104 131 159 196 244 296
#     4  11  21  32  51  76 100 131 169 206 247 295
#     4  10  20  32  47  71 103 136 169 206 248 294
#     4  10  20  32  47  71 103 136 169 206 248 294
#     4  11  21  32  51  76 100 131 169 206 247 295
#
# _framework density 19.179713
#
# number of rings (size 3 to 8) (size 9 to 14) (size 15 to 20)
#    0.000    2.000    0.000    3.750    0.000   11.000 
#    0.000    0.000    0.000    0.750    0.000    0.000 
#    0.000    0.000    0.000    0.000    0.000    0.000 
#
# Total GULP energy -357627.379208 kJ/mol
# GULP energy per Si atom -5587.927800 kJ/mol
# Density = 1.913606 g / cm^3
# Si number density = 19.179713 Si / 1000 Ang^3
#
#
#
# Elastic Constant Matrix: (Units=GPa)
#
#
# Indices 1 2 3 4 5 6 
#
# 1 26.9273 14.1359 1.9549 0.0000 0.0000 0.0000
# 2 14.1359 59.3420 34.7787 0.0000 0.0000 0.0000
# 3 1.9549 34.7787 44.3009 0.0000 0.0000 0.0000
# 4 0.0000 0.0000 0.0000 24.2396 0.0000 0.0000
# 5 0.0000 0.0000 0.0000 0.0000 30.6615 0.0000
# 6 0.0000 0.0000 0.0000 0.0000 0.0000 17.3203
#
#
#
# Elastic Compliance Matrix: (Units=1/GPa)
#
#
# Indices 1 2 3 4 5 6 
#
# 1 0.045694 -0.017972 0.012092 0.000000 0.000000 0.000000
# 2 -0.017972 0.038281 -0.029259 0.000000 0.000000 0.000000
# 3 0.012092 -0.029259 0.045009 0.000000 0.000000 0.000000
# 4 0.000000 0.000000 0.000000 0.041255 0.000000 0.000000
# 5 0.000000 0.000000 0.000000 0.000000 0.032614 0.000000
# 6 0.000000 0.000000 0.000000 0.000000 0.000000 0.057736
#
#
# Mechanical properties :
#
#
# Convention : Reuss Voigt Hill
#
# Bulk Modulus (GPa) = 17.03391 25.81213 21.42302
# Shear Modulus (GPa) = 14.26801 19.75765 17.01283
#
# Velocity S-wave (km/s) = 2.73043 3.21305 2.98152
# Velocity P-wave (km/s) = 4.34060 5.22036 4.80068
#
# Compressibility (1/GPa) = 0.05870641
#
# Stress axis : x y z
#
# Youngs Moduli (GPa) = 21.88493 26.12295 22.21753
#
# Poissons Ratio (x) = 0.46947 -0.26866
# Poissons Ratio (y) = 0.39331 0.65007
# Poissons Ratio (z) = -0.26464 0.76434
#
# Static dielectric constant tensor:
#      x y z
#    x 1.711280 0.000000 0.000000 
#    y 0.000000 1.685240 0.000000 
#    z 0.000000 0.000000 1.635130 
# 
# From -- ./inp_files/29006.got.cif
#   From: 2010.05.17/outbox.cif.g08.bks.cpg/sg62_15_cif.got.tgz:29006.got - 2010.06.03 15:25:27.
