data_PCOD9463175
_publ_section_title
;
Structure prediction by ZEFSAII (Michael W. Deem and Ramdas Pophale) SiO2 
 PCOD9463175
Probable space group: P N M A
;
_chemical_formula_sum "Si O2"
_cell_formula_units_Z 64
_cell_length_a 24.080467
_cell_length_b 13.878166
_cell_length_c 10.162878
_cell_angle_alpha 90.000000
_cell_angle_beta 90.000000
_cell_angle_gamma 90.000000
_cell_volume 3396.359825
_symmetry_space_group_name_H-M "P N M A"
_symmetry_group_IT_number 62
_symmetry_cell_setting 'orthorhombic'
loop_
_space_group_symop_operation_xyz
x,y,z
1/2-x,-y,1/2+z
1/2+x,1/2-y,1/2-z
-x,1/2+y,-z
-x,-y,-z
1/2+x,y,1/2-z
1/2-x,1/2+y,1/2+z
x,1/2-y,z
loop_
_atom_site_type_symbol
_atom_site_label
_atom_site_fract_x
_atom_site_fract_y
_atom_site_fract_z
Si Si1 0.295869 0.636884 0.177252
Si Si2 0.526995 0.365810 0.168691
Si Si3 0.350881 0.635550 0.460202
Si Si4 0.476767 0.866935 0.527024
Si Si5 0.860319 0.956710 0.556807
Si Si6 0.185759 0.989619 0.174672
Si Si7 0.426121 0.135898 0.668923
Si Si8 0.573346 0.637471 0.026273
O O1 0.282577 0.750000 0.170613
O O2 0.326664 0.618785 0.315589
O O3 0.240404 0.574260 0.165775
O O4 0.336096 0.606566 0.059203
O O5 0.533632 0.250000 0.166808
O O6 0.518245 0.395586 0.320151
O O7 0.582513 0.412635 0.112076
O O8 0.475179 0.388894 0.075009
O O9 0.346809 0.750000 0.489215
O O10 0.415888 0.607948 0.472332
O O11 0.317831 0.572720 0.566107
O O12 0.479011 0.750000 0.525199
O O13 0.527210 0.898368 0.433683
O O14 0.819246 0.965036 0.680134
O O15 0.875661 0.064581 0.509409
O O16 0.130812 0.923159 0.157810
O O17 0.415713 0.250000 0.646580
O O18 0.445678 0.127092 0.821165
O O19 0.587994 0.750000 0.007102
#
# Coordination Sequence:
#
# PCOD9463175 Si02
#       8
#     8   8   8   8   8   8   8   8
#     4  11  25  42  63  87 115 153 200 253 296 344
#     4  10  19  34  56  85 122 156 193 243 296 353
#     4  10  22  40  60  87 120 153 193 243 295 351
#     4   9  18  34  56  85 118 153 192 237 295 353
#     4  11  22  38  60  87 118 155 202 244 295 349
#     4  11  22  41  61  86 117 156 201 243 296 353
#     4   9  19  35  58  86 120 158 196 241 294 355
#     4   9  20  36  56  85 121 158 194 237 295 356
#
# _framework density 18.843703999999999
#
# number of rings (size 3 to 8) (size 9 to 14) (size 15 to 20)
#    0.000    2.000    1.250    1.875    1.750    2.500 
#    0.000    0.625    0.000    0.750    0.000    0.000 
#    0.000    0.000    0.000    0.000    0.000    0.000 
#
# Total GULP energy -357572.968054 kJ/mol
# GULP energy per Si atom -5587.077626 kJ/mol
# Density = 1.880081 g / cm^3
# Si number density = 18.843704 Si / 1000 Ang^3
#
#
#
# Elastic Constant Matrix: (Units=GPa)
#
#
# Indices 1 2 3 4 5 6 
#
# 1 48.9883 18.5993 51.7300 0.0000 0.0000 0.0000
# 2 18.5993 63.9513 54.4251 0.0000 0.0000 0.0000
# 3 51.7300 54.4251 108.3398 0.0000 0.0000 0.0000
# 4 0.0000 0.0000 0.0000 30.7823 0.0000 0.0000
# 5 0.0000 0.0000 0.0000 0.0000 9.6519 0.0000
# 6 0.0000 0.0000 0.0000 0.0000 0.0000 30.6831
#
#
#
# Elastic Compliance Matrix: (Units=1/GPa)
#
#
# Indices 1 2 3 4 5 6 
#
# 1 0.043864 0.008851 -0.025391 0.000000 0.000000 0.000000
# 2 0.008851 0.029101 -0.018845 0.000000 0.000000 0.000000
# 3 -0.025391 -0.018845 0.030821 0.000000 0.000000 0.000000
# 4 0.000000 0.000000 0.000000 0.032486 0.000000 0.000000
# 5 0.000000 0.000000 0.000000 0.000000 0.103606 0.000000
# 6 0.000000 0.000000 0.000000 0.000000 0.000000 0.032591
#
#
# Mechanical properties :
#
#
# Convention : Reuss Voigt Hill
#
# Bulk Modulus (GPa) = 30.28799 52.30979 41.29889
# Shear Modulus (GPa) = 14.11456 20.65846 17.38651
#
# Velocity S-wave (km/s) = 2.73982 3.31464 3.04084
# Velocity P-wave (km/s) = 5.11047 6.51684 5.85603
#
# Compressibility (1/GPa) = 0.03301638
#
# Stress axis : x y z
#
# Youngs Moduli (GPa) = 22.79758 34.36347 32.44560
#
# Poissons Ratio (x) = -0.30416 0.82382
# Poissons Ratio (y) = -0.20179 0.61144
# Poissons Ratio (z) = 0.57885 0.64759
#
# Static dielectric constant tensor:
#      x y z
#    x 1.616220 0.000000 0.000000 
#    y 0.000000 1.680890 0.000000 
#    z 0.000000 0.000000 1.636120 
# 
# From -- ./inp_files/9481.got.cif
#   From: 2010.05.17/outbox.cif.g08.bks.cpg/sg62_5_cif.got.tgz:9481.got - 2010.06.03 15:25:27.
