data_PCOD9463470
_publ_section_title
;
Structure prediction by ZEFSAII (Michael W. Deem and Ramdas Pophale) SiO2 
 PCOD9463470
Probable space group: P N M A
;
_chemical_formula_sum "Si O2"
_cell_formula_units_Z 64
_cell_length_a 12.087474
_cell_length_b 23.854269
_cell_length_c 9.016909
_cell_angle_alpha 90.000000
_cell_angle_beta 90.000000
_cell_angle_gamma 90.000000
_cell_volume 2599.916212
_symmetry_space_group_name_H-M "P N M A"
_symmetry_group_IT_number 62
_symmetry_cell_setting 'orthorhombic'
loop_
_space_group_symop_operation_xyz
x,y,z
1/2-x,-y,1/2+z
1/2+x,1/2-y,1/2-z
-x,1/2+y,-z
-x,-y,-z
1/2+x,y,1/2-z
1/2-x,1/2+y,1/2+z
x,1/2-y,z
loop_
_atom_site_type_symbol
_atom_site_label
_atom_site_fract_x
_atom_site_fract_y
_atom_site_fract_z
Si Si1 0.432899 0.100512 0.260232
Si Si2 0.176234 0.188864 0.485650
Si Si3 0.532570 0.184972 0.492967
Si Si4 0.065389 0.075442 0.496329
Si Si5 0.727406 0.511846 0.851247
Si Si6 0.365174 0.312242 0.731757
Si Si7 0.233775 0.813836 0.650383
Si Si8 0.674482 0.930001 0.123748
O O1 0.469178 0.137091 0.399755
O O2 0.370434 0.144810 0.151340
O O3 0.344942 0.049695 0.264184
O O4 0.541860 0.076705 0.179646
O O5 0.122445 0.250000 0.494381
O O6 0.099920 0.138354 0.533822
O O7 0.283499 0.189199 0.589689
O O8 0.213909 0.179387 0.315896
O O9 0.505831 0.250000 0.445619
O O10 0.487265 0.180437 0.660120
O O11 0.662679 0.178720 0.460397
O O12 0.154219 0.034187 0.562517
O O13 0.948350 0.059990 0.564233
O O14 0.807850 0.472870 0.758341
O O15 0.757397 0.553324 0.988096
O O16 0.357739 0.250000 0.801672
O O17 0.326244 0.365858 0.823151
O O18 0.195110 0.750000 0.639535
#
# Coordination Sequence:
#
# PCOD9463470 Si02
#       8
#     8   8   8   8   8   8   8   8
#     4  11  21  35  65  93 133 180 225 277 340 404
#     4  10  19  35  67  99 133 185 228 273 345 425
#     4  10  20  35  61 101 140 176 221 283 347 410
#     4  11  24  46  68  95 137 183 231 281 348 420
#     4  11  27  46  70  97 138 177 236 291 344 407
#     4  10  21  41  67  97 139 183 227 280 354 423
#     4  10  20  34  59 102 143 172 224 292 346 405
#     4  11  25  46  72 100 131 185 228 292 343 414
#
# _framework density 24.616178000000001
#
# number of rings (size 3 to 8) (size 9 to 14) (size 15 to 20)
#    0.000    1.500    3.750    1.875    3.500    2.000 
#    4.500    4.375    0.000    0.000    0.000    0.000 
#    0.000    0.000    0.000    0.000    0.000    0.000 
#
# Total GULP energy -357867.817770 kJ/mol
# GULP energy per Si atom -5591.684653 kJ/mol
# Density = 2.456015 g / cm^3
# Si number density = 24.616178 Si / 1000 Ang^3
#
#
#
# Elastic Constant Matrix: (Units=GPa)
#
#
# Indices 1 2 3 4 5 6 
#
# 1 26.4617 29.6600 19.9310 0.0000 0.0000 0.0000
# 2 29.6600 181.8720 54.8802 0.0000 0.0000 0.0000
# 3 19.9310 54.8802 103.6995 0.0000 0.0000 0.0000
# 4 0.0000 0.0000 0.0000 30.0174 0.0000 0.0000
# 5 0.0000 0.0000 0.0000 0.0000 18.2141 0.0000
# 6 0.0000 0.0000 0.0000 0.0000 0.0000 36.3432
#
#
#
# Elastic Compliance Matrix: (Units=1/GPa)
#
#
# Indices 1 2 3 4 5 6 
#
# 1 0.049405 -0.006178 -0.006226 0.000000 0.000000 0.000000
# 2 -0.006178 0.007316 -0.002684 0.000000 0.000000 0.000000
# 3 -0.006226 -0.002684 0.012260 0.000000 0.000000 0.000000
# 4 0.000000 0.000000 0.000000 0.033314 0.000000 0.000000
# 5 0.000000 0.000000 0.000000 0.000000 0.054902 0.000000
# 6 0.000000 0.000000 0.000000 0.000000 0.000000 0.027515
#
#
# Mechanical properties :
#
#
# Convention : Reuss Voigt Hill
#
# Bulk Modulus (GPa) = 25.77035 57.88620 41.82827
# Shear Modulus (GPa) = 21.94665 30.75241 26.34953
#
# Velocity S-wave (km/s) = 2.98913 3.53834 3.27527
# Velocity P-wave (km/s) = 4.73337 6.34506 5.59752
#
# Compressibility (1/GPa) = 0.03880429
#
# Stress axis : x y z
#
# Youngs Moduli (GPa) = 20.24086 136.68772 81.56310
#
# Poissons Ratio (x) = 0.84451 0.50780
# Poissons Ratio (y) = 0.12506 0.21894
# Poissons Ratio (z) = 0.12602 0.36691
#
# Static dielectric constant tensor:
#      x y z
#    x 1.961980 0.000000 0.000000 
#    y 0.000000 1.974120 0.000000 
#    z 0.000000 0.000000 2.003340 
# 
# From -- ./inp_files/6961.got.cif
#   From: 2010.05.17/outbox.cif.g08.bks.cpg/sg62_4_cif.got.tgz:6961.got - 2010.06.03 15:25:27.
