data_PCOD9463626
_publ_section_title
;
Structure prediction by ZEFSAII (Michael W. Deem and Ramdas Pophale) SiO2 
 PCOD9463626
Probable space group: P N M A
;
_chemical_formula_sum "Si O2"
_cell_formula_units_Z 48
_cell_length_a 20.348247
_cell_length_b 7.781509
_cell_length_c 14.645512
_cell_angle_alpha 90.000000
_cell_angle_beta 90.000000
_cell_angle_gamma 90.000000
_cell_volume 2318.971354
_symmetry_space_group_name_H-M "P N M A"
_symmetry_group_IT_number 62
_symmetry_cell_setting 'orthorhombic'
loop_
_space_group_symop_operation_xyz
x,y,z
1/2-x,-y,1/2+z
1/2+x,1/2-y,1/2-z
-x,1/2+y,-z
-x,-y,-z
1/2+x,y,1/2-z
1/2-x,1/2+y,1/2+z
x,1/2-y,z
loop_
_atom_site_type_symbol
_atom_site_label
_atom_site_fract_x
_atom_site_fract_y
_atom_site_fract_z
Si Si1 0.841393 0.051693 0.867470
Si Si2 0.732023 0.958579 0.539908
Si Si3 0.278955 0.448817 0.252529
Si Si4 0.940832 0.461254 0.718198
Si Si5 0.915741 0.550513 0.327572
Si Si6 0.383544 0.453282 0.976212
O O1 0.859616 0.250000 0.884554
O O2 0.775676 0.046951 0.805569
O O3 0.819306 0.975211 0.964359
O O4 0.899142 0.976596 0.804882
O O5 0.730518 0.750000 0.536772
O O6 0.717910 0.012898 0.643423
O O7 0.805778 0.013791 0.515199
O O8 0.257632 0.250000 0.254336
O O9 0.350076 0.459717 0.206591
O O10 0.939118 0.250000 0.718242
O O11 0.919253 0.535890 0.437242
O O12 0.907076 0.515770 0.622973
O O13 0.016580 0.514914 0.715460
O O14 0.908345 0.750000 0.303360
O O15 0.395669 0.250000 0.980875
#
# Coordination Sequence:
#
# PCOD9463626 Si02
#       6
#     8   8   8   8   8   8
#     4  10  19  37  60  80 106 146 186 228 277 330
#     4  10  21  35  56  84 113 143 181 227 280 331
#     4  11  22  36  54  83 114 144 184 232 276 326
#     4   9  20  36  56  82 111 147 190 228 275 335
#     4  11  22  37  55  79 113 153 189 225 277 336
#     4  11  20  33  56  86 115 142 180 233 281 332
#
# _framework density 20.698833
#
# number of rings (size 3 to 8) (size 9 to 14) (size 15 to 20)
#    0.000    1.667    3.333    2.000    0.000    0.667 
#    0.000    5.000    0.000    0.000    0.000    0.000 
#    0.000    0.000    0.000    0.000    0.000    0.000 
#
# Total GULP energy -268158.627148 kJ/mol
# GULP energy per Si atom -5586.638066 kJ/mol
# Density = 2.065172 g / cm^3
# Si number density = 20.698833 Si / 1000 Ang^3
#
#
#
# Elastic Constant Matrix: (Units=GPa)
#
#
# Indices 1 2 3 4 5 6 
#
# 1 38.0671 -5.9599 -16.5145 0.0000 0.0000 0.0000
# 2 -5.9599 33.9379 -3.1498 0.0000 0.0000 0.0000
# 3 -16.5145 -3.1498 67.2090 0.0000 0.0000 0.0000
# 4 0.0000 0.0000 0.0000 12.2672 0.0000 0.0000
# 5 0.0000 0.0000 0.0000 0.0000 31.8130 0.0000
# 6 0.0000 0.0000 0.0000 0.0000 0.0000 -6.3785
#
#
#
# Elastic Compliance Matrix: (Units=1/GPa)
#
#
# Indices 1 2 3 4 5 6 
#
# 1 0.030612 0.006100 0.007808 0.000000 0.000000 0.000000
# 2 0.006100 0.030810 0.002943 0.000000 0.000000 0.000000
# 3 0.007808 0.002943 0.016935 0.000000 0.000000 0.000000
# 4 0.000000 0.000000 0.000000 0.081518 0.000000 0.000000
# 5 0.000000 0.000000 0.000000 0.000000 0.031434 0.000000
# 6 0.000000 0.000000 0.000000 0.000000 0.000000 -0.156777
#
#
# Mechanical properties :
#
#
# Convention : Reuss Voigt Hill
#
# Bulk Modulus (GPa) = 8.92384 9.77396 9.34890
# Shear Modulus (GPa) = 130.94975 18.52956 74.73966
#
# Velocity S-wave (km/s) = 7.96252 2.99523 6.01552
# Velocity P-wave (km/s) = 9.42636 4.08585 7.26465
#
# Compressibility (1/GPa) = 0.11205933
#
# Stress axis : x y z
#
# Youngs Moduli (GPa) = 32.66725 32.45697 59.04800
#
# Poissons Ratio (x) = -0.19800 -0.46103
# Poissons Ratio (y) = -0.19928 -0.17377
# Poissons Ratio (z) = -0.25506 -0.09552
#
# Static dielectric constant tensor:
#      x y z
#    x 1.709360 0.000000 0.000000 
#    y 0.000000 1.747440 0.000000 
#    z 0.000000 0.000000 1.749680 
# 
# From -- ./inp_files/20588.got.cif
#   From: 2010.05.17/outbox.cif.g08.bks.cpg/sg62_11_cif.got.tgz:20588.got - 2010.06.03 15:25:27.
