data_PCOD9463399
_publ_section_title
;
Structure prediction by ZEFSAII (Michael W. Deem and Ramdas Pophale) SiO2 
 PCOD9463399
Probable space group: P N M A
;
_chemical_formula_sum "Si O2"
_cell_formula_units_Z 64
_cell_length_a 24.476813
_cell_length_b 8.333959
_cell_length_c 15.912490
_cell_angle_alpha 90.000000
_cell_angle_beta 90.000000
_cell_angle_gamma 90.000000
_cell_volume 3245.969040
_symmetry_space_group_name_H-M "P N M A"
_symmetry_group_IT_number 62
_symmetry_cell_setting 'orthorhombic'
loop_
_space_group_symop_operation_xyz
x,y,z
1/2-x,-y,1/2+z
1/2+x,1/2-y,1/2-z
-x,1/2+y,-z
-x,-y,-z
1/2+x,y,1/2-z
1/2-x,1/2+y,1/2+z
x,1/2-y,z
loop_
_atom_site_type_symbol
_atom_site_label
_atom_site_fract_x
_atom_site_fract_y
_atom_site_fract_z
Si Si1 0.945364 0.558687 0.248498
Si Si2 0.628769 0.558626 0.900744
Si Si3 0.136669 0.442136 0.416802
Si Si4 0.136101 0.557225 0.089883
Si Si5 0.249687 0.556089 0.652118
Si Si6 0.570755 0.944865 0.245800
Si Si7 0.248465 0.554727 0.847317
Si Si8 0.628339 0.943992 0.595568
O O1 0.946496 0.750000 0.244628
O O2 0.912197 0.508061 0.331197
O O3 0.913591 0.497332 0.166580
O O4 0.007896 0.501336 0.251823
O O5 0.628682 0.750000 0.892943
O O6 0.690622 0.501754 0.880761
O O7 0.615137 0.509853 0.995490
O O8 0.137246 0.250000 0.421562
O O9 0.101056 0.494328 0.337184
O O10 0.199019 0.499658 0.399958
O O11 0.132155 0.750000 0.090230
O O12 0.199382 0.511768 0.101171
O O13 0.102589 0.498057 0.170671
O O14 0.115406 0.500389 0.998986
O O15 0.251529 0.750000 0.648453
O O16 0.255285 0.507814 0.749898
O O17 0.572062 0.750000 0.244737
O O18 0.248180 0.750000 0.849353
O O19 0.189674 0.500456 0.880562
O O20 0.629322 0.750000 0.595898
#
# Coordination Sequence:
#
# PCOD9463399 Si02
#       8
#     8   8   8   8   8   8   8   8
#     4  11  24  41  60  83 115 154 200 248 287 339
#     4  11  23  40  62  87 120 155 190 237 294 349
#     4  11  22  38  63  91 118 152 196 239 287 349
#     4  10  21  37  61  89 118 154 193 236 290 349
#     4  10  19  35  59  87 119 153 188 234 290 346
#     4  10  23  42  59  83 119 155 196 246 295 340
#     4   9  17  33  57  86 120 151 183 231 287 344
#     4  10  20  38  61  86 119 155 189 233 291 347
#
# _framework density 19.716761000000002
#
# number of rings (size 3 to 8) (size 9 to 14) (size 15 to 20)
#    0.000    1.750    2.500    1.875    0.000    4.500 
#    0.000    1.250    0.000    0.000    0.000    0.000 
#    0.000    0.000    0.000    0.000    0.000    0.000 
#
# Total GULP energy -357610.264873 kJ/mol
# GULP energy per Si atom -5587.660389 kJ/mol
# Density = 1.967188 g / cm^3
# Si number density = 19.716761 Si / 1000 Ang^3
#
#
#
# Elastic Constant Matrix: (Units=GPa)
#
#
# Indices 1 2 3 4 5 6 
#
# 1 111.0341 1.6297 21.6022 0.0000 0.0000 0.0000
# 2 1.6297 3.8348 -2.1988 0.0000 0.0000 0.0000
# 3 21.6022 -2.1988 94.3494 0.0000 0.0000 0.0000
# 4 0.0000 0.0000 0.0000 19.7993 0.0000 0.0000
# 5 0.0000 0.0000 0.0000 0.0000 0.0102 0.0000
# 6 0.0000 0.0000 0.0000 0.0000 0.0000 -1.7498
#
#
#
# Elastic Compliance Matrix: (Units=1/GPa)
#
#
# Indices 1 2 3 4 5 6 
#
# 1 0.009534 -0.005375 -0.002308 0.000000 0.000000 0.000000
# 2 -0.005375 0.267329 0.007461 0.000000 0.000000 0.000000
# 3 -0.002308 0.007461 0.011301 0.000000 0.000000 0.000000
# 4 0.000000 0.000000 0.000000 0.050507 0.000000 0.000000
# 5 0.000000 0.000000 0.000000 0.000000 97.748628 0.000000
# 6 0.000000 0.000000 0.000000 0.000000 0.000000 -0.571480
#
#
# Mechanical properties :
#
#
# Convention : Reuss Voigt Hill
#
# Bulk Modulus (GPa) = 3.47561 27.92051 15.69806
# Shear Modulus (GPa) = 0.05122 16.15761 8.10442
#
# Velocity S-wave (km/s) = 0.16136 2.86577 2.02962
# Velocity P-wave (km/s) = 1.34213 5.01415 3.67036
#
# Compressibility (1/GPa) = 0.28771956
#
# Stress axis : x y z
#
# Youngs Moduli (GPa) = 104.88548 3.74070 88.48568
#
# Poissons Ratio (x) = 0.02011 0.20424
# Poissons Ratio (y) = 0.56378 -0.66017
# Poissons Ratio (z) = 0.24210 -0.02791
#
# Static dielectric constant tensor:
#      x y z
#    x 1.676360 0.000000 0.000000 
#    y 0.000000 1.680240 0.000000 
#    z 0.000000 0.000000 1.679700 
# 
# From -- ./inp_files/20977.got.cif
#   From: 2010.05.17/outbox.cif.g08.bks.cpg/sg62_11_cif.got.tgz:20977.got - 2010.06.03 15:25:27.
