data_PCOD9463314
_publ_section_title
;
Structure prediction by ZEFSAII (Michael W. Deem and Ramdas Pophale) SiO2 
 PCOD9463314
Probable space group: P N M A
;
_chemical_formula_sum "Si O2"
_cell_formula_units_Z 64
_cell_length_a 20.521289
_cell_length_b 7.798029
_cell_length_c 20.195912
_cell_angle_alpha 90.000000
_cell_angle_beta 90.000000
_cell_angle_gamma 90.000000
_cell_volume 3231.863071
_symmetry_space_group_name_H-M "P N M A"
_symmetry_group_IT_number 62
_symmetry_cell_setting 'orthorhombic'
loop_
_space_group_symop_operation_xyz
x,y,z
1/2-x,-y,1/2+z
1/2+x,1/2-y,1/2-z
-x,1/2+y,-z
-x,-y,-z
1/2+x,y,1/2-z
1/2-x,1/2+y,1/2+z
x,1/2-y,z
loop_
_atom_site_type_symbol
_atom_site_label
_atom_site_fract_x
_atom_site_fract_y
_atom_site_fract_z
Si Si1 0.783150 0.957175 0.253475
Si Si2 0.639944 0.450882 0.277836
Si Si3 0.590526 0.039793 0.679680
Si Si4 0.991405 0.452421 0.707975
Si Si5 0.327311 0.543867 0.574616
Si Si6 0.682857 0.043912 0.902107
Si Si7 0.431045 0.543520 0.468422
Si Si8 0.039472 0.043258 0.565965
O O1 0.779869 0.750000 0.254438
O O2 0.836407 0.009083 0.199938
O O3 0.809376 0.013963 0.325692
O O4 0.710387 0.024078 0.244670
O O5 0.625868 0.250000 0.283525
O O6 0.581362 0.527474 0.235552
O O7 0.649009 0.521804 0.352969
O O8 0.587791 0.250000 0.679618
O O9 0.540779 0.978149 0.736229
O O10 0.572907 0.979117 0.606605
O O11 0.005528 0.250000 0.704011
O O12 0.005409 0.520162 0.634130
O O13 0.332813 0.750000 0.577361
O O14 0.251228 0.504016 0.564492
O O15 0.373628 0.479172 0.516344
O O16 0.679752 0.250000 0.900787
O O17 0.614849 0.981612 0.932739
O O18 0.500000 0.500000 0.500000
O O19 0.425045 0.750000 0.465687
O O20 0.041294 0.250000 0.568516
O O21 0.000000 0.000000 0.500000
#
# Coordination Sequence:
#
# PCOD9463314 Si02
#       8
#     8   8   8   8   8   8   8   8
#     4   9  16  32  56  77  98 131 176 221 258 301
#     4  10  20  33  50  77 111 143 172 211 262 312
#     4   9  17  32  57  80 100 132 177 223 258 298
#     4  10  19  35  57  80 103 134 178 220 260 311
#     4   9  19  34  51  76 112 146 176 212 259 316
#     4   9  17  33  57  78  99 133 178 221 259 305
#     4  10  20  34  52  77 108 140 174 214 260 309
#     4  10  21  37  56  79 106 136 173 221 272 321
#
# _framework density 19.802821000000002
#
# number of rings (size 3 to 8) (size 9 to 14) (size 15 to 20)
#    0.000    2.500    1.250    1.125    0.000    2.000 
#    2.250    1.250    0.000    0.000    0.000    0.000 
#    0.000    0.000    0.000    0.000    0.000    0.000 
#
# Total GULP energy -357065.961117 kJ/mol
# GULP energy per Si atom -5579.155642 kJ/mol
# Density = 1.975775 g / cm^3
# Si number density = 19.802821 Si / 1000 Ang^3
#
#
#
# Elastic Constant Matrix: (Units=GPa)
#
#
# Indices 1 2 3 4 5 6 
#
# 1 160.5066 -0.1008 112.3913 0.0000 0.0000 0.0000
# 2 -0.1008 21.9387 9.3852 0.0000 0.0000 0.0000
# 3 112.3913 9.3852 163.2839 0.0000 0.0000 0.0000
# 4 0.0000 0.0000 0.0000 15.4145 0.0000 0.0000
# 5 0.0000 0.0000 0.0000 0.0000 34.3162 0.0000
# 6 0.0000 0.0000 0.0000 0.0000 0.0000 17.0116
#
#
#
# Elastic Compliance Matrix: (Units=1/GPa)
#
#
# Indices 1 2 3 4 5 6 
#
# 1 0.012325 0.003779 -0.008701 0.000000 0.000000 0.000000
# 2 0.003779 0.047889 -0.005354 0.000000 0.000000 0.000000
# 3 -0.008701 -0.005354 0.012421 0.000000 0.000000 0.000000
# 4 0.000000 0.000000 0.000000 0.064874 0.000000 0.000000
# 5 0.000000 0.000000 0.000000 0.000000 0.029141 0.000000
# 6 0.000000 0.000000 0.000000 0.000000 0.000000 0.058784
#
#
# Mechanical properties :
#
#
# Convention : Reuss Voigt Hill
#
# Bulk Modulus (GPa) = 19.19978 65.45339 42.32658
# Shear Modulus (GPa) = 18.98642 28.28537 23.63590
#
# Velocity S-wave (km/s) = 3.09977 3.78345 3.45854
# Velocity P-wave (km/s) = 4.74636 7.22567 6.11303
#
# Compressibility (1/GPa) = 0.05208394
#
# Stress axis : x y z
#
# Youngs Moduli (GPa) = 81.13425 20.88161 80.50887
#
# Poissons Ratio (x) = -0.07891 0.70050
# Poissons Ratio (y) = -0.30659 0.43101
# Poissons Ratio (z) = 0.70594 0.11179
#
# Static dielectric constant tensor:
#      x y z
#    x 1.675660 0.000000 0.000000 
#    y 0.000000 1.736700 0.000000 
#    z 0.000000 0.000000 1.694110 
# 
# From -- ./inp_files/27711.got.cif
#   From: 2010.05.17/outbox.cif.g08.bks.cpg/sg62_14_cif.got.tgz:27711.got - 2010.06.03 15:25:27.
