data_PCOD9463623
_publ_section_title
;
Structure prediction by ZEFSAII (Michael W. Deem and Ramdas Pophale) SiO2 
 PCOD9463623
Probable space group: P N M A
;
_chemical_formula_sum "Si O2"
_cell_formula_units_Z 64
_cell_length_a 10.758906
_cell_length_b 12.657102
_cell_length_c 24.140574
_cell_angle_alpha 90.000000
_cell_angle_beta 90.000000
_cell_angle_gamma 90.000000
_cell_volume 3287.380581
_symmetry_space_group_name_H-M "P N M A"
_symmetry_group_IT_number 62
_symmetry_cell_setting 'orthorhombic'
loop_
_space_group_symop_operation_xyz
x,y,z
1/2-x,-y,1/2+z
1/2+x,1/2-y,1/2-z
-x,1/2+y,-z
-x,-y,-z
1/2+x,y,1/2-z
1/2-x,1/2+y,1/2+z
x,1/2-y,z
loop_
_atom_site_type_symbol
_atom_site_label
_atom_site_fract_x
_atom_site_fract_y
_atom_site_fract_z
Si Si1 0.637924 0.968296 0.016026
Si Si2 0.437633 0.978043 0.764460
Si Si3 0.733145 0.369451 0.412677
Si Si4 0.354192 0.125562 0.468074
Si Si5 0.848749 0.125969 0.639904
Si Si6 0.308043 0.129933 0.213531
Si Si7 0.065282 0.135855 0.819769
Si Si8 0.521152 0.958376 0.424821
O O1 0.722308 0.074906 0.015514
O O2 0.646713 0.913902 0.076380
O O3 0.500000 0.000000 0.000000
O O4 0.687045 0.890854 0.967676
O O5 0.302324 0.937744 0.743087
O O6 0.548569 0.893571 0.771806
O O7 0.424506 0.046594 0.820583
O O8 0.498664 0.051934 0.718181
O O9 0.680405 0.250000 0.415379
O O10 0.798869 0.380033 0.353249
O O11 0.632813 0.461928 0.413878
O O12 0.350056 0.250000 0.454531
O O13 0.405109 0.039888 0.424015
O O14 0.451798 0.102766 0.518047
O O15 0.886967 0.250000 0.642314
O O16 0.709422 0.120711 0.665170
O O17 0.278685 0.250000 0.228701
O O18 0.051228 0.250000 0.793166
O O19 0.996297 0.127409 0.878179
#
# Coordination Sequence:
#
# PCOD9463623 Si02
#       8
#     8   8   8   8   8   8   8   8
#     4  11  23  41  62  89 128 167 212 262 321 390
#     4  12  23  45  65  95 132 167 221 273 324 387
#     4  10  21  38  63  91 122 166 209 255 318 386
#     4  10  21  35  57  90 124 161 207 254 311 372
#     4  11  24  43  67  95 127 172 218 271 331 389
#     4  11  24  42  67  95 131 172 216 266 328 390
#     4  11  22  39  64  92 123 165 211 266 328 384
#     4  10  19  37  59  89 123 161 201 261 308 374
#
# _framework density 19.468388000000001
#
# number of rings (size 3 to 8) (size 9 to 14) (size 15 to 20)
#    0.000    1.250    3.750    2.625    0.000    1.000 
#    0.000    2.500    0.000    0.000    0.000    0.000 
#    0.000    0.000    0.000    0.000    0.000    0.000 
#
# Total GULP energy -356721.751532 kJ/mol
# GULP energy per Si atom -5573.777368 kJ/mol
# Density = 1.942408 g / cm^3
# Si number density = 19.468388 Si / 1000 Ang^3
#
#
#
# Elastic Constant Matrix: (Units=GPa)
#
#
# Indices 1 2 3 4 5 6 
#
# 1 78.8403 25.3265 14.8852 0.0000 0.0000 0.0000
# 2 25.3265 105.2235 32.4165 0.0000 0.0000 0.0000
# 3 14.8852 32.4165 79.9851 0.0000 0.0000 0.0000
# 4 0.0000 0.0000 0.0000 13.2241 0.0000 0.0000
# 5 0.0000 0.0000 0.0000 0.0000 25.6284 0.0000
# 6 0.0000 0.0000 0.0000 0.0000 0.0000 22.6763
#
#
#
# Elastic Compliance Matrix: (Units=1/GPa)
#
#
# Indices 1 2 3 4 5 6 
#
# 1 0.013884 -0.002909 -0.001405 0.000000 0.000000 0.000000
# 2 -0.002909 0.011469 -0.004107 0.000000 0.000000 0.000000
# 3 -0.001405 -0.004107 0.014428 0.000000 0.000000 0.000000
# 4 0.000000 0.000000 0.000000 0.075619 0.000000 0.000000
# 5 0.000000 0.000000 0.000000 0.000000 0.039019 0.000000
# 6 0.000000 0.000000 0.000000 0.000000 0.000000 0.044099
#
#
# Mechanical properties :
#
#
# Convention : Reuss Voigt Hill
#
# Bulk Modulus (GPa) = 43.59262 45.47835 44.53548
# Shear Modulus (GPa) = 22.42097 25.06715 23.74406
#
# Velocity S-wave (km/s) = 3.39729 3.59218 3.49610
# Velocity P-wave (km/s) = 6.15052 6.37306 6.26278
#
# Compressibility (1/GPa) = 0.02293966
#
# Stress axis : x y z
#
# Youngs Moduli (GPa) = 72.02769 87.19215 69.30880
#
# Poissons Ratio (x) = 0.25363 0.09737
# Poissons Ratio (y) = 0.20952 0.28464
# Poissons Ratio (z) = 0.10119 0.35808
#
# Static dielectric constant tensor:
#      x y z
#    x 1.697950 0.000000 0.000000 
#    y 0.000000 1.681620 0.000000 
#    z 0.000000 0.000000 1.737710 
# 
# From -- ./inp_files/29492.got.cif
#   From: 2010.05.17/outbox.cif.g08.bks.cpg/sg62_15_cif.got.tgz:29492.got - 2010.06.03 15:25:27.
