data_PCOD9463928
_publ_section_title
;
Structure prediction by ZEFSAII (Michael W. Deem and Ramdas Pophale) SiO2 
 PCOD9463928
Probable space group: P N M A
;
_chemical_formula_sum "Si O2"
_cell_formula_units_Z 40
_cell_length_a 5.009871
_cell_length_b 22.082790
_cell_length_c 19.007274
_cell_angle_alpha 90.000000
_cell_angle_beta 90.000000
_cell_angle_gamma 90.000000
_cell_volume 2102.811392
_symmetry_space_group_name_H-M "P N M A"
_symmetry_group_IT_number 62
_symmetry_cell_setting 'orthorhombic'
loop_
_space_group_symop_operation_xyz
x,y,z
1/2-x,-y,1/2+z
1/2+x,1/2-y,1/2-z
-x,1/2+y,-z
-x,-y,-z
1/2+x,y,1/2-z
1/2-x,1/2+y,1/2+z
x,1/2-y,z
loop_
_atom_site_type_symbol
_atom_site_label
_atom_site_fract_x
_atom_site_fract_y
_atom_site_fract_z
Si Si1 0.038574 0.153686 0.706282
Si Si2 0.022356 0.180983 0.548649
Si Si3 0.797928 0.511589 0.565798
Si Si4 0.464242 0.896820 0.482618
Si Si5 0.424222 0.507778 0.206829
O O1 0.829590 0.171295 0.766577
O O2 0.048317 0.080556 0.698536
O O3 0.951671 0.179229 0.631355
O O4 0.039158 0.250000 0.524542
O O5 0.304194 0.146834 0.544376
O O6 0.800320 0.142746 0.506647
O O7 0.623075 0.450056 0.571303
O O8 0.597094 0.565516 0.546192
O O9 0.971568 0.520673 0.634847
O O10 0.000000 0.500000 0.500000
O O11 0.127502 0.491760 0.230201
#
# Coordination Sequence:
#
# PCOD9463928 Si02
#       5
#     8   8   8   8   8
#     4  10  20  33  51  72 108 155 200 234 273 327
#     4  12  24  39  54  78 116 150 201 251 280 329
#     4  11  22  38  65  83 119 152 200 242 291 376
#     4  11  23  37  59  84 106 153 199 231 304 332
#     4  10  22  33  54  85 120 150 186 239 295 339
#
# _framework density 19.022151999999998
#
# number of rings (size 3 to 8) (size 9 to 14) (size 15 to 20)
#    0.000    1.200    4.000    1.800   11.200    0.800 
#    0.000    0.000    0.000    0.000    0.000    0.000 
#    0.000   16.000    0.000    0.000    0.000    0.000 
#
# Total GULP energy -223584.045370 kJ/mol
# GULP energy per Si atom -5589.601134 kJ/mol
# Density = 1.897886 g / cm^3
# Si number density = 19.022152 Si / 1000 Ang^3
#
#
#
# Elastic Constant Matrix: (Units=GPa)
#
#
# Indices 1 2 3 4 5 6 
#
# 1 90.4189 26.3878 -0.5272 0.0000 0.0000 0.0000
# 2 26.3878 84.9718 8.7066 0.0000 0.0000 0.0000
# 3 -0.5272 8.7066 38.8667 0.0000 0.0000 0.0000
# 4 0.0000 0.0000 0.0000 13.6395 0.0000 0.0000
# 5 0.0000 0.0000 0.0000 0.0000 23.9151 0.0000
# 6 0.0000 0.0000 0.0000 0.0000 0.0000 6.4641
#
#
#
# Elastic Compliance Matrix: (Units=1/GPa)
#
#
# Indices 1 2 3 4 5 6 
#
# 1 0.012203 -0.003896 0.001038 0.000000 0.000000 0.000000
# 2 -0.003896 0.013289 -0.003030 0.000000 0.000000 0.000000
# 3 0.001038 -0.003030 0.026422 0.000000 0.000000 0.000000
# 4 0.000000 0.000000 0.000000 0.073316 0.000000 0.000000
# 5 0.000000 0.000000 0.000000 0.000000 0.041815 0.000000
# 6 0.000000 0.000000 0.000000 0.000000 0.000000 0.154701
#
#
# Mechanical properties :
#
#
# Convention : Reuss Voigt Hill
#
# Bulk Modulus (GPa) = 24.91368 31.48799 28.20084
# Shear Modulus (GPa) = 14.41339 20.78309 17.59824
#
# Velocity S-wave (km/s) = 2.75565 3.30900 3.04492
# Velocity P-wave (km/s) = 4.82187 5.58467 5.21723
#
# Compressibility (1/GPa) = 0.04013860
#
# Stress axis : x y z
#
# Youngs Moduli (GPa) = 81.94934 75.25074 37.84759
#
# Poissons Ratio (x) = 0.29317 -0.03930
# Poissons Ratio (y) = 0.31927 0.11467
# Poissons Ratio (z) = -0.08508 0.22799
#
# Static dielectric constant tensor:
#      x y z
#    x 1.695570 0.000000 0.000000 
#    y 0.000000 1.672850 0.000000 
#    z 0.000000 0.000000 1.672330 
# 
# From -- ./inp_files/21550.got.cif
#   From: 2010.05.17/outbox.cif.g08.bks.cpg/sg62_11_cif.got.tgz:21550.got - 2010.06.03 15:25:27.
