data_PCOD9463948
_publ_section_title
;
Structure prediction by ZEFSAII (Michael W. Deem and Ramdas Pophale) SiO2 
 PCOD9463948
Probable space group: P N M A
;
_chemical_formula_sum "Si O2"
_cell_formula_units_Z 56
_cell_length_a 14.090445
_cell_length_b 9.395602
_cell_length_c 20.405609
_cell_angle_alpha 90.000000
_cell_angle_beta 90.000000
_cell_angle_gamma 90.000000
_cell_volume 2701.462115
_symmetry_space_group_name_H-M "P N M A"
_symmetry_group_IT_number 62
_symmetry_cell_setting 'orthorhombic'
loop_
_space_group_symop_operation_xyz
x,y,z
1/2-x,-y,1/2+z
1/2+x,1/2-y,1/2-z
-x,1/2+y,-z
-x,-y,-z
1/2+x,y,1/2-z
1/2-x,1/2+y,1/2+z
x,1/2-y,z
loop_
_atom_site_type_symbol
_atom_site_label
_atom_site_fract_x
_atom_site_fract_y
_atom_site_fract_z
Si Si1 0.097934 0.406416 0.935317
Si Si2 0.875011 0.414670 0.190824
Si Si3 0.497317 0.077041 0.070886
Si Si4 0.145898 0.412605 0.316445
Si Si5 0.379093 0.408923 0.547724
Si Si6 0.881713 0.914061 0.320794
Si Si7 0.653796 0.911151 0.310643
O O1 0.137301 0.250000 0.920708
O O2 0.088157 0.499683 0.870989
O O3 0.991354 0.388260 0.962068
O O4 0.156725 0.491838 0.989749
O O5 0.903612 0.250000 0.192125
O O6 0.760338 0.419034 0.181009
O O7 0.906731 0.494901 0.256416
O O8 0.485323 0.250000 0.064806
O O9 0.592088 0.051575 0.115867
O O10 0.416488 0.001382 0.115727
O O11 0.500000 0.000000 0.000000
O O12 0.119167 0.250000 0.301055
O O13 0.121506 0.510918 0.254639
O O14 0.334709 0.250000 0.547351
O O15 0.370250 0.477368 0.619153
O O16 0.917295 0.750000 0.321532
O O17 0.767888 0.905472 0.314015
O O18 0.615043 0.750000 0.311028
#
# Coordination Sequence:
#
# PCOD9463948 Si02
#       7
#     8   8   8   8   8   8   8
#     4  10  20  33  51  80 113 145 184 226 271 329
#     4  10  20  37  59  82 112 149 187 233 285 337
#     4  11  24  42  61  86 117 155 198 242 295 350
#     4   9  21  39  58  82 111 145 190 236 281 338
#     4   9  19  35  52  76 110 147 183 222 272 330
#     4  10  21  38  59  85 114 145 187 237 285 341
#     4   9  19  36  59  84 111 147 189 233 285 339
#
# _framework density 20.729514999999999
#
# number of rings (size 3 to 8) (size 9 to 14) (size 15 to 20)
#    0.000    2.286    0.000    1.714    2.000    4.571 
#    0.000    5.714    0.000    0.000    0.000    0.000 
#    0.000    0.000    0.000    0.000    0.000    0.000 
#
# Total GULP energy -312181.933244 kJ/mol
# GULP energy per Si atom -5574.677379 kJ/mol
# Density = 2.068233 g / cm^3
# Si number density = 20.729515 Si / 1000 Ang^3
#
#
#
# Elastic Constant Matrix: (Units=GPa)
#
#
# Indices 1 2 3 4 5 6 
#
# 1 39.2059 19.8143 15.5045 0.0000 0.0000 0.0000
# 2 19.8143 145.3640 100.8128 0.0000 0.0000 0.0000
# 3 15.5045 100.8128 181.3212 0.0000 0.0000 0.0000
# 4 0.0000 0.0000 0.0000 42.9251 0.0000 0.0000
# 5 0.0000 0.0000 0.0000 0.0000 36.0093 0.0000
# 6 0.0000 0.0000 0.0000 0.0000 0.0000 8.2207
#
#
#
# Elastic Compliance Matrix: (Units=1/GPa)
#
#
# Indices 1 2 3 4 5 6 
#
# 1 0.027414 -0.003436 -0.000434 0.000000 0.000000 0.000000
# 2 -0.003436 0.011627 -0.006171 0.000000 0.000000 0.000000
# 3 -0.000434 -0.006171 0.008983 0.000000 0.000000 0.000000
# 4 0.000000 0.000000 0.000000 0.023296 0.000000 0.000000
# 5 0.000000 0.000000 0.000000 0.000000 0.027771 0.000000
# 6 0.000000 0.000000 0.000000 0.000000 0.000000 0.121644
#
#
# Mechanical properties :
#
#
# Convention : Reuss Voigt Hill
#
# Bulk Modulus (GPa) = 35.78641 70.90603 53.34622
# Shear Modulus (GPa) = 19.98953 32.74833 26.36893
#
# Velocity S-wave (km/s) = 3.10869 3.97897 3.57045
# Velocity P-wave (km/s) = 5.49420 7.44239 6.54123
#
# Compressibility (1/GPa) = 0.02794357
#
# Stress axis : x y z
#
# Youngs Moduli (GPa) = 36.47714 86.00519 111.32039
#
# Poissons Ratio (x) = 0.29551 0.04829
# Poissons Ratio (y) = 0.12533 0.68694
# Poissons Ratio (z) = 0.01582 0.53072
#
# Static dielectric constant tensor:
#      x y z
#    x 1.808560 0.000000 0.000000 
#    y 0.000000 1.789530 0.000000 
#    z 0.000000 0.000000 1.720220 
# 
# From -- ./inp_files/27245.got.cif
#   From: 2010.05.17/outbox.cif.g08.bks.cpg/sg62_14_cif.got.tgz:27245.got - 2010.06.03 15:25:27.
