data_PCOD9463071
_publ_section_title
;
Structure prediction by ZEFSAII (Michael W. Deem and Ramdas Pophale) SiO2 
 PCOD9463071
Probable space group: P N M A
;
_chemical_formula_sum "Si O2"
_cell_formula_units_Z 64
_cell_length_a 19.679096
_cell_length_b 8.626266
_cell_length_c 23.730668
_cell_angle_alpha 90.000000
_cell_angle_beta 90.000000
_cell_angle_gamma 90.000000
_cell_volume 4028.449778
_symmetry_space_group_name_H-M "P N M A"
_symmetry_group_IT_number 62
_symmetry_cell_setting 'orthorhombic'
loop_
_space_group_symop_operation_xyz
x,y,z
1/2-x,-y,1/2+z
1/2+x,1/2-y,1/2-z
-x,1/2+y,-z
-x,-y,-z
1/2+x,y,1/2-z
1/2-x,1/2+y,1/2+z
x,1/2-y,z
loop_
_atom_site_type_symbol
_atom_site_label
_atom_site_fract_x
_atom_site_fract_y
_atom_site_fract_z
Si Si1 0.144271 0.935391 0.563891
Si Si2 0.500545 0.935823 0.250652
Si Si3 0.363380 0.935438 0.938700
Si Si4 0.265676 0.564103 0.160714
Si Si5 0.643374 0.434339 0.272820
Si Si6 0.997268 0.437030 0.375897
Si Si7 0.280025 0.063676 0.836665
Si Si8 0.149732 0.062042 0.771017
O O1 0.149049 0.750000 0.565472
O O2 0.071919 0.980069 0.591967
O O3 0.146272 0.992912 0.500038
O O4 0.203329 0.006981 0.602361
O O5 0.505220 0.750000 0.254870
O O6 0.427888 0.989524 0.275299
O O7 0.566114 0.011198 0.279145
O O8 0.500620 0.983568 0.184895
O O9 0.361400 0.750000 0.942680
O O10 0.436882 0.979794 0.912718
O O11 0.307536 0.992932 0.894152
O O12 0.260993 0.750000 0.161747
O O13 0.193475 0.493235 0.178280
O O14 0.317792 0.515141 0.210873
O O15 0.646851 0.250000 0.267977
O O16 0.672123 0.508338 0.214808
O O17 0.998236 0.250000 0.367976
O O18 0.282675 0.250000 0.839324
O O19 0.203808 0.014790 0.818548
O O20 0.148729 0.250000 0.770873
#
# Coordination Sequence:
#
# PCOD9463071 Si02
#       8
#     8   8   8   8   8   8   8   8
#     4  11  22  35  51  73 101 138 177 215 256 299
#     4  11  19  31  52  76 101 137 171 205 253 304
#     4  11  22  35  50  71 101 139 178 215 250 297
#     4  10  19  35  53  73  98 132 172 213 255 302
#     4  11  21  33  49  74 104 133 166 210 256 305
#     4  10  21  34  47  70 104 138 176 213 249 294
#     4  10  19  34  52  73  98 131 171 213 255 302
#     4   8  17  31  50  74  99 126 164 208 253 300
#
# _framework density 15.887003999999999
#
# number of rings (size 3 to 8) (size 9 to 14) (size 15 to 20)
#    0.000    1.750    2.500    4.125    0.000    1.000 
#    0.000    1.875    0.000    0.000    0.000    0.875 
#    0.000    0.000    0.000    0.000    0.000    0.000 
#
# Total GULP energy -357298.164139 kJ/mol
# GULP energy per Si atom -5582.783815 kJ/mol
# Density = 1.585084 g / cm^3
# Si number density = 15.887004 Si / 1000 Ang^3
#
#
#
# Elastic Constant Matrix: (Units=GPa)
#
#
# Indices 1 2 3 4 5 6 
#
# 1 128.1569 18.8829 45.5222 0.0000 0.0000 0.0000
# 2 18.8829 33.2352 12.7138 0.0000 0.0000 0.0000
# 3 45.5222 12.7138 66.2858 0.0000 0.0000 0.0000
# 4 0.0000 0.0000 0.0000 25.3969 0.0000 0.0000
# 5 0.0000 0.0000 0.0000 0.0000 20.6549 0.0000
# 6 0.0000 0.0000 0.0000 0.0000 0.0000 20.8524
#
#
#
# Elastic Compliance Matrix: (Units=1/GPa)
#
#
# Indices 1 2 3 4 5 6 
#
# 1 0.010690 -0.003524 -0.006665 0.000000 0.000000 0.000000
# 2 -0.003524 0.033633 -0.004031 0.000000 0.000000 0.000000
# 3 -0.006665 -0.004031 0.020437 0.000000 0.000000 0.000000
# 4 0.000000 0.000000 0.000000 0.039375 0.000000 0.000000
# 5 0.000000 0.000000 0.000000 0.000000 0.048415 0.000000
# 6 0.000000 0.000000 0.000000 0.000000 0.000000 0.047956
#
#
# Mechanical properties :
#
#
# Convention : Reuss Voigt Hill
#
# Bulk Modulus (GPa) = 27.53370 42.43508 34.98439
# Shear Modulus (GPa) = 20.74250 23.41811 22.08030
#
# Velocity S-wave (km/s) = 3.61727 3.84349 3.73209
# Velocity P-wave (km/s) = 5.90040 6.81653 6.37494
#
# Compressibility (1/GPa) = 0.03631913
#
# Stress axis : x y z
#
# Youngs Moduli (GPa) = 93.54798 29.73312 48.93134
#
# Poissons Ratio (x) = 0.10477 0.32615
# Poissons Ratio (y) = 0.32963 0.19724
# Poissons Ratio (z) = 0.62353 0.11985
#
# Static dielectric constant tensor:
#      x y z
#    x 1.546290 0.000000 0.000000 
#    y 0.000000 1.531960 0.000000 
#    z 0.000000 0.000000 1.494990 
# 
# From -- ./inp_files/27975.got.cif
#   From: 2010.05.17/outbox.cif.g08.bks.cpg/sg62_14_cif.got.tgz:27975.got - 2010.06.03 15:25:27.
