data_PCOD9463656
_publ_section_title
;
Structure prediction by ZEFSAII (Michael W. Deem and Ramdas Pophale) SiO2 
 PCOD9463656
Probable space group: P N M A
;
_chemical_formula_sum "Si O2"
_cell_formula_units_Z 64
_cell_length_a 19.922038
_cell_length_b 8.576588
_cell_length_c 20.352506
_cell_angle_alpha 90.000000
_cell_angle_beta 90.000000
_cell_angle_gamma 90.000000
_cell_volume 3477.492513
_symmetry_space_group_name_H-M "P N M A"
_symmetry_group_IT_number 62
_symmetry_cell_setting 'orthorhombic'
loop_
_space_group_symop_operation_xyz
x,y,z
1/2-x,-y,1/2+z
1/2+x,1/2-y,1/2-z
-x,1/2+y,-z
-x,-y,-z
1/2+x,y,1/2-z
1/2-x,1/2+y,1/2+z
x,1/2-y,z
loop_
_atom_site_type_symbol
_atom_site_label
_atom_site_fract_x
_atom_site_fract_y
_atom_site_fract_z
Si Si1 0.793380 0.937054 0.512071
Si Si2 0.222334 0.437253 0.857931
Si Si3 0.244005 0.935350 0.716710
Si Si4 0.466899 0.061740 0.565940
Si Si5 0.598576 0.437482 0.820843
Si Si6 0.316548 0.438312 0.596876
Si Si7 0.935063 0.064279 0.462291
Si Si8 0.429262 0.560623 0.324992
O O1 0.798156 0.750000 0.511932
O O2 0.741365 0.984000 0.454529
O O3 0.761474 0.993277 0.580415
O O4 0.866417 0.005606 0.496479
O O5 0.224142 0.250000 0.861132
O O6 0.252934 0.494201 0.789033
O O7 0.143632 0.486907 0.853724
O O8 0.237436 0.750000 0.720534
O O9 0.175508 0.007662 0.686907
O O10 0.301640 0.985515 0.666758
O O11 0.468797 0.250000 0.565170
O O12 0.389541 0.014473 0.571258
O O13 0.510997 0.007633 0.628142
O O14 0.500000 0.000000 0.500000
O O15 0.597526 0.250000 0.825346
O O16 0.567350 0.506459 0.886767
O O17 0.565505 0.486681 0.751334
O O18 0.314800 0.250000 0.603385
O O19 0.936213 0.250000 0.463374
O O20 0.000000 0.000000 0.500000
O O21 0.429022 0.750000 0.324780
#
# Coordination Sequence:
#
# PCOD9463656 Si02
#       8
#     8   8   8   8   8   8   8   8
#     4  11  22  38  60  88 120 154 195 247 297 356
#     4  10  20  36  59  86 118 156 197 246 300 354
#     4  11  21  35  58  85 114 150 197 245 294 356
#     4  10  20  36  56  84 118 157 196 239 290 348
#     4  10  19  37  62  86 115 152 196 247 296 354
#     4  10  21  36  58  84 119 158 195 242 297 351
#     4  12  25  42  63  88 116 155 197 245 304 362
#     4   8  17  34  58  85 117 157 200 241 288 347
#
# _framework density 18.404067000000001
#
# number of rings (size 3 to 8) (size 9 to 14) (size 15 to 20)
#    0.000    1.750    1.250    4.875    0.000    1.000 
#    2.250    3.125    0.000    0.000    0.000    0.000 
#    0.000    0.000    0.000    0.000    0.000    0.000 
#
# Total GULP energy -357477.331453 kJ/mol
# GULP energy per Si atom -5585.583304 kJ/mol
# Density = 1.836218 g / cm^3
# Si number density = 18.404067 Si / 1000 Ang^3
#
#
#
# Elastic Constant Matrix: (Units=GPa)
#
#
# Indices 1 2 3 4 5 6 
#
# 1 130.1751 41.3851 79.6399 0.0000 0.0000 0.0000
# 2 41.3851 65.5309 34.5127 0.0000 0.0000 0.0000
# 3 79.6399 34.5127 135.7469 0.0000 0.0000 0.0000
# 4 0.0000 0.0000 0.0000 29.7400 0.0000 0.0000
# 5 0.0000 0.0000 0.0000 0.0000 31.8947 0.0000
# 6 0.0000 0.0000 0.0000 0.0000 0.0000 20.8540
#
#
#
# Elastic Compliance Matrix: (Units=1/GPa)
#
#
# Indices 1 2 3 4 5 6 
#
# 1 0.013231 -0.004927 -0.006510 0.000000 0.000000 0.000000
# 2 -0.004927 0.019454 -0.002055 0.000000 0.000000 0.000000
# 3 -0.006510 -0.002055 0.011708 0.000000 0.000000 0.000000
# 4 0.000000 0.000000 0.000000 0.033625 0.000000 0.000000
# 5 0.000000 0.000000 0.000000 0.000000 0.031353 0.000000
# 6 0.000000 0.000000 0.000000 0.000000 0.000000 0.047952
#
#
# Mechanical properties :
#
#
# Convention : Reuss Voigt Hill
#
# Bulk Modulus (GPa) = 57.44204 71.39204 64.41704
# Shear Modulus (GPa) = 26.30037 28.22543 27.26290
#
# Velocity S-wave (km/s) = 3.78438 3.92044 3.85301
# Velocity P-wave (km/s) = 7.09752 7.70511 7.40755
#
# Compressibility (1/GPa) = 0.01740885
#
# Stress axis : x y z
#
# Youngs Moduli (GPa) = 75.58012 51.40260 85.41004
#
# Poissons Ratio (x) = 0.25329 0.55598
# Poissons Ratio (y) = 0.37242 0.17554
# Poissons Ratio (z) = 0.49199 0.10565
#
# Static dielectric constant tensor:
#      x y z
#    x 1.620010 0.000000 0.000000 
#    y 0.000000 1.623700 0.000000 
#    z 0.000000 0.000000 1.620880 
# 
# From -- ./inp_files/24808.got.cif
#   From: 2010.05.17/outbox.cif.g08.bks.cpg/sg62_13_cif.got.tgz:24808.got - 2010.06.03 15:25:27.
