data_PCOD9463352
_publ_section_title
;
Structure prediction by ZEFSAII (Michael W. Deem and Ramdas Pophale) SiO2 
 PCOD9463352
Probable space group: P N M A
;
_chemical_formula_sum "Si O2"
_cell_formula_units_Z 64
_cell_length_a 20.961828
_cell_length_b 8.963591
_cell_length_c 19.704363
_cell_angle_alpha 90.000000
_cell_angle_beta 90.000000
_cell_angle_gamma 90.000000
_cell_volume 3702.316859
_symmetry_space_group_name_H-M "P N M A"
_symmetry_group_IT_number 62
_symmetry_cell_setting 'orthorhombic'
loop_
_space_group_symop_operation_xyz
x,y,z
1/2-x,-y,1/2+z
1/2+x,1/2-y,1/2-z
-x,1/2+y,-z
-x,-y,-z
1/2+x,y,1/2-z
1/2-x,1/2+y,1/2+z
x,1/2-y,z
loop_
_atom_site_type_symbol
_atom_site_label
_atom_site_fract_x
_atom_site_fract_y
_atom_site_fract_z
Si Si1 0.438872 0.928289 0.535482
Si Si2 0.688346 0.428492 0.548879
Si Si3 0.110786 0.927837 0.169836
Si Si4 0.882039 0.430177 0.676421
Si Si5 0.939331 0.070997 0.535743
Si Si6 0.761652 0.572427 0.322024
Si Si7 0.242182 0.572256 0.820932
Si Si8 0.689490 0.571263 0.955321
O O1 0.444872 0.750000 0.536712
O O2 0.375739 0.966443 0.491677
O O3 0.500000 0.000000 0.500000
O O4 0.427253 0.988266 0.611428
O O5 0.689150 0.250000 0.561235
O O6 0.697105 0.513724 0.619249
O O7 0.749510 0.464259 0.502163
O O8 0.102289 0.750000 0.161465
O O9 0.094022 0.967247 0.247818
O O10 0.186630 0.960458 0.163283
O O11 0.872447 0.250000 0.674283
O O12 0.927745 0.472515 0.614303
O O13 0.813010 0.504965 0.666572
O O14 0.945576 0.250000 0.534147
O O15 0.874949 0.031818 0.494877
O O16 0.000000 0.000000 0.500000
O O17 0.767398 0.750000 0.313816
O O18 0.778406 0.491280 0.252021
O O19 0.802302 0.512990 0.384672
O O20 0.245053 0.750000 0.819874
O O21 0.690004 0.750000 0.943863
#
# Coordination Sequence:
#
# PCOD9463352 Si02
#       8
#     8   8   8   8   8   8   8   8
#     4  11  23  38  58  82 113 149 185 229 280 336
#     4  10  20  37  58  80 111 148 185 226 281 333
#     4   9  18  33  56  82 109 142 186 229 273 331
#     4   9  18  36  57  80 111 149 185 227 282 334
#     4  10  21  37  57  81 115 152 187 231 278 330
#     4  10  20  34  55  83 116 149 184 231 284 337
#     4  11  21  32  54  86 115 144 186 237 281 330
#     4  10  19  35  58  82 111 145 188 234 276 325
#
# _framework density 17.286473000000001
#
# number of rings (size 3 to 8) (size 9 to 14) (size 15 to 20)
#    0.000    2.000    2.500    2.625    0.000    4.500 
#    0.000    1.250    0.000    4.500    0.000    0.000 
#    0.000    0.000    0.000    0.000    0.000    0.000 
#
# Total GULP energy -357251.335419 kJ/mol
# GULP energy per Si atom -5582.052116 kJ/mol
# Density = 1.724713 g / cm^3
# Si number density = 17.286473 Si / 1000 Ang^3
#
#
#
# Elastic Constant Matrix: (Units=GPa)
#
#
# Indices 1 2 3 4 5 6 
#
# 1 108.4290 44.2443 78.2873 0.0000 0.0000 0.0000
# 2 44.2443 42.4631 65.1116 0.0000 0.0000 0.0000
# 3 78.2873 65.1116 176.2573 0.0000 0.0000 0.0000
# 4 0.0000 0.0000 0.0000 33.8572 0.0000 0.0000
# 5 0.0000 0.0000 0.0000 0.0000 25.1058 0.0000
# 6 0.0000 0.0000 0.0000 0.0000 0.0000 25.6347
#
#
#
# Elastic Compliance Matrix: (Units=1/GPa)
#
#
# Indices 1 2 3 4 5 6 
#
# 1 0.016420 -0.013668 -0.002244 0.000000 0.000000 0.000000
# 2 -0.013668 0.065695 -0.018198 0.000000 0.000000 0.000000
# 3 -0.002244 -0.018198 0.013393 0.000000 0.000000 0.000000
# 4 0.000000 0.000000 0.000000 0.029536 0.000000 0.000000
# 5 0.000000 0.000000 0.000000 0.000000 0.039831 0.000000
# 6 0.000000 0.000000 0.000000 0.000000 0.000000 0.039010
#
#
# Mechanical properties :
#
#
# Convention : Reuss Voigt Hill
#
# Bulk Modulus (GPa) = 36.64570 78.04843 57.34707
# Shear Modulus (GPa) = 17.78097 26.21994 22.00046
#
# Velocity S-wave (km/s) = 3.21067 3.89882 3.57136
# Velocity P-wave (km/s) = 5.91520 8.09418 7.08891
#
# Compressibility (1/GPa) = 0.02728833
#
# Stress axis : x y z
#
# Youngs Moduli (GPa) = 60.90121 15.22196 74.66705
#
# Poissons Ratio (x) = 0.20805 0.16757
# Poissons Ratio (y) = 0.83237 1.35877
# Poissons Ratio (z) = 0.13668 0.27700
#
# Static dielectric constant tensor:
#      x y z
#    x 1.559650 0.000000 0.000000 
#    y 0.000000 1.576620 0.000000 
#    z 0.000000 0.000000 1.589820 
# 
# From -- ./inp_files/24768.got.cif
#   From: 2010.05.17/outbox.cif.g08.bks.cpg/sg62_13_cif.got.tgz:24768.got - 2010.06.03 15:25:27.
