data_PCOD9463406
_publ_section_title
;
Structure prediction by ZEFSAII (Michael W. Deem and Ramdas Pophale) SiO2 
 PCOD9463406
Probable space group: P N M A
;
_chemical_formula_sum "Si O2"
_cell_formula_units_Z 64
_cell_length_a 20.039287
_cell_length_b 8.370932
_cell_length_c 20.605336
_cell_angle_alpha 90.000000
_cell_angle_beta 90.000000
_cell_angle_gamma 90.000000
_cell_volume 3456.493782
_symmetry_space_group_name_H-M "P N M A"
_symmetry_group_IT_number 62
_symmetry_cell_setting 'orthorhombic'
loop_
_space_group_symop_operation_xyz
x,y,z
1/2-x,-y,1/2+z
1/2+x,1/2-y,1/2-z
-x,1/2+y,-z
-x,-y,-z
1/2+x,y,1/2-z
1/2-x,1/2+y,1/2+z
x,1/2-y,z
loop_
_atom_site_type_symbol
_atom_site_label
_atom_site_fract_x
_atom_site_fract_y
_atom_site_fract_z
Si Si1 0.929348 0.057096 0.827925
Si Si2 0.904289 0.055655 0.683613
Si Si3 0.753143 0.055756 0.715827
Si Si4 0.291202 0.442523 0.010462
Si Si5 0.532233 0.939042 0.566302
Si Si6 0.221581 0.943202 0.140654
Si Si7 0.935935 0.443523 0.539812
Si Si8 0.320537 0.943193 0.407689
O O1 0.929195 0.250000 0.827537
O O2 0.934902 0.003664 0.752683
O O3 0.856650 0.007509 0.856261
O O4 0.988227 0.999239 0.873490
O O5 0.906623 0.250000 0.683146
O O6 0.826101 0.011542 0.688298
O O7 0.935109 0.002054 0.615371
O O8 0.752286 0.250000 0.717065
O O9 0.747988 0.003560 0.790181
O O10 0.697977 0.002212 0.664923
O O11 0.292485 0.250000 0.008023
O O12 0.262487 0.493848 0.079801
O O13 0.366061 0.497093 0.993071
O O14 0.237998 0.496976 0.956244
O O15 0.531552 0.750000 0.565908
O O16 0.500000 0.000000 0.500000
O O17 0.607698 0.998561 0.571051
O O18 0.222375 0.750000 0.138461
O O19 0.935893 0.250000 0.540208
O O20 0.000000 0.500000 0.500000
O O21 0.320609 0.750000 0.408264
#
# Coordination Sequence:
#
# PCOD9463406 Si02
#       8
#     8   8   8   8   8   8   8   8
#     4   9  18  35  59  84 109 143 185 231 272 316
#     4   8  14  31  59  82 103 137 185 226 262 315
#     4   8  14  30  56  81 101 130 177 223 261 311
#     4  10  20  34  55  81 109 142 177 218 271 326
#     4  12  25  39  54  78 113 148 183 224 273 329
#     4   9  18  32  55  84 110 137 176 225 268 314
#     4  10  20  36  56  80 108 142 182 224 269 323
#     4  10  19  35  60  82 104 140 185 228 270 321
#
# _framework density 18.515872999999999
#
# number of rings (size 3 to 8) (size 9 to 14) (size 15 to 20)
#    0.000    2.500    1.250    3.375    0.000    3.500 
#    2.250    1.250    0.000    1.500    0.000    0.000 
#    0.000    0.000    0.000    0.000    0.000    0.000 
#
# Total GULP energy -356952.937081 kJ/mol
# GULP energy per Si atom -5577.389642 kJ/mol
# Density = 1.847373 g / cm^3
# Si number density = 18.515873 Si / 1000 Ang^3
#
#
#
# Elastic Constant Matrix: (Units=GPa)
#
#
# Indices 1 2 3 4 5 6 
#
# 1 149.7625 22.7666 99.9391 0.0000 0.0000 0.0000
# 2 22.7666 9.9723 22.8271 0.0000 0.0000 0.0000
# 3 99.9391 22.8271 159.7596 0.0000 0.0000 0.0000
# 4 0.0000 0.0000 0.0000 20.9173 0.0000 0.0000
# 5 0.0000 0.0000 0.0000 0.0000 32.0507 0.0000
# 6 0.0000 0.0000 0.0000 0.0000 0.0000 24.0978
#
#
#
# Elastic Compliance Matrix: (Units=1/GPa)
#
#
# Indices 1 2 3 4 5 6 
#
# 1 0.013070 -0.016530 -0.005814 0.000000 0.000000 0.000000
# 2 -0.016530 0.169922 -0.013939 0.000000 0.000000 0.000000
# 3 -0.005814 -0.013939 0.011888 0.000000 0.000000 0.000000
# 4 0.000000 0.000000 0.000000 0.047807 0.000000 0.000000
# 5 0.000000 0.000000 0.000000 0.000000 0.031201 0.000000
# 6 0.000000 0.000000 0.000000 0.000000 0.000000 0.041498
#
#
# Mechanical properties :
#
#
# Convention : Reuss Voigt Hill
#
# Bulk Modulus (GPa) = 8.17562 67.84001 38.00782
# Shear Modulus (GPa) = 11.66254 27.01060 19.33657
#
# Velocity S-wave (km/s) = 2.51244 3.82354 3.23511
# Velocity P-wave (km/s) = 3.58351 7.49740 5.87591
#
# Compressibility (1/GPa) = 0.12231493
#
# Stress axis : x y z
#
# Youngs Moduli (GPa) = 76.51130 5.88504 84.11700
#
# Poissons Ratio (x) = 0.09728 0.48908
# Poissons Ratio (y) = 1.26470 1.17250
# Poissons Ratio (z) = 0.44485 0.08203
#
# Static dielectric constant tensor:
#      x y z
#    x 1.615500 0.000000 0.000000 
#    y 0.000000 1.649860 0.000000 
#    z 0.000000 0.000000 1.644440 
# 
# From -- ./inp_files/27675.got.cif
#   From: 2010.05.17/outbox.cif.g08.bks.cpg/sg62_14_cif.got.tgz:27675.got - 2010.06.03 15:25:27.
