data_PCOD9463884
_publ_section_title
;
Structure prediction by ZEFSAII (Michael W. Deem and Ramdas Pophale) SiO2 
 PCOD9463884
Probable space group: P N M A
;
_chemical_formula_sum "Si O2"
_cell_formula_units_Z 48
_cell_length_a 7.195914
_cell_length_b 11.908990
_cell_length_c 25.673589
_cell_angle_alpha 90.000000
_cell_angle_beta 90.000000
_cell_angle_gamma 90.000000
_cell_volume 2200.125625
_symmetry_space_group_name_H-M "P N M A"
_symmetry_group_IT_number 62
_symmetry_cell_setting 'orthorhombic'
loop_
_space_group_symop_operation_xyz
x,y,z
1/2-x,-y,1/2+z
1/2+x,1/2-y,1/2-z
-x,1/2+y,-z
-x,-y,-z
1/2+x,y,1/2-z
1/2-x,1/2+y,1/2+z
x,1/2-y,z
loop_
_atom_site_type_symbol
_atom_site_label
_atom_site_fract_x
_atom_site_fract_y
_atom_site_fract_z
Si Si1 0.296531 0.250000 0.322605
Si Si2 0.725062 0.250000 0.294985
Si Si3 0.760956 0.377042 0.794156
Si Si4 0.141826 0.944949 0.897605
Si Si5 0.945686 0.884612 0.531435
Si Si6 0.302986 0.875964 0.319937
Si Si7 0.797617 0.441236 0.370753
O O1 0.515372 0.250000 0.313387
O O2 0.211946 0.250000 0.266325
O O3 0.267135 0.141286 0.356668
O O4 0.814194 0.357050 0.322029
O O5 0.689576 0.250000 0.788431
O O6 0.762181 0.428234 0.735524
O O7 0.661201 0.441556 0.841337
O O8 0.974779 0.373612 0.811148
O O9 0.230797 0.907092 0.951822
O O10 0.917687 0.941369 0.891913
O O11 0.217087 0.061671 0.874698
O O12 0.963274 0.750000 0.514407
O O13 0.074809 0.899648 0.582592
O O14 0.000000 0.000000 0.500000
O O15 0.229639 0.750000 0.323083
#
# Coordination Sequence:
#
# PCOD9463884 Si02
#       7
#     4   4   8   8   8   8   8
#     4  10  20  32  58  94 130 172 202 243 323 395
#     4  10  20  32  58  94 130 172 202 243 323 395
#     4   9  18  32  53  87 130 175 215 256 316 393
#     4  10  22  41  62  91 130 167 211 271 328 401
#     4  12  28  48  72  96 124 168 230 294 348 394
#     4   9  18  32  53  87 130 175 215 256 316 393
#     4  10  22  41  62  91 130 167 211 271 328 401
#
# _framework density 21.816935999999998
#
# number of rings (size 3 to 8) (size 9 to 14) (size 15 to 20)
#    0.000    2.000    1.667    1.000    4.667    2.000 
#    0.000    0.000    0.000    0.000    0.000    0.000 
#    0.000    0.000    0.000    0.000    0.000    0.000 
#
# Total GULP energy -267350.166302 kJ/mol
# GULP energy per Si atom -5569.795131 kJ/mol
# Density = 2.176728 g / cm^3
# Si number density = 21.816936 Si / 1000 Ang^3
#
#
#
# Elastic Constant Matrix: (Units=GPa)
#
#
# Indices 1 2 3 4 5 6 
#
# 1 55.1892 8.5670 8.0432 0.0000 0.0000 0.0000
# 2 8.5670 94.3454 21.8884 0.0000 0.0000 0.0000
# 3 8.0432 21.8884 31.6263 0.0000 0.0000 0.0000
# 4 0.0000 0.0000 0.0000 113.3618 0.0000 0.0000
# 5 0.0000 0.0000 0.0000 0.0000 32.2939 0.0000
# 6 0.0000 0.0000 0.0000 0.0000 0.0000 41.1169
#
#
#
# Elastic Compliance Matrix: (Units=1/GPa)
#
#
# Indices 1 2 3 4 5 6 
#
# 1 0.018857 -0.000714 -0.004301 0.000000 0.000000 0.000000
# 2 -0.000714 0.012654 -0.008576 0.000000 0.000000 0.000000
# 3 -0.004301 -0.008576 0.038649 0.000000 0.000000 0.000000
# 4 0.000000 0.000000 0.000000 0.008821 0.000000 0.000000
# 5 0.000000 0.000000 0.000000 0.000000 0.030966 0.000000
# 6 0.000000 0.000000 0.000000 0.000000 0.000000 0.024321
#
#
# Mechanical properties :
#
#
# Convention : Reuss Voigt Hill
#
# Bulk Modulus (GPa) = 23.26870 28.68424 25.97647
# Shear Modulus (GPa) = 28.44522 46.86533 37.65528
#
# Velocity S-wave (km/s) = 3.61475 4.63981 4.15898
# Velocity P-wave (km/s) = 5.30193 6.47147 5.91568
#
# Compressibility (1/GPa) = 0.04297619
#
# Stress axis : x y z
#
# Youngs Moduli (GPa) = 53.02996 79.02718 25.87419
#
# Poissons Ratio (x) = 0.05646 0.11129
# Poissons Ratio (y) = 0.03788 0.22190
# Poissons Ratio (z) = 0.22810 0.67774
#
# Static dielectric constant tensor:
#      x y z
#    x 1.854740 0.000000 0.000000 
#    y 0.000000 1.902340 0.000000 
#    z 0.000000 0.000000 1.573170 
# 
# From -- ./inp_files/28830.got.cif
#   From: 2010.05.17/outbox.cif.g08.bks.cpg/sg62_15_cif.got.tgz:28830.got - 2010.06.03 15:25:27.
