data_PCOD9463886
_publ_section_title
;
Structure prediction by ZEFSAII (Michael W. Deem and Ramdas Pophale) SiO2 
 PCOD9463886
Probable space group: P N M A
;
_chemical_formula_sum "Si O2"
_cell_formula_units_Z 40
_cell_length_a 24.968339
_cell_length_b 14.531294
_cell_length_c 5.203081
_cell_angle_alpha 90.000000
_cell_angle_beta 90.000000
_cell_angle_gamma 90.000000
_cell_volume 1887.793684
_symmetry_space_group_name_H-M "P N M A"
_symmetry_group_IT_number 62
_symmetry_cell_setting 'orthorhombic'
loop_
_space_group_symop_operation_xyz
x,y,z
1/2-x,-y,1/2+z
1/2+x,1/2-y,1/2-z
-x,1/2+y,-z
-x,-y,-z
1/2+x,y,1/2-z
1/2-x,1/2+y,1/2+z
x,1/2-y,z
loop_
_atom_site_type_symbol
_atom_site_label
_atom_site_fract_x
_atom_site_fract_y
_atom_site_fract_z
Si Si1 0.237895 0.553728 0.328160
Si Si2 0.547280 0.023310 0.697643
Si Si3 0.873758 0.088722 0.951069
Si Si4 0.675226 0.750000 0.752736
Si Si5 0.255825 0.250000 0.748294
Si Si6 0.967838 0.146536 0.581734
O O1 0.238890 0.517098 0.617829
O O2 0.177639 0.571588 0.226245
O O3 0.269232 0.650757 0.303283
O O4 0.603285 0.007948 0.555753
O O5 0.500000 0.000000 0.500000
O O6 0.527355 0.118949 0.816664
O O7 0.545401 0.938913 0.897454
O O8 0.922213 0.137938 0.799693
O O9 0.856762 0.158549 0.176717
O O10 0.723976 0.750000 0.545695
O O11 0.695333 0.750000 0.042632
O O12 0.967018 0.250000 0.475765
#
# Coordination Sequence:
#
# PCOD9463886 Si02
#       6
#     8   8   8   4   4   8
#     4  11  24  40  63  94 128 168 208 264 320 372
#     4   9  21  35  53  88 121 155 196 254 306 382
#     4  10  21  34  60  91 123 157 203 254 318 369
#     4  10  20  32  60  98 118 154 197 267 314 356
#     4  10  22  40  60  92 124 152 217 265 308 374
#     4  10  20  36  60  89 119 156 201 256 314 368
#
# _framework density 21.188756999999999
#
# number of rings (size 3 to 8) (size 9 to 14) (size 15 to 20)
#    0.000    2.000    1.000    2.400    9.800    0.800 
#    0.000    0.000    4.400    0.000    0.000    0.000 
#    0.000    0.000    0.000    0.000    0.000    0.000 
#
# Total GULP energy -223068.593355 kJ/mol
# GULP energy per Si atom -5576.714834 kJ/mol
# Density = 2.114053 g / cm^3
# Si number density = 21.188757 Si / 1000 Ang^3
#
#
#
# Elastic Constant Matrix: (Units=GPa)
#
#
# Indices 1 2 3 4 5 6 
#
# 1 42.2934 18.8629 9.7162 0.0000 0.0000 0.0000
# 2 18.8629 93.5799 4.9789 0.0000 0.0000 0.0000
# 3 9.7162 4.9789 51.4867 0.0000 0.0000 0.0000
# 4 0.0000 0.0000 0.0000 39.4295 0.0000 0.0000
# 5 0.0000 0.0000 0.0000 0.0000 31.4649 0.0000
# 6 0.0000 0.0000 0.0000 0.0000 0.0000 29.0621
#
#
#
# Elastic Compliance Matrix: (Units=1/GPa)
#
#
# Indices 1 2 3 4 5 6 
#
# 1 0.027020 -0.005202 -0.004596 0.000000 0.000000 0.000000
# 2 -0.005202 0.011743 -0.000154 0.000000 0.000000 0.000000
# 3 -0.004596 -0.000154 0.020305 0.000000 0.000000 0.000000
# 4 0.000000 0.000000 0.000000 0.025362 0.000000 0.000000
# 5 0.000000 0.000000 0.000000 0.000000 0.031781 0.000000
# 6 0.000000 0.000000 0.000000 0.000000 0.000000 0.034409
#
#
# Mechanical properties :
#
#
# Convention : Reuss Voigt Hill
#
# Bulk Modulus (GPa) = 25.53362 28.27512 26.90437
# Shear Modulus (GPa) = 27.23632 30.24477 28.74054
#
# Velocity S-wave (km/s) = 3.58916 3.78219 3.68694
# Velocity P-wave (km/s) = 5.40858 5.69620 5.55425
#
# Compressibility (1/GPa) = 0.03916405
#
# Stress axis : x y z
#
# Youngs Moduli (GPa) = 37.00926 85.15860 49.24973
#
# Poissons Ratio (x) = 0.44299 0.22635
# Poissons Ratio (y) = 0.19252 0.00758
# Poissons Ratio (z) = 0.17009 0.01311
#
# Static dielectric constant tensor:
#      x y z
#    x 1.807470 0.000000 0.000000 
#    y 0.000000 1.648870 0.000000 
#    z 0.000000 0.000000 1.863570 
# 
# From -- ./inp_files/2684.got.cif
#   From: 2010.05.17/outbox.cif.g08.bks.cpg/sg62_2_cif.got.tgz:2684.got - 2010.06.03 15:25:27.
