data_PCOD9463437
_publ_section_title
;
Structure prediction by ZEFSAII (Michael W. Deem and Ramdas Pophale) SiO2 
 PCOD9463437
Probable space group: P N M A
;
_chemical_formula_sum "Si O2"
_cell_formula_units_Z 64
_cell_length_a 9.577374
_cell_length_b 18.175670
_cell_length_c 18.678260
_cell_angle_alpha 90.000000
_cell_angle_beta 90.000000
_cell_angle_gamma 90.000000
_cell_volume 3251.421645
_symmetry_space_group_name_H-M "P N M A"
_symmetry_group_IT_number 62
_symmetry_cell_setting 'orthorhombic'
loop_
_space_group_symop_operation_xyz
x,y,z
1/2-x,-y,1/2+z
1/2+x,1/2-y,1/2-z
-x,1/2+y,-z
-x,-y,-z
1/2+x,y,1/2-z
1/2-x,1/2+y,1/2+z
x,1/2-y,z
loop_
_atom_site_type_symbol
_atom_site_label
_atom_site_fract_x
_atom_site_fract_y
_atom_site_fract_z
Si Si1 0.466046 0.332785 0.216188
Si Si2 0.808427 0.077012 0.807414
Si Si3 0.733185 0.429371 0.217887
Si Si4 0.887577 0.008618 0.591710
Si Si5 0.404209 0.835515 0.293050
Si Si6 0.273507 0.171128 0.078194
Si Si7 0.799058 0.012861 0.427690
Si Si8 0.168472 0.829438 0.408782
O O1 0.459742 0.250000 0.246228
O O2 0.621512 0.363650 0.217144
O O3 0.376335 0.392176 0.259746
O O4 0.396659 0.327663 0.137093
O O5 0.694365 0.126652 0.766388
O O6 0.767565 0.056588 0.888551
O O7 0.955461 0.117718 0.800703
O O8 0.806933 0.996683 0.770090
O O9 0.722819 0.468579 0.141619
O O10 0.905765 0.094772 0.610749
O O11 0.042380 0.976471 0.601742
O O12 0.830384 0.002085 0.511377
O O13 0.433299 0.750000 0.275938
O O14 0.316123 0.835544 0.367499
O O15 0.196545 0.250000 0.088924
O O16 0.213381 0.088554 0.085842
O O17 0.320239 0.171261 0.994991
O O18 0.107191 0.750000 0.386869
#
# Coordination Sequence:
#
# PCOD9463437 Si02
#       8
#     8   8   8   8   8   8   8   8
#     4  11  23  38  59  85 119 158 197 243 297 355
#     4  12  23  40  62  90 119 158 201 251 302 357
#     4  12  21  38  60  88 118 151 197 248 292 350
#     4  10  19  35  61  88 119 154 196 250 299 352
#     4  11  24  41  61  86 121 159 201 250 305 364
#     4   9  17  34  56  82 113 154 197 235 286 356
#     4  10  20  37  57  88 120 154 197 249 298 352
#     4   9  19  35  57  84 114 153 197 241 292 359
#
# _framework density 19.683698
#
# number of rings (size 3 to 8) (size 9 to 14) (size 15 to 20)
#    0.000    1.500    3.750    2.250    0.000    0.000 
#    0.000    4.375    0.000    5.250    0.000    0.000 
#    0.000    0.000    0.000    0.000    0.000    0.000 
#
# Total GULP energy -356696.201190 kJ/mol
# GULP energy per Si atom -5573.378144 kJ/mol
# Density = 1.963890 g / cm^3
# Si number density = 19.683698 Si / 1000 Ang^3
#
#
#
# Elastic Constant Matrix: (Units=GPa)
#
#
# Indices 1 2 3 4 5 6 
#
# 1 32.1563 16.8329 19.4854 0.0000 0.0000 0.0000
# 2 16.8329 141.2087 34.0580 0.0000 0.0000 0.0000
# 3 19.4854 34.0580 47.1545 0.0000 0.0000 0.0000
# 4 0.0000 0.0000 0.0000 7.8602 0.0000 0.0000
# 5 0.0000 0.0000 0.0000 0.0000 9.2119 0.0000
# 6 0.0000 0.0000 0.0000 0.0000 0.0000 34.8204
#
#
#
# Elastic Compliance Matrix: (Units=1/GPa)
#
#
# Indices 1 2 3 4 5 6 
#
# 1 0.041599 -0.000984 -0.016479 0.000000 0.000000 0.000000
# 2 -0.000984 0.008599 -0.005804 0.000000 0.000000 0.000000
# 3 -0.016479 -0.005804 0.032208 0.000000 0.000000 0.000000
# 4 0.000000 0.000000 0.000000 0.127224 0.000000 0.000000
# 5 0.000000 0.000000 0.000000 0.000000 0.108556 0.000000
# 6 0.000000 0.000000 0.000000 0.000000 0.000000 0.028719
#
#
# Mechanical properties :
#
#
# Convention : Reuss Voigt Hill
#
# Bulk Modulus (GPa) = 27.87687 40.14136 34.00911
# Shear Modulus (GPa) = 12.33365 20.38804 16.36084
#
# Velocity S-wave (km/s) = 2.50590 3.22185 2.88616
# Velocity P-wave (km/s) = 4.75035 5.85473 5.33122
#
# Compressibility (1/GPa) = 0.03587204
#
# Stress axis : x y z
#
# Youngs Moduli (GPa) = 24.03918 116.29394 31.04797
#
# Poissons Ratio (x) = 0.11447 0.51163
# Poissons Ratio (y) = 0.02366 0.18020
# Poissons Ratio (z) = 0.39613 0.67496
#
# Static dielectric constant tensor:
#      x y z
#    x 1.660650 0.000000 0.000000 
#    y 0.000000 1.718800 0.000000 
#    z 0.000000 0.000000 1.751550 
# 
# From -- ./inp_files/26162.got.cif
#   From: 2010.05.17/outbox.cif.g08.bks.cpg/sg62_14_cif.got.tgz:26162.got - 2010.06.03 15:25:27.
