data_PCOD9463051
_publ_section_title
;
Structure prediction by ZEFSAII (Michael W. Deem and Ramdas Pophale) SiO2 
 PCOD9463051
Probable space group: P N M A
;
_chemical_formula_sum "Si O2"
_cell_formula_units_Z 64
_cell_length_a 11.558730
_cell_length_b 8.906801
_cell_length_c 33.671149
_cell_angle_alpha 90.000000
_cell_angle_beta 90.000000
_cell_angle_gamma 90.000000
_cell_volume 3466.488829
_symmetry_space_group_name_H-M "P N M A"
_symmetry_group_IT_number 62
_symmetry_cell_setting 'orthorhombic'
loop_
_space_group_symop_operation_xyz
x,y,z
1/2-x,-y,1/2+z
1/2+x,1/2-y,1/2-z
-x,1/2+y,-z
-x,-y,-z
1/2+x,y,1/2-z
1/2-x,1/2+y,1/2+z
x,1/2-y,z
loop_
_atom_site_type_symbol
_atom_site_label
_atom_site_fract_x
_atom_site_fract_y
_atom_site_fract_z
Si Si1 0.448490 0.571949 0.633454
Si Si2 0.581996 0.429787 0.945857
Si Si3 0.826184 0.429062 0.523849
Si Si4 0.702559 0.071443 0.863788
Si Si5 0.401348 0.071414 0.289031
Si Si6 0.307829 0.428559 0.833866
Si Si7 0.957840 0.429023 0.301490
Si Si8 0.315769 0.070471 0.409459
O O1 0.423506 0.750000 0.630064
O O2 0.333169 0.478165 0.627628
O O3 0.501881 0.545080 0.677321
O O4 0.552548 0.534584 0.603166
O O5 0.593463 0.250000 0.950902
O O6 0.448114 0.468038 0.954342
O O7 0.623589 0.468293 0.901855
O O8 0.658142 0.511087 0.979297
O O9 0.813343 0.250000 0.524179
O O10 0.724579 0.505793 0.548624
O O11 0.695301 0.250000 0.857636
O O12 0.653234 0.985472 0.825717
O O13 0.373012 0.250000 0.290595
O O14 0.444082 0.034871 0.245055
O O15 0.288625 0.979548 0.301981
O O16 0.312309 0.250000 0.837751
O O17 0.430827 0.491514 0.820265
O O18 0.265440 0.499504 0.875367
O O19 0.969856 0.250000 0.305239
O O20 0.303549 0.250000 0.408407
#
# Coordination Sequence:
#
# PCOD9463051 Si02
#       8
#     8   8   8   8   8   8   8   8
#     4   9  20  39  59  80 109 150 195 237 281 339
#     4   9  20  37  54  80 119 154 183 227 286 348
#     4  10  19  33  59  89 115 145 187 239 288 334
#     4  11  23  38  57  84 117 151 189 236 291 341
#     4   9  21  40  59  79 107 148 193 232 279 340
#     4  11  22  36  56  84 115 141 181 239 286 329
#     4  11  23  38  59  82 110 151 192 230 281 346
#     4  10  20  37  60  83 111 151 193 230 280 343
#
# _framework density 18.462485000000001
#
# number of rings (size 3 to 8) (size 9 to 14) (size 15 to 20)
#    0.000    2.000    0.000    4.125    1.750    6.000 
#    0.000    0.625    0.000    0.000    0.000    0.000 
#    0.000    0.000    0.000    0.000    0.000    0.000 
#
# Total GULP energy -357543.851512 kJ/mol
# GULP energy per Si atom -5586.622680 kJ/mol
# Density = 1.842046 g / cm^3
# Si number density = 18.462485 Si / 1000 Ang^3
#
#
#
# Elastic Constant Matrix: (Units=GPa)
#
#
# Indices 1 2 3 4 5 6 
#
# 1 29.5382 10.3083 -3.3186 0.0000 0.0000 0.0000
# 2 10.3083 37.2992 12.3828 0.0000 0.0000 0.0000
# 3 -3.3186 12.3828 41.6499 0.0000 0.0000 0.0000
# 4 0.0000 0.0000 0.0000 17.0981 0.0000 0.0000
# 5 0.0000 0.0000 0.0000 0.0000 9.8181 0.0000
# 6 0.0000 0.0000 0.0000 0.0000 0.0000 31.6646
#
#
#
# Elastic Compliance Matrix: (Units=1/GPa)
#
#
# Indices 1 2 3 4 5 6 
#
# 1 0.039248 -0.013187 0.007048 0.000000 0.000000 0.000000
# 2 -0.013187 0.034177 -0.011212 0.000000 0.000000 0.000000
# 3 0.007048 -0.011212 0.027905 0.000000 0.000000 0.000000
# 4 0.000000 0.000000 0.000000 0.058486 0.000000 0.000000
# 5 0.000000 0.000000 0.000000 0.000000 0.101853 0.000000
# 6 0.000000 0.000000 0.000000 0.000000 0.000000 0.031581
#
#
# Mechanical properties :
#
#
# Convention : Reuss Voigt Hill
#
# Bulk Modulus (GPa) = 15.00866 16.35914 15.68390
# Shear Modulus (GPa) = 14.27919 17.65715 15.96817
#
# Velocity S-wave (km/s) = 2.78405 3.09589 2.94411
# Velocity P-wave (km/s) = 4.29902 4.65397 4.48001
#
# Compressibility (1/GPa) = 0.06662819
#
# Stress axis : x y z
#
# Youngs Moduli (GPa) = 25.47891 29.25975 35.83651
#
# Poissons Ratio (x) = 0.38584 -0.25256
# Poissons Ratio (y) = 0.33598 0.40178
# Poissons Ratio (z) = -0.17957 0.32805
#
# Static dielectric constant tensor:
#      x y z
#    x 1.621590 0.000000 0.000000 
#    y 0.000000 1.613610 0.000000 
#    z 0.000000 0.000000 1.626270 
# 
# From -- ./inp_files/32569.got.cif
#   From: 2010.05.17/outbox.cif.g08.bks.cpg/sg62_17_cif.got.tgz:32569.got - 2010.06.03 15:25:27.
