data_PCOD9463725
_publ_section_title
;
Structure prediction by ZEFSAII (Michael W. Deem and Ramdas Pophale) SiO2 
 PCOD9463725
Probable space group: P N M A
;
_chemical_formula_sum "Si O2"
_cell_formula_units_Z 64
_cell_length_a 12.085148
_cell_length_b 18.093403
_cell_length_c 14.974094
_cell_angle_alpha 90.000000
_cell_angle_beta 90.000000
_cell_angle_gamma 90.000000
_cell_volume 3274.257153
_symmetry_space_group_name_H-M "P N M A"
_symmetry_group_IT_number 62
_symmetry_cell_setting 'orthorhombic'
loop_
_space_group_symop_operation_xyz
x,y,z
1/2-x,-y,1/2+z
1/2+x,1/2-y,1/2-z
-x,1/2+y,-z
-x,-y,-z
1/2+x,y,1/2-z
1/2-x,1/2+y,1/2+z
x,1/2-y,z
loop_
_atom_site_type_symbol
_atom_site_label
_atom_site_fract_x
_atom_site_fract_y
_atom_site_fract_z
Si Si1 0.929095 0.161285 0.428428
Si Si2 0.798403 0.163134 0.600725
Si Si3 0.806475 0.431635 0.779991
Si Si4 0.919562 0.597029 0.020510
Si Si5 0.819748 0.661343 0.622430
Si Si6 0.335959 0.337819 0.545299
Si Si7 0.681818 0.581174 0.767608
Si Si8 0.996744 0.526666 0.850957
O O1 0.917257 0.250000 0.418424
O O2 0.893825 0.143214 0.529527
O O3 0.848810 0.120941 0.359055
O O4 0.055444 0.141704 0.405171
O O5 0.806207 0.250000 0.621342
O O6 0.802900 0.115706 0.690332
O O7 0.682750 0.145682 0.551273
O O8 0.795115 0.380324 0.866913
O O9 0.715676 0.496092 0.779950
O O10 0.924119 0.473135 0.789754
O O11 0.928190 0.525093 0.084690
O O12 0.036805 0.638656 0.030042
O O13 0.914954 0.568694 0.918956
O O14 0.814288 0.750000 0.635054
O O15 0.737397 0.641985 0.540833
O O16 0.777684 0.621199 0.711263
O O17 0.328483 0.250000 0.557954
O O18 0.572430 0.580838 0.705601
#
# Coordination Sequence:
#
# PCOD9463725 Si02
#       8
#     8   8   8   8   8   8   8   8
#     4  10  24  42  62  91 126 166 210 257 316 381
#     4  11  23  42  62  87 128 172 216 261 310 376
#     4  11  24  37  60  92 127 167 209 257 315 372
#     4  10  19  39  63  90 121 161 205 262 312 369
#     4  10  22  42  66  92 124 161 204 258 317 381
#     4  10  21  40  65  93 123 162 213 262 311 371
#     4  12  21  40  63  91 125 161 208 258 319 383
#     4  10  21  36  60  90 124 155 203 260 315 375
#
# _framework density 19.546417000000002
#
# number of rings (size 3 to 8) (size 9 to 14) (size 15 to 20)
#    0.000    1.500    2.500    2.625    0.000    2.000 
#    0.000    3.125    0.000    0.000    0.000    0.000 
#    0.000    0.000    0.000    0.000    0.000    0.000 
#
# Total GULP energy -357733.079316 kJ/mol
# GULP energy per Si atom -5589.579364 kJ/mol
# Density = 1.950193 g / cm^3
# Si number density = 19.546417 Si / 1000 Ang^3
#
#
#
# Elastic Constant Matrix: (Units=GPa)
#
#
# Indices 1 2 3 4 5 6 
#
# 1 73.9511 27.2015 35.0456 0.0000 0.0000 0.0000
# 2 27.2015 61.8229 55.0737 0.0000 0.0000 0.0000
# 3 35.0456 55.0737 95.5655 0.0000 0.0000 0.0000
# 4 0.0000 0.0000 0.0000 29.7851 0.0000 0.0000
# 5 0.0000 0.0000 0.0000 0.0000 25.2838 0.0000
# 6 0.0000 0.0000 0.0000 0.0000 0.0000 30.9719
#
#
#
# Elastic Compliance Matrix: (Units=1/GPa)
#
#
# Indices 1 2 3 4 5 6 
#
# 1 0.016816 -0.003915 -0.003910 0.000000 0.000000 0.000000
# 2 -0.003915 0.034152 -0.018245 0.000000 0.000000 0.000000
# 3 -0.003910 -0.018245 0.022413 0.000000 0.000000 0.000000
# 4 0.000000 0.000000 0.000000 0.033574 0.000000 0.000000
# 5 0.000000 0.000000 0.000000 0.000000 0.039551 0.000000
# 6 0.000000 0.000000 0.000000 0.000000 0.000000 0.032287
#
#
# Mechanical properties :
#
#
# Convention : Reuss Voigt Hill
#
# Bulk Modulus (GPa) = 47.08581 51.77567 49.43074
# Shear Modulus (GPa) = 21.00722 24.80941 22.90832
#
# Velocity S-wave (km/s) = 3.28187 3.56653 3.42716
# Velocity P-wave (km/s) = 6.20503 6.59593 6.40346
#
# Compressibility (1/GPa) = 0.02123782
#
# Stress axis : x y z
#
# Youngs Moduli (GPa) = 59.46816 29.28127 44.61772
#
# Poissons Ratio (x) = 0.11465 0.17446
# Poissons Ratio (y) = 0.23285 0.81407
# Poissons Ratio (z) = 0.23253 0.53425
#
# Static dielectric constant tensor:
#      x y z
#    x 1.686880 0.000000 0.000000 
#    y 0.000000 1.668080 0.000000 
#    z 0.000000 0.000000 1.671590 
# 
# From -- ./inp_files/18266.got.cif
#   From: 2010.05.17/outbox.cif.g08.bks.cpg/sg62_10_cif.got.tgz:18266.got - 2010.06.03 15:25:27.
