data_PCOD9463404
_publ_section_title
;
Structure prediction by ZEFSAII (Michael W. Deem and Ramdas Pophale) SiO2 
 PCOD9463404
Probable space group: P N M A
;
_chemical_formula_sum "Si O2"
_cell_formula_units_Z 56
_cell_length_a 9.393471
_cell_length_b 16.172349
_cell_length_c 15.303652
_cell_angle_alpha 90.000000
_cell_angle_beta 90.000000
_cell_angle_gamma 90.000000
_cell_volume 2324.846509
_symmetry_space_group_name_H-M "P N M A"
_symmetry_group_IT_number 62
_symmetry_cell_setting 'orthorhombic'
loop_
_space_group_symop_operation_xyz
x,y,z
1/2-x,-y,1/2+z
1/2+x,1/2-y,1/2-z
-x,1/2+y,-z
-x,-y,-z
1/2+x,y,1/2-z
1/2-x,1/2+y,1/2+z
x,1/2-y,z
loop_
_atom_site_type_symbol
_atom_site_label
_atom_site_fract_x
_atom_site_fract_y
_atom_site_fract_z
Si Si1 0.573480 0.072257 0.185876
Si Si2 0.440394 0.158357 0.434862
Si Si3 0.215709 0.473276 0.491520
Si Si4 0.464615 0.658787 0.302607
Si Si5 0.778000 0.659287 0.021554
Si Si6 0.681964 0.662249 0.758314
Si Si7 0.756370 0.061018 0.807273
O O1 0.614505 0.064244 0.084017
O O2 0.406146 0.090043 0.194521
O O3 0.655632 0.149313 0.230059
O O4 0.652159 0.001920 0.245021
O O5 0.401786 0.250000 0.474094
O O6 0.365008 0.075658 0.471585
O O7 0.610082 0.151822 0.442305
O O8 0.392274 0.161971 0.335989
O O9 0.201815 0.571620 0.474914
O O10 0.204878 0.459358 0.594745
O O11 0.456251 0.750000 0.262644
O O12 0.381664 0.659810 0.394314
O O13 0.379360 0.593602 0.244860
O O14 0.626939 0.634024 0.316714
O O15 0.705598 0.750000 0.019477
O O16 0.663138 0.750000 0.804019
#
# Coordination Sequence:
#
# PCOD9463404 Si02
#       7
#     8   8   8   8   8   8   8
#     4  11  23  40  64  96 129 169 225 275 336 407
#     4   9  18  32  60  95 122 157 217 272 324 386
#     4  11  22  38  65  94 130 177 229 281 333 405
#     4  11  24  42  66  98 135 176 224 281 339 407
#     4  10  19  35  59  93 127 165 221 283 329 384
#     4  10  21  39  62  92 130 170 210 270 333 403
#     4  12  24  42  69  96 132 176 224 281 346 402
#
# _framework density 24.087610999999999
#
# number of rings (size 3 to 8) (size 9 to 14) (size 15 to 20)
#    0.000    1.429    2.857    3.000    2.000    1.143 
#    0.000    3.571    0.000    0.000    0.000    0.000 
#    0.000    0.000    0.000    0.000    0.000    0.000 
#
# Total GULP energy -312518.677114 kJ/mol
# GULP energy per Si atom -5580.690663 kJ/mol
# Density = 2.403279 g / cm^3
# Si number density = 24.087611 Si / 1000 Ang^3
#
#
#
# Elastic Constant Matrix: (Units=GPa)
#
#
# Indices 1 2 3 4 5 6 
#
# 1 79.3427 19.7212 26.2922 0.0000 0.0000 0.0000
# 2 19.7212 122.2314 20.0934 0.0000 0.0000 0.0000
# 3 26.2922 20.0934 104.0585 0.0000 0.0000 0.0000
# 4 0.0000 0.0000 0.0000 24.0956 0.0000 0.0000
# 5 0.0000 0.0000 0.0000 0.0000 29.0852 0.0000
# 6 0.0000 0.0000 0.0000 0.0000 0.0000 13.5003
#
#
#
# Elastic Compliance Matrix: (Units=1/GPa)
#
#
# Indices 1 2 3 4 5 6 
#
# 1 0.014107 -0.001746 -0.003227 0.000000 0.000000 0.000000
# 2 -0.001746 0.008665 -0.001232 0.000000 0.000000 0.000000
# 3 -0.003227 -0.001232 0.010663 0.000000 0.000000 0.000000
# 4 0.000000 0.000000 0.000000 0.041501 0.000000 0.000000
# 5 0.000000 0.000000 0.000000 0.000000 0.034382 0.000000
# 6 0.000000 0.000000 0.000000 0.000000 0.000000 0.074073
#
#
# Mechanical properties :
#
#
# Convention : Reuss Voigt Hill
#
# Bulk Modulus (GPa) = 47.56122 48.64959 48.10541
# Shear Modulus (GPa) = 24.65362 29.30459 26.97911
#
# Velocity S-wave (km/s) = 3.20269 3.49174 3.35033
# Velocity P-wave (km/s) = 5.78483 6.04128 5.91445
#
# Compressibility (1/GPa) = 0.02102553
#
# Stress axis : x y z
#
# Youngs Moduli (GPa) = 70.88750 115.40156 93.77922
#
# Poissons Ratio (x) = 0.20144 0.30265
# Poissons Ratio (y) = 0.12374 0.11556
# Poissons Ratio (z) = 0.22877 0.14220
#
# Static dielectric constant tensor:
#      x y z
#    x 1.895370 0.000000 0.000000 
#    y 0.000000 2.067160 0.000000 
#    z 0.000000 0.000000 1.948620 
# 
# From -- ./inp_files/18054.got.cif
#   From: 2010.05.17/outbox.cif.g08.bks.cpg/sg62_10_cif.got.tgz:18054.got - 2010.06.03 15:25:27.
