data_PCOD9463662
_publ_section_title
;
Structure prediction by ZEFSAII (Michael W. Deem and Ramdas Pophale) SiO2 
 PCOD9463662
Probable space group: P N M A
;
_chemical_formula_sum "Si O2"
_cell_formula_units_Z 64
_cell_length_a 8.758243
_cell_length_b 22.905510
_cell_length_c 14.130144
_cell_angle_alpha 90.000000
_cell_angle_beta 90.000000
_cell_angle_gamma 90.000000
_cell_volume 2834.676768
_symmetry_space_group_name_H-M "P N M A"
_symmetry_group_IT_number 62
_symmetry_cell_setting 'orthorhombic'
loop_
_space_group_symop_operation_xyz
x,y,z
1/2-x,-y,1/2+z
1/2+x,1/2-y,1/2-z
-x,1/2+y,-z
-x,-y,-z
1/2+x,y,1/2-z
1/2-x,1/2+y,1/2+z
x,1/2-y,z
loop_
_atom_site_type_symbol
_atom_site_label
_atom_site_fract_x
_atom_site_fract_y
_atom_site_fract_z
Si Si1 0.338251 0.472280 0.468098
Si Si2 0.117369 0.620220 0.816853
Si Si3 0.451530 0.687781 0.534130
Si Si4 0.371763 0.057132 0.879277
Si Si5 0.386319 0.912235 0.238375
Si Si6 0.893378 0.314542 0.541830
Si Si7 0.941620 0.818381 0.656062
Si Si8 0.145953 0.630776 0.117099
O O1 0.500000 0.500000 0.500000
O O2 0.344976 0.442316 0.363603
O O3 0.201549 0.519323 0.462477
O O4 0.312521 0.421396 0.544472
O O5 0.982493 0.639973 0.887799
O O6 0.268906 0.659274 0.832034
O O7 0.050611 0.637307 0.714796
O O8 0.476925 0.750000 0.580728
O O9 0.281026 0.685431 0.495809
O O10 0.572939 0.679438 0.449757
O O11 0.243226 0.057158 0.799076
O O12 0.530489 0.041423 0.830163
O O13 0.400003 0.125424 0.901574
O O14 0.509740 0.888003 0.312403
O O15 0.296135 0.861823 0.180377
O O16 0.917876 0.250000 0.586820
O O17 0.006884 0.319708 0.453040
O O18 0.957313 0.750000 0.686240
#
# Coordination Sequence:
#
# PCOD9463662 Si02
#       8
#     8   8   8   8   8   8   8   8
#     4  11  23  43  66  91 131 170 218 269 324 399
#     4  11  24  40  63  97 130 171 220 266 331 396
#     4  10  19  37  62  87 122 166 207 258 322 387
#     4  11  22  43  63  91 125 172 207 267 324 378
#     4  10  22  40  63  86 124 158 211 261 317 375
#     4  10  22  41  65  92 129 169 214 266 331 399
#     4  11  23  42  66  99 137 172 219 279 334 403
#     4  10  21  41  60  89 119 162 207 258 320 382
#
# _framework density 22.577532000000001
#
# number of rings (size 3 to 8) (size 9 to 14) (size 15 to 20)
#    0.000    1.500    2.500    2.625    3.500    2.500 
#    4.500    3.750    0.000    0.000    0.000    0.000 
#    0.000    0.000    0.000    0.000    0.000    0.000 
#
# Total GULP energy -357016.337675 kJ/mol
# GULP energy per Si atom -5578.380276 kJ/mol
# Density = 2.252614 g / cm^3
# Si number density = 22.577532 Si / 1000 Ang^3
#
#
#
# Elastic Constant Matrix: (Units=GPa)
#
#
# Indices 1 2 3 4 5 6 
#
# 1 87.1710 -1.5604 11.2648 0.0000 0.0000 0.0000
# 2 -1.5604 69.3384 12.3660 0.0000 0.0000 0.0000
# 3 11.2648 12.3660 45.2546 0.0000 0.0000 0.0000
# 4 0.0000 0.0000 0.0000 23.0766 0.0000 0.0000
# 5 0.0000 0.0000 0.0000 0.0000 34.9697 0.0000
# 6 0.0000 0.0000 0.0000 0.0000 0.0000 37.8066
#
#
#
# Elastic Compliance Matrix: (Units=1/GPa)
#
#
# Indices 1 2 3 4 5 6 
#
# 1 0.011899 0.000837 -0.003191 0.000000 0.000000 0.000000
# 2 0.000837 0.015220 -0.004367 0.000000 0.000000 0.000000
# 3 -0.003191 -0.004367 0.024085 0.000000 0.000000 0.000000
# 4 0.000000 0.000000 0.000000 0.043334 0.000000 0.000000
# 5 0.000000 0.000000 0.000000 0.000000 0.028596 0.000000
# 6 0.000000 0.000000 0.000000 0.000000 0.000000 0.026450
#
#
# Mechanical properties :
#
#
# Convention : Reuss Voigt Hill
#
# Bulk Modulus (GPa) = 26.48193 27.32276 26.90234
# Shear Modulus (GPa) = 28.47171 31.15016 29.81094
#
# Velocity S-wave (km/s) = 3.55500 3.71846 3.63765
# Velocity P-wave (km/s) = 5.34841 5.52846 5.43918
#
# Compressibility (1/GPa) = 0.03776160
#
# Stress axis : x y z
#
# Youngs Moduli (GPa) = 84.04069 65.70434 41.52012
#
# Poissons Ratio (x) = -0.05498 0.13247
# Poissons Ratio (y) = -0.07032 0.18132
# Poissons Ratio (z) = 0.26814 0.28694
#
# Static dielectric constant tensor:
#      x y z
#    x 1.889060 0.000000 0.000000 
#    y 0.000000 1.862620 0.000000 
#    z 0.000000 0.000000 1.895090 
# 
# From -- ./inp_files/17344.got.cif
#   From: 2010.05.17/outbox.cif.g08.bks.cpg/sg62_9_cif.got.tgz:17344.got - 2010.06.03 15:25:27.
