data_PCOD9463819
_publ_section_title
;
Structure prediction by ZEFSAII (Michael W. Deem and Ramdas Pophale) SiO2 
 PCOD9463819
Probable space group: P N M A
;
_chemical_formula_sum "Si O2"
_cell_formula_units_Z 64
_cell_length_a 9.703555
_cell_length_b 24.925038
_cell_length_c 15.705580
_cell_angle_alpha 90.000000
_cell_angle_beta 90.000000
_cell_angle_gamma 90.000000
_cell_volume 3798.574778
_symmetry_space_group_name_H-M "P N M A"
_symmetry_group_IT_number 62
_symmetry_cell_setting 'orthorhombic'
loop_
_space_group_symop_operation_xyz
x,y,z
1/2-x,-y,1/2+z
1/2+x,1/2-y,1/2-z
-x,1/2+y,-z
-x,-y,-z
1/2+x,y,1/2-z
1/2-x,1/2+y,1/2+z
x,1/2-y,z
loop_
_atom_site_type_symbol
_atom_site_label
_atom_site_fract_x
_atom_site_fract_y
_atom_site_fract_z
Si Si1 0.834642 0.011956 0.692017
Si Si2 0.935908 0.383550 0.589076
Si Si3 0.595917 0.573496 0.506199
Si Si4 0.603770 0.810090 0.454885
Si Si5 0.700786 0.311394 0.622107
Si Si6 0.904996 0.548354 0.533645
Si Si7 0.980424 0.990229 0.145044
Si Si8 0.157257 0.312777 0.685095
O O1 0.892624 0.063969 0.642363
O O2 0.669026 0.015275 0.689052
O O3 0.901196 0.008930 0.784507
O O4 0.883317 0.961512 0.633841
O O5 0.799861 0.349847 0.569816
O O6 0.018660 0.400138 0.504468
O O7 0.033975 0.347686 0.648217
O O8 0.612027 0.637388 0.513779
O O9 0.749495 0.548383 0.496963
O O10 0.510556 0.557575 0.421919
O O11 0.527114 0.543474 0.586108
O O12 0.624699 0.750000 0.492036
O O13 0.453237 0.811164 0.412846
O O14 0.715644 0.816972 0.379872
O O15 0.752413 0.250000 0.620570
O O16 0.699345 0.330117 0.720280
O O17 0.000000 0.500000 0.500000
O O18 0.116845 0.250000 0.691348
#
# Coordination Sequence:
#
# PCOD9463819 Si02
#       8
#     8   8   8   8   8   8   8   8
#     4  10  23  36  52  81 105 138 180 221 271 322
#     4  11  20  31  54  71 102 145 176 219 260 316
#     4  10  20  39  56  79 110 146 180 224 272 329
#     4  10  20  34  53  75 104 140 181 221 267 325
#     4  10  21  33  45  74 110 137 178 220 259 315
#     4   9  20  36  51  76 109 138 179 225 268 313
#     4  10  23  37  58  79 111 142 180 222 273 328
#     4  10  20  32  47  71 102 142 180 215 257 310
#
# _framework density 16.848424999999999
#
# number of rings (size 3 to 8) (size 9 to 14) (size 15 to 20)
#    0.000    2.000    1.250    1.875    8.750    3.000 
#    0.000    0.000    0.000    0.000    0.000    5.250 
#    0.000    0.000    0.000    0.000    0.000    0.000 
#
# Total GULP energy -356972.612556 kJ/mol
# GULP energy per Si atom -5577.697071 kJ/mol
# Density = 1.681008 g / cm^3
# Si number density = 16.848425 Si / 1000 Ang^3
#
#
#
# Elastic Constant Matrix: (Units=GPa)
#
#
# Indices 1 2 3 4 5 6 
#
# 1 84.1743 22.2233 33.3832 0.0000 0.0000 0.0000
# 2 22.2233 68.8453 20.0497 0.0000 0.0000 0.0000
# 3 33.3832 20.0497 54.0110 0.0000 0.0000 0.0000
# 4 0.0000 0.0000 0.0000 10.8501 0.0000 0.0000
# 5 0.0000 0.0000 0.0000 0.0000 17.1958 0.0000
# 6 0.0000 0.0000 0.0000 0.0000 0.0000 41.4145
#
#
#
# Elastic Compliance Matrix: (Units=1/GPa)
#
#
# Indices 1 2 3 4 5 6 
#
# 1 0.016138 -0.002584 -0.009015 0.000000 0.000000 0.000000
# 2 -0.002584 0.016700 -0.004602 0.000000 0.000000 0.000000
# 3 -0.009015 -0.004602 0.025795 0.000000 0.000000 0.000000
# 4 0.000000 0.000000 0.000000 0.092165 0.000000 0.000000
# 5 0.000000 0.000000 0.000000 0.000000 0.058154 0.000000
# 6 0.000000 0.000000 0.000000 0.000000 0.000000 0.024146
#
#
# Mechanical properties :
#
#
# Convention : Reuss Voigt Hill
#
# Bulk Modulus (GPa) = 38.12399 39.81591 38.96995
# Shear Modulus (GPa) = 18.23196 22.65038 20.44117
#
# Velocity S-wave (km/s) = 3.29312 3.67053 3.48694
# Velocity P-wave (km/s) = 6.09396 6.45344 6.27627
#
# Compressibility (1/GPa) = 0.02623020
#
# Stress axis : x y z
#
# Youngs Moduli (GPa) = 61.96680 59.88155 38.76672
#
# Poissons Ratio (x) = 0.15472 0.34949
# Poissons Ratio (y) = 0.16011 0.17841
# Poissons Ratio (z) = 0.55865 0.27559
#
# Static dielectric constant tensor:
#      x y z
#    x 1.593860 0.000000 0.000000 
#    y 0.000000 1.606220 0.000000 
#    z 0.000000 0.000000 1.555570 
# 
# From -- ./inp_files/22648.got.cif
#   From: 2010.05.17/outbox.cif.g08.bks.cpg/sg62_12_cif.got.tgz:22648.got - 2010.06.03 15:25:27.
