data_PCOD9463480
_publ_section_title
;
Structure prediction by ZEFSAII (Michael W. Deem and Ramdas Pophale) SiO2 
 PCOD9463480
Probable space group: P N M A
;
_chemical_formula_sum "Si O2"
_cell_formula_units_Z 48
_cell_length_a 15.869442
_cell_length_b 18.846523
_cell_length_c 8.589167
_cell_angle_alpha 90.000000
_cell_angle_beta 90.000000
_cell_angle_gamma 90.000000
_cell_volume 2568.880737
_symmetry_space_group_name_H-M "P N M A"
_symmetry_group_IT_number 62
_symmetry_cell_setting 'orthorhombic'
loop_
_space_group_symop_operation_xyz
x,y,z
1/2-x,-y,1/2+z
1/2+x,1/2-y,1/2-z
-x,1/2+y,-z
-x,-y,-z
1/2+x,y,1/2-z
1/2-x,1/2+y,1/2+z
x,1/2-y,z
loop_
_atom_site_type_symbol
_atom_site_label
_atom_site_fract_x
_atom_site_fract_y
_atom_site_fract_z
Si Si1 0.269030 0.459892 0.334260
Si Si2 0.842003 0.827529 0.963083
Si Si3 0.993682 0.918469 0.442408
Si Si4 0.815736 0.414202 0.517861
Si Si5 0.436246 0.546031 0.403592
Si Si6 0.336595 0.832024 0.911628
O O1 0.198261 0.520479 0.362434
O O2 0.289298 0.442857 0.154079
O O3 0.353174 0.497709 0.391477
O O4 0.239104 0.389971 0.429210
O O5 0.863266 0.750000 0.021465
O O6 0.911435 0.884111 0.004818
O O7 0.754002 0.853286 0.039291
O O8 0.838128 0.826520 0.776091
O O9 0.087975 0.889336 0.472803
O O10 0.969506 0.928394 0.262741
O O11 0.920925 0.870716 0.523334
O O12 0.000000 0.000000 0.500000
O O13 0.500000 0.500000 0.500000
O O14 0.327078 0.750000 0.969507
#
# Coordination Sequence:
#
# PCOD9463480 Si02
#       6
#     8   8   8   8   8   8
#     4  10  19  36  55  85 114 152 195 237 289 351
#     4   9  21  41  59  83 119 159 195 237 299 364
#     4  12  21  37  59  93 120 149 199 253 293 349
#     4  10  21  34  62  85 116 150 194 242 291 354
#     4  11  23  36  61  86 118 157 199 247 299 351
#     4  10  21  38  61  85 118 156 195 243 298 353
#
# _framework density 18.685179000000002
#
# number of rings (size 3 to 8) (size 9 to 14) (size 15 to 20)
#    0.000    1.667    3.333    1.000    4.667    1.333 
#    0.000    0.833    0.000    0.000    0.000    0.000 
#    0.000    0.000    0.000    0.000    0.000    0.000 
#
# Total GULP energy -267479.531496 kJ/mol
# GULP energy per Si atom -5572.490239 kJ/mol
# Density = 1.864265 g / cm^3
# Si number density = 18.685179 Si / 1000 Ang^3
#
#
#
# Elastic Constant Matrix: (Units=GPa)
#
#
# Indices 1 2 3 4 5 6 
#
# 1 93.8608 47.2564 17.8866 0.0000 0.0000 0.0000
# 2 47.2564 140.1058 28.6550 0.0000 0.0000 0.0000
# 3 17.8866 28.6550 20.8884 0.0000 0.0000 0.0000
# 4 0.0000 0.0000 0.0000 22.9654 0.0000 0.0000
# 5 0.0000 0.0000 0.0000 0.0000 19.9592 0.0000
# 6 0.0000 0.0000 0.0000 0.0000 0.0000 11.9315
#
#
#
# Elastic Compliance Matrix: (Units=1/GPa)
#
#
# Indices 1 2 3 4 5 6 
#
# 1 0.013620 -0.003070 -0.007451 0.000000 0.000000 0.000000
# 2 -0.003070 0.010613 -0.011930 0.000000 0.000000 0.000000
# 3 -0.007451 -0.011930 0.070620 0.000000 0.000000 0.000000
# 4 0.000000 0.000000 0.000000 0.043544 0.000000 0.000000
# 5 0.000000 0.000000 0.000000 0.000000 0.050102 0.000000
# 6 0.000000 0.000000 0.000000 0.000000 0.000000 0.083812
#
#
# Mechanical properties :
#
#
# Convention : Reuss Voigt Hill
#
# Bulk Modulus (GPa) = 20.02002 49.16124 34.59063
# Shear Modulus (GPa) = 14.97623 21.70837 18.34230
#
# Velocity S-wave (km/s) = 2.83415 3.41221 3.13653
# Velocity P-wave (km/s) = 4.63115 6.47238 5.62757
#
# Compressibility (1/GPa) = 0.04995000
#
# Stress axis : x y z
#
# Youngs Moduli (GPa) = 73.42376 94.22478 14.16029
#
# Poissons Ratio (x) = 0.28925 0.10551
# Poissons Ratio (y) = 0.22540 0.16894
# Poissons Ratio (z) = 0.54709 1.12413
#
# Static dielectric constant tensor:
#      x y z
#    x 1.707070 0.000000 0.000000 
#    y 0.000000 1.666090 0.000000 
#    z 0.000000 0.000000 1.655560 
# 
# From -- ./inp_files/6430.got.cif
#   From: 2010.05.17/outbox.cif.g08.bks.cpg/sg62_4_cif.got.tgz:6430.got - 2010.06.03 15:25:27.
