data_PCOD9463936
_publ_section_title
;
Structure prediction by ZEFSAII (Michael W. Deem and Ramdas Pophale) SiO2 
 PCOD9463936
Probable space group: P N M A
;
_chemical_formula_sum "Si O2"
_cell_formula_units_Z 48
_cell_length_a 16.403179
_cell_length_b 9.179383
_cell_length_c 15.330495
_cell_angle_alpha 90.000000
_cell_angle_beta 90.000000
_cell_angle_gamma 90.000000
_cell_volume 2308.328920
_symmetry_space_group_name_H-M "P N M A"
_symmetry_group_IT_number 62
_symmetry_cell_setting 'orthorhombic'
loop_
_space_group_symop_operation_xyz
x,y,z
1/2-x,-y,1/2+z
1/2+x,1/2-y,1/2-z
-x,1/2+y,-z
-x,-y,-z
1/2+x,y,1/2-z
1/2-x,1/2+y,1/2+z
x,1/2-y,z
loop_
_atom_site_type_symbol
_atom_site_label
_atom_site_fract_x
_atom_site_fract_y
_atom_site_fract_z
Si Si1 0.081171 0.085398 0.021245
Si Si2 0.582563 0.415195 0.980425
Si Si3 0.411298 0.584444 0.731510
Si Si4 0.426045 0.586781 0.229020
Si Si5 0.248439 0.574650 0.219593
Si Si6 0.757035 0.073579 0.471160
O O1 0.071366 0.250000 0.989380
O O2 0.089003 0.087314 0.126085
O O3 0.169404 0.031005 0.988406
O O4 0.000000 0.000000 0.000000
O O5 0.581318 0.250000 0.014328
O O6 0.585803 0.406372 0.875287
O O7 0.662283 0.502792 0.011581
O O8 0.500000 0.500000 0.000000
O O9 0.402019 0.750000 0.762578
O O10 0.498980 0.519144 0.754957
O O11 0.334658 0.486295 0.761350
O O12 0.447036 0.750000 0.260199
O O13 0.336131 0.546479 0.264743
O O14 0.242725 0.750000 0.207183
O O15 0.253996 0.490216 0.127203
O O16 0.761989 0.250000 0.469672
#
# Coordination Sequence:
#
# PCOD9463936 Si02
#       6
#     8   8   8   8   8   8
#     4   9  19  33  50  74 100 128 164 204 245 292
#     4  10  20  34  53  77 102 131 168 207 250 300
#     4  10  20  33  51  76 102 129 165 207 250 296
#     4   9  19  34  52  75 100 129 166 204 245 296
#     4   9  17  31  51  73  98 131 169 205 244 296
#     4   9  17  31  50  73 100 130 167 207 246 294
#
# _framework density 20.794266
#
# number of rings (size 3 to 8) (size 9 to 14) (size 15 to 20)
#    0.000    2.667    0.000    4.000    0.000    8.000 
#    0.000    1.667    0.000    2.000    0.000    0.000 
#    0.000    0.000    0.000    0.000    0.000    0.000 
#
# Total GULP energy -267564.010492 kJ/mol
# GULP energy per Si atom -5574.250219 kJ/mol
# Density = 2.074694 g / cm^3
# Si number density = 20.794266 Si / 1000 Ang^3
#
#
#
# Elastic Constant Matrix: (Units=GPa)
#
#
# Indices 1 2 3 4 5 6 
#
# 1 241.4124 113.3323 6.9185 0.0000 0.0000 0.0000
# 2 113.3323 127.5663 4.1007 0.0000 0.0000 0.0000
# 3 6.9185 4.1007 31.3280 0.0000 0.0000 0.0000
# 4 0.0000 0.0000 0.0000 16.6453 0.0000 0.0000
# 5 0.0000 0.0000 0.0000 0.0000 24.3856 0.0000
# 6 0.0000 0.0000 0.0000 0.0000 0.0000 44.8935
#
#
#
# Elastic Compliance Matrix: (Units=1/GPa)
#
#
# Indices 1 2 3 4 5 6 
#
# 1 0.007123 -0.006305 -0.000748 0.000000 0.000000 0.000000
# 2 -0.006305 0.013452 -0.000369 0.000000 0.000000 0.000000
# 3 -0.000748 -0.000369 0.032134 0.000000 0.000000 0.000000
# 4 0.000000 0.000000 0.000000 0.060077 0.000000 0.000000
# 5 0.000000 0.000000 0.000000 0.000000 0.041008 0.000000
# 6 0.000000 0.000000 0.000000 0.000000 0.000000 0.022275
#
#
# Mechanical properties :
#
#
# Convention : Reuss Voigt Hill
#
# Bulk Modulus (GPa) = 26.40805 72.11218 49.26012
# Shear Modulus (GPa) = 24.56602 35.58190 30.07396
#
# Velocity S-wave (km/s) = 3.44086 4.14108 3.80710
# Velocity P-wave (km/s) = 5.33978 7.59071 6.56247
#
# Compressibility (1/GPa) = 0.03786724
#
# Stress axis : x y z
#
# Youngs Moduli (GPa) = 140.38207 74.33854 31.11994
#
# Poissons Ratio (x) = 0.46867 0.02327
# Poissons Ratio (y) = 0.88504 0.01147
# Poissons Ratio (z) = 0.10499 0.02739
#
# Static dielectric constant tensor:
#      x y z
#    x 1.793790 0.000000 0.000000 
#    y 0.000000 1.776870 0.000000 
#    z 0.000000 0.000000 1.811790 
# 
# From -- ./inp_files/26883.got.cif
#   From: 2010.05.17/outbox.cif.g08.bks.cpg/sg62_14_cif.got.tgz:26883.got - 2010.06.03 15:25:27.
