data_PCOD9463620
_publ_section_title
;
Structure prediction by ZEFSAII (Michael W. Deem and Ramdas Pophale) SiO2 
 PCOD9463620
Probable space group: P N M A
;
_chemical_formula_sum "Si O2"
_cell_formula_units_Z 56
_cell_length_a 15.034059
_cell_length_b 8.694905
_cell_length_c 21.658292
_cell_angle_alpha 90.000000
_cell_angle_beta 90.000000
_cell_angle_gamma 90.000000
_cell_volume 2831.165753
_symmetry_space_group_name_H-M "P N M A"
_symmetry_group_IT_number 62
_symmetry_cell_setting 'orthorhombic'
loop_
_space_group_symop_operation_xyz
x,y,z
1/2-x,-y,1/2+z
1/2+x,1/2-y,1/2-z
-x,1/2+y,-z
-x,-y,-z
1/2+x,y,1/2-z
1/2-x,1/2+y,1/2+z
x,1/2-y,z
loop_
_atom_site_type_symbol
_atom_site_label
_atom_site_fract_x
_atom_site_fract_y
_atom_site_fract_z
Si Si1 0.075300 0.928104 0.043191
Si Si2 0.768239 0.066494 0.466025
Si Si3 0.689905 0.936140 0.237111
Si Si4 0.437642 0.925088 0.352881
Si Si5 0.994518 0.428285 0.265319
Si Si6 0.662539 0.066054 0.839310
Si Si7 0.751701 0.065944 0.600837
O O1 0.093367 0.750000 0.026457
O O2 0.029320 0.928174 0.110249
O O3 0.164549 0.025131 0.042551
O O4 0.000000 0.000000 0.000000
O O5 0.780347 0.250000 0.464132
O O6 0.790706 0.008719 0.535768
O O7 0.817244 0.991777 0.408102
O O8 0.691155 0.750000 0.237590
O O9 0.760233 0.985799 0.290206
O O10 0.716266 0.990156 0.167760
O O11 0.589615 0.993004 0.245910
O O12 0.423792 0.750000 0.328279
O O13 0.354935 0.956548 0.397854
O O14 0.440283 0.043520 0.297697
O O15 0.006834 0.250000 0.278496
O O16 0.933060 0.506177 0.316866
O O17 0.663222 0.250000 0.838525
O O18 0.766765 0.250000 0.600738
#
# Coordination Sequence:
#
# PCOD9463620 Si02
#       7
#     8   8   8   8   8   8   8
#     4  11  21  33  53  83 120 160 201 243 299 369
#     4  11  22  38  59  88 126 159 198 256 313 364
#     4  10  21  41  67  88 114 160 212 252 294 361
#     4  10  19  37  59  82 115 159 203 242 295 364
#     4  12  25  39  60  93 125 154 197 258 316 360
#     4  11  23  42  66  91 122 165 210 249 301 372
#     4   9  18  37  62  86 114 157 202 245 296 353
#
# _framework density 19.779838000000002
#
# number of rings (size 3 to 8) (size 9 to 14) (size 15 to 20)
#    0.000    1.429    2.857    3.429    0.000    5.714 
#    0.000    2.143    0.000    0.000    0.000    0.000 
#    0.000    0.000    0.000    0.000    0.000    0.000 
#
# Total GULP energy -312569.945347 kJ/mol
# GULP energy per Si atom -5581.606167 kJ/mol
# Density = 1.973482 g / cm^3
# Si number density = 19.779838 Si / 1000 Ang^3
#
#
#
# Elastic Constant Matrix: (Units=GPa)
#
#
# Indices 1 2 3 4 5 6 
#
# 1 38.0182 9.0125 6.4518 0.0000 0.0000 0.0000
# 2 9.0125 37.1581 23.1646 0.0000 0.0000 0.0000
# 3 6.4518 23.1646 110.7861 0.0000 0.0000 0.0000
# 4 0.0000 0.0000 0.0000 30.0736 0.0000 0.0000
# 5 0.0000 0.0000 0.0000 0.0000 30.3824 0.0000
# 6 0.0000 0.0000 0.0000 0.0000 0.0000 20.6052
#
#
#
# Elastic Compliance Matrix: (Units=1/GPa)
#
#
# Indices 1 2 3 4 5 6 
#
# 1 0.027913 -0.006620 -0.000241 0.000000 0.000000 0.000000
# 2 -0.006620 0.032516 -0.006413 0.000000 0.000000 0.000000
# 3 -0.000241 -0.006413 0.010381 0.000000 0.000000 0.000000
# 4 0.000000 0.000000 0.000000 0.033252 0.000000 0.000000
# 5 0.000000 0.000000 0.000000 0.000000 0.032914 0.000000
# 6 0.000000 0.000000 0.000000 0.000000 0.000000 0.048532
#
#
# Mechanical properties :
#
#
# Convention : Reuss Voigt Hill
#
# Bulk Modulus (GPa) = 22.59293 29.24669 25.91981
# Shear Modulus (GPa) = 22.04485 26.03448 24.03966
#
# Velocity S-wave (km/s) = 3.34205 3.63190 3.48999
# Velocity P-wave (km/s) = 5.13219 5.69261 5.41965
#
# Compressibility (1/GPa) = 0.04426164
#
# Stress axis : x y z
#
# Youngs Moduli (GPa) = 35.82507 30.75439 96.32575
#
# Poissons Ratio (x) = 0.20358 0.02326
# Poissons Ratio (y) = 0.23715 0.61777
# Poissons Ratio (z) = 0.00865 0.19724
#
# Static dielectric constant tensor:
#      x y z
#    x 1.691640 0.000000 0.000000 
#    y 0.000000 1.699860 0.000000 
#    z 0.000000 0.000000 1.758280 
# 
# From -- ./inp_files/27244.got.cif
#   From: 2010.05.17/outbox.cif.g08.bks.cpg/sg62_14_cif.got.tgz:27244.got - 2010.06.03 15:25:27.
