data_PCOD9463166
_publ_section_title
;
Structure prediction by ZEFSAII (Michael W. Deem and Ramdas Pophale) SiO2 
 PCOD9463166
Probable space group: P N M A
;
_chemical_formula_sum "Si O2"
_cell_formula_units_Z 56
_cell_length_a 14.895168
_cell_length_b 8.626558
_cell_length_c 22.510443
_cell_angle_alpha 90.000000
_cell_angle_beta 90.000000
_cell_angle_gamma 90.000000
_cell_volume 2892.457553
_symmetry_space_group_name_H-M "P N M A"
_symmetry_group_IT_number 62
_symmetry_cell_setting 'orthorhombic'
loop_
_space_group_symop_operation_xyz
x,y,z
1/2-x,-y,1/2+z
1/2+x,1/2-y,1/2-z
-x,1/2+y,-z
-x,-y,-z
1/2+x,y,1/2-z
1/2-x,1/2+y,1/2+z
x,1/2-y,z
loop_
_atom_site_type_symbol
_atom_site_label
_atom_site_fract_x
_atom_site_fract_y
_atom_site_fract_z
Si Si1 0.100348 0.436763 0.002280
Si Si2 0.395538 0.436023 0.721317
Si Si3 0.403679 0.934401 0.854457
Si Si4 0.596847 0.436095 0.855783
Si Si5 0.599109 0.062492 0.718728
Si Si6 0.218545 0.064314 0.114641
Si Si7 0.720857 0.437779 0.610482
O O1 0.095842 0.250000 0.002789
O O2 0.153646 0.486984 0.061179
O O3 0.157854 0.481981 0.944505
O O4 0.000000 0.500000 0.000000
O O5 0.387081 0.250000 0.723436
O O6 0.387157 0.499828 0.787893
O O7 0.496985 0.476693 0.700566
O O8 0.324099 0.503730 0.675906
O O9 0.407056 0.750000 0.852647
O O10 0.499987 0.000153 0.874488
O O11 0.319847 0.992682 0.892748
O O12 0.594651 0.250000 0.856503
O O13 0.611189 0.488330 0.786786
O O14 0.681493 0.498121 0.891773
O O15 0.604231 0.250000 0.719342
O O16 0.671683 0.008285 0.671175
O O17 0.222150 0.250000 0.115267
O O18 0.727468 0.250000 0.612022
#
# Coordination Sequence:
#
# PCOD9463166 Si02
#       7
#     8   8   8   8   8   8   8
#     4  10  23  40  60  85 116 149 186 231 278 327
#     4  10  19  34  56  83 114 153 193 227 272 342
#     4  11  22  36  55  84 117 146 180 236 292 332
#     4  10  20  36  57  82 110 147 188 228 278 345
#     4   8  16  30  53  81 107 137 183 230 266 316
#     4  11  22  36  54  83 117 148 185 237 289 328
#     4  10  19  36  58  80 109 150 192 229 273 336
#
# _framework density 19.360699
#
# number of rings (size 3 to 8) (size 9 to 14) (size 15 to 20)
#    0.000    2.000    0.000    5.143    0.000    4.000 
#    0.000    4.286    0.000    0.000    0.000    0.000 
#    0.000    0.000    0.000    0.000    0.000    0.000 
#
# Total GULP energy -312844.744542 kJ/mol
# GULP energy per Si atom -5586.513295 kJ/mol
# Density = 1.931663 g / cm^3
# Si number density = 19.360699 Si / 1000 Ang^3
#
#
#
# Elastic Constant Matrix: (Units=GPa)
#
#
# Indices 1 2 3 4 5 6 
#
# 1 195.8683 49.8082 63.5096 0.0000 0.0000 0.0000
# 2 49.8082 63.6132 21.8191 0.0000 0.0000 0.0000
# 3 63.5096 21.8191 41.9430 0.0000 0.0000 0.0000
# 4 0.0000 0.0000 0.0000 13.4233 0.0000 0.0000
# 5 0.0000 0.0000 0.0000 0.0000 33.3496 0.0000
# 6 0.0000 0.0000 0.0000 0.0000 0.0000 33.6379
#
#
#
# Elastic Compliance Matrix: (Units=1/GPa)
#
#
# Indices 1 2 3 4 5 6 
#
# 1 0.010602 -0.003402 -0.014284 0.000000 0.000000 0.000000
# 2 -0.003402 0.020226 -0.005370 0.000000 0.000000 0.000000
# 3 -0.014284 -0.005370 0.048264 0.000000 0.000000 0.000000
# 4 0.000000 0.000000 0.000000 0.074497 0.000000 0.000000
# 5 0.000000 0.000000 0.000000 0.000000 0.029985 0.000000
# 6 0.000000 0.000000 0.000000 0.000000 0.000000 0.029728
#
#
# Mechanical properties :
#
#
# Convention : Reuss Voigt Hill
#
# Bulk Modulus (GPa) = 30.32191 63.52204 46.92198
# Shear Modulus (GPa) = 18.49059 27.16801 22.82930
#
# Velocity S-wave (km/s) = 3.09375 3.75007 3.43761
# Velocity P-wave (km/s) = 5.33454 7.18552 6.32807
#
# Compressibility (1/GPa) = 0.03297945
#
# Stress axis : x y z
#
# Youngs Moduli (GPa) = 94.32168 49.44206 20.71940
#
# Poissons Ratio (x) = 0.16820 0.29595
# Poissons Ratio (y) = 0.32088 0.11127
# Poissons Ratio (z) = 1.34727 0.26552
#
# Static dielectric constant tensor:
#      x y z
#    x 1.680020 0.000000 0.000000 
#    y 0.000000 1.648270 0.000000 
#    z 0.000000 0.000000 1.670620 
# 
# From -- ./inp_files/27179.got.cif
#   From: 2010.05.17/outbox.cif.g08.bks.cpg/sg62_14_cif.got.tgz:27179.got - 2010.06.03 15:25:27.
