data_PCOD9463272
_publ_section_title
;
Structure prediction by ZEFSAII (Michael W. Deem and Ramdas Pophale) SiO2 
 PCOD9463272
Probable space group: P N M A
;
_chemical_formula_sum "Si O2"
_cell_formula_units_Z 28
_cell_length_a 14.584828
_cell_length_b 5.610788
_cell_length_c 14.501758
_cell_angle_alpha 90.000000
_cell_angle_beta 90.000000
_cell_angle_gamma 90.000000
_cell_volume 1186.713341
_symmetry_space_group_name_H-M "P N M A"
_symmetry_group_IT_number 62
_symmetry_cell_setting 'orthorhombic'
loop_
_space_group_symop_operation_xyz
x,y,z
1/2-x,-y,1/2+z
1/2+x,1/2-y,1/2-z
-x,1/2+y,-z
-x,-y,-z
1/2+x,y,1/2-z
1/2-x,1/2+y,1/2+z
x,1/2-y,z
loop_
_atom_site_type_symbol
_atom_site_label
_atom_site_fract_x
_atom_site_fract_y
_atom_site_fract_z
Si Si1 0.317716 0.750000 0.842094
Si Si2 0.047014 0.250000 0.028067
Si Si3 0.536542 0.250000 0.793076
Si Si4 0.178091 0.750000 0.337203
Si Si5 0.188168 0.250000 0.563619
Si Si6 0.503461 0.750000 0.735567
Si Si7 0.251515 0.250000 0.035655
O O1 0.278402 0.499620 0.807901
O O2 0.425437 0.750000 0.814933
O O3 0.310313 0.750000 0.952553
O O4 0.150499 0.250000 0.992475
O O5 0.048778 0.250000 0.138761
O O6 0.000000 0.500000 0.000000
O O7 0.426312 0.250000 0.802707
O O8 0.588659 0.250000 0.890285
O O9 0.557617 0.501572 0.744008
O O10 0.178452 0.750000 0.449140
O O11 0.235585 0.501284 0.588829
#
# Coordination Sequence:
#
# PCOD9463272 Si02
#       7
#     4   4   4   4   4   4   4
#     4   8  16  29  52  87 120 159 179 234 299 381
#     4  12  26  46  70  83 109 177 233 277 307 337
#     4  10  19  34  63  95 134 165 182 241 320 400
#     4   8  16  29  52  86 119 157 185 233 299 376
#     4  10  19  34  63  98 134 160 188 236 324 397
#     4  10  21  37  60  85 124 155 217 255 302 367
#     4  10  21  37  60  90 120 157 214 262 293 370
#
# _framework density 23.594577000000001
#
# number of rings (size 3 to 8) (size 9 to 14) (size 15 to 20)
#    0.000    2.286    0.000    2.571    0.000   10.286 
#    0.000    0.000   56.571    0.000    0.000    0.000 
#    0.000    0.000    0.000    0.000    0.000    0.000 
#
# Total GULP energy -156121.746538 kJ/mol
# GULP energy per Si atom -5575.776662 kJ/mol
# Density = 2.354087 g / cm^3
# Si number density = 23.594577 Si / 1000 Ang^3
#
#
#
# Elastic Constant Matrix: (Units=GPa)
#
#
# Indices 1 2 3 4 5 6 
#
# 1 50.5062 20.6368 7.0095 0.0000 0.0000 0.0000
# 2 20.6368 314.5543 14.7738 0.0000 0.0000 0.0000
# 3 7.0095 14.7738 47.0450 0.0000 0.0000 0.0000
# 4 0.0000 0.0000 0.0000 11.9142 0.0000 0.0000
# 5 0.0000 0.0000 0.0000 0.0000 14.6109 0.0000
# 6 0.0000 0.0000 0.0000 0.0000 0.0000 15.9236
#
#
#
# Elastic Compliance Matrix: (Units=1/GPa)
#
#
# Indices 1 2 3 4 5 6 
#
# 1 0.020676 -0.001230 -0.002694 0.000000 0.000000 0.000000
# 2 -0.001230 0.003300 -0.000853 0.000000 0.000000 0.000000
# 3 -0.002694 -0.000853 0.021926 0.000000 0.000000 0.000000
# 4 0.000000 0.000000 0.000000 0.083933 0.000000 0.000000
# 5 0.000000 0.000000 0.000000 0.000000 0.068442 0.000000
# 6 0.000000 0.000000 0.000000 0.000000 0.000000 0.062800
#
#
# Mechanical properties :
#
#
# Convention : Reuss Voigt Hill
#
# Bulk Modulus (GPa) = 27.51277 55.21619 41.36448
# Shear Modulus (GPa) = 17.68367 33.13545 25.40956
#
# Velocity S-wave (km/s) = 2.74063 3.75155 3.28521
# Velocity P-wave (km/s) = 4.65840 6.49757 5.65328
#
# Compressibility (1/GPa) = 0.03634675
#
# Stress axis : x y z
#
# Youngs Moduli (GPa) = 48.36518 303.04346 45.60884
#
# Poissons Ratio (x) = 0.37272 0.12289
# Poissons Ratio (y) = 0.05949 0.03891
# Poissons Ratio (z) = 0.13032 0.25850
#
# Static dielectric constant tensor:
#      x y z
#    x 1.834660 0.000000 0.000000 
#    y 0.000000 2.223830 0.000000 
#    z 0.000000 0.000000 1.847030 
# 
# From -- ./inp_files/18386.got.cif
#   From: 2010.05.17/outbox.cif.g08.bks.cpg/sg62_10_cif.got.tgz:18386.got - 2010.06.03 15:25:27.
