data_PCOD9463762
_publ_section_title
;
Structure prediction by ZEFSAII (Michael W. Deem and Ramdas Pophale) SiO2 
 PCOD9463762
Probable space group: P N M A
;
_chemical_formula_sum "Si O2"
_cell_formula_units_Z 40
_cell_length_a 14.007699
_cell_length_b 14.792175
_cell_length_c 9.307647
_cell_angle_alpha 90.000000
_cell_angle_beta 90.000000
_cell_angle_gamma 90.000000
_cell_volume 1928.584807
_symmetry_space_group_name_H-M "P N M A"
_symmetry_group_IT_number 62
_symmetry_cell_setting 'orthorhombic'
loop_
_space_group_symop_operation_xyz
x,y,z
1/2-x,-y,1/2+z
1/2+x,1/2-y,1/2-z
-x,1/2+y,-z
-x,-y,-z
1/2+x,y,1/2-z
1/2-x,1/2+y,1/2+z
x,1/2-y,z
loop_
_atom_site_type_symbol
_atom_site_label
_atom_site_fract_x
_atom_site_fract_y
_atom_site_fract_z
Si Si1 0.578315 0.750000 0.535481
Si Si2 0.054710 0.077910 0.083254
Si Si3 0.152211 0.750000 0.681180
Si Si4 0.411967 0.553511 0.924541
Si Si5 0.966895 0.750000 0.505417
Si Si6 0.233893 0.899351 0.475288
Si Si7 0.143213 0.750000 0.287228
O O1 0.512016 0.835646 0.564806
O O2 0.663253 0.750000 0.650569
O O3 0.620235 0.750000 0.377826
O O4 0.072467 0.057313 0.252087
O O5 0.154842 0.092372 0.002668
O O6 0.000000 0.000000 0.000000
O O7 0.194557 0.839224 0.608103
O O8 0.040425 0.750000 0.640043
O O9 0.410883 0.655949 0.984460
O O10 0.318732 0.494867 0.961348
O O11 0.500000 0.500000 0.000000
O O12 0.041720 0.750000 0.372697
O O13 0.201814 0.837634 0.340406
#
# Coordination Sequence:
#
# PCOD9463762 Si02
#       7
#     4   8   4   8   4   8   4
#     4  12  22  45  70 103 134 178 235 288 361 406
#     4  12  27  44  70 101 141 188 228 289 348 413
#     4  10  19  41  76  95 130 179 224 294 345 408
#     4  12  21  43  73  99 138 182 232 289 351 418
#     4  10  20  39  70  99 122 188 216 279 354 401
#     4  10  23  44  67 100 143 180 231 282 347 422
#     4  10  21  41  74  99 134 179 219 291 352 401
#
# _framework density 20.740597000000001
#
# number of rings (size 3 to 8) (size 9 to 14) (size 15 to 20)
#    0.000    1.200    6.000    2.400    0.000    3.200 
#    0.000    3.000    4.400    0.000    0.000    0.000 
#    0.000    0.000    0.000    0.000    0.000    0.000 
#
# Total GULP energy -223670.693847 kJ/mol
# GULP energy per Si atom -5591.767346 kJ/mol
# Density = 2.069339 g / cm^3
# Si number density = 20.740597 Si / 1000 Ang^3
#
#
#
# Elastic Constant Matrix: (Units=GPa)
#
#
# Indices 1 2 3 4 5 6 
#
# 1 81.3870 53.4380 54.8967 0.0000 0.0000 0.0000
# 2 53.4380 180.9322 55.2550 0.0000 0.0000 0.0000
# 3 54.8967 55.2550 184.1415 0.0000 0.0000 0.0000
# 4 0.0000 0.0000 0.0000 10.9773 0.0000 0.0000
# 5 0.0000 0.0000 0.0000 0.0000 2.6224 0.0000
# 6 0.0000 0.0000 0.0000 0.0000 0.0000 1.1337
#
#
#
# Elastic Compliance Matrix: (Units=1/GPa)
#
#
# Indices 1 2 3 4 5 6 
#
# 1 0.017635 -0.003966 -0.004067 0.000000 0.000000 0.000000
# 2 -0.003966 0.006977 -0.000911 0.000000 0.000000 0.000000
# 3 -0.004067 -0.000911 0.006916 0.000000 0.000000 0.000000
# 4 0.000000 0.000000 0.000000 0.091097 0.000000 0.000000
# 5 0.000000 0.000000 0.000000 0.000000 0.381336 0.000000
# 6 0.000000 0.000000 0.000000 0.000000 0.000000 0.882073
#
#
# Mechanical properties :
#
#
# Convention : Reuss Voigt Hill
#
# Bulk Modulus (GPa) = 73.32024 85.96001 79.64013
# Shear Modulus (GPa) = 3.54995 21.80474 12.67735
#
# Velocity S-wave (km/s) = 1.30970 3.24590 2.47500
# Velocity P-wave (km/s) = 6.14125 7.45541 6.83001
#
# Compressibility (1/GPa) = 0.01363880
#
# Stress axis : x y z
#
# Youngs Moduli (GPa) = 56.70699 143.33672 144.58251
#
# Poissons Ratio (x) = 0.56851 0.58803
# Poissons Ratio (y) = 0.22492 0.13172
# Poissons Ratio (z) = 0.23063 0.13058
#
# Static dielectric constant tensor:
#      x y z
#    x 1.679790 0.000000 0.000000 
#    y 0.000000 1.598590 0.000000 
#    z 0.000000 0.000000 1.753490 
# 
# From -- ./inp_files/6150.got.cif
#   From: 2010.05.17/outbox.cif.g08.bks.cpg/sg62_4_cif.got.tgz:6150.got - 2010.06.03 15:25:27.
