data_PCOD9463469
_publ_section_title
;
Structure prediction by ZEFSAII (Michael W. Deem and Ramdas Pophale) SiO2 
 PCOD9463469
Probable space group: P N M A
;
_chemical_formula_sum "Si O2"
_cell_formula_units_Z 24
_cell_length_a 11.159613
_cell_length_b 9.600070
_cell_length_c 9.081322
_cell_angle_alpha 90.000000
_cell_angle_beta 90.000000
_cell_angle_gamma 90.000000
_cell_volume 972.909869
_symmetry_space_group_name_H-M "P N M A"
_symmetry_group_IT_number 62
_symmetry_cell_setting 'orthorhombic'
loop_
_space_group_symop_operation_xyz
x,y,z
1/2-x,-y,1/2+z
1/2+x,1/2-y,1/2-z
-x,1/2+y,-z
-x,-y,-z
1/2+x,y,1/2-z
1/2-x,1/2+y,1/2+z
x,1/2-y,z
loop_
_atom_site_type_symbol
_atom_site_label
_atom_site_fract_x
_atom_site_fract_y
_atom_site_fract_z
Si Si1 0.432820 0.453315 0.810266
Si Si2 0.329509 0.250000 0.031336
Si Si3 0.417350 0.750000 0.357456
Si Si4 0.332647 0.250000 0.588619
Si Si5 0.171336 0.250000 0.310963
O O1 0.598535 0.615999 0.032051
O O2 0.553754 0.384036 0.745348
O O3 0.336616 0.382552 0.696450
O O4 0.409898 0.614193 0.797376
O O5 0.283001 0.250000 0.196956
O O6 0.203650 0.250000 0.943213
O O7 0.530143 0.750000 0.471662
O O8 0.231573 0.250000 0.470838
#
# Coordination Sequence:
#
# PCOD9463469 Si02
#       5
#     8   4   4   4   4
#     4   8  20  35  53  79 111 142 171 232 260 318
#     4  10  19  35  66  71 105 154 177 214 269 325
#     4   7  18  40  52  79 108 139 188 212 267 313
#     4   7  18  36  50  74 116 130 171 226 256 316
#     4  12  17  31  56  82 109 137 182 214 282 304
#
# _framework density 24.668268999999999
#
# number of rings (size 3 to 8) (size 9 to 14) (size 15 to 20)
#    2.000    1.333    0.000    2.000    0.000    1.333 
#    0.000    0.000   14.667   16.000    0.000    0.000 
#    0.000    0.000    0.000    0.000    0.000    0.000 
#
# Total GULP energy -133953.002801 kJ/mol
# GULP energy per Si atom -5581.375117 kJ/mol
# Density = 2.461212 g / cm^3
# Si number density = 24.668269 Si / 1000 Ang^3
#
#
#
# Elastic Constant Matrix: (Units=GPa)
#
#
# Indices 1 2 3 4 5 6 
#
# 1 76.8586 15.5749 17.1235 0.0000 0.0000 0.0000
# 2 15.5749 211.9374 32.4170 0.0000 0.0000 0.0000
# 3 17.1235 32.4170 106.0646 0.0000 0.0000 0.0000
# 4 0.0000 0.0000 0.0000 16.9798 0.0000 0.0000
# 5 0.0000 0.0000 0.0000 0.0000 52.0960 0.0000
# 6 0.0000 0.0000 0.0000 0.0000 0.0000 -60.6417
#
#
#
# Elastic Compliance Matrix: (Units=1/GPa)
#
#
# Indices 1 2 3 4 5 6 
#
# 1 0.013593 -0.000696 -0.001982 0.000000 0.000000 0.000000
# 2 -0.000696 0.004985 -0.001411 0.000000 0.000000 0.000000
# 3 -0.001982 -0.001411 0.010180 0.000000 0.000000 0.000000
# 4 0.000000 0.000000 0.000000 0.058894 0.000000 0.000000
# 5 0.000000 0.000000 0.000000 0.000000 0.019195 0.000000
# 6 0.000000 0.000000 0.000000 0.000000 0.000000 -0.016490
#
#
# Mechanical properties :
#
#
# Convention : Reuss Voigt Hill
#
# Bulk Modulus (GPa) = 48.59042 58.34348 53.46695
# Shear Modulus (GPa) = 47.44043 23.66982 35.55512
#
# Velocity S-wave (km/s) = 4.39011 3.10098 3.80060
# Velocity P-wave (km/s) = 6.74075 6.04351 6.40163
#
# Compressibility (1/GPa) = 0.02058019
#
# Stress axis : x y z
#
# Youngs Moduli (GPa) = 73.56474 200.58627 98.23622
#
# Poissons Ratio (x) = 0.13957 0.19470
# Poissons Ratio (y) = 0.05119 0.13865
# Poissons Ratio (z) = 0.14580 0.28310
#
# Static dielectric constant tensor:
#      x y z
#    x 1.988190 0.000000 0.000000 
#    y 0.000000 1.933450 0.000000 
#    z 0.000000 0.000000 1.982790 
# 
# From -- ./inp_files/11657.got.cif
#   From: 2010.05.17/outbox.cif.g08.bks.cpg/sg62_6_cif.got.tgz:11657.got - 2010.06.03 15:25:27.
