data_PCOD9463844
_publ_section_title
;
Structure prediction by ZEFSAII (Michael W. Deem and Ramdas Pophale) SiO2 
 PCOD9463844
Probable space group: P N M A
;
_chemical_formula_sum "Si O2"
_cell_formula_units_Z 56
_cell_length_a 9.840121
_cell_length_b 14.180070
_cell_length_c 20.882544
_cell_angle_alpha 90.000000
_cell_angle_beta 90.000000
_cell_angle_gamma 90.000000
_cell_volume 2913.816637
_symmetry_space_group_name_H-M "P N M A"
_symmetry_group_IT_number 62
_symmetry_cell_setting 'orthorhombic'
loop_
_space_group_symop_operation_xyz
x,y,z
1/2-x,-y,1/2+z
1/2+x,1/2-y,1/2-z
-x,1/2+y,-z
-x,-y,-z
1/2+x,y,1/2-z
1/2-x,1/2+y,1/2+z
x,1/2-y,z
loop_
_atom_site_type_symbol
_atom_site_label
_atom_site_fract_x
_atom_site_fract_y
_atom_site_fract_z
Si Si1 0.627763 0.862316 0.516842
Si Si2 0.107234 0.641824 0.224283
Si Si3 0.626751 0.016922 0.776765
Si Si4 0.070585 0.142785 0.904466
Si Si5 0.704405 0.963948 0.639680
Si Si6 0.440518 0.639291 0.023855
Si Si7 0.992891 0.455598 0.396977
O O1 0.618739 0.750000 0.521963
O O2 0.511346 0.891182 0.466903
O O3 0.779877 0.881717 0.489598
O O4 0.619529 0.907026 0.586853
O O5 0.119132 0.750000 0.246384
O O6 0.251352 0.591521 0.219036
O O7 0.035466 0.642898 0.154700
O O8 0.010476 0.578076 0.268453
O O9 0.649838 0.958980 0.711539
O O10 0.615146 0.953853 0.839925
O O11 0.117682 0.250000 0.914028
O O12 0.187882 0.072288 0.883201
O O13 0.860003 0.934463 0.633215
O O14 0.454478 0.750000 0.039993
O O15 0.519280 0.612915 0.958043
O O16 0.487557 0.562382 0.075311
#
# Coordination Sequence:
#
# PCOD9463844 Si02
#       7
#     8   8   8   8   8   8   8
#     4   9  17  33  55  76 100 134 178 219 263 313
#     4  10  20  32  49  74 105 139 177 214 260 317
#     4  11  20  35  50  76 107 145 176 216 262 319
#     4   9  18  31  49  76 106 135 169 210 258 314
#     4  10  20  33  50  76 106 141 173 216 263 309
#     4   9  19  35  57  81 102 132 178 228 272 318
#     4  10  20  35  54  78 106 140 179 219 271 322
#
# _framework density 19.218779999999999
#
# number of rings (size 3 to 8) (size 9 to 14) (size 15 to 20)
#    0.000    2.286    1.429    1.714    0.000    3.429 
#    0.000    0.714    0.000    0.000    0.000    0.000 
#    0.000    0.000    0.000    0.000    0.000    0.000 
#
# Total GULP energy -312397.422639 kJ/mol
# GULP energy per Si atom -5578.525404 kJ/mol
# Density = 1.917504 g / cm^3
# Si number density = 19.218780 Si / 1000 Ang^3
#
#
#
# Elastic Constant Matrix: (Units=GPa)
#
#
# Indices 1 2 3 4 5 6 
#
# 1 21.7381 -6.2275 -8.6484 0.0000 0.0000 0.0000
# 2 -6.2275 11.5589 0.0822 0.0000 0.0000 0.0000
# 3 -8.6484 0.0822 74.9238 0.0000 0.0000 0.0000
# 4 0.0000 0.0000 0.0000 21.5722 0.0000 0.0000
# 5 0.0000 0.0000 0.0000 0.0000 1.4242 0.0000
# 6 0.0000 0.0000 0.0000 0.0000 0.0000 17.8445
#
#
#
# Elastic Compliance Matrix: (Units=1/GPa)
#
#
# Indices 1 2 3 4 5 6 
#
# 1 0.057488 0.030925 0.006602 0.000000 0.000000 0.000000
# 2 0.030925 0.103150 0.003457 0.000000 0.000000 0.000000
# 3 0.006602 0.003457 0.014105 0.000000 0.000000 0.000000
# 4 0.000000 0.000000 0.000000 0.046356 0.000000 0.000000
# 5 0.000000 0.000000 0.000000 0.000000 0.702135 0.000000
# 6 0.000000 0.000000 0.000000 0.000000 0.000000 0.056040
#
#
# Mechanical properties :
#
#
# Convention : Reuss Voigt Hill
#
# Bulk Modulus (GPa) = 3.89543 8.73705 6.31624
# Shear Modulus (GPa) = 5.08710 16.36914 10.72812
#
# Velocity S-wave (km/s) = 1.62871 2.92160 2.36521
# Velocity P-wave (km/s) = 2.35971 3.99211 3.27911
#
# Compressibility (1/GPa) = 0.25671080
#
# Stress axis : x y z
#
# Youngs Moduli (GPa) = 17.39490 9.69461 70.89605
#
# Poissons Ratio (x) = -0.29981 -0.46805
# Poissons Ratio (y) = -0.53794 -0.24505
# Poissons Ratio (z) = -0.11484 -0.03351
#
# Static dielectric constant tensor:
#      x y z
#    x 1.674770 0.000000 0.000000 
#    y 0.000000 1.658030 0.000000 
#    z 0.000000 0.000000 1.698810 
# 
# From -- ./inp_files/25994.got.cif
#   From: 2010.05.17/outbox.cif.g08.bks.cpg/sg62_13_cif.got.tgz:25994.got - 2010.06.03 15:25:27.
