data_PCOD9463799
_publ_section_title
;
Structure prediction by ZEFSAII (Michael W. Deem and Ramdas Pophale) SiO2 
 PCOD9463799
Probable space group: P N M A
;
_chemical_formula_sum "Si O2"
_cell_formula_units_Z 36
_cell_length_a 5.480213
_cell_length_b 31.905992
_cell_length_c 8.008167
_cell_angle_alpha 90.000000
_cell_angle_beta 90.000000
_cell_angle_gamma 90.000000
_cell_volume 1400.241070
_symmetry_space_group_name_H-M "P N M A"
_symmetry_group_IT_number 62
_symmetry_cell_setting 'orthorhombic'
loop_
_space_group_symop_operation_xyz
x,y,z
1/2-x,-y,1/2+z
1/2+x,1/2-y,1/2-z
-x,1/2+y,-z
-x,-y,-z
1/2+x,y,1/2-z
1/2-x,1/2+y,1/2+z
x,1/2-y,z
loop_
_atom_site_type_symbol
_atom_site_label
_atom_site_fract_x
_atom_site_fract_y
_atom_site_fract_z
Si Si1 0.159251 0.842294 0.546294
Si Si2 0.342389 0.376116 0.424708
Si Si3 0.120887 0.544461 0.333611
Si Si4 0.423291 0.536032 0.630233
Si Si5 0.366440 0.250000 0.139506
O O1 0.912293 0.865032 0.488576
O O2 0.172726 0.852282 0.746173
O O3 0.136540 0.792532 0.533016
O O4 0.418147 0.859204 0.480975
O O5 0.397178 0.424256 0.372224
O O6 0.355950 0.559590 0.226654
O O7 0.188810 0.552909 0.524821
O O8 0.120035 0.494243 0.288158
O O9 0.500000 0.500000 0.500000
O O10 0.116663 0.250000 0.250640
#
# Coordination Sequence:
#
# PCOD9463799 Si02
#       5
#     8   8   8   8   4
#     4  10  20  31  50  73 104 142 170 226 262 349
#     4  10  20  31  47  72 101 138 183 214 267 316
#     4  10  22  37  52  75  96 141 185 235 273 313
#     4  10  23  37  56  75 108 147 197 235 273 322
#     4  12  16  32  48  76 104 144 176 206 288 336
#
# _framework density 25.709859999999999
#
# number of rings (size 3 to 8) (size 9 to 14) (size 15 to 20)
#    0.000    1.778    4.444    0.667   12.444    3.556 
#    0.000    0.000    0.000    0.000    0.000    0.000 
#    0.000    0.000    0.000  136.000    0.000    0.000 
#
# Total GULP energy -201073.873181 kJ/mol
# GULP energy per Si atom -5585.385366 kJ/mol
# Density = 2.565134 g / cm^3
# Si number density = 25.709860 Si / 1000 Ang^3
#
#
#
# Elastic Constant Matrix: (Units=GPa)
#
#
# Indices 1 2 3 4 5 6 
#
# 1 231.2965 20.7434 -5.0840 0.0000 0.0000 0.0000
# 2 20.7434 182.0412 0.7479 0.0000 0.0000 0.0000
# 3 -5.0840 0.7479 22.6871 0.0000 0.0000 0.0000
# 4 0.0000 0.0000 0.0000 22.7906 0.0000 0.0000
# 5 0.0000 0.0000 0.0000 0.0000 23.7442 0.0000
# 6 0.0000 0.0000 0.0000 0.0000 0.0000 40.5525
#
#
#
# Elastic Compliance Matrix: (Units=1/GPa)
#
#
# Indices 1 2 3 4 5 6 
#
# 1 0.004391 -0.000504 0.001001 0.000000 0.000000 0.000000
# 2 -0.000504 0.005552 -0.000296 0.000000 0.000000 0.000000
# 3 0.001001 -0.000296 0.044312 0.000000 0.000000 0.000000
# 4 0.000000 0.000000 0.000000 0.043878 0.000000 0.000000
# 5 0.000000 0.000000 0.000000 0.000000 0.042115 0.000000
# 6 0.000000 0.000000 0.000000 0.000000 0.000000 0.024659
#
#
# Mechanical properties :
#
#
# Convention : Reuss Voigt Hill
#
# Bulk Modulus (GPa) = 18.29667 52.09326 35.19496
# Shear Modulus (GPa) = 27.36346 45.39195 36.37770
#
# Velocity S-wave (km/s) = 3.26593 4.20640 3.76564
# Velocity P-wave (km/s) = 4.62101 6.62553 5.71189
#
# Compressibility (1/GPa) = 0.05465476
#
# Stress axis : x y z
#
# Youngs Moduli (GPa) = 227.75482 180.11668 22.56726
#
# Poissons Ratio (x) = 0.09086 -0.02258
# Poissons Ratio (y) = 0.11489 0.00668
# Poissons Ratio (z) = -0.22788 0.05332
#
# Static dielectric constant tensor:
#      x y z
#    x 2.388170 0.000000 0.000000 
#    y 0.000000 2.000110 0.000000 
#    z 0.000000 0.000000 2.267300 
# 
# From -- ./inp_files/10716.got.cif
#   From: 2010.05.17/outbox.cif.g08.bks.cpg/sg62_6_cif.got.tgz:10716.got - 2010.06.03 15:25:27.
