data_PCOD9463988
_publ_section_title
;
Structure prediction by ZEFSAII (Michael W. Deem and Ramdas Pophale) SiO2 
 PCOD9463988
Probable space group: P N M A
;
_chemical_formula_sum "Si O2"
_cell_formula_units_Z 56
_cell_length_a 15.757832
_cell_length_b 22.850666
_cell_length_c 6.930964
_cell_angle_alpha 90.000000
_cell_angle_beta 90.000000
_cell_angle_gamma 90.000000
_cell_volume 2495.680419
_symmetry_space_group_name_H-M "P N M A"
_symmetry_group_IT_number 62
_symmetry_cell_setting 'orthorhombic'
loop_
_space_group_symop_operation_xyz
x,y,z
1/2-x,-y,1/2+z
1/2+x,1/2-y,1/2-z
-x,1/2+y,-z
-x,-y,-z
1/2+x,y,1/2-z
1/2-x,1/2+y,1/2+z
x,1/2-y,z
loop_
_atom_site_type_symbol
_atom_site_label
_atom_site_fract_x
_atom_site_fract_y
_atom_site_fract_z
Si Si1 0.988697 0.052488 0.256036
Si Si2 0.240880 0.566676 0.096612
Si Si3 0.940487 0.066742 0.803729
Si Si4 0.683306 0.313779 0.983050
Si Si5 0.532858 0.316157 0.704931
Si Si6 0.309160 0.056018 0.148402
Si Si7 0.353458 0.626977 0.632948
O O1 0.907192 0.076011 0.374565
O O2 0.078378 0.086727 0.251566
O O3 0.960711 0.057648 0.031444
O O4 0.004681 0.983875 0.295087
O O5 0.158451 0.554111 0.225029
O O6 0.272638 0.632181 0.122634
O O7 0.305386 0.513726 0.120523
O O8 0.212085 0.565018 0.874362
O O9 0.963255 0.133830 0.767433
O O10 0.721459 0.250000 0.943852
O O11 0.588680 0.313318 0.898024
O O12 0.681457 0.327376 0.210059
O O13 0.503796 0.250000 0.658944
O O14 0.594888 0.340464 0.535289
O O15 0.226146 0.087971 0.057352
#
# Coordination Sequence:
#
# PCOD9463988 Si02
#       7
#     8   8   8   8   8   8   8
#     4   9  17  32  55  82 113 145 179 235 291 333
#     4  10  20  34  54  83 114 151 183 239 288 336
#     4   9  17  32  55  79 111 144 187 232 279 342
#     4  10  22  38  55  81 114 149 194 236 281 343
#     4  10  21  37  59  80 107 154 195 232 284 340
#     4  10  20  33  54  85 115 146 189 233 290 349
#     4  10  20  38  59  83 113 150 190 236 292 340
#
# _framework density 22.438769000000001
#
# number of rings (size 3 to 8) (size 9 to 14) (size 15 to 20)
#    0.000    2.286    1.429    1.286    4.000    0.571 
#    2.571    2.143    0.000    4.286    0.000    0.000 
#    0.000    0.000    0.000    0.000    0.000    0.000 
#
# Total GULP energy -312608.336088 kJ/mol
# GULP energy per Si atom -5582.291716 kJ/mol
# Density = 2.238770 g / cm^3
# Si number density = 22.438769 Si / 1000 Ang^3
#
#
#
# Elastic Constant Matrix: (Units=GPa)
#
#
# Indices 1 2 3 4 5 6 
#
# 1 96.4059 46.8647 10.0107 0.0000 0.0000 0.0000
# 2 46.8647 170.3187 19.2021 0.0000 0.0000 0.0000
# 3 10.0107 19.2021 48.0923 0.0000 0.0000 0.0000
# 4 0.0000 0.0000 0.0000 26.6261 0.0000 0.0000
# 5 0.0000 0.0000 0.0000 0.0000 28.8114 0.0000
# 6 0.0000 0.0000 0.0000 0.0000 0.0000 30.8272
#
#
#
# Elastic Compliance Matrix: (Units=1/GPa)
#
#
# Indices 1 2 3 4 5 6 
#
# 1 0.012045 -0.003174 -0.001240 0.000000 0.000000 0.000000
# 2 -0.003174 0.006985 -0.002128 0.000000 0.000000 0.000000
# 3 -0.001240 -0.002128 0.021901 0.000000 0.000000 0.000000
# 4 0.000000 0.000000 0.000000 0.037557 0.000000 0.000000
# 5 0.000000 0.000000 0.000000 0.000000 0.034709 0.000000
# 6 0.000000 0.000000 0.000000 0.000000 0.000000 0.032439
#
#
# Mechanical properties :
#
#
# Convention : Reuss Voigt Hill
#
# Bulk Modulus (GPa) = 35.91163 51.88577 43.89870
# Shear Modulus (GPa) = 29.76165 33.16890 31.46528
#
# Velocity S-wave (km/s) = 3.64586 3.84890 3.74876
# Velocity P-wave (km/s) = 5.81051 6.55176 6.19224
#
# Compressibility (1/GPa) = 0.02784613
#
# Stress axis : x y z
#
# Youngs Moduli (GPa) = 83.02413 143.16913 45.65986
#
# Poissons Ratio (x) = 0.45448 0.05660
# Poissons Ratio (y) = 0.26356 0.09717
# Poissons Ratio (z) = 0.10292 0.30467
#
# Static dielectric constant tensor:
#      x y z
#    x 1.873380 0.000000 0.000000 
#    y 0.000000 1.808640 0.000000 
#    z 0.000000 0.000000 1.899540 
# 
# From -- ./inp_files/6786.got.cif
#   From: 2010.05.17/outbox.cif.g08.bks.cpg/sg62_4_cif.got.tgz:6786.got - 2010.06.03 15:25:27.
