data_PCOD9463218
_publ_section_title
;
Structure prediction by ZEFSAII (Michael W. Deem and Ramdas Pophale) SiO2 
 PCOD9463218
Probable space group: P N M A
;
_chemical_formula_sum "Si O2"
_cell_formula_units_Z 48
_cell_length_a 10.450006
_cell_length_b 8.623927
_cell_length_c 30.141287
_cell_angle_alpha 90.000000
_cell_angle_beta 90.000000
_cell_angle_gamma 90.000000
_cell_volume 2716.335464
_symmetry_space_group_name_H-M "P N M A"
_symmetry_group_IT_number 62
_symmetry_cell_setting 'orthorhombic'
loop_
_space_group_symop_operation_xyz
x,y,z
1/2-x,-y,1/2+z
1/2+x,1/2-y,1/2-z
-x,1/2+y,-z
-x,-y,-z
1/2+x,y,1/2-z
1/2-x,1/2+y,1/2+z
x,1/2-y,z
loop_
_atom_site_type_symbol
_atom_site_label
_atom_site_fract_x
_atom_site_fract_y
_atom_site_fract_z
Si Si1 0.766864 0.564017 0.115021
Si Si2 0.371717 0.935571 0.478628
Si Si3 0.784020 0.438136 0.211457
Si Si4 0.481272 0.436100 0.114967
Si Si5 0.378323 0.934581 0.026798
Si Si6 0.489651 0.438293 0.215916
O O1 0.754193 0.750000 0.116769
O O2 0.855273 0.522352 0.073276
O O3 0.812709 0.501326 0.162417
O O4 0.626843 0.491125 0.106771
O O5 0.370328 0.750000 0.481591
O O6 0.500000 0.000000 0.500000
O O7 0.249516 0.001117 0.504578
O O8 0.785260 0.250000 0.209806
O O9 0.637685 0.486060 0.223031
O O10 0.888366 0.490973 0.247374
O O11 0.475863 0.250000 0.111690
O O12 0.393445 0.510470 0.077490
O O13 0.451322 0.482535 0.165724
O O14 0.380377 0.750000 0.024441
O O15 0.500000 0.000000 0.000000
O O16 0.489368 0.250000 0.217069
#
# Coordination Sequence:
#
# PCOD9463218 Si02
#       6
#     8   8   8   8   8   8
#     4  10  20  35  56  81 111 146 186 229 280 340
#     4  11  24  41  59  82 116 153 192 237 287 342
#     4   9  17  33  55  78 105 141 181 225 272 327
#     4  10  19  34  58  85 112 145 189 235 280 331
#     4  12  23  37  60  87 116 149 190 235 281 336
#     4   8  16  31  53  78 106 137 180 226 270 326
#
# _framework density 17.670867000000001
#
# number of rings (size 3 to 8) (size 9 to 14) (size 15 to 20)
#    0.000    2.000    1.667    4.000    0.000    2.000 
#    3.000    4.167    0.000    0.000    0.000    0.000 
#    0.000    0.000    0.000    0.000    0.000    0.000 
#
# Total GULP energy -267913.003522 kJ/mol
# GULP energy per Si atom -5581.520907 kJ/mol
# Density = 1.763065 g / cm^3
# Si number density = 17.670867 Si / 1000 Ang^3
#
#
#
# Elastic Constant Matrix: (Units=GPa)
#
#
# Indices 1 2 3 4 5 6 
#
# 1 129.3634 39.6370 108.0150 0.0000 0.0000 0.0000
# 2 39.6370 57.1380 47.4030 0.0000 0.0000 0.0000
# 3 108.0150 47.4030 175.7009 0.0000 0.0000 0.0000
# 4 0.0000 0.0000 0.0000 30.6587 0.0000 0.0000
# 5 0.0000 0.0000 0.0000 0.0000 37.4511 0.0000
# 6 0.0000 0.0000 0.0000 0.0000 0.0000 22.9264
#
#
#
# Elastic Compliance Matrix: (Units=1/GPa)
#
#
# Indices 1 2 3 4 5 6 
#
# 1 0.016536 -0.003913 -0.009110 0.000000 0.000000 0.000000
# 2 -0.003913 0.023474 -0.003928 0.000000 0.000000 0.000000
# 3 -0.009110 -0.003928 0.012352 0.000000 0.000000 0.000000
# 4 0.000000 0.000000 0.000000 0.032617 0.000000 0.000000
# 5 0.000000 0.000000 0.000000 0.000000 0.026702 0.000000
# 6 0.000000 0.000000 0.000000 0.000000 0.000000 0.043618
#
#
# Mechanical properties :
#
#
# Convention : Reuss Voigt Hill
#
# Bulk Modulus (GPa) = 54.16960 83.59024 68.87992
# Shear Modulus (GPa) = 25.59472 29.35037 27.47255
#
# Velocity S-wave (km/s) = 3.80993 4.07989 3.94722
# Velocity P-wave (km/s) = 7.07640 8.34270 7.73551
#
# Compressibility (1/GPa) = 0.01846054
#
# Stress axis : x y z
#
# Youngs Moduli (GPa) = 60.47568 42.59944 80.96171
#
# Poissons Ratio (x) = 0.16670 0.73754
# Poissons Ratio (y) = 0.23665 0.31798
# Poissons Ratio (z) = 0.55092 0.16731
#
# Static dielectric constant tensor:
#      x y z
#    x 1.574970 0.000000 0.000000 
#    y 0.000000 1.597620 0.000000 
#    z 0.000000 0.000000 1.612130 
# 
# From -- ./inp_files/32022.got.cif
#   From: 2010.05.17/outbox.cif.g08.bks.cpg/sg62_17_cif.got.tgz:32022.got - 2010.06.03 15:25:27.
