data_PCOD9463081
_publ_section_title
;
Structure prediction by ZEFSAII (Michael W. Deem and Ramdas Pophale) SiO2 
 PCOD9463081
Probable space group: P N M A
;
_chemical_formula_sum "Si O2"
_cell_formula_units_Z 56
_cell_length_a 19.653074
_cell_length_b 8.301829
_cell_length_c 18.401144
_cell_angle_alpha 90.000000
_cell_angle_beta 90.000000
_cell_angle_gamma 90.000000
_cell_volume 3002.265509
_symmetry_space_group_name_H-M "P N M A"
_symmetry_group_IT_number 62
_symmetry_cell_setting 'orthorhombic'
loop_
_space_group_symop_operation_xyz
x,y,z
1/2-x,-y,1/2+z
1/2+x,1/2-y,1/2-z
-x,1/2+y,-z
-x,-y,-z
1/2+x,y,1/2-z
1/2-x,1/2+y,1/2+z
x,1/2-y,z
loop_
_atom_site_type_symbol
_atom_site_label
_atom_site_fract_x
_atom_site_fract_y
_atom_site_fract_z
Si Si1 0.640932 0.940561 0.550758
Si Si2 0.757248 0.436878 0.843968
Si Si3 0.785839 0.562147 0.514433
Si Si4 0.072202 0.054778 0.529531
Si Si5 0.392922 0.935177 0.605956
Si Si6 0.033402 0.440476 0.833933
Si Si7 0.887727 0.553072 0.308253
O O1 0.641111 0.750000 0.567058
O O2 0.718834 0.005768 0.553611
O O3 0.615991 0.962021 0.467639
O O4 0.589554 0.027671 0.604327
O O5 0.769431 0.250000 0.825039
O O6 0.828240 0.528864 0.842714
O O7 0.691171 0.499594 0.801295
O O8 0.733106 0.440639 0.928535
O O9 0.789523 0.750000 0.535997
O O10 0.862239 0.494397 0.516862
O O11 0.075017 0.250000 0.528672
O O12 0.083543 0.003381 0.613231
O O13 0.000000 0.000000 0.500000
O O14 0.391240 0.750000 0.583337
O O15 0.463537 0.974979 0.644253
O O16 0.020299 0.250000 0.828477
O O17 0.065398 0.498736 0.758051
O O18 0.885428 0.750000 0.308284
#
# Coordination Sequence:
#
# PCOD9463081 Si02
#       7
#     8   8   8   8   8   8   8
#     4  10  19  34  53  73  98 134 173 213 256 303
#     4   8  14  31  55  73  89 121 164 204 243 292
#     4   7  13  27  49  70  92 121 155 191 239 295
#     4   9  16  31  53  77  99 127 165 206 248 296
#     4  11  21  33  50  76 104 133 169 211 251 298
#     4  11  21  34  51  74 103 137 171 209 252 303
#     4   8  17  34  55  73  97 133 171 204 249 307
#
# _framework density 18.652581000000001
#
# number of rings (size 3 to 8) (size 9 to 14) (size 15 to 20)
#    0.000    2.857    0.000    5.143    0.000    0.000 
#    0.000   11.429    0.000    5.143    0.000    0.000 
#    0.000    0.000    0.000    0.000    0.000    0.000 
#
# Total GULP energy -311982.143795 kJ/mol
# GULP energy per Si atom -5571.109711 kJ/mol
# Density = 1.861013 g / cm^3
# Si number density = 18.652581 Si / 1000 Ang^3
#
#
#
# Elastic Constant Matrix: (Units=GPa)
#
#
# Indices 1 2 3 4 5 6 
#
# 1 172.4994 1.6212 44.8586 0.0000 0.0000 0.0000
# 2 1.6212 15.6003 -8.1095 0.0000 0.0000 0.0000
# 3 44.8586 -8.1095 41.2092 0.0000 0.0000 0.0000
# 4 0.0000 0.0000 0.0000 13.9445 0.0000 0.0000
# 5 0.0000 0.0000 0.0000 0.0000 11.8444 0.0000
# 6 0.0000 0.0000 0.0000 0.0000 0.0000 27.1677
#
#
#
# Elastic Compliance Matrix: (Units=1/GPa)
#
#
# Indices 1 2 3 4 5 6 
#
# 1 0.008630 -0.006439 -0.010662 0.000000 0.000000 0.000000
# 2 -0.006439 0.076210 0.022007 0.000000 0.000000 0.000000
# 3 -0.010662 0.022007 0.040203 0.000000 0.000000 0.000000
# 4 0.000000 0.000000 0.000000 0.071713 0.000000 0.000000
# 5 0.000000 0.000000 0.000000 0.000000 0.084428 0.000000
# 6 0.000000 0.000000 0.000000 0.000000 0.000000 0.036808
#
#
# Mechanical properties :
#
#
# Convention : Reuss Voigt Hill
#
# Bulk Modulus (GPa) = 7.41537 34.00551 20.71044
# Shear Modulus (GPa) = 14.15900 23.32056 18.73978
#
# Velocity S-wave (km/s) = 2.75815 3.53974 3.17310
# Velocity P-wave (km/s) = 3.75863 5.91413 4.95501
#
# Compressibility (1/GPa) = 0.13485495
#
# Stress axis : x y z
#
# Youngs Moduli (GPa) = 115.87218 13.12161 24.87386
#
# Poissons Ratio (x) = 0.08449 0.26520
# Poissons Ratio (y) = 0.74611 -0.54739
# Poissons Ratio (z) = 1.23538 -0.28876
#
# Static dielectric constant tensor:
#      x y z
#    x 1.675900 0.000000 0.000000 
#    y 0.000000 1.645150 0.000000 
#    z 0.000000 0.000000 1.629500 
# 
# From -- ./inp_files/27517.got.cif
#   From: 2010.05.17/outbox.cif.g08.bks.cpg/sg62_14_cif.got.tgz:27517.got - 2010.06.03 15:25:27.
