data_PCOD9463467
_publ_section_title
;
Structure prediction by ZEFSAII (Michael W. Deem and Ramdas Pophale) SiO2 
 PCOD9463467
Probable space group: P N M A
;
_chemical_formula_sum "Si O2"
_cell_formula_units_Z 56
_cell_length_a 18.426830
_cell_length_b 18.144911
_cell_length_c 7.309882
_cell_angle_alpha 90.000000
_cell_angle_beta 90.000000
_cell_angle_gamma 90.000000
_cell_volume 2444.082368
_symmetry_space_group_name_H-M "P N M A"
_symmetry_group_IT_number 62
_symmetry_cell_setting 'orthorhombic'
loop_
_space_group_symop_operation_xyz
x,y,z
1/2-x,-y,1/2+z
1/2+x,1/2-y,1/2-z
-x,1/2+y,-z
-x,-y,-z
1/2+x,y,1/2-z
1/2-x,1/2+y,1/2+z
x,1/2-y,z
loop_
_atom_site_type_symbol
_atom_site_label
_atom_site_fract_x
_atom_site_fract_y
_atom_site_fract_z
Si Si1 0.330635 0.164097 0.493720
Si Si2 0.502151 0.836044 0.392515
Si Si3 0.935674 0.661591 0.735781
Si Si4 0.947970 0.401895 0.531554
Si Si5 0.296356 0.164262 0.073151
Si Si6 0.257038 0.933068 0.285397
Si Si7 0.646664 0.042437 0.035138
O O1 0.312195 0.250000 0.528916
O O2 0.417049 0.156961 0.521196
O O3 0.289153 0.112322 0.634874
O O4 0.308932 0.146852 0.285421
O O5 0.492032 0.750000 0.342689
O O6 0.444682 0.855083 0.549437
O O7 0.504819 0.883301 0.209762
O O8 0.933112 0.750000 0.713633
O O9 0.871993 0.619284 0.630684
O O10 0.006938 0.627802 0.639157
O O11 0.872803 0.355103 0.526485
O O12 0.920624 0.485686 0.539297
O O13 0.280278 0.250000 0.055997
O O14 0.237141 0.116762 0.965948
O O15 0.210686 0.002558 0.352425
O O16 0.328914 0.951870 0.175068
#
# Coordination Sequence:
#
# PCOD9463467 Si02
#       7
#     8   8   8   8   8   8   8
#     4  10  19  36  66  98 126 167 221 274 332 392
#     4  10  19  35  65 100 131 163 207 267 333 403
#     4  11  24  44  68  97 135 167 209 276 343 408
#     4  11  21  40  66 100 130 169 218 275 335 406
#     4  10  19  35  65 100 129 170 224 277 331 392
#     4  11  25  43  62  89 134 180 226 282 316 389
#     4  11  27  45  65  92 132 181 227 276 336 394
#
# _framework density 22.912483999999999
#
# number of rings (size 3 to 8) (size 9 to 14) (size 15 to 20)
#    0.000    1.429    4.286    2.143    4.000    1.714 
#    2.571    0.000    0.000    0.000    0.000    0.000 
#    0.000    0.000    0.000    0.000    0.000    0.000 
#
# Total GULP energy -313399.653807 kJ/mol
# GULP energy per Si atom -5596.422389 kJ/mol
# Density = 2.286033 g / cm^3
# Si number density = 22.912484 Si / 1000 Ang^3
#
#
#
# Elastic Constant Matrix: (Units=GPa)
#
#
# Indices 1 2 3 4 5 6 
#
# 1 41.8531 6.8967 3.1589 0.0000 0.0000 0.0000
# 2 6.8967 64.3705 11.4021 0.0000 0.0000 0.0000
# 3 3.1589 11.4021 81.4023 0.0000 0.0000 0.0000
# 4 0.0000 0.0000 0.0000 42.9732 0.0000 0.0000
# 5 0.0000 0.0000 0.0000 0.0000 38.6819 0.0000
# 6 0.0000 0.0000 0.0000 0.0000 0.0000 15.0979
#
#
#
# Elastic Compliance Matrix: (Units=1/GPa)
#
#
# Indices 1 2 3 4 5 6 
#
# 1 0.024351 -0.002504 -0.000594 0.000000 0.000000 0.000000
# 2 -0.002504 0.016188 -0.002170 0.000000 0.000000 0.000000
# 3 -0.000594 -0.002170 0.012612 0.000000 0.000000 0.000000
# 4 0.000000 0.000000 0.000000 0.023270 0.000000 0.000000
# 5 0.000000 0.000000 0.000000 0.000000 0.025852 0.000000
# 6 0.000000 0.000000 0.000000 0.000000 0.000000 0.066234
#
#
# Mechanical properties :
#
#
# Convention : Reuss Voigt Hill
#
# Bulk Modulus (GPa) = 23.46670 25.61570 24.54120
# Shear Modulus (GPa) = 25.87359 30.42850 28.15104
#
# Velocity S-wave (km/s) = 3.36406 3.64817 3.50899
# Velocity P-wave (km/s) = 5.03520 5.38048 5.21070
#
# Compressibility (1/GPa) = 0.04261357
#
# Stress axis : x y z
#
# Youngs Moduli (GPa) = 41.06690 61.77519 79.29139
#
# Poissons Ratio (x) = 0.15466 0.04712
# Poissons Ratio (y) = 0.10282 0.17208
# Poissons Ratio (z) = 0.02440 0.13407
#
# Static dielectric constant tensor:
#      x y z
#    x 1.892370 0.000000 0.000000 
#    y 0.000000 1.837500 0.000000 
#    z 0.000000 0.000000 1.837350 
# 
# From -- ./inp_files/8045.got.cif
#   From: 2010.05.17/outbox.cif.g08.bks.cpg/sg62_5_cif.got.tgz:8045.got - 2010.06.03 15:25:27.
