data_PCOD9463915
_publ_section_title
;
Structure prediction by ZEFSAII (Michael W. Deem and Ramdas Pophale) SiO2 
 PCOD9463915
Probable space group: P N M A
;
_chemical_formula_sum "Si O2"
_cell_formula_units_Z 48
_cell_length_a 13.694889
_cell_length_b 13.111725
_cell_length_c 13.235913
_cell_angle_alpha 90.000000
_cell_angle_beta 90.000000
_cell_angle_gamma 90.000000
_cell_volume 2376.688432
_symmetry_space_group_name_H-M "P N M A"
_symmetry_group_IT_number 62
_symmetry_cell_setting 'orthorhombic'
loop_
_space_group_symop_operation_xyz
x,y,z
1/2-x,-y,1/2+z
1/2+x,1/2-y,1/2-z
-x,1/2+y,-z
-x,-y,-z
1/2+x,y,1/2-z
1/2-x,1/2+y,1/2+z
x,1/2-y,z
loop_
_atom_site_type_symbol
_atom_site_label
_atom_site_fract_x
_atom_site_fract_y
_atom_site_fract_z
Si Si1 0.969277 0.126773 0.878160
Si Si2 0.347175 0.494321 0.454776
Si Si3 0.542411 0.366760 0.009762
Si Si4 0.307653 0.361288 0.047274
Si Si5 0.516286 0.514381 0.177001
Si Si6 0.640093 0.633391 0.731643
O O1 0.970552 0.250000 0.883628
O O2 0.073322 0.076306 0.911773
O O3 0.943097 0.088846 0.763813
O O4 0.895623 0.074399 0.957597
O O5 0.255126 0.553906 0.495643
O O6 0.316491 0.420050 0.364845
O O7 0.577778 0.250000 0.015771
O O8 0.551202 0.417510 0.899054
O O9 0.423862 0.363611 0.026052
O O10 0.576642 0.443287 0.098441
O O11 0.272844 0.250000 0.013591
O O12 0.295221 0.369538 0.167853
O O13 0.455121 0.431396 0.239500
O O14 0.613917 0.750000 0.711554
#
# Coordination Sequence:
#
# PCOD9463915 Si02
#       6
#     8   8   8   8   8   8
#     4  10  20  33  50  73 100 130 166 210 253 293
#     4  10  20  33  53  75  98 130 169 208 248 302
#     4   9  17  31  52  76 104 135 165 204 250 295
#     4   9  18  33  52  73  99 132 167 203 249 300
#     4   9  17  30  51  76  99 133 169 200 245 299
#     4   9  18  34  54  73 100 136 166 203 253 297
#
# _framework density 20.196169000000001
#
# number of rings (size 3 to 8) (size 9 to 14) (size 15 to 20)
#    0.000    2.667    0.000    3.000    0.000    1.333 
#    0.000    2.500    0.000   43.000    0.000    0.000 
#    0.000    0.000    0.000    0.000    0.000    0.000 
#
# Total GULP energy -267451.725197 kJ/mol
# GULP energy per Si atom -5571.910942 kJ/mol
# Density = 2.015020 g / cm^3
# Si number density = 20.196169 Si / 1000 Ang^3
#
#
#
# Elastic Constant Matrix: (Units=GPa)
#
#
# Indices 1 2 3 4 5 6 
#
# 1 44.2335 28.6518 22.3870 0.0000 0.0000 0.0000
# 2 28.6518 188.0115 68.2218 0.0000 0.0000 0.0000
# 3 22.3870 68.2218 91.1833 0.0000 0.0000 0.0000
# 4 0.0000 0.0000 0.0000 34.7837 0.0000 0.0000
# 5 0.0000 0.0000 0.0000 0.0000 3.7307 0.0000
# 6 0.0000 0.0000 0.0000 0.0000 0.0000 21.1264
#
#
#
# Elastic Compliance Matrix: (Units=1/GPa)
#
#
# Indices 1 2 3 4 5 6 
#
# 1 0.026523 -0.002305 -0.004787 0.000000 0.000000 0.000000
# 2 -0.002305 0.007501 -0.005046 0.000000 0.000000 0.000000
# 3 -0.004787 -0.005046 0.015918 0.000000 0.000000 0.000000
# 4 0.000000 0.000000 0.000000 0.028749 0.000000 0.000000
# 5 0.000000 0.000000 0.000000 0.000000 0.268043 0.000000
# 6 0.000000 0.000000 0.000000 0.000000 0.000000 0.047334
#
#
# Mechanical properties :
#
#
# Convention : Reuss Voigt Hill
#
# Bulk Modulus (GPa) = 38.96354 62.43882 50.70118
# Shear Modulus (GPa) = 11.71233 25.53934 18.62583
#
# Velocity S-wave (km/s) = 2.41078 3.55993 3.04014
# Velocity P-wave (km/s) = 5.20419 6.91959 6.12227
#
# Compressibility (1/GPa) = 0.02566502
#
# Stress axis : x y z
#
# Youngs Moduli (GPa) = 37.70284 133.31206 62.82214
#
# Poissons Ratio (x) = 0.30726 0.30076
# Poissons Ratio (y) = 0.08690 0.31703
# Poissons Ratio (z) = 0.18050 0.67275
#
# Static dielectric constant tensor:
#      x y z
#    x 1.732290 0.000000 0.000000 
#    y 0.000000 1.729870 0.000000 
#    z 0.000000 0.000000 1.746570 
# 
# From -- ./inp_files/14123.got.cif
#   From: 2010.05.17/outbox.cif.g08.bks.cpg/sg62_8_cif.got.tgz:14123.got - 2010.06.03 15:25:27.
