data_PCOD9463411
_publ_section_title
;
Structure prediction by ZEFSAII (Michael W. Deem and Ramdas Pophale) SiO2 
 PCOD9463411
Probable space group: P N M A
;
_chemical_formula_sum "Si O2"
_cell_formula_units_Z 64
_cell_length_a 26.767145
_cell_length_b 7.774209
_cell_length_c 11.617570
_cell_angle_alpha 90.000000
_cell_angle_beta 90.000000
_cell_angle_gamma 90.000000
_cell_volume 2417.539404
_symmetry_space_group_name_H-M "P N M A"
_symmetry_group_IT_number 62
_symmetry_cell_setting 'orthorhombic'
loop_
_space_group_symop_operation_xyz
x,y,z
1/2-x,-y,1/2+z
1/2+x,1/2-y,1/2-z
-x,1/2+y,-z
-x,-y,-z
1/2+x,y,1/2-z
1/2-x,1/2+y,1/2+z
x,1/2-y,z
loop_
_atom_site_type_symbol
_atom_site_label
_atom_site_fract_x
_atom_site_fract_y
_atom_site_fract_z
Si Si1 0.781934 0.543865 0.617068
Si Si2 0.164867 0.061245 0.692514
Si Si3 0.980778 0.051056 0.150595
Si Si4 0.395494 0.540477 0.899530
Si Si5 0.763128 0.561553 0.878566
Si Si6 0.627899 0.547445 0.582753
Si Si7 0.449592 0.951435 0.110344
Si Si8 0.911230 0.958026 0.860764
O O1 0.779953 0.750000 0.630617
O O2 0.837920 0.495039 0.573879
O O3 0.778679 0.478717 0.752169
O O4 0.742904 0.506408 0.511457
O O5 0.181537 0.250000 0.652926
O O6 0.108445 0.036169 0.652148
O O7 0.204290 0.927067 0.650785
O O8 0.162659 0.051232 0.830118
O O9 0.979927 0.250000 0.117286
O O10 0.033005 0.974763 0.109244
O O11 0.980135 0.043708 0.290061
O O12 0.928183 0.975217 0.110072
O O13 0.398019 0.750000 0.906685
O O14 0.402643 0.487758 0.768899
O O15 0.440737 0.478483 0.981860
O O16 0.787222 0.750000 0.884762
O O17 0.630260 0.750000 0.611514
O O18 0.631146 0.524145 0.446768
O O19 0.462962 0.750000 0.110663
O O20 0.911926 0.750000 0.864937
#
# Coordination Sequence:
#
# PCOD9463411 Si02
#       8
#     8   8   8   8   8   8   8   8
#     4  10  22  42  63  86 121 158 193 238 295 354
#     4  10  19  35  60  83 108 146 189 227 279 348
#     4   9  19  33  50  77 111 146 185 239 291 336
#     4   9  18  36  58  78 105 145 189 232 276 338
#     4  11  23  38  62  94 123 153 195 248 296 349
#     4  10  20  34  52  78 115 149 187 240 290 340
#     4   9  17  32  56  79 101 140 187 227 273 337
#     4  10  20  34  53  77 109 151 195 235 287 346
#
# _framework density 26.473198
#
# number of rings (size 3 to 8) (size 9 to 14) (size 15 to 20)
#    0.000    2.250    1.250    1.500    0.000    4.000 
#    0.000    2.500    0.000    0.000    0.000    0.000 
#    0.000    0.000    0.000    0.000    0.000    0.000 
#
# Total GULP energy -357227.252880 kJ/mol
# GULP energy per Si atom -5581.675826 kJ/mol
# Density = 2.641294 g / cm^3
# Si number density = 26.473198 Si / 1000 Ang^3
#
#
#
# Elastic Constant Matrix: (Units=GPa)
#
#
# Indices 1 2 3 4 5 6 
#
# 1 40.2177 6.6000 4.2751 0.0000 0.0000 0.0000
# 2 6.6000 50.7365 -0.5811 0.0000 0.0000 0.0000
# 3 4.2751 -0.5811 158.2405 0.0000 0.0000 0.0000
# 4 0.0000 0.0000 0.0000 12.1337 0.0000 0.0000
# 5 0.0000 0.0000 0.0000 0.0000 58.9695 0.0000
# 6 0.0000 0.0000 0.0000 0.0000 0.0000 14.7612
#
#
#
# Elastic Compliance Matrix: (Units=1/GPa)
#
#
# Indices 1 2 3 4 5 6 
#
# 1 0.025484 -0.003323 -0.000701 0.000000 0.000000 0.000000
# 2 -0.003323 0.020144 0.000164 0.000000 0.000000 0.000000
# 3 -0.000701 0.000164 0.006339 0.000000 0.000000 0.000000
# 4 0.000000 0.000000 0.000000 0.082415 0.000000 0.000000
# 5 0.000000 0.000000 0.000000 0.000000 0.016958 0.000000
# 6 0.000000 0.000000 0.000000 0.000000 0.000000 0.067745
#
#
# Mechanical properties :
#
#
# Convention : Reuss Voigt Hill
#
# Bulk Modulus (GPa) = 22.60033 29.97585 26.28809
# Shear Modulus (GPa) = 20.69923 33.09960 26.89941
#
# Velocity S-wave (km/s) = 2.79927 3.53980 3.19109
# Velocity P-wave (km/s) = 4.35930 5.29666 4.85067
#
# Compressibility (1/GPa) = 0.04424715
#
# Stress axis : x y z
#
# Youngs Moduli (GPa) = 39.23955 49.64296 157.75290
#
# Poissons Ratio (x) = 0.16497 0.11054
# Poissons Ratio (y) = 0.13040 -0.02583
# Poissons Ratio (z) = 0.02750 -0.00813
#
# Static dielectric constant tensor:
#      x y z
#    x 2.116320 0.000000 0.000000 
#    y 0.000000 2.249700 0.000000 
#    z 0.000000 0.000000 2.258500 
# 
# From -- ./inp_files/15816.got.cif
#   From: 2010.05.17/outbox.cif.g08.bks.cpg/sg62_8_cif.got.tgz:15816.got - 2010.06.03 15:25:27.
