data_PCOD9463539
_publ_section_title
;
Structure prediction by ZEFSAII (Michael W. Deem and Ramdas Pophale) SiO2 
 PCOD9463539
Probable space group: P N M A
;
_chemical_formula_sum "Si O2"
_cell_formula_units_Z 64
_cell_length_a 24.654669
_cell_length_b 7.469525
_cell_length_c 15.154074
_cell_angle_alpha 90.000000
_cell_angle_beta 90.000000
_cell_angle_gamma 90.000000
_cell_volume 2790.754059
_symmetry_space_group_name_H-M "P N M A"
_symmetry_group_IT_number 62
_symmetry_cell_setting 'orthorhombic'
loop_
_space_group_symop_operation_xyz
x,y,z
1/2-x,-y,1/2+z
1/2+x,1/2-y,1/2-z
-x,1/2+y,-z
-x,-y,-z
1/2+x,y,1/2-z
1/2-x,1/2+y,1/2+z
x,1/2-y,z
loop_
_atom_site_type_symbol
_atom_site_label
_atom_site_fract_x
_atom_site_fract_y
_atom_site_fract_z
Si Si1 0.243182 0.042012 0.717557
Si Si2 0.668333 0.469802 0.945397
Si Si3 0.137684 0.034883 0.014497
Si Si4 0.045013 0.463750 0.573302
Si Si5 0.363566 0.455235 0.713232
Si Si6 0.536112 0.036932 0.584934
Si Si7 0.977986 0.029509 0.740088
Si Si8 0.754259 0.458678 0.084388
O O1 0.249736 0.250000 0.692144
O O2 0.201053 0.972707 0.643830
O O3 0.303853 0.960081 0.716812
O O4 0.227905 0.036621 0.821055
O O5 0.668525 0.250000 0.946513
O O6 0.605903 0.530802 0.944086
O O7 0.700977 0.528768 0.033267
O O8 0.134678 0.250000 0.021476
O O9 0.121935 0.957855 0.109441
O O10 0.095893 0.971315 0.939702
O O11 0.197615 0.982131 0.985862
O O12 0.050620 0.250000 0.581816
O O13 0.000000 0.500000 0.500000
O O14 0.017118 0.529852 0.662493
O O15 0.357689 0.250000 0.743959
O O16 0.415443 0.532184 0.763944
O O17 0.540709 0.250000 0.597644
O O18 0.505623 0.966588 0.669880
O O19 0.500000 0.000000 0.500000
O O20 0.975721 0.250000 0.740263
O O21 0.745642 0.250000 0.101177
#
# Coordination Sequence:
#
# PCOD9463539 Si02
#       8
#     8   8   8   8   8   8   8   8
#     4  10  21  38  61  88 114 149 197 247 297 353
#     4   9  20  40  63  84 115 157 197 238 294 358
#     4  11  22  35  56  88 120 153 194 241 289 347
#     4  10  22  41  63  84 112 153 200 247 291 344
#     4  10  19  36  60  83 115 155 194 238 297 361
#     4  10  20  34  55  84 117 153 191 232 283 348
#     4   9  19  35  58  83 111 153 195 231 285 352
#     4  11  23  40  60  85 116 157 198 240 300 358
#
# _framework density 22.932867999999999
#
# number of rings (size 3 to 8) (size 9 to 14) (size 15 to 20)
#    0.000    2.000    2.500    0.750    3.500    1.000 
#    0.000    2.500    0.000    0.000    0.000    0.000 
#    0.000    0.000    0.000    0.000    0.000    0.000 
#
# Total GULP energy -357374.410231 kJ/mol
# GULP energy per Si atom -5583.975160 kJ/mol
# Density = 2.288067 g / cm^3
# Si number density = 22.932868 Si / 1000 Ang^3
#
#
#
# Elastic Constant Matrix: (Units=GPa)
#
#
# Indices 1 2 3 4 5 6 
#
# 1 155.2658 2.7111 21.2782 0.0000 0.0000 0.0000
# 2 2.7111 70.1503 -8.3571 0.0000 0.0000 0.0000
# 3 21.2782 -8.3571 71.4304 0.0000 0.0000 0.0000
# 4 0.0000 0.0000 0.0000 11.6663 0.0000 0.0000
# 5 0.0000 0.0000 0.0000 0.0000 36.2003 0.0000
# 6 0.0000 0.0000 0.0000 0.0000 0.0000 0.1373
#
#
#
# Elastic Compliance Matrix: (Units=1/GPa)
#
#
# Indices 1 2 3 4 5 6 
#
# 1 0.006732 -0.000506 -0.002065 0.000000 0.000000 0.000000
# 2 -0.000506 0.014495 0.001847 0.000000 0.000000 0.000000
# 3 -0.002065 0.001847 0.014831 0.000000 0.000000 0.000000
# 4 0.000000 0.000000 0.000000 0.085717 0.000000 0.000000
# 5 0.000000 0.000000 0.000000 0.000000 0.027624 0.000000
# 6 0.000000 0.000000 0.000000 0.000000 0.000000 7.281142
#
#
# Mechanical properties :
#
#
# Convention : Reuss Voigt Hill
#
# Bulk Modulus (GPa) = 28.89399 36.45674 32.67536
# Shear Modulus (GPa) = 0.67172 28.34839 14.51006
#
# Velocity S-wave (km/s) = 0.54180 3.51970 2.51812
# Velocity P-wave (km/s) = 3.60806 5.69644 4.76799
#
# Compressibility (1/GPa) = 0.03460927
#
# Stress axis : x y z
#
# Youngs Moduli (GPa) = 148.53632 68.99091 67.42751
#
# Poissons Ratio (x) = 0.03492 0.13922
# Poissons Ratio (y) = 0.07518 -0.12451
# Poissons Ratio (z) = 0.30668 -0.12740
#
# Static dielectric constant tensor:
#      x y z
#    x 1.856860 0.000000 0.000000 
#    y 0.000000 1.906160 0.000000 
#    z 0.000000 0.000000 1.852870 
# 
# From -- ./inp_files/20792.got.cif
#   From: 2010.05.17/outbox.cif.g08.bks.cpg/sg62_11_cif.got.tgz:20792.got - 2010.06.03 15:25:27.
