data_PCOD9463688
_publ_section_title
;
Structure prediction by ZEFSAII (Michael W. Deem and Ramdas Pophale) SiO2 
 PCOD9463688
Probable space group: P N M A
;
_chemical_formula_sum "Si O2"
_cell_formula_units_Z 48
_cell_length_a 25.142841
_cell_length_b 14.677723
_cell_length_c 5.344400
_cell_angle_alpha 90.000000
_cell_angle_beta 90.000000
_cell_angle_gamma 90.000000
_cell_volume 1972.295536
_symmetry_space_group_name_H-M "P N M A"
_symmetry_group_IT_number 62
_symmetry_cell_setting 'orthorhombic'
loop_
_space_group_symop_operation_xyz
x,y,z
1/2-x,-y,1/2+z
1/2+x,1/2-y,1/2-z
-x,1/2+y,-z
-x,-y,-z
1/2+x,y,1/2-z
1/2-x,1/2+y,1/2+z
x,1/2-y,z
loop_
_atom_site_type_symbol
_atom_site_label
_atom_site_fract_x
_atom_site_fract_y
_atom_site_fract_z
Si Si1 0.635471 0.942625 0.953694
Si Si2 0.790772 0.750000 0.527809
Si Si3 0.359433 0.750000 0.473940
Si Si4 0.030751 0.925890 0.246644
Si Si5 0.921083 0.564826 0.109788
Si Si6 0.427777 0.250000 0.499272
Si Si7 0.271896 0.546400 0.879592
Si Si8 0.359997 0.250000 0.997396
O O1 0.667524 0.847851 0.963620
O O2 0.623048 0.991116 0.692706
O O3 0.577309 0.913836 0.052697
O O4 0.665415 0.019780 0.112200
O O5 0.816107 0.750000 0.250391
O O6 0.762196 0.847083 0.567554
O O7 0.833993 0.750000 0.751626
O O8 0.394361 0.839898 0.439035
O O9 0.038898 0.840802 0.057031
O O10 0.968727 0.925216 0.315061
O O11 0.047245 0.020167 0.117137
O O12 0.402714 0.250000 0.225707
O O13 0.381622 0.250000 0.712602
O O14 0.250264 0.509458 0.617951
#
# Coordination Sequence:
#
# PCOD9463688 Si02
#       8
#     8   4   4   8   8   4   8   4
#     4  11  23  43  67  96 143 184 237 296 371 430
#     4  12  26  52  80 106 153 187 252 310 387 452
#     4  12  25  44  75 108 145 207 236 312 369 452
#     4  10  22  38  64  98 142 189 238 297 349 446
#     4  11  22  39  65 100 140 190 243 286 364 436
#     4  10  19  38  55  92 130 171 225 274 335 405
#     4  12  29  49  80 110 144 192 252 318 383 456
#     4  10  22  36  66  90 126 179 217 280 347 421
#
# _framework density 24.337126000000001
#
# number of rings (size 3 to 8) (size 9 to 14) (size 15 to 20)
#    0.000    1.000    3.333    3.000    2.333    1.333 
#    0.000    1.667    0.000    0.000    0.000    0.000 
#    0.000    0.000    0.000    0.000    0.000    0.000 
#
# Total GULP energy -268236.070635 kJ/mol
# GULP energy per Si atom -5588.251472 kJ/mol
# Density = 2.428173 g / cm^3
# Si number density = 24.337126 Si / 1000 Ang^3
#
#
#
# Elastic Constant Matrix: (Units=GPa)
#
#
# Indices 1 2 3 4 5 6 
#
# 1 32.2075 5.9370 15.1100 0.0000 0.0000 0.0000
# 2 5.9370 185.2054 17.1209 0.0000 0.0000 0.0000
# 3 15.1100 17.1209 79.7742 0.0000 0.0000 0.0000
# 4 0.0000 0.0000 0.0000 32.7618 0.0000 0.0000
# 5 0.0000 0.0000 0.0000 0.0000 34.4602 0.0000
# 6 0.0000 0.0000 0.0000 0.0000 0.0000 38.1226
#
#
#
# Elastic Compliance Matrix: (Units=1/GPa)
#
#
# Indices 1 2 3 4 5 6 
#
# 1 0.034123 -0.000506 -0.006355 0.000000 0.000000 0.000000
# 2 -0.000506 0.005516 -0.001088 0.000000 0.000000 0.000000
# 3 -0.006355 -0.001088 0.013973 0.000000 0.000000 0.000000
# 4 0.000000 0.000000 0.000000 0.030523 0.000000 0.000000
# 5 0.000000 0.000000 0.000000 0.000000 0.029019 0.000000
# 6 0.000000 0.000000 0.000000 0.000000 0.000000 0.026231
#
#
# Mechanical properties :
#
#
# Convention : Reuss Voigt Hill
#
# Bulk Modulus (GPa) = 26.51532 41.50254 34.00893
# Shear Modulus (GPa) = 29.78765 38.33687 34.06226
#
# Velocity S-wave (km/s) = 3.50231 3.97324 3.74518
# Velocity P-wave (km/s) = 5.22241 6.17568 5.71894
#
# Compressibility (1/GPa) = 0.03771404
#
# Stress axis : x y z
#
# Youngs Moduli (GPa) = 29.30550 181.28364 71.56913
#
# Poissons Ratio (x) = 0.09181 0.45479
# Poissons Ratio (y) = 0.01484 0.07786
# Poissons Ratio (z) = 0.18622 0.19723
#
# Static dielectric constant tensor:
#      x y z
#    x 2.036480 0.000000 0.000000 
#    y 0.000000 1.984180 0.000000 
#    z 0.000000 0.000000 1.974880 
# 
# From -- ./inp_files/3228.got.cif
#   From: 2010.05.17/outbox.cif.g08.bks.cpg/sg62_2_cif.got.tgz:3228.got - 2010.06.03 15:25:27.
