data_PCOD9463657
_publ_section_title
;
Structure prediction by ZEFSAII (Michael W. Deem and Ramdas Pophale) SiO2 
 PCOD9463657
Probable space group: P N M A
;
_chemical_formula_sum "Si O2"
_cell_formula_units_Z 64
_cell_length_a 24.275147
_cell_length_b 8.502017
_cell_length_c 15.533115
_cell_angle_alpha 90.000000
_cell_angle_beta 90.000000
_cell_angle_gamma 90.000000
_cell_volume 3205.844072
_symmetry_space_group_name_H-M "P N M A"
_symmetry_group_IT_number 62
_symmetry_cell_setting 'orthorhombic'
loop_
_space_group_symop_operation_xyz
x,y,z
1/2-x,-y,1/2+z
1/2+x,1/2-y,1/2-z
-x,1/2+y,-z
-x,-y,-z
1/2+x,y,1/2-z
1/2-x,1/2+y,1/2+z
x,1/2-y,z
loop_
_atom_site_type_symbol
_atom_site_label
_atom_site_fract_x
_atom_site_fract_y
_atom_site_fract_z
Si Si1 0.361662 0.438513 0.188290
Si Si2 0.470209 0.935229 0.916029
Si Si3 0.525699 0.557910 0.742424
Si Si4 0.752905 0.939407 0.071873
Si Si5 0.633099 0.563890 0.007773
Si Si6 0.242484 0.562486 0.230363
Si Si7 0.334606 0.438797 0.571556
Si Si8 0.459687 0.560793 0.574210
O O1 0.352664 0.250000 0.196151
O O2 0.410096 0.488628 0.253113
O O3 0.382496 0.467430 0.091107
O O4 0.304091 0.524072 0.199611
O O5 0.478595 0.750000 0.915020
O O6 0.495987 0.999883 0.828753
O O7 0.500000 0.000000 0.000000
O O8 0.406272 0.974429 0.927239
O O9 0.526198 0.750000 0.743168
O O10 0.489932 0.508349 0.661741
O O11 0.760171 0.750000 0.074697
O O12 0.742602 0.995939 0.170200
O O13 0.696688 0.975139 0.021079
O O14 0.802385 0.008726 0.015070
O O15 0.626227 0.750000 0.022907
O O16 0.234028 0.750000 0.234976
O O17 0.199074 0.503859 0.157572
O O18 0.334821 0.250000 0.573790
O O19 0.397288 0.498737 0.569978
O O20 0.500000 0.500000 0.500000
O O21 0.457785 0.750000 0.571998
#
# Coordination Sequence:
#
# PCOD9463657 Si02
#       8
#     8   8   8   8   8   8   8   8
#     4  10  19  37  62  86 118 158 201 247 304 371
#     4  11  21  36  57  86 122 159 197 240 292 358
#     4   9  21  40  60  86 121 160 202 247 299 365
#     4  10  22  41  63  88 122 164 203 247 310 372
#     4  10  20  36  59  86 120 158 195 241 300 364
#     4  10  23  40  60  91 126 157 201 257 307 361
#     4  11  24  43  65  94 129 162 207 263 312 369
#     4  11  25  46  68  90 122 165 215 267 316 366
#
# _framework density 19.963539999999998
#
# number of rings (size 3 to 8) (size 9 to 14) (size 15 to 20)
#    0.000    1.750    2.500    1.125    3.500    2.000 
#    0.000    2.500    0.000    0.000    0.000    0.000 
#    0.000    0.000    0.000    0.000    0.000    0.000 
#
# Total GULP energy -357220.809853 kJ/mol
# GULP energy per Si atom -5581.575154 kJ/mol
# Density = 1.991810 g / cm^3
# Si number density = 19.963540 Si / 1000 Ang^3
#
#
#
# Elastic Constant Matrix: (Units=GPa)
#
#
# Indices 1 2 3 4 5 6 
#
# 1 149.2959 26.8214 75.5286 0.0000 0.0000 0.0000
# 2 26.8214 15.4316 26.6272 0.0000 0.0000 0.0000
# 3 75.5286 26.6272 137.2532 0.0000 0.0000 0.0000
# 4 0.0000 0.0000 0.0000 21.8545 0.0000 0.0000
# 5 0.0000 0.0000 0.0000 0.0000 30.0789 0.0000
# 6 0.0000 0.0000 0.0000 0.0000 0.0000 32.8129
#
#
#
# Elastic Compliance Matrix: (Units=1/GPa)
#
#
# Indices 1 2 3 4 5 6 
#
# 1 0.010717 -0.012704 -0.003433 0.000000 0.000000 0.000000
# 2 -0.012704 0.112468 -0.014828 0.000000 0.000000 0.000000
# 3 -0.003433 -0.014828 0.012052 0.000000 0.000000 0.000000
# 4 0.000000 0.000000 0.000000 0.045757 0.000000 0.000000
# 5 0.000000 0.000000 0.000000 0.000000 0.033246 0.000000
# 6 0.000000 0.000000 0.000000 0.000000 0.000000 0.030476
#
#
# Mechanical properties :
#
#
# Convention : Reuss Voigt Hill
#
# Bulk Modulus (GPa) = 13.64125 62.21503 37.92814
# Shear Modulus (GPa) = 15.10206 28.48284 21.79245
#
# Velocity S-wave (km/s) = 2.75341 3.78132 3.30754
# Velocity P-wave (km/s) = 4.11780 7.09200 5.79883
#
# Compressibility (1/GPa) = 0.07330708
#
# Stress axis : x y z
#
# Youngs Moduli (GPa) = 93.30904 8.89142 82.97655
#
# Poissons Ratio (x) = 0.11295 0.28486
# Poissons Ratio (y) = 1.18536 1.23039
# Poissons Ratio (z) = 0.32033 0.13184
#
# Static dielectric constant tensor:
#      x y z
#    x 1.696190 0.000000 0.000000 
#    y 0.000000 1.691900 0.000000 
#    z 0.000000 0.000000 1.716270 
# 
# From -- ./inp_files/20929.got.cif
#   From: 2010.05.17/outbox.cif.g08.bks.cpg/sg62_11_cif.got.tgz:20929.got - 2010.06.03 15:25:27.
