data_PCOD9463458
_publ_section_title
;
Structure prediction by ZEFSAII (Michael W. Deem and Ramdas Pophale) SiO2 
 PCOD9463458
Probable space group: P N M A
;
_chemical_formula_sum "Si O2"
_cell_formula_units_Z 48
_cell_length_a 19.659779
_cell_length_b 14.848191
_cell_length_c 8.060817
_cell_angle_alpha 90.000000
_cell_angle_beta 90.000000
_cell_angle_gamma 90.000000
_cell_volume 2353.050450
_symmetry_space_group_name_H-M "P N M A"
_symmetry_group_IT_number 62
_symmetry_cell_setting 'orthorhombic'
loop_
_space_group_symop_operation_xyz
x,y,z
1/2-x,-y,1/2+z
1/2+x,1/2-y,1/2-z
-x,1/2+y,-z
-x,-y,-z
1/2+x,y,1/2-z
1/2-x,1/2+y,1/2+z
x,1/2-y,z
loop_
_atom_site_type_symbol
_atom_site_label
_atom_site_fract_x
_atom_site_fract_y
_atom_site_fract_z
Si Si1 0.318253 0.142095 0.999097
Si Si2 0.457035 0.064140 0.879936
Si Si3 0.088126 0.355278 0.794094
Si Si4 0.822125 0.359335 0.126439
Si Si5 0.420551 0.497314 0.538573
Si Si6 0.230274 0.140714 0.681525
O O1 0.311585 0.250000 0.996767
O O2 0.301571 0.113005 0.187257
O O3 0.397739 0.118806 0.970676
O O4 0.270858 0.108819 0.846651
O O5 0.515281 0.122156 0.786353
O O6 0.416257 0.012624 0.734547
O O7 0.500000 0.000000 0.000000
O O8 0.091398 0.250000 0.825059
O O9 0.151105 0.384258 0.678483
O O10 0.104195 0.409702 0.961341
O O11 0.832719 0.250000 0.122777
O O12 0.887593 0.414328 0.061634
O O13 0.767039 0.385070 0.987757
O O14 0.500000 0.500000 0.500000
O O15 0.233008 0.250000 0.686970
#
# Coordination Sequence:
#
# PCOD9463458 Si02
#       6
#     8   8   8   8   8   8
#     4  10  19  35  63  91 119 163 211 257 310 379
#     4  11  22  40  60  89 128 163 212 268 313 377
#     4  10  22  42  64  90 128 169 209 266 330 377
#     4  10  20  38  65  93 124 163 212 262 314 373
#     4  10  21  38  60  88 121 158 208 258 308 379
#     4   9  19  39  62  89 124 164 210 260 315 379
#
# _framework density 20.399052999999999
#
# number of rings (size 3 to 8) (size 9 to 14) (size 15 to 20)
#    0.000    2.000    1.667    2.500    0.000    2.667 
#    9.000    1.667    0.000    0.000    0.000    0.000 
#    0.000    0.000    0.000    0.000    0.000    0.000 
#
# Total GULP energy -267659.290458 kJ/mol
# GULP energy per Si atom -5576.235218 kJ/mol
# Density = 2.035262 g / cm^3
# Si number density = 20.399053 Si / 1000 Ang^3
#
#
#
# Elastic Constant Matrix: (Units=GPa)
#
#
# Indices 1 2 3 4 5 6 
#
# 1 90.0493 8.8641 36.2929 0.0000 0.0000 0.0000
# 2 8.8641 57.8088 29.8476 0.0000 0.0000 0.0000
# 3 36.2929 29.8476 155.3716 0.0000 0.0000 0.0000
# 4 0.0000 0.0000 0.0000 25.1980 0.0000 0.0000
# 5 0.0000 0.0000 0.0000 0.0000 29.5509 0.0000
# 6 0.0000 0.0000 0.0000 0.0000 0.0000 13.3759
#
#
#
# Elastic Compliance Matrix: (Units=1/GPa)
#
#
# Indices 1 2 3 4 5 6 
#
# 1 0.012269 -0.000446 -0.002780 0.000000 0.000000 0.000000
# 2 -0.000446 0.019219 -0.003588 0.000000 0.000000 0.000000
# 3 -0.002780 -0.003588 0.007775 0.000000 0.000000 0.000000
# 4 0.000000 0.000000 0.000000 0.039686 0.000000 0.000000
# 5 0.000000 0.000000 0.000000 0.000000 0.033840 0.000000
# 6 0.000000 0.000000 0.000000 0.000000 0.000000 0.074761
#
#
# Mechanical properties :
#
#
# Convention : Reuss Voigt Hill
#
# Bulk Modulus (GPa) = 39.00851 50.35986 44.68419
# Shear Modulus (GPa) = 23.84083 28.83995 26.34039
#
# Velocity S-wave (km/s) = 3.42237 3.76412 3.59730
# Velocity P-wave (km/s) = 5.89754 6.60548 6.26153
#
# Compressibility (1/GPa) = 0.02563543
#
# Stress axis : x y z
#
# Youngs Moduli (GPa) = 81.50295 52.03102 128.61877
#
# Poissons Ratio (x) = 0.02319 0.35761
# Poissons Ratio (y) = 0.03633 0.46148
# Poissons Ratio (z) = 0.22661 0.18669
#
# Static dielectric constant tensor:
#      x y z
#    x 1.792220 0.000000 0.000000 
#    y 0.000000 1.742160 0.000000 
#    z 0.000000 0.000000 1.765530 
# 
# From -- ./inp_files/7620.got.cif
#   From: 2010.05.17/outbox.cif.g08.bks.cpg/sg62_4_cif.got.tgz:7620.got - 2010.06.03 15:25:27.
