data_PCOD9463744
_publ_section_title
;
Structure prediction by ZEFSAII (Michael W. Deem and Ramdas Pophale) SiO2 
 PCOD9463744
Probable space group: P N M A
;
_chemical_formula_sum "Si O2"
_cell_formula_units_Z 32
_cell_length_a 8.040496
_cell_length_b 11.852743
_cell_length_c 13.217977
_cell_angle_alpha 90.000000
_cell_angle_beta 90.000000
_cell_angle_gamma 90.000000
_cell_volume 1259.698754
_symmetry_space_group_name_H-M "P N M A"
_symmetry_group_IT_number 62
_symmetry_cell_setting 'orthorhombic'
loop_
_space_group_symop_operation_xyz
x,y,z
1/2-x,-y,1/2+z
1/2+x,1/2-y,1/2-z
-x,1/2+y,-z
-x,-y,-z
1/2+x,y,1/2-z
1/2-x,1/2+y,1/2+z
x,1/2-y,z
loop_
_atom_site_type_symbol
_atom_site_label
_atom_site_fract_x
_atom_site_fract_y
_atom_site_fract_z
Si Si1 0.629998 0.117559 0.593434
Si Si2 0.478001 0.381335 0.791877
Si Si3 0.795219 0.442632 0.401088
Si Si4 0.533814 0.250000 0.101656
Si Si5 0.734166 0.750000 0.751167
O O1 0.610641 0.250000 0.563703
O O2 0.487091 0.085956 0.673169
O O3 0.671010 0.046558 0.494150
O O4 0.795845 0.107193 0.662183
O O5 0.525751 0.250000 0.796215
O O6 0.608482 0.453332 0.855114
O O7 0.946406 0.359283 0.443463
O O8 0.720794 0.364466 0.311710
O O9 0.725003 0.250000 0.132123
O O10 0.464250 0.250000 0.219100
#
# Coordination Sequence:
#
# PCOD9463744 Si02
#       5
#     8   8   8   4   4
#     4  10  19  40  56  80 111 152 182 224 277 335
#     4  10  22  33  60  82 112 146 189 225 272 333
#     4   9  19  36  62  78 112 150 183 225 285 328
#     4   8  18  32  60  82 106 142 188 226 274 318
#     4   8  18  32  60  80 110 140 188 224 276 316
#
# _framework density 25.402899999999999
#
# number of rings (size 3 to 8) (size 9 to 14) (size 15 to 20)
#    1.500    1.000    2.500    0.750    3.500    0.000 
#    0.000    1.250    8.250    0.000    0.000    0.000 
#    0.000    0.000    0.000    0.000    0.000    0.000 
#
# Total GULP energy -178648.401338 kJ/mol
# GULP energy per Si atom -5582.762542 kJ/mol
# Density = 2.534508 g / cm^3
# Si number density = 25.402900 Si / 1000 Ang^3
#
#
#
# Elastic Constant Matrix: (Units=GPa)
#
#
# Indices 1 2 3 4 5 6 
#
# 1 40.6087 17.2465 12.3556 0.0000 0.0000 0.0000
# 2 17.2465 94.6315 40.3718 0.0000 0.0000 0.0000
# 3 12.3556 40.3718 83.9823 0.0000 0.0000 0.0000
# 4 0.0000 0.0000 0.0000 34.1947 0.0000 0.0000
# 5 0.0000 0.0000 0.0000 0.0000 51.8103 0.0000
# 6 0.0000 0.0000 0.0000 0.0000 0.0000 21.3193
#
#
#
# Elastic Compliance Matrix: (Units=1/GPa)
#
#
# Indices 1 2 3 4 5 6 
#
# 1 0.026960 -0.004052 -0.002018 0.000000 0.000000 0.000000
# 2 -0.004052 0.013903 -0.006087 0.000000 0.000000 0.000000
# 3 -0.002018 -0.006087 0.015130 0.000000 0.000000 0.000000
# 4 0.000000 0.000000 0.000000 0.029244 0.000000 0.000000
# 5 0.000000 0.000000 0.000000 0.000000 0.019301 0.000000
# 6 0.000000 0.000000 0.000000 0.000000 0.000000 0.046906
#
#
# Mechanical properties :
#
#
# Convention : Reuss Voigt Hill
#
# Bulk Modulus (GPa) = 31.56789 39.90782 35.73785
# Shear Modulus (GPa) = 26.83554 31.41475 29.12515
#
# Velocity S-wave (km/s) = 3.25375 3.52043 3.38972
# Velocity P-wave (km/s) = 5.15458 5.68055 5.42395
#
# Compressibility (1/GPa) = 0.03167776
#
# Stress axis : x y z
#
# Youngs Moduli (GPa) = 37.09137 71.92827 66.09216
#
# Poissons Ratio (x) = 0.29148 0.13340
# Poissons Ratio (y) = 0.15031 0.40231
# Poissons Ratio (z) = 0.07486 0.43783
#
# Static dielectric constant tensor:
#      x y z
#    x 2.078940 0.000000 0.000000 
#    y 0.000000 1.994590 0.000000 
#    z 0.000000 0.000000 2.162090 
# 
# From -- ./inp_files/10966.got.cif
#   From: 2010.05.17/outbox.cif.g08.bks.cpg/sg62_6_cif.got.tgz:10966.got - 2010.06.03 15:25:27.
