data_PCOD9463966
_publ_section_title
;
Structure prediction by ZEFSAII (Michael W. Deem and Ramdas Pophale) SiO2 
 PCOD9463966
Probable space group: P N M A
;
_chemical_formula_sum "Si O2"
_cell_formula_units_Z 48
_cell_length_a 9.688440
_cell_length_b 7.906696
_cell_length_c 24.239855
_cell_angle_alpha 90.000000
_cell_angle_beta 90.000000
_cell_angle_gamma 90.000000
_cell_volume 1856.858939
_symmetry_space_group_name_H-M "P N M A"
_symmetry_group_IT_number 62
_symmetry_cell_setting 'orthorhombic'
loop_
_space_group_symop_operation_xyz
x,y,z
1/2-x,-y,1/2+z
1/2+x,1/2-y,1/2-z
-x,1/2+y,-z
-x,-y,-z
1/2+x,y,1/2-z
1/2-x,1/2+y,1/2+z
x,1/2-y,z
loop_
_atom_site_type_symbol
_atom_site_label
_atom_site_fract_x
_atom_site_fract_y
_atom_site_fract_z
Si Si1 0.689758 0.944621 0.317663
Si Si2 0.445027 0.452437 0.246534
Si Si3 0.277750 0.453613 0.356667
Si Si4 0.719396 0.550585 0.982651
Si Si5 0.472902 0.553796 0.577056
Si Si6 0.529473 0.549354 0.081972
O O1 0.681423 0.750000 0.334465
O O2 0.847508 0.987492 0.303127
O O3 0.593169 0.974447 0.263749
O O4 0.617225 0.049476 0.366243
O O5 0.459755 0.250000 0.242736
O O6 0.351698 0.499155 0.300044
O O7 0.277247 0.250000 0.359353
O O8 0.380653 0.522850 0.404771
O O9 0.121996 0.512917 0.364888
O O10 0.736464 0.750000 0.992524
O O11 0.868976 0.476137 0.967977
O O12 0.618314 0.529444 0.930016
O O13 0.629887 0.478661 0.032960
O O14 0.495568 0.750000 0.563424
O O15 0.513053 0.750000 0.076142
#
# Coordination Sequence:
#
# PCOD9463966 Si02
#       6
#     8   8   8   8   8   8
#     4  11  22  36  56  84 112 136 173 228 277 310
#     4  10  21  39  59  78 106 147 185 213 258 327
#     4   9  19  35  55  77 102 136 176 215 256 311
#     4   9  19  36  55  75 103 140 179 216 256 311
#     4   9  19  37  57  76 103 141 181 215 257 320
#     4  10  20  33  52  79 108 137 172 217 266 310
#
# _framework density 25.850106
#
# number of rings (size 3 to 8) (size 9 to 14) (size 15 to 20)
#    0.000    2.333    0.000    3.500    0.000    6.667 
#    0.000    1.667    0.000    0.000    0.000    0.000 
#    0.000    0.000    0.000    0.000    0.000    0.000 
#
# Total GULP energy -268487.068877 kJ/mol
# GULP energy per Si atom -5593.480602 kJ/mol
# Density = 2.579127 g / cm^3
# Si number density = 25.850106 Si / 1000 Ang^3
#
#
#
# Elastic Constant Matrix: (Units=GPa)
#
#
# Indices 1 2 3 4 5 6 
#
# 1 179.0309 5.6919 9.5480 0.0000 0.0000 0.0000
# 2 5.6919 55.4211 2.8022 0.0000 0.0000 0.0000
# 3 9.5480 2.8022 55.4747 0.0000 0.0000 0.0000
# 4 0.0000 0.0000 0.0000 7.6500 0.0000 0.0000
# 5 0.0000 0.0000 0.0000 0.0000 53.4658 0.0000
# 6 0.0000 0.0000 0.0000 0.0000 0.0000 19.9396
#
#
#
# Elastic Compliance Matrix: (Units=1/GPa)
#
#
# Indices 1 2 3 4 5 6 
#
# 1 0.005653 -0.000533 -0.000946 0.000000 0.000000 0.000000
# 2 -0.000533 0.018140 -0.000825 0.000000 0.000000 0.000000
# 3 -0.000946 -0.000825 0.018231 0.000000 0.000000 0.000000
# 4 0.000000 0.000000 0.000000 0.130718 0.000000 0.000000
# 5 0.000000 0.000000 0.000000 0.000000 0.018704 0.000000
# 6 0.000000 0.000000 0.000000 0.000000 0.000000 0.050152
#
#
# Mechanical properties :
#
#
# Convention : Reuss Voigt Hill
#
# Bulk Modulus (GPa) = 26.72585 36.22343 31.47464
# Shear Modulus (GPa) = 19.32917 34.33673 26.83295
#
# Velocity S-wave (km/s) = 2.73745 3.64854 3.22533
# Velocity P-wave (km/s) = 4.51140 5.63848 5.10613
#
# Compressibility (1/GPa) = 0.03741696
#
# Stress axis : x y z
#
# Youngs Moduli (GPa) = 176.89663 55.12654 54.85248
#
# Poissons Ratio (x) = 0.02937 0.05189
# Poissons Ratio (y) = 0.09424 0.04523
# Poissons Ratio (z) = 0.16735 0.04546
#
# Static dielectric constant tensor:
#      x y z
#    x 2.028430 0.000000 0.000000 
#    y 0.000000 1.894580 0.000000 
#    z 0.000000 0.000000 2.203450 
# 
# From -- ./inp_files/31933.got.cif
#   From: 2010.05.17/outbox.cif.g08.bks.cpg/sg62_16_cif.got.tgz:31933.got - 2010.06.03 15:25:27.
