data_PCOD9463357
_publ_section_title
;
Structure prediction by ZEFSAII (Michael W. Deem and Ramdas Pophale) SiO2 
 PCOD9463357
Probable space group: P N M A
;
_chemical_formula_sum "Si O2"
_cell_formula_units_Z 60
_cell_length_a 21.350524
_cell_length_b 24.884831
_cell_length_c 5.010377
_cell_angle_alpha 90.000000
_cell_angle_beta 90.000000
_cell_angle_gamma 90.000000
_cell_volume 2662.034251
_symmetry_space_group_name_H-M "P N M A"
_symmetry_group_IT_number 62
_symmetry_cell_setting 'orthorhombic'
loop_
_space_group_symop_operation_xyz
x,y,z
1/2-x,-y,1/2+z
1/2+x,1/2-y,1/2-z
-x,1/2+y,-z
-x,-y,-z
1/2+x,y,1/2-z
1/2-x,1/2+y,1/2+z
x,1/2-y,z
loop_
_atom_site_type_symbol
_atom_site_label
_atom_site_fract_x
_atom_site_fract_y
_atom_site_fract_z
Si Si1 0.346239 0.313254 0.176165
Si Si2 0.211180 0.981605 0.283676
Si Si3 0.156231 0.166255 0.891435
Si Si4 0.631440 0.075820 0.235839
Si Si5 0.753195 0.372872 0.956053
Si Si6 0.927527 0.186458 0.827108
Si Si7 0.407884 0.750000 0.726111
Si Si8 0.455339 0.842943 0.013745
O O1 0.332554 0.250000 0.208429
O O2 0.290384 0.347412 0.301016
O O3 0.404034 0.326110 0.377454
O O4 0.369252 0.322282 0.875967
O O5 0.242200 0.988110 0.574366
O O6 0.145214 0.012803 0.262792
O O7 0.209650 0.920285 0.191535
O O8 0.223249 0.169078 0.753194
O O9 0.101448 0.183790 0.688228
O O10 0.140451 0.105249 0.980110
O O11 0.144116 0.203423 0.143441
O O12 0.690564 0.099025 0.070957
O O13 0.569641 0.101133 0.104752
O O14 0.943570 0.250000 0.808359
O O15 0.985438 0.154263 0.704328
O O16 0.459783 0.797942 0.785591
#
# Coordination Sequence:
#
# PCOD9463357 Si02
#       8
#     8   8   8   8   8   8   4   8
#     4  10  24  39  56  81 111 158 196 228 269 331
#     4  10  19  35  58  83 113 149 187 229 280 348
#     4  10  20  33  53  85 114 148 180 226 297 342
#     4   9  20  35  55  87 112 141 184 233 295 343
#     4  10  21  37  56  82 118 150 188 230 285 346
#     4  10  22  39  58  78 108 151 203 233 268 328
#     4  10  20  30  52  82 118 142 182 224 296 338
#     4  10  20  34  55  83 112 148 185 243 288 332
#
# _framework density 22.539155999999998
#
# number of rings (size 3 to 8) (size 9 to 14) (size 15 to 20)
#    0.000    2.133    2.000    0.400    6.533    0.000 
#    4.800    0.000    0.000    1.600    0.000    0.000 
#    0.000    0.000    0.000    0.000    0.000    0.000 
#
# Total GULP energy -334253.505000 kJ/mol
# GULP energy per Si atom -5570.891750 kJ/mol
# Density = 2.248786 g / cm^3
# Si number density = 22.539156 Si / 1000 Ang^3
#
#
#
# Elastic Constant Matrix: (Units=GPa)
#
#
# Indices 1 2 3 4 5 6 
#
# 1 45.3578 9.1217 -1.8500 0.0000 0.0000 0.0000
# 2 9.1217 39.3935 -1.0311 0.0000 0.0000 0.0000
# 3 -1.8500 -1.0311 66.4119 0.0000 0.0000 0.0000
# 4 0.0000 0.0000 0.0000 89.2637 0.0000 0.0000
# 5 0.0000 0.0000 0.0000 0.0000 28.0599 0.0000
# 6 0.0000 0.0000 0.0000 0.0000 0.0000 33.1014
#
#
#
# Elastic Compliance Matrix: (Units=1/GPa)
#
#
# Indices 1 2 3 4 5 6 
#
# 1 0.023145 -0.005345 0.000562 0.000000 0.000000 0.000000
# 2 -0.005345 0.026629 0.000265 0.000000 0.000000 0.000000
# 3 0.000562 0.000265 0.015077 0.000000 0.000000 0.000000
# 4 0.000000 0.000000 0.000000 0.011203 0.000000 0.000000
# 5 0.000000 0.000000 0.000000 0.000000 0.035638 0.000000
# 6 0.000000 0.000000 0.000000 0.000000 0.000000 0.030210
#
#
# Mechanical properties :
#
#
# Convention : Reuss Voigt Hill
#
# Bulk Modulus (GPa) = 17.91636 18.18271 18.04954
# Shear Modulus (GPa) = 29.49093 39.74652 34.61873
#
# Velocity S-wave (km/s) = 3.62115 4.20389 3.92336
# Velocity P-wave (km/s) = 5.04479 5.62568 5.34313
#
# Compressibility (1/GPa) = 0.05581491
#
# Stress axis : x y z
#
# Youngs Moduli (GPa) = 43.20657 37.55250 66.32492
#
# Poissons Ratio (x) = 0.20070 -0.03726
# Poissons Ratio (y) = 0.23092 -0.01755
# Poissons Ratio (z) = -0.02427 -0.00993
#
# Static dielectric constant tensor:
#      x y z
#    x 1.892930 0.000000 0.000000 
#    y 0.000000 1.553350 0.000000 
#    z 0.000000 0.000000 2.017720 
# 
# From -- ./inp_files/1869.got.cif
#   From: 2010.05.17/outbox.cif.g08.bks.cpg/sg62_1_cif.got.tgz:1869.got - 2010.06.03 15:25:27.
