data_PCOD9463979
_publ_section_title
;
Structure prediction by ZEFSAII (Michael W. Deem and Ramdas Pophale) SiO2 
 PCOD9463979
Probable space group: P N M A
;
_chemical_formula_sum "Si O2"
_cell_formula_units_Z 48
_cell_length_a 13.706989
_cell_length_b 14.049088
_cell_length_c 11.973332
_cell_angle_alpha 90.000000
_cell_angle_beta 90.000000
_cell_angle_gamma 90.000000
_cell_volume 2305.712861
_symmetry_space_group_name_H-M "P N M A"
_symmetry_group_IT_number 62
_symmetry_cell_setting 'orthorhombic'
loop_
_space_group_symop_operation_xyz
x,y,z
1/2-x,-y,1/2+z
1/2+x,1/2-y,1/2-z
-x,1/2+y,-z
-x,-y,-z
1/2+x,y,1/2-z
1/2-x,1/2+y,1/2+z
x,1/2-y,z
loop_
_atom_site_type_symbol
_atom_site_label
_atom_site_fract_x
_atom_site_fract_y
_atom_site_fract_z
Si Si1 0.901960 0.364150 0.272208
Si Si2 0.473970 0.865816 0.971392
Si Si3 0.009766 0.508257 0.131950
Si Si4 0.095782 0.139505 0.708728
Si Si5 0.228317 0.362632 0.371429
Si Si6 0.313658 0.359229 0.616567
O O1 0.904732 0.250000 0.261630
O O2 0.984880 0.409630 0.193028
O O3 0.796109 0.398227 0.229344
O O4 0.931065 0.388965 0.398956
O O5 0.466403 0.750000 0.975122
O O6 0.377798 0.901534 0.904760
O O7 0.466115 0.894848 0.100273
O O8 0.929668 0.578578 0.184480
O O9 0.111616 0.560926 0.156211
O O10 0.000000 0.500000 0.000000
O O11 0.073240 0.250000 0.728031
O O12 0.208467 0.133059 0.674005
O O13 0.212905 0.250000 0.350318
O O14 0.293037 0.370423 0.484064
O O15 0.349309 0.250000 0.634329
#
# Coordination Sequence:
#
# PCOD9463979 Si02
#       6
#     8   8   8   8   8   8
#     4  10  20  33  53  81 116 153 193 240 297 357
#     4   8  16  33  56  78 104 149 199 239 290 355
#     4  12  23  34  57  92 121 154 198 252 306 362
#     4   9  20  39  63  85 113 155 202 249 301 365
#     4   8  14  29  53  75 102 146 192 231 283 349
#     4   9  18  37  60  81 111 156 201 246 300 354
#
# _framework density 20.817858000000001
#
# number of rings (size 3 to 8) (size 9 to 14) (size 15 to 20)
#    0.000    2.667    1.667    2.500    0.000    2.667 
#    0.000    0.000    3.667    0.000    0.000    0.000 
#    0.000    0.000    0.000    0.000    0.000    0.000 
#
# Total GULP energy -267725.786504 kJ/mol
# GULP energy per Si atom -5577.620552 kJ/mol
# Density = 2.077048 g / cm^3
# Si number density = 20.817858 Si / 1000 Ang^3
#
#
#
# Elastic Constant Matrix: (Units=GPa)
#
#
# Indices 1 2 3 4 5 6 
#
# 1 44.9289 11.1757 23.9302 0.0000 0.0000 0.0000
# 2 11.1757 72.7486 34.4321 0.0000 0.0000 0.0000
# 3 23.9302 34.4321 72.6561 0.0000 0.0000 0.0000
# 4 0.0000 0.0000 0.0000 20.7946 0.0000 0.0000
# 5 0.0000 0.0000 0.0000 0.0000 30.4505 0.0000
# 6 0.0000 0.0000 0.0000 0.0000 0.0000 26.0489
#
#
#
# Elastic Compliance Matrix: (Units=1/GPa)
#
#
# Indices 1 2 3 4 5 6 
#
# 1 0.026993 0.000079 -0.008928 0.000000 0.000000 0.000000
# 2 0.000079 0.017721 -0.008424 0.000000 0.000000 0.000000
# 3 -0.008928 -0.008424 0.020696 0.000000 0.000000 0.000000
# 4 0.000000 0.000000 0.000000 0.048089 0.000000 0.000000
# 5 0.000000 0.000000 0.000000 0.000000 0.032840 0.000000
# 6 0.000000 0.000000 0.000000 0.000000 0.000000 0.038389
#
#
# Mechanical properties :
#
#
# Convention : Reuss Voigt Hill
#
# Bulk Modulus (GPa) = 32.40011 36.60107 34.50059
# Shear Modulus (GPa) = 21.78052 23.51185 22.64618
#
# Velocity S-wave (km/s) = 3.23808 3.36431 3.30180
# Velocity P-wave (km/s) = 5.43853 5.71937 5.58072
#
# Compressibility (1/GPa) = 0.03086409
#
# Stress axis : x y z
#
# Youngs Moduli (GPa) = 37.04670 56.43029 48.31816
#
# Poissons Ratio (x) = -0.00445 0.43138
# Poissons Ratio (y) = -0.00292 0.40703
# Poissons Ratio (z) = 0.33075 0.47537
#
# Static dielectric constant tensor:
#      x y z
#    x 1.766790 0.000000 0.000000 
#    y 0.000000 1.793110 0.000000 
#    z 0.000000 0.000000 1.733520 
# 
# From -- ./inp_files/13237.got.cif
#   From: 2010.05.17/outbox.cif.g08.bks.cpg/sg62_7_cif.got.tgz:13237.got - 2010.06.03 15:25:27.
