data_PCOD9463663
_publ_section_title
;
Structure prediction by ZEFSAII (Michael W. Deem and Ramdas Pophale) SiO2 
 PCOD9463663
Probable space group: P N M A
;
_chemical_formula_sum "Si O2"
_cell_formula_units_Z 64
_cell_length_a 9.253783
_cell_length_b 16.402513
_cell_length_c 20.157155
_cell_angle_alpha 90.000000
_cell_angle_beta 90.000000
_cell_angle_gamma 90.000000
_cell_volume 3059.559737
_symmetry_space_group_name_H-M "P N M A"
_symmetry_group_IT_number 62
_symmetry_cell_setting 'orthorhombic'
loop_
_space_group_symop_operation_xyz
x,y,z
1/2-x,-y,1/2+z
1/2+x,1/2-y,1/2-z
-x,1/2+y,-z
-x,-y,-z
1/2+x,y,1/2-z
1/2-x,1/2+y,1/2+z
x,1/2-y,z
loop_
_atom_site_type_symbol
_atom_site_label
_atom_site_fract_x
_atom_site_fract_y
_atom_site_fract_z
Si Si1 0.625829 0.027072 0.644237
Si Si2 0.124174 0.656692 0.379732
Si Si3 0.927828 0.552098 0.299851
Si Si4 0.299383 0.848976 0.653041
Si Si5 0.959861 0.339698 0.249418
Si Si6 0.125375 0.405449 0.359737
Si Si7 0.691036 0.514596 0.404025
Si Si8 0.924696 0.587702 0.493430
O O1 0.737868 0.097087 0.620993
O O2 0.591134 0.040183 0.722090
O O3 0.478700 0.028764 0.602766
O O4 0.715787 0.942923 0.639109
O O5 0.168247 0.750000 0.377014
O O6 0.019100 0.632100 0.318493
O O7 0.022398 0.639107 0.443365
O O8 0.775310 0.546721 0.338016
O O9 0.026987 0.481612 0.333801
O O10 0.293600 0.750000 0.639681
O O11 0.450880 0.873831 0.687452
O O12 0.178225 0.868784 0.708944
O O13 0.279026 0.916140 0.595240
O O14 0.918874 0.250000 0.227275
O O15 0.084350 0.338948 0.306012
O O16 0.085990 0.377490 0.433074
O O17 0.769273 0.564391 0.462277
O O18 0.000000 0.500000 0.500000
#
# Coordination Sequence:
#
# PCOD9463663 Si02
#       8
#     8   8   8   8   8   8   8   8
#     4  11  22  36  61  95 123 155 202 263 317 368
#     4  10  23  42  65  91 126 166 206 258 315 371
#     4  10  19  37  62  89 122 156 212 245 313 380
#     4  10  20  34  53  85 126 158 195 245 306 357
#     4  10  20  33  53  84 119 158 197 247 307 358
#     4  11  21  37  60  86 121 159 208 253 297 363
#     4  11  21  34  60  89 120 160 210 254 298 364
#     4  11  20  43  63  87 117 161 215 248 288 373
#
# _framework density 20.918042
#
# number of rings (size 3 to 8) (size 9 to 14) (size 15 to 20)
#    0.000    1.500    5.000    3.000    1.750    1.500 
#    0.000    3.125    0.000    0.000    0.000    0.000 
#    0.000    0.000    0.000    0.000    0.000    0.000 
#
# Total GULP energy -356952.982982 kJ/mol
# GULP energy per Si atom -5577.390359 kJ/mol
# Density = 2.087043 g / cm^3
# Si number density = 20.918042 Si / 1000 Ang^3
#
#
#
# Elastic Constant Matrix: (Units=GPa)
#
#
# Indices 1 2 3 4 5 6 
#
# 1 149.8077 25.9331 9.2748 0.0000 0.0000 0.0000
# 2 25.9331 63.6573 -6.4505 0.0000 0.0000 0.0000
# 3 9.2748 -6.4505 76.7482 0.0000 0.0000 0.0000
# 4 0.0000 0.0000 0.0000 15.4317 0.0000 0.0000
# 5 0.0000 0.0000 0.0000 0.0000 15.4652 0.0000
# 6 0.0000 0.0000 0.0000 0.0000 0.0000 19.6543
#
#
#
# Elastic Compliance Matrix: (Units=1/GPa)
#
#
# Indices 1 2 3 4 5 6 
#
# 1 0.007279 -0.003081 -0.001139 0.000000 0.000000 0.000000
# 2 -0.003081 0.017148 0.001814 0.000000 0.000000 0.000000
# 3 -0.001139 0.001814 0.013320 0.000000 0.000000 0.000000
# 4 0.000000 0.000000 0.000000 0.064802 0.000000 0.000000
# 5 0.000000 0.000000 0.000000 0.000000 0.064661 0.000000
# 6 0.000000 0.000000 0.000000 0.000000 0.000000 0.050880
#
#
# Mechanical properties :
#
#
# Convention : Reuss Voigt Hill
#
# Bulk Modulus (GPa) = 30.36281 38.63644 34.49962
# Shear Modulus (GPa) = 21.37858 27.54062 24.45960
#
# Velocity S-wave (km/s) = 3.20037 3.63243 3.42322
# Velocity P-wave (km/s) = 5.31066 6.00860 5.67038
#
# Compressibility (1/GPa) = 0.03293503
#
# Stress axis : x y z
#
# Youngs Moduli (GPa) = 137.38119 58.31611 75.07708
#
# Poissons Ratio (x) = 0.17966 0.08548
# Poissons Ratio (y) = 0.42324 -0.13615
# Poissons Ratio (z) = 0.15642 -0.10576
#
# Static dielectric constant tensor:
#      x y z
#    x 1.807400 0.000000 0.000000 
#    y 0.000000 1.794490 0.000000 
#    z 0.000000 0.000000 1.806820 
# 
# From -- ./inp_files/26201.got.cif
#   From: 2010.05.17/outbox.cif.g08.bks.cpg/sg62_14_cif.got.tgz:26201.got - 2010.06.03 15:25:27.
