data_PCOD9463499
_publ_section_title
;
Structure prediction by ZEFSAII (Michael W. Deem and Ramdas Pophale) SiO2 
 PCOD9463499
Probable space group: P N M A
;
_chemical_formula_sum "Si O2"
_cell_formula_units_Z 64
_cell_length_a 22.971293
_cell_length_b 7.580895
_cell_length_c 16.979683
_cell_angle_alpha 90.000000
_cell_angle_beta 90.000000
_cell_angle_gamma 90.000000
_cell_volume 2956.892262
_symmetry_space_group_name_H-M "P N M A"
_symmetry_group_IT_number 62
_symmetry_cell_setting 'orthorhombic'
loop_
_space_group_symop_operation_xyz
x,y,z
1/2-x,-y,1/2+z
1/2+x,1/2-y,1/2-z
-x,1/2+y,-z
-x,-y,-z
1/2+x,y,1/2-z
1/2-x,1/2+y,1/2+z
x,1/2-y,z
loop_
_atom_site_type_symbol
_atom_site_label
_atom_site_fract_x
_atom_site_fract_y
_atom_site_fract_z
Si Si1 0.266173 0.037161 0.413705
Si Si2 0.068105 0.038322 0.504726
Si Si3 0.858416 0.965698 0.645628
Si Si4 0.379907 0.534004 0.677686
Si Si5 0.615989 0.954535 0.663417
Si Si6 0.366515 0.546476 0.158956
Si Si7 0.496511 0.538147 0.592268
Si Si8 0.240366 0.040884 0.098793
O O1 0.266271 0.250000 0.406754
O O2 0.207939 0.976469 0.369351
O O3 0.325945 0.967561 0.376157
O O4 0.261377 0.992617 0.505567
O O5 0.076079 0.250000 0.505881
O O6 0.102024 0.973775 0.427273
O O7 0.097285 0.970398 0.585251
O O8 0.000000 0.000000 0.500000
O O9 0.858836 0.750000 0.645055
O O10 0.880727 0.020178 0.731134
O O11 0.379514 0.750000 0.675638
O O12 0.436658 0.471937 0.630730
O O13 0.319553 0.476164 0.637647
O O14 0.615010 0.750000 0.638170
O O15 0.554899 0.031615 0.634132
O O16 0.622019 0.959817 0.757223
O O17 0.383635 0.750000 0.168706
O O18 0.298699 0.537936 0.135818
O O19 0.500000 0.500000 0.500000
O O20 0.495203 0.750000 0.602798
O O21 0.244054 0.250000 0.112827
#
# Coordination Sequence:
#
# PCOD9463499 Si02
#       8
#     8   8   8   8   8   8   8   8
#     4  10  19  36  58  82 117 152 189 237 292 344
#     4  10  22  38  59  84 112 151 188 230 291 350
#     4   9  17  34  57  78 106 147 187 226 279 336
#     4   9  19  34  56  83 112 149 191 236 282 334
#     4  10  22  37  60  90 116 153 201 243 284 344
#     4  11  23  40  59  85 120 154 190 239 301 350
#     4  10  21  38  59  86 118 151 192 234 284 343
#     4  11  21  35  58  87 116 151 199 242 284 344
#
# _framework density 21.644347
#
# number of rings (size 3 to 8) (size 9 to 14) (size 15 to 20)
#    0.000    2.000    1.250    2.250    1.750    4.000 
#    0.000    0.625    0.000    2.250    0.000    0.000 
#    0.000    0.000    0.000    0.000    0.000    0.000 
#
# Total GULP energy -357737.061803 kJ/mol
# GULP energy per Si atom -5589.641591 kJ/mol
# Density = 2.159508 g / cm^3
# Si number density = 21.644347 Si / 1000 Ang^3
#
#
#
# Elastic Constant Matrix: (Units=GPa)
#
#
# Indices 1 2 3 4 5 6 
#
# 1 183.4917 -5.2324 90.4906 0.0000 0.0000 0.0000
# 2 -5.2324 45.7709 -17.5192 0.0000 0.0000 0.0000
# 3 90.4906 -17.5192 153.2939 0.0000 0.0000 0.0000
# 4 0.0000 0.0000 0.0000 17.6951 0.0000 0.0000
# 5 0.0000 0.0000 0.0000 0.0000 -21.9453 0.0000
# 6 0.0000 0.0000 0.0000 0.0000 0.0000 10.7521
#
#
#
# Elastic Compliance Matrix: (Units=1/GPa)
#
#
# Indices 1 2 3 4 5 6 
#
# 1 0.007723 -0.000902 -0.004662 0.000000 0.000000 0.000000
# 2 -0.000902 0.022953 0.003155 0.000000 0.000000 0.000000
# 3 -0.004662 0.003155 0.009636 0.000000 0.000000 0.000000
# 4 0.000000 0.000000 0.000000 0.056513 0.000000 0.000000
# 5 0.000000 0.000000 0.000000 0.000000 -0.045568 0.000000
# 6 0.000000 0.000000 0.000000 0.000000 0.000000 0.093005
#
#
# Mechanical properties :
#
#
# Convention : Reuss Voigt Hill
#
# Bulk Modulus (GPa) = 28.17275 57.55939 42.86607
# Shear Modulus (GPa) = 31.07317 22.28822 26.68070
#
# Velocity S-wave (km/s) = 3.79308 3.21245 3.51477
# Velocity P-wave (km/s) = 5.67694 6.35695 6.02654
#
# Compressibility (1/GPa) = 0.03549529
#
# Stress axis : x y z
#
# Youngs Moduli (GPa) = 129.47794 43.56799 103.77593
#
# Poissons Ratio (x) = 0.03928 0.48382
# Poissons Ratio (y) = 0.11674 -0.32745
# Poissons Ratio (z) = 0.60365 -0.13747
#
# Static dielectric constant tensor:
#      x y z
#    x 1.766030 0.000000 0.000000 
#    y 0.000000 1.814820 0.000000 
#    z 0.000000 0.000000 1.736480 
# 
# From -- ./inp_files/20868.got.cif
#   From: 2010.05.17/outbox.cif.g08.bks.cpg/sg62_11_cif.got.tgz:20868.got - 2010.06.03 15:25:27.
