data_PCOD9463823
_publ_section_title
;
Structure prediction by ZEFSAII (Michael W. Deem and Ramdas Pophale) SiO2 
 PCOD9463823
Probable space group: P N M A
;
_chemical_formula_sum "Si O2"
_cell_formula_units_Z 64
_cell_length_a 19.779067
_cell_length_b 8.599825
_cell_length_c 23.765152
_cell_angle_alpha 90.000000
_cell_angle_beta 90.000000
_cell_angle_gamma 90.000000
_cell_volume 4042.369530
_symmetry_space_group_name_H-M "P N M A"
_symmetry_group_IT_number 62
_symmetry_cell_setting 'orthorhombic'
loop_
_space_group_symop_operation_xyz
x,y,z
1/2-x,-y,1/2+z
1/2+x,1/2-y,1/2-z
-x,1/2+y,-z
-x,-y,-z
1/2+x,y,1/2-z
1/2-x,1/2+y,1/2+z
x,1/2-y,z
loop_
_atom_site_type_symbol
_atom_site_label
_atom_site_fract_x
_atom_site_fract_y
_atom_site_fract_z
Si Si1 0.497411 0.064000 0.616286
Si Si2 0.650054 0.436708 0.775348
Si Si3 0.862456 0.935905 0.940472
Si Si4 0.272274 0.563343 0.341549
Si Si5 0.134606 0.933327 0.935798
Si Si6 0.855231 0.062200 0.725856
Si Si7 0.997690 0.939389 0.247813
Si Si8 0.223368 0.064374 0.166095
O O1 0.488266 0.250000 0.614138
O O2 0.499865 0.016220 0.681942
O O3 0.434995 0.983973 0.584978
O O4 0.567711 0.019505 0.587118
O O5 0.651932 0.250000 0.782304
O O6 0.681030 0.468804 0.713276
O O7 0.572632 0.491574 0.775212
O O8 0.700761 0.510748 0.820163
O O9 0.860340 0.750000 0.947440
O O10 0.806566 0.982828 0.894136
O O11 0.852606 0.015367 0.000431
O O12 0.273394 0.750000 0.350358
O O13 0.304038 0.480850 0.395041
O O14 0.196911 0.513929 0.322916
O O15 0.122739 0.750000 0.932965
O O16 0.854513 0.250000 0.726502
O O17 0.932750 0.009430 0.723008
O O18 0.823406 0.007379 0.784855
O O19 0.996285 0.750000 0.248658
O O20 0.219196 0.250000 0.170185
#
# Coordination Sequence:
#
# PCOD9463823 Si02
#       8
#     8   8   8   8   8   8   8   8
#     4  11  20  34  52  70  99 132 168 204 236 282
#     4   9  17  31  51  72  97 129 161 193 237 291
#     4  11  23  37  50  68  97 131 170 207 245 287
#     4   9  17  31  49  71  97 128 162 200 242 283
#     4  12  24  35  49  69  96 132 172 206 243 287
#     4   9  17  31  52  73  96 127 162 196 238 290
#     4   9  16  29  51  76  98 128 164 195 230 285
#     4  10  20  32  47  71  98 125 159 203 246 284
#
# _framework density 15.832298
#
# number of rings (size 3 to 8) (size 9 to 14) (size 15 to 20)
#    0.000    2.000    2.500    3.375    0.000    3.500 
#    0.000    0.625    0.000    0.000    0.000    0.875 
#    0.000    0.000    0.000    0.000    0.000    0.000 
#
# Total GULP energy -357088.856363 kJ/mol
# GULP energy per Si atom -5579.513381 kJ/mol
# Density = 1.579626 g / cm^3
# Si number density = 15.832298 Si / 1000 Ang^3
#
#
#
# Elastic Constant Matrix: (Units=GPa)
#
#
# Indices 1 2 3 4 5 6 
#
# 1 124.5611 3.1659 44.4853 0.0000 0.0000 0.0000
# 2 3.1659 6.6632 1.5092 0.0000 0.0000 0.0000
# 3 44.4853 1.5092 64.3590 0.0000 0.0000 0.0000
# 4 0.0000 0.0000 0.0000 21.5070 0.0000 0.0000
# 5 0.0000 0.0000 0.0000 0.0000 17.6910 0.0000
# 6 0.0000 0.0000 0.0000 0.0000 0.0000 18.7231
#
#
#
# Elastic Compliance Matrix: (Units=1/GPa)
#
#
# Indices 1 2 3 4 5 6 
#
# 1 0.010737 -0.003439 -0.007341 0.000000 0.000000 0.000000
# 2 -0.003439 0.151982 -0.001187 0.000000 0.000000 0.000000
# 3 -0.007341 -0.001187 0.020640 0.000000 0.000000 0.000000
# 4 0.000000 0.000000 0.000000 0.046496 0.000000 0.000000
# 5 0.000000 0.000000 0.000000 0.000000 0.056526 0.000000
# 6 0.000000 0.000000 0.000000 0.000000 0.000000 0.053410
#
#
# Mechanical properties :
#
#
# Convention : Reuss Voigt Hill
#
# Bulk Modulus (GPa) = 6.27253 32.65600 19.46427
# Shear Modulus (GPa) = 11.99423 21.34574 16.66999
#
# Velocity S-wave (km/s) = 2.75540 3.67582 3.24838
# Velocity P-wave (km/s) = 3.75412 6.21985 5.13712
#
# Compressibility (1/GPa) = 0.15942537
#
# Stress axis : x y z
#
# Youngs Moduli (GPa) = 93.13268 6.57973 48.44990
#
# Poissons Ratio (x) = 0.02263 0.35568
# Poissons Ratio (y) = 0.32029 0.05750
# Poissons Ratio (z) = 0.68370 0.00781
#
# Static dielectric constant tensor:
#      x y z
#    x 1.545330 0.000000 0.000000 
#    y 0.000000 1.534300 0.000000 
#    z 0.000000 0.000000 1.502290 
# 
# From -- ./inp_files/27915.got.cif
#   From: 2010.05.17/outbox.cif.g08.bks.cpg/sg62_14_cif.got.tgz:27915.got - 2010.06.03 15:25:27.
