data_PCOD9463353
_publ_section_title
;
Structure prediction by ZEFSAII (Michael W. Deem and Ramdas Pophale) SiO2 
 PCOD9463353
Probable space group: P N M A
;
_chemical_formula_sum "Si O2"
_cell_formula_units_Z 64
_cell_length_a 15.768898
_cell_length_b 11.426248
_cell_length_c 19.060716
_cell_angle_alpha 90.000000
_cell_angle_beta 90.000000
_cell_angle_gamma 90.000000
_cell_volume 3434.347214
_symmetry_space_group_name_H-M "P N M A"
_symmetry_group_IT_number 62
_symmetry_cell_setting 'orthorhombic'
loop_
_space_group_symop_operation_xyz
x,y,z
1/2-x,-y,1/2+z
1/2+x,1/2-y,1/2-z
-x,1/2+y,-z
-x,-y,-z
1/2+x,y,1/2-z
1/2-x,1/2+y,1/2+z
x,1/2-y,z
loop_
_atom_site_type_symbol
_atom_site_label
_atom_site_fract_x
_atom_site_fract_y
_atom_site_fract_z
Si Si1 0.412052 0.881878 0.261686
Si Si2 0.278432 0.460180 0.021559
Si Si3 0.669372 0.617853 0.577837
Si Si4 0.891023 0.383126 0.603176
Si Si5 0.921230 0.884875 0.405977
Si Si6 0.489288 0.387022 0.332861
Si Si7 0.742986 0.992291 0.201861
Si Si8 0.689197 0.118877 0.339653
O O1 0.445108 0.750000 0.279647
O O2 0.405563 0.887346 0.177589
O O3 0.462078 0.999829 0.286026
O O4 0.318217 0.897034 0.294773
O O5 0.349029 0.546146 0.053703
O O6 0.236220 0.395489 0.086687
O O7 0.206094 0.529989 0.979265
O O8 0.328901 0.386502 0.963420
O O9 0.684454 0.750000 0.554637
O O10 0.571280 0.603377 0.599129
O O11 0.719656 0.592143 0.650499
O O12 0.906128 0.250000 0.625901
O O13 0.842578 0.448493 0.665373
O O14 0.983263 0.433332 0.584330
O O15 0.919942 0.750000 0.429920
O O16 0.475496 0.250000 0.306359
O O17 0.588544 0.398100 0.348274
O O18 0.724922 0.034030 0.280127
O O19 0.702875 0.250000 0.312856
#
# Coordination Sequence:
#
# PCOD9463353 Si02
#       8
#     8   8   8   8   8   8   8   8
#     4  10  19  35  58  87 118 150 191 241 293 346
#     4  11  21  36  55  81 113 149 192 238 289 347
#     4   9  19  36  57  78 108 150 192 232 287 349
#     4  10  21  36  55  79 111 151 188 233 289 348
#     4  10  20  35  53  78 114 148 188 239 290 343
#     4   9  20  38  58  84 116 153 195 243 293 347
#     4  10  19  35  58  82 113 146 191 233 289 351
#     4  11  22  37  58  84 116 149 192 245 296 346
#
# _framework density 18.635273999999999
#
# number of rings (size 3 to 8) (size 9 to 14) (size 15 to 20)
#    0.000    2.000    1.250    2.625    0.000    1.000 
#    0.000    2.500    0.000    5.250    0.000    0.000 
#    0.000    0.000    0.000    0.000    0.000    0.000 
#
# Total GULP energy -356655.432864 kJ/mol
# GULP energy per Si atom -5572.741139 kJ/mol
# Density = 1.859286 g / cm^3
# Si number density = 18.635274 Si / 1000 Ang^3
#
#
#
# Elastic Constant Matrix: (Units=GPa)
#
#
# Indices 1 2 3 4 5 6 
#
# 1 68.2454 28.2300 16.9234 0.0000 0.0000 0.0000
# 2 28.2300 77.7914 14.9234 0.0000 0.0000 0.0000
# 3 16.9234 14.9234 63.3762 0.0000 0.0000 0.0000
# 4 0.0000 0.0000 0.0000 5.4689 0.0000 0.0000
# 5 0.0000 0.0000 0.0000 0.0000 22.1809 0.0000
# 6 0.0000 0.0000 0.0000 0.0000 0.0000 23.8317
#
#
#
# Elastic Compliance Matrix: (Units=1/GPa)
#
#
# Indices 1 2 3 4 5 6 
#
# 1 0.017917 -0.005848 -0.003407 0.000000 0.000000 0.000000
# 2 -0.005848 0.015372 -0.002058 0.000000 0.000000 0.000000
# 3 -0.003407 -0.002058 0.017173 0.000000 0.000000 0.000000
# 4 0.000000 0.000000 0.000000 0.182852 0.000000 0.000000
# 5 0.000000 0.000000 0.000000 0.000000 0.045084 0.000000
# 6 0.000000 0.000000 0.000000 0.000000 0.000000 0.041961
#
#
# Mechanical properties :
#
#
# Convention : Reuss Voigt Hill
#
# Bulk Modulus (GPa) = 35.92589 36.61852 36.27220
# Shear Modulus (GPa) = 14.19386 20.25204 17.22295
#
# Velocity S-wave (km/s) = 2.76282 3.30018 3.04338
# Velocity P-wave (km/s) = 5.43120 5.84930 5.64412
#
# Compressibility (1/GPa) = 0.02783508
#
# Stress axis : x y z
#
# Youngs Moduli (GPa) = 55.81242 65.05317 58.23010
#
# Poissons Ratio (x) = 0.38046 0.19841
# Poissons Ratio (y) = 0.32641 0.11984
# Poissons Ratio (z) = 0.19017 0.13388
#
# Static dielectric constant tensor:
#      x y z
#    x 1.655860 0.000000 0.000000 
#    y 0.000000 1.649350 0.000000 
#    z 0.000000 0.000000 1.613140 
# 
# From -- ./inp_files/24011.got.cif
#   From: 2010.05.17/outbox.cif.g08.bks.cpg/sg62_13_cif.got.tgz:24011.got - 2010.06.03 15:25:27.
