data_PCOD9463842
_publ_section_title
;
Structure prediction by ZEFSAII (Michael W. Deem and Ramdas Pophale) SiO2 
 PCOD9463842
Probable space group: P N M A
;
_chemical_formula_sum "Si O2"
_cell_formula_units_Z 56
_cell_length_a 28.102568
_cell_length_b 7.476205
_cell_length_c 11.718768
_cell_angle_alpha 90.000000
_cell_angle_beta 90.000000
_cell_angle_gamma 90.000000
_cell_volume 2462.119712
_symmetry_space_group_name_H-M "P N M A"
_symmetry_group_IT_number 62
_symmetry_cell_setting 'orthorhombic'
loop_
_space_group_symop_operation_xyz
x,y,z
1/2-x,-y,1/2+z
1/2+x,1/2-y,1/2-z
-x,1/2+y,-z
-x,-y,-z
1/2+x,y,1/2-z
1/2-x,1/2+y,1/2+z
x,1/2-y,z
loop_
_atom_site_type_symbol
_atom_site_label
_atom_site_fract_x
_atom_site_fract_y
_atom_site_fract_z
Si Si1 0.300512 0.535476 0.401379
Si Si2 0.525409 0.962628 0.120153
Si Si3 0.308092 0.537830 0.937226
Si Si4 0.151773 0.468142 0.674152
Si Si5 0.946551 0.967934 0.206966
Si Si6 0.618688 0.455572 0.232573
Si Si7 0.898735 0.967973 0.980412
O O1 0.301911 0.750000 0.401892
O O2 0.248332 0.483183 0.440275
O O3 0.311500 0.475200 0.272521
O O4 0.345867 0.479266 0.476521
O O5 0.529919 0.750000 0.129915
O O6 0.492712 0.030098 0.224880
O O7 0.577845 0.039853 0.136679
O O8 0.500000 0.000000 0.000000
O O9 0.317677 0.750000 0.936259
O O10 0.334036 0.464119 0.824151
O O11 0.332511 0.465047 0.051332
O O12 0.151981 0.250000 0.671861
O O13 0.099529 0.519642 0.717731
O O14 0.948027 0.750000 0.206012
O O15 0.936160 0.028613 0.077378
O O16 0.629839 0.250000 0.262038
O O17 0.597778 0.532496 0.350378
O O18 0.901988 0.750000 0.983575
#
# Coordination Sequence:
#
# PCOD9463842 Si02
#       7
#     8   8   8   8   8   8   8
#     4   9  18  32  52  74  97 133 178 220 260 309
#     4  11  22  36  57  83 109 141 181 226 272 322
#     4  10  20  32  49  73 104 140 175 214 265 318
#     4   8  15  30  49  70  96 131 171 207 253 314
#     4   8  15  31  55  77 100 136 179 216 260 321
#     4  10  21  36  54  79 111 144 177 219 270 324
#     4   8  16  33  55  78 106 140 179 220 266 324
#
# _framework density 22.744630000000001
#
# number of rings (size 3 to 8) (size 9 to 14) (size 15 to 20)
#    0.000    2.857    0.000    3.000    2.000    3.429 
#    0.000    0.714    0.000    9.429    0.000    0.000 
#    0.000    0.000    0.000    0.000    0.000    0.000 
#
# Total GULP energy -312572.715375 kJ/mol
# GULP energy per Si atom -5581.655632 kJ/mol
# Density = 2.269286 g / cm^3
# Si number density = 22.744630 Si / 1000 Ang^3
#
#
#
# Elastic Constant Matrix: (Units=GPa)
#
#
# Indices 1 2 3 4 5 6 
#
# 1 51.6257 -12.0357 11.0736 0.0000 0.0000 0.0000
# 2 -12.0357 65.7563 0.3761 0.0000 0.0000 0.0000
# 3 11.0736 0.3761 97.6300 0.0000 0.0000 0.0000
# 4 0.0000 0.0000 0.0000 13.7102 0.0000 0.0000
# 5 0.0000 0.0000 0.0000 0.0000 18.2124 0.0000
# 6 0.0000 0.0000 0.0000 0.0000 0.0000 14.5510
#
#
#
# Elastic Compliance Matrix: (Units=1/GPa)
#
#
# Indices 1 2 3 4 5 6 
#
# 1 0.020768 0.003815 -0.002370 0.000000 0.000000 0.000000
# 2 0.003815 0.015909 -0.000494 0.000000 0.000000 0.000000
# 3 -0.002370 -0.000494 0.010514 0.000000 0.000000 0.000000
# 4 0.000000 0.000000 0.000000 0.072938 0.000000 0.000000
# 5 0.000000 0.000000 0.000000 0.000000 0.054908 0.000000
# 6 0.000000 0.000000 0.000000 0.000000 0.000000 0.068724
#
#
# Mechanical properties :
#
#
# Convention : Reuss Voigt Hill
#
# Bulk Modulus (GPa) = 20.37022 23.76003 22.06513
# Shear Modulus (GPa) = 19.36313 23.66792 21.51553
#
# Velocity S-wave (km/s) = 2.92092 3.22932 3.07898
# Velocity P-wave (km/s) = 4.51123 4.93698 4.72890
#
# Compressibility (1/GPa) = 0.04909127
#
# Stress axis : x y z
#
# Youngs Moduli (GPa) = 48.15106 62.85859 95.11580
#
# Poissons Ratio (x) = -0.23979 0.22545
# Poissons Ratio (y) = -0.18369 0.04699
# Poissons Ratio (z) = 0.11413 0.03105
#
# Static dielectric constant tensor:
#      x y z
#    x 1.821900 0.000000 0.000000 
#    y 0.000000 1.869940 0.000000 
#    z 0.000000 0.000000 1.865940 
# 
# From -- ./inp_files/15549.got.cif
#   From: 2010.05.17/outbox.cif.g08.bks.cpg/sg62_8_cif.got.tgz:15549.got - 2010.06.03 15:25:27.
