data_PCOD9463606
_publ_section_title
;
Structure prediction by ZEFSAII (Michael W. Deem and Ramdas Pophale) SiO2 
 PCOD9463606
Probable space group: P N M A
;
_chemical_formula_sum "Si O2"
_cell_formula_units_Z 32
_cell_length_a 5.257825
_cell_length_b 8.319926
_cell_length_c 28.762696
_cell_angle_alpha 90.000000
_cell_angle_beta 90.000000
_cell_angle_gamma 90.000000
_cell_volume 1258.215937
_symmetry_space_group_name_H-M "P N M A"
_symmetry_group_IT_number 62
_symmetry_cell_setting 'orthorhombic'
loop_
_space_group_symop_operation_xyz
x,y,z
1/2-x,-y,1/2+z
1/2+x,1/2-y,1/2-z
-x,1/2+y,-z
-x,-y,-z
1/2+x,y,1/2-z
1/2-x,1/2+y,1/2+z
x,1/2-y,z
loop_
_atom_site_type_symbol
_atom_site_label
_atom_site_fract_x
_atom_site_fract_y
_atom_site_fract_z
Si Si1 0.902877 0.427718 0.643783
Si Si2 0.042026 0.750000 0.934781
Si Si3 0.445745 0.250000 0.127382
Si Si4 0.782960 0.064747 0.534616
Si Si5 0.452444 0.557434 0.275912
O O1 0.994876 0.250000 0.659034
O O2 0.070843 0.582947 0.654334
O O3 0.636842 0.459153 0.670442
O O4 0.882661 0.423102 0.588087
O O5 0.274566 0.750000 0.897044
O O6 0.081861 0.580763 0.961036
O O7 0.770406 0.750000 0.911151
O O8 0.714721 0.250000 0.523453
O O9 0.000000 0.000000 0.500000
O O10 0.211393 0.494615 0.246283
O O11 0.470090 0.750000 0.269793
#
# Coordination Sequence:
#
# PCOD9463606 Si02
#       5
#     8   4   4   8   8
#     4   9  20  38  62  91 125 165 208 256 316 375
#     4  10  22  40  60  89 124 162 204 257 308 364
#     4  10  22  40  62  89 124 160 204 253 310 366
#     4  10  19  36  65  92 128 167 216 262 317 378
#     4   9  18  34  58  88 120 156 200 252 308 371
#
# _framework density 25.432836000000002
#
# number of rings (size 3 to 8) (size 9 to 14) (size 15 to 20)
#    0.000    2.500    1.250    0.000    0.000    5.000 
#    0.000   13.750    0.000    0.000    0.000    0.000 
#    0.000    0.000    0.000    0.000    0.000    0.000 
#
# Total GULP energy -178742.532152 kJ/mol
# GULP energy per Si atom -5585.704130 kJ/mol
# Density = 2.537495 g / cm^3
# Si number density = 25.432836 Si / 1000 Ang^3
#
#
#
# Elastic Constant Matrix: (Units=GPa)
#
#
# Indices 1 2 3 4 5 6 
#
# 1 86.5746 32.9689 33.7054 0.0000 0.0000 0.0000
# 2 32.9689 225.3079 19.3389 0.0000 0.0000 0.0000
# 3 33.7054 19.3389 142.5753 0.0000 0.0000 0.0000
# 4 0.0000 0.0000 0.0000 19.5794 0.0000 0.0000
# 5 0.0000 0.0000 0.0000 0.0000 51.4033 0.0000
# 6 0.0000 0.0000 0.0000 0.0000 0.0000 17.5522
#
#
#
# Elastic Compliance Matrix: (Units=1/GPa)
#
#
# Indices 1 2 3 4 5 6 
#
# 1 0.013336 -0.001701 -0.002922 0.000000 0.000000 0.000000
# 2 -0.001701 0.004708 -0.000236 0.000000 0.000000 0.000000
# 3 -0.002922 -0.000236 0.007737 0.000000 0.000000 0.000000
# 4 0.000000 0.000000 0.000000 0.051074 0.000000 0.000000
# 5 0.000000 0.000000 0.000000 0.000000 0.019454 0.000000
# 6 0.000000 0.000000 0.000000 0.000000 0.000000 0.056973
#
#
# Mechanical properties :
#
#
# Convention : Reuss Voigt Hill
#
# Bulk Modulus (GPa) = 62.25903 69.60934 65.93419
# Shear Modulus (GPa) = 29.69945 42.26997 35.98471
#
# Velocity S-wave (km/s) = 3.42096 4.08121 3.76559
# Velocity P-wave (km/s) = 6.33537 7.04540 6.69980
#
# Compressibility (1/GPa) = 0.01606193
#
# Stress axis : x y z
#
# Youngs Moduli (GPa) = 74.98532 212.42612 129.25431
#
# Poissons Ratio (x) = 0.36126 0.37768
# Poissons Ratio (y) = 0.12752 0.03057
# Poissons Ratio (z) = 0.21911 0.05024
#
# Static dielectric constant tensor:
#      x y z
#    x 2.019060 0.000000 0.000000 
#    y 0.000000 2.037080 0.000000 
#    z 0.000000 0.000000 2.101290 
# 
# From -- ./inp_files/31423.got.cif
#   From: 2010.05.17/outbox.cif.g08.bks.cpg/sg62_16_cif.got.tgz:31423.got - 2010.06.03 15:25:27.
