data_PCOD9463758
_publ_section_title
;
Structure prediction by ZEFSAII (Michael W. Deem and Ramdas Pophale) SiO2 
 PCOD9463758
Probable space group: P N M A
;
_chemical_formula_sum "Si O2"
_cell_formula_units_Z 44
_cell_length_a 18.520790
_cell_length_b 13.674404
_cell_length_c 9.019296
_cell_angle_alpha 90.000000
_cell_angle_beta 90.000000
_cell_angle_gamma 90.000000
_cell_volume 2284.233803
_symmetry_space_group_name_H-M "P N M A"
_symmetry_group_IT_number 62
_symmetry_cell_setting 'orthorhombic'
loop_
_space_group_symop_operation_xyz
x,y,z
1/2-x,-y,1/2+z
1/2+x,1/2-y,1/2-z
-x,1/2+y,-z
-x,-y,-z
1/2+x,y,1/2-z
1/2-x,1/2+y,1/2+z
x,1/2-y,z
loop_
_atom_site_type_symbol
_atom_site_label
_atom_site_fract_x
_atom_site_fract_y
_atom_site_fract_z
Si Si1 0.055905 0.419900 0.566569
Si Si2 0.098682 0.750000 0.678589
Si Si3 0.229046 0.406543 0.939146
Si Si4 0.889727 0.750000 0.993517
Si Si5 0.161836 0.750000 0.341894
Si Si6 0.674982 0.555504 0.779235
Si Si7 0.427002 0.750000 0.845099
Si Si8 0.010149 0.750000 0.227933
O O1 0.119369 0.478326 0.647853
O O2 0.087736 0.347971 0.439969
O O3 0.015455 0.345655 0.678981
O O4 0.000000 0.500000 0.500000
O O5 0.124143 0.750000 0.505537
O O6 0.130696 0.846534 0.751562
O O7 0.013212 0.750000 0.678146
O O8 0.156730 0.342853 0.953508
O O9 0.286370 0.344275 0.841610
O O10 0.211020 0.507821 0.862679
O O11 0.265033 0.419137 0.098672
O O12 0.967238 0.750000 0.073412
O O13 0.892621 0.750000 0.816316
O O14 0.096803 0.750000 0.225993
#
# Coordination Sequence:
#
# PCOD9463758 Si02
#       8
#     8   4   8   4   4   8   4   4
#     4  11  20  38  68  91 118 162 219 259 309 389
#     4  10  19  41  61  87 125 158 198 269 305 382
#     4  10  23  41  62  88 127 169 210 255 319 381
#     4  11  24  43  59  94 138 162 196 282 329 364
#     4   9  18  40  66  82 121 166 208 251 313 375
#     4  11  22  41  63  91 123 169 212 258 317 381
#     4  11  23  37  63  96 123 157 212 260 324 383
#     4  11  20  41  65  93 123 165 206 274 323 362
#
# _framework density 19.262475999999999
#
# number of rings (size 3 to 8) (size 9 to 14) (size 15 to 20)
#    0.000    1.455    5.455    1.636    2.545    0.000 
#    3.273    2.727    0.000    0.000    0.000    0.000 
#    0.000    0.000    0.000    0.000    0.000    0.000 
#
# Total GULP energy -245786.724810 kJ/mol
# GULP energy per Si atom -5586.061927 kJ/mol
# Density = 1.921863 g / cm^3
# Si number density = 19.262476 Si / 1000 Ang^3
#
#
#
# Elastic Constant Matrix: (Units=GPa)
#
#
# Indices 1 2 3 4 5 6 
#
# 1 64.2419 14.1044 3.2701 0.0000 0.0000 0.0000
# 2 14.1044 106.3214 14.1187 0.0000 0.0000 0.0000
# 3 3.2701 14.1187 36.3407 0.0000 0.0000 0.0000
# 4 0.0000 0.0000 0.0000 46.7084 0.0000 0.0000
# 5 0.0000 0.0000 0.0000 0.0000 25.9604 0.0000
# 6 0.0000 0.0000 0.0000 0.0000 0.0000 -33.1210
#
#
#
# Elastic Compliance Matrix: (Units=1/GPa)
#
#
# Indices 1 2 3 4 5 6 
#
# 1 0.016048 -0.002042 -0.000651 0.000000 0.000000 0.000000
# 2 -0.002042 0.010177 -0.003770 0.000000 0.000000 0.000000
# 3 -0.000651 -0.003770 0.029041 0.000000 0.000000 0.000000
# 4 0.000000 0.000000 0.000000 0.021409 0.000000 0.000000
# 5 0.000000 0.000000 0.000000 0.000000 0.038520 0.000000
# 6 0.000000 0.000000 0.000000 0.000000 0.000000 -0.030192
#
#
# Mechanical properties :
#
#
# Convention : Reuss Voigt Hill
#
# Bulk Modulus (GPa) = 23.61876 29.98780 26.80328
# Shear Modulus (GPa) = 44.62621 19.60364 32.11492
#
# Velocity S-wave (km/s) = 4.81848 3.19362 4.08760
# Velocity P-wave (km/s) = 6.57610 5.40377 6.01855
#
# Compressibility (1/GPa) = 0.04233923
#
# Stress axis : x y z
#
# Youngs Moduli (GPa) = 62.31420 98.26045 34.43451
#
# Poissons Ratio (x) = 0.20069 0.02240
# Poissons Ratio (y) = 0.12728 0.12982
# Poissons Ratio (z) = 0.04054 0.37045
#
# Static dielectric constant tensor:
#      x y z
#    x 1.659210 0.000000 0.000000 
#    y 0.000000 1.666400 0.000000 
#    z 0.000000 0.000000 1.660500 
# 
# From -- ./inp_files/7594.got.cif
#   From: 2010.05.17/outbox.cif.g08.bks.cpg/sg62_4_cif.got.tgz:7594.got - 2010.06.03 15:25:27.
