data_PCOD9463273
_publ_section_title
;
Structure prediction by ZEFSAII (Michael W. Deem and Ramdas Pophale) SiO2 
 PCOD9463273
Probable space group: P N M A
;
_chemical_formula_sum "Si O2"
_cell_formula_units_Z 64
_cell_length_a 9.358459
_cell_length_b 24.687364
_cell_length_c 17.659535
_cell_angle_alpha 90.000000
_cell_angle_beta 90.000000
_cell_angle_gamma 90.000000
_cell_volume 4079.982745
_symmetry_space_group_name_H-M "P N M A"
_symmetry_group_IT_number 62
_symmetry_cell_setting 'orthorhombic'
loop_
_space_group_symop_operation_xyz
x,y,z
1/2-x,-y,1/2+z
1/2+x,1/2-y,1/2-z
-x,1/2+y,-z
-x,-y,-z
1/2+x,y,1/2-z
1/2-x,1/2+y,1/2+z
x,1/2-y,z
loop_
_atom_site_type_symbol
_atom_site_label
_atom_site_fract_x
_atom_site_fract_y
_atom_site_fract_z
Si Si1 0.714846 0.499538 0.836433
Si Si2 0.894162 0.903133 0.435982
Si Si3 0.373796 0.685992 0.324994
Si Si4 0.555578 0.993582 0.678204
Si Si5 0.175507 0.937610 0.960560
Si Si6 0.535463 0.814452 0.167355
Si Si7 0.080980 0.406190 0.930405
Si Si8 0.329553 0.049301 0.009181
O O1 0.687278 0.439905 0.873070
O O2 0.623951 0.506446 0.760747
O O3 0.663920 0.541721 0.901024
O O4 0.883313 0.507996 0.821685
O O5 0.789163 0.894136 0.507651
O O6 0.961529 0.850810 0.396826
O O7 0.022499 0.940029 0.468074
O O8 0.386364 0.750000 0.338962
O O9 0.204162 0.672294 0.323106
O O10 0.451452 0.674430 0.245559
O O11 0.446207 0.650642 0.390507
O O12 0.596412 0.050148 0.637095
O O13 0.620933 0.946124 0.624680
O O14 0.039438 0.928976 0.014045
O O15 0.252321 0.994358 0.981186
O O16 0.524578 0.750000 0.152048
O O17 0.223651 0.404077 0.980478
#
# Coordination Sequence:
#
# PCOD9463273 Si02
#       8
#     8   8   8   8   8   8   8   8
#     4  11  22  32  46  72 103 132 169 200 246 298
#     4  11  21  33  54  73  95 139 174 206 249 303
#     4  10  22  36  52  73 102 135 172 216 254 294
#     4  11  22  32  47  71 103 135 163 205 243 298
#     4  10  20  35  50  69 101 132 170 209 252 291
#     4  10  22  38  51  74 105 134 173 216 254 292
#     4  11  18  35  54  66  99 138 171 205 251 295
#     4  10  19  35  49  71  97 132 170 210 246 298
#
# _framework density 15.686341000000001
#
# number of rings (size 3 to 8) (size 9 to 14) (size 15 to 20)
#    0.000    1.500    5.000    3.000    7.000    2.000 
#    0.000    0.000    0.000    0.000    0.000    0.000 
#    0.000    6.000    0.000    0.000    0.000    0.000 
#
# Total GULP energy -356697.154714 kJ/mol
# GULP energy per Si atom -5573.393042 kJ/mol
# Density = 1.565064 g / cm^3
# Si number density = 15.686341 Si / 1000 Ang^3
#
#
#
# Elastic Constant Matrix: (Units=GPa)
#
#
# Indices 1 2 3 4 5 6 
#
# 1 84.7207 10.4059 36.8207 0.0000 0.0000 0.0000
# 2 10.4059 30.8645 20.5427 0.0000 0.0000 0.0000
# 3 36.8207 20.5427 89.3323 0.0000 0.0000 0.0000
# 4 0.0000 0.0000 0.0000 24.6891 0.0000 0.0000
# 5 0.0000 0.0000 0.0000 0.0000 35.7610 0.0000
# 6 0.0000 0.0000 0.0000 0.0000 0.0000 18.1379
#
#
#
# Elastic Compliance Matrix: (Units=1/GPa)
#
#
# Indices 1 2 3 4 5 6 
#
# 1 0.014409 -0.001069 -0.005693 0.000000 0.000000 0.000000
# 2 -0.001069 0.038334 -0.008375 0.000000 0.000000 0.000000
# 3 -0.005693 -0.008375 0.015467 0.000000 0.000000 0.000000
# 4 0.000000 0.000000 0.000000 0.040504 0.000000 0.000000
# 5 0.000000 0.000000 0.000000 0.000000 0.027963 0.000000
# 6 0.000000 0.000000 0.000000 0.000000 0.000000 0.055133
#
#
# Mechanical properties :
#
#
# Convention : Reuss Voigt Hill
#
# Bulk Modulus (GPa) = 26.35999 37.82846 32.09422
# Shear Modulus (GPa) = 21.30116 24.86082 23.08099
#
# Velocity S-wave (km/s) = 3.68903 3.98536 3.84005
# Velocity P-wave (km/s) = 5.91491 6.73390 6.33765
#
# Compressibility (1/GPa) = 0.03793629
#
# Stress axis : x y z
#
# Youngs Moduli (GPa) = 69.40026 26.08654 64.65517
#
# Poissons Ratio (x) = 0.02788 0.36811
# Poissons Ratio (y) = 0.07416 0.54147
# Poissons Ratio (z) = 0.39512 0.21847
#
# Static dielectric constant tensor:
#      x y z
#    x 1.577760 0.000000 0.000000 
#    y 0.000000 1.528490 0.000000 
#    z 0.000000 0.000000 1.523890 
# 
# From -- ./inp_files/22653.got.cif
#   From: 2010.05.17/outbox.cif.g08.bks.cpg/sg62_12_cif.got.tgz:22653.got - 2010.06.03 15:25:27.
