data_PCOD9463001
_publ_section_title
;
Structure prediction by ZEFSAII (Michael W. Deem and Ramdas Pophale) SiO2 
 PCOD9463001
Probable space group: P N M A
;
_chemical_formula_sum "Si O2"
_cell_formula_units_Z 56
_cell_length_a 19.568466
_cell_length_b 17.635232
_cell_length_c 9.092497
_cell_angle_alpha 90.000000
_cell_angle_beta 90.000000
_cell_angle_gamma 90.000000
_cell_volume 3137.770140
_symmetry_space_group_name_H-M "P N M A"
_symmetry_group_IT_number 62
_symmetry_cell_setting 'orthorhombic'
loop_
_space_group_symop_operation_xyz
x,y,z
1/2-x,-y,1/2+z
1/2+x,1/2-y,1/2-z
-x,1/2+y,-z
-x,-y,-z
1/2+x,y,1/2-z
1/2-x,1/2+y,1/2+z
x,1/2-y,z
loop_
_atom_site_type_symbol
_atom_site_label
_atom_site_fract_x
_atom_site_fract_y
_atom_site_fract_z
Si Si1 0.683026 0.837243 0.064997
Si Si2 0.332577 0.501346 0.490809
Si Si3 0.916310 0.431836 0.776949
Si Si4 0.431052 0.954731 0.961858
Si Si5 0.958717 0.835557 0.327935
Si Si6 0.341919 0.666318 0.406547
Si Si7 0.190731 0.972046 0.647750
O O1 0.663049 0.750000 0.043381
O O2 0.634390 0.879991 0.179582
O O3 0.760914 0.838736 0.123577
O O4 0.683488 0.886462 0.915209
O O5 0.387969 0.445277 0.561036
O O6 0.357424 0.589008 0.492987
O O7 0.315666 0.480944 0.322113
O O8 0.263504 0.498264 0.587868
O O9 0.914767 0.515008 0.699969
O O10 0.989188 0.391405 0.757265
O O11 0.446528 0.869202 0.009471
O O12 0.370074 0.982569 0.067500
O O13 0.500000 0.000000 0.000000
O O14 0.985550 0.750000 0.330931
O O15 0.888042 0.835382 0.238542
O O16 0.353640 0.750000 0.476616
#
# Coordination Sequence:
#
# PCOD9463001 Si02
#       7
#     8   8   8   8   8   8   8
#     4   9  18  35  55  78 109 147 183 228 288 337
#     4  11  20  35  56  84 112 148 191 236 280 334
#     4  10  21  33  54  83 111 146 186 231 281 341
#     4   9  18  34  52  80 108 141 184 229 278 336
#     4  10  19  34  55  79 109 146 186 231 280 334
#     4   9  18  32  53  76 104 145 183 225 279 328
#     4  10  19  33  56  81 112 145 191 234 279 335
#
# _framework density 17.847069000000001
#
# number of rings (size 3 to 8) (size 9 to 14) (size 15 to 20)
#    0.000    2.286    1.429    3.000    0.000    0.571 
#    0.000    2.143    0.000    3.429    0.000    0.000 
#    0.000    0.000    0.000    0.000    0.000    0.000 
#
# Total GULP energy -311843.365770 kJ/mol
# GULP energy per Si atom -5568.631532 kJ/mol
# Density = 1.780645 g / cm^3
# Si number density = 17.847069 Si / 1000 Ang^3
#
#
#
# Elastic Constant Matrix: (Units=GPa)
#
#
# Indices 1 2 3 4 5 6 
#
# 1 45.9737 25.2497 17.0567 0.0000 0.0000 0.0000
# 2 25.2497 89.5941 21.4722 0.0000 0.0000 0.0000
# 3 17.0567 21.4722 75.4480 0.0000 0.0000 0.0000
# 4 0.0000 0.0000 0.0000 19.6566 0.0000 0.0000
# 5 0.0000 0.0000 0.0000 0.0000 19.5202 0.0000
# 6 0.0000 0.0000 0.0000 0.0000 0.0000 21.0369
#
#
#
# Elastic Compliance Matrix: (Units=1/GPa)
#
#
# Indices 1 2 3 4 5 6 
#
# 1 0.026929 -0.006579 -0.004216 0.000000 0.000000 0.000000
# 2 -0.006579 0.013586 -0.002379 0.000000 0.000000 0.000000
# 3 -0.004216 -0.002379 0.014884 0.000000 0.000000 0.000000
# 4 0.000000 0.000000 0.000000 0.050873 0.000000 0.000000
# 5 0.000000 0.000000 0.000000 0.000000 0.051229 0.000000
# 6 0.000000 0.000000 0.000000 0.000000 0.000000 0.047535
#
#
# Mechanical properties :
#
#
# Convention : Reuss Voigt Hill
#
# Bulk Modulus (GPa) = 34.42138 37.61922 36.02030
# Shear Modulus (GPa) = 20.74105 21.85855 21.29980
#
# Velocity S-wave (km/s) = 3.41274 3.50347 3.45840
# Velocity P-wave (km/s) = 5.90405 6.12292 6.01448
#
# Compressibility (1/GPa) = 0.02905171
#
# Stress axis : x y z
#
# Youngs Moduli (GPa) = 37.13492 73.60666 67.18501
#
# Poissons Ratio (x) = 0.48425 0.28322
# Poissons Ratio (y) = 0.24431 0.15984
# Poissons Ratio (z) = 0.15654 0.17512
#
# Static dielectric constant tensor:
#      x y z
#    x 1.632290 0.000000 0.000000 
#    y 0.000000 1.649240 0.000000 
#    z 0.000000 0.000000 1.598580 
# 
# From -- ./inp_files/8813.got.cif
#   From: 2010.05.17/outbox.cif.g08.bks.cpg/sg62_5_cif.got.tgz:8813.got - 2010.06.03 15:25:27.
