data_PCOD9463460
_publ_section_title
;
Structure prediction by ZEFSAII (Michael W. Deem and Ramdas Pophale) SiO2 
 PCOD9463460
Probable space group: P N M A
;
_chemical_formula_sum "Si O2"
_cell_formula_units_Z 44
_cell_length_a 14.767228
_cell_length_b 14.466362
_cell_length_c 8.303587
_cell_angle_alpha 90.000000
_cell_angle_beta 90.000000
_cell_angle_gamma 90.000000
_cell_volume 1773.879232
_symmetry_space_group_name_H-M "P N M A"
_symmetry_group_IT_number 62
_symmetry_cell_setting 'orthorhombic'
loop_
_space_group_symop_operation_xyz
x,y,z
1/2-x,-y,1/2+z
1/2+x,1/2-y,1/2-z
-x,1/2+y,-z
-x,-y,-z
1/2+x,y,1/2-z
1/2-x,1/2+y,1/2+z
x,1/2-y,z
loop_
_atom_site_type_symbol
_atom_site_label
_atom_site_fract_x
_atom_site_fract_y
_atom_site_fract_z
Si Si1 0.448142 0.250000 0.574601
Si Si2 0.901066 0.061179 0.400967
Si Si3 0.170365 0.900355 0.242127
Si Si4 0.478662 0.250000 0.217419
Si Si5 0.361484 0.750000 0.547519
Si Si6 0.358227 0.856242 0.077614
Si Si7 0.782712 0.904815 0.774472
O O1 0.403853 0.163490 0.660746
O O2 0.421673 0.250000 0.385288
O O3 0.557928 0.250000 0.580069
O O4 0.855712 0.083313 0.572744
O O5 0.963491 0.150967 0.366844
O O6 0.822542 0.071044 0.267689
O O7 0.921259 0.949520 0.397379
O O8 0.271339 0.863104 0.199326
O O9 0.165618 0.003259 0.173603
O O10 0.577770 0.250000 0.290562
O O11 0.298901 0.663855 0.578078
O O12 0.394106 0.750000 0.083351
O O13 0.314507 0.871889 0.900406
#
# Coordination Sequence:
#
# PCOD9463460 Si02
#       7
#     4   8   8   4   4   8   8
#     4  10  21  36  59  76 121 165 194 242 297 365
#     4  10  21  36  65  94 116 154 204 261 293 361
#     4  10  20  35  62  95 116 149 195 258 306 350
#     4  10  22  38  59  85 118 165 213 231 305 362
#     4  10  23  38  60  83 117 172 205 239 290 381
#     4  10  19  35  63  93 122 147 194 250 316 353
#     4  10  20  38  64  88 119 154 205 249 298 359
#
# _framework density 24.804393000000001
#
# number of rings (size 3 to 8) (size 9 to 14) (size 15 to 20)
#    0.545    1.455    1.818    2.182    0.000    2.182 
#    0.000    3.636    8.000    0.000    0.000    0.000 
#    0.000    0.000    0.000    0.000    0.000    0.000 
#
# Total GULP energy -245467.339651 kJ/mol
# GULP energy per Si atom -5578.803174 kJ/mol
# Density = 2.474794 g / cm^3
# Si number density = 24.804393 Si / 1000 Ang^3
#
#
#
# Elastic Constant Matrix: (Units=GPa)
#
#
# Indices 1 2 3 4 5 6 
#
# 1 38.1085 43.3360 14.2190 0.0000 0.0000 0.0000
# 2 43.3360 218.6902 57.7945 0.0000 0.0000 0.0000
# 3 14.2190 57.7945 83.3321 0.0000 0.0000 0.0000
# 4 0.0000 0.0000 0.0000 6.2205 0.0000 0.0000
# 5 0.0000 0.0000 0.0000 0.0000 42.8552 0.0000
# 6 0.0000 0.0000 0.0000 0.0000 0.0000 46.4444
#
#
#
# Elastic Compliance Matrix: (Units=1/GPa)
#
#
# Indices 1 2 3 4 5 6 
#
# 1 0.034004 -0.006373 -0.001382 0.000000 0.000000 0.000000
# 2 -0.006373 0.006793 -0.003624 0.000000 0.000000 0.000000
# 3 -0.001382 -0.003624 0.014749 0.000000 0.000000 0.000000
# 4 0.000000 0.000000 0.000000 0.160759 0.000000 0.000000
# 5 0.000000 0.000000 0.000000 0.000000 0.023334 0.000000
# 6 0.000000 0.000000 0.000000 0.000000 0.000000 0.021531
#
#
# Mechanical properties :
#
#
# Convention : Reuss Voigt Hill
#
# Bulk Modulus (GPa) = 30.49879 63.42553 46.96216
# Shear Modulus (GPa) = 16.95726 34.08942 25.52334
#
# Velocity S-wave (km/s) = 2.61749 3.71122 3.21126
# Velocity P-wave (km/s) = 4.63221 6.63249 5.72046
#
# Compressibility (1/GPa) = 0.03278819
#
# Stress axis : x y z
#
# Youngs Moduli (GPa) = 29.40854 147.20388 67.79915
#
# Poissons Ratio (x) = 0.93812 0.09371
# Poissons Ratio (y) = 0.18742 0.24571
# Poissons Ratio (z) = 0.04065 0.53347
#
# Static dielectric constant tensor:
#      x y z
#    x 1.965390 0.000000 0.000000 
#    y 0.000000 2.094800 0.000000 
#    z 0.000000 0.000000 1.958800 
# 
# From -- ./inp_files/7584.got.cif
#   From: 2010.05.17/outbox.cif.g08.bks.cpg/sg62_4_cif.got.tgz:7584.got - 2010.06.03 15:25:27.
