data_PCOD9463792
_publ_section_title
;
Structure prediction by ZEFSAII (Michael W. Deem and Ramdas Pophale) SiO2 
 PCOD9463792
Probable space group: P N M A
;
_chemical_formula_sum "Si O2"
_cell_formula_units_Z 56
_cell_length_a 18.970321
_cell_length_b 8.940230
_cell_length_c 21.047111
_cell_angle_alpha 90.000000
_cell_angle_beta 90.000000
_cell_angle_gamma 90.000000
_cell_volume 3569.569671
_symmetry_space_group_name_H-M "P N M A"
_symmetry_group_IT_number 62
_symmetry_cell_setting 'orthorhombic'
loop_
_space_group_symop_operation_xyz
x,y,z
1/2-x,-y,1/2+z
1/2+x,1/2-y,1/2-z
-x,1/2+y,-z
-x,-y,-z
1/2+x,y,1/2-z
1/2-x,1/2+y,1/2+z
x,1/2-y,z
loop_
_atom_site_type_symbol
_atom_site_label
_atom_site_fract_x
_atom_site_fract_y
_atom_site_fract_z
Si Si1 0.218426 0.922513 0.180133
Si Si2 0.922461 0.929743 0.496087
Si Si3 0.786125 0.578386 0.177967
Si Si4 0.582675 0.569666 0.252569
Si Si5 0.652769 0.427628 0.128718
Si Si6 0.351253 0.428182 0.127220
Si Si7 0.920520 0.931136 0.247402
O O1 0.219176 0.750000 0.157723
O O2 0.252050 0.922463 0.251149
O O3 0.138670 0.975299 0.192968
O O4 0.270302 0.021699 0.138257
O O5 0.927148 0.750000 0.490179
O O6 0.880923 0.965740 0.561007
O O7 0.882507 0.997772 0.435770
O O8 0.000000 0.000000 0.500000
O O9 0.786334 0.750000 0.155617
O O10 0.733239 0.482790 0.135690
O O11 0.865865 0.526744 0.191425
O O12 0.588248 0.750000 0.247601
O O13 0.608301 0.502010 0.185760
O O14 0.501664 0.531334 0.265339
O O15 0.650121 0.250000 0.136980
O O16 0.357362 0.250000 0.124988
O O17 0.394501 0.491980 0.187755
O O18 0.914498 0.750000 0.255187
#
# Coordination Sequence:
#
# PCOD9463792 Si02
#       7
#     8   8   8   8   8   8   8
#     4   8  15  29  46  64  87 117 149 181 219 264
#     4  11  23  36  48  65  90 121 155 189 222 261
#     4   8  15  28  46  65  87 117 149 179 219 268
#     4   9  17  29  47  68  91 119 148 179 220 265
#     4  10  20  31  44  64  90 118 150 185 221 260
#     4  11  21  31  45  66  91 122 155 186 222 263
#     4   9  17  30  47  68  93 120 149 183 222 267
#
# _framework density 15.688165
#
# number of rings (size 3 to 8) (size 9 to 14) (size 15 to 20)
#    0.000    2.571    0.000    4.714    0.000   10.286 
#    0.000    0.000    0.000    0.000    0.000    1.000 
#    0.000    0.000    0.000    0.000    0.000    0.000 
#
# Total GULP energy -312080.601770 kJ/mol
# GULP energy per Si atom -5572.867889 kJ/mol
# Density = 1.565246 g / cm^3
# Si number density = 15.688165 Si / 1000 Ang^3
#
#
#
# Elastic Constant Matrix: (Units=GPa)
#
#
# Indices 1 2 3 4 5 6 
#
# 1 167.0935 47.9925 62.0964 0.0000 0.0000 0.0000
# 2 47.9925 48.9474 39.1595 0.0000 0.0000 0.0000
# 3 62.0964 39.1595 66.1337 0.0000 0.0000 0.0000
# 4 0.0000 0.0000 0.0000 20.3589 0.0000 0.0000
# 5 0.0000 0.0000 0.0000 0.0000 23.4884 0.0000
# 6 0.0000 0.0000 0.0000 0.0000 0.0000 22.0108
#
#
#
# Elastic Compliance Matrix: (Units=1/GPa)
#
#
# Indices 1 2 3 4 5 6 
#
# 1 0.009625 -0.004194 -0.006554 0.000000 0.000000 0.000000
# 2 -0.004194 0.040647 -0.020131 0.000000 0.000000 0.000000
# 3 -0.006554 -0.020131 0.033195 0.000000 0.000000 0.000000
# 4 0.000000 0.000000 0.000000 0.049119 0.000000 0.000000
# 5 0.000000 0.000000 0.000000 0.000000 0.042574 0.000000
# 6 0.000000 0.000000 0.000000 0.000000 0.000000 0.045432
#
#
# Mechanical properties :
#
#
# Convention : Reuss Voigt Hill
#
# Bulk Modulus (GPa) = 46.06178 64.51906 55.29042
# Shear Modulus (GPa) = 17.26612 22.03338 19.64975
#
# Velocity S-wave (km/s) = 3.32110 3.75168 3.54294
# Velocity P-wave (km/s) = 6.64311 7.74480 7.21501
#
# Compressibility (1/GPa) = 0.02170997
#
# Stress axis : x y z
#
# Youngs Moduli (GPa) = 103.89785 24.60215 30.12526
#
# Poissons Ratio (x) = 0.10317 0.19745
# Poissons Ratio (y) = 0.43570 0.60644
# Poissons Ratio (z) = 0.68096 0.49525
#
# Static dielectric constant tensor:
#      x y z
#    x 1.562690 0.000000 0.000000 
#    y 0.000000 1.526700 0.000000 
#    z 0.000000 0.000000 1.491000 
# 
# From -- ./inp_files/27834.got.cif
#   From: 2010.05.17/outbox.cif.g08.bks.cpg/sg62_14_cif.got.tgz:27834.got - 2010.06.03 15:25:27.
