data_PCOD9463022
_publ_section_title
;
Structure prediction by ZEFSAII (Michael W. Deem and Ramdas Pophale) SiO2 
 PCOD9463022
Probable space group: P N M A
;
_chemical_formula_sum "Si O2"
_cell_formula_units_Z 40
_cell_length_a 18.940553
_cell_length_b 9.619288
_cell_length_c 10.459277
_cell_angle_alpha 90.000000
_cell_angle_beta 90.000000
_cell_angle_gamma 90.000000
_cell_volume 1905.624147
_symmetry_space_group_name_H-M "P N M A"
_symmetry_group_IT_number 62
_symmetry_cell_setting 'orthorhombic'
loop_
_space_group_symop_operation_xyz
x,y,z
1/2-x,-y,1/2+z
1/2+x,1/2-y,1/2-z
-x,1/2+y,-z
-x,-y,-z
1/2+x,y,1/2-z
1/2-x,1/2+y,1/2+z
x,1/2-y,z
loop_
_atom_site_type_symbol
_atom_site_label
_atom_site_fract_x
_atom_site_fract_y
_atom_site_fract_z
Si Si1 0.254128 0.911858 0.680539
Si Si2 0.108535 0.099131 0.006797
Si Si3 0.472799 0.413435 0.881216
Si Si4 0.306880 0.414890 0.912075
Si Si5 0.963152 0.095675 0.163347
O O1 0.238760 0.750000 0.711199
O O2 0.331226 0.916631 0.612460
O O3 0.204532 0.957395 0.561056
O O4 0.259817 0.003092 0.808493
O O5 0.120385 0.250000 0.942353
O O6 0.032114 0.107591 0.073583
O O7 0.102027 0.967044 0.915111
O O8 0.486403 0.250000 0.893513
O O9 0.388432 0.433370 0.873104
O O10 0.513753 0.480153 0.763475
O O11 0.500000 0.500000 0.000000
O O12 0.290792 0.250000 0.907198
O O13 0.949002 0.250000 0.216730
#
# Coordination Sequence:
#
# PCOD9463022 Si02
#       5
#     8   8   8   8   8
#     4  10  21  40  63  88 122 159 201 248 299 360
#     4   9  18  33  56  84 113 148 188 235 287 344
#     4  11  23  39  59  84 118 155 196 243 295 353
#     4  10  23  41  62  90 121 156 201 249 297 355
#     4  10  19  33  56  85 114 148 190 235 287 343
#
# _framework density 20.990500000000001
#
# number of rings (size 3 to 8) (size 9 to 14) (size 15 to 20)
#    0.000    2.000    2.000    1.200    0.000    4.800 
#    0.000    4.000    0.000    0.000    0.000    0.000 
#    0.000    0.000    0.000    0.000    0.000    0.000 
#
# Total GULP energy -223211.779560 kJ/mol
# GULP energy per Si atom -5580.294489 kJ/mol
# Density = 2.094272 g / cm^3
# Si number density = 20.990500 Si / 1000 Ang^3
#
#
#
# Elastic Constant Matrix: (Units=GPa)
#
#
# Indices 1 2 3 4 5 6 
#
# 1 39.4580 17.8759 1.3832 0.0000 0.0000 0.0000
# 2 17.8759 114.6969 53.4038 0.0000 0.0000 0.0000
# 3 1.3832 53.4038 73.5331 0.0000 0.0000 0.0000
# 4 0.0000 0.0000 0.0000 43.8394 0.0000 0.0000
# 5 0.0000 0.0000 0.0000 0.0000 22.4650 0.0000
# 6 0.0000 0.0000 0.0000 0.0000 0.0000 13.7746
#
#
#
# Elastic Compliance Matrix: (Units=1/GPa)
#
#
# Indices 1 2 3 4 5 6 
#
# 1 0.028025 -0.006229 0.003996 0.000000 0.000000 0.000000
# 2 -0.006229 0.014557 -0.010455 0.000000 0.000000 0.000000
# 3 0.003996 -0.010455 0.021117 0.000000 0.000000 0.000000
# 4 0.000000 0.000000 0.000000 0.022811 0.000000 0.000000
# 5 0.000000 0.000000 0.000000 0.000000 0.044514 0.000000
# 6 0.000000 0.000000 0.000000 0.000000 0.000000 0.072597
#
#
# Mechanical properties :
#
#
# Convention : Reuss Voigt Hill
#
# Bulk Modulus (GPa) = 26.09268 41.44597 33.76933
# Shear Modulus (GPa) = 20.68070 26.35080 23.51575
#
# Velocity S-wave (km/s) = 3.14226 3.54696 3.35073
# Velocity P-wave (km/s) = 5.06189 6.04670 5.57608
#
# Compressibility (1/GPa) = 0.03832492
#
# Stress axis : x y z
#
# Youngs Moduli (GPa) = 35.68235 68.69357 47.35450
#
# Poissons Ratio (x) = 0.42786 -0.18924
# Poissons Ratio (y) = 0.22225 0.49510
# Poissons Ratio (z) = -0.14260 0.71821
#
# Static dielectric constant tensor:
#      x y z
#    x 1.805680 0.000000 0.000000 
#    y 0.000000 -0.790820 0.000000 
#    z 0.000000 0.000000 1.793990 
# 
# From -- ./inp_files/14611.got.cif
#   From: 2010.05.17/outbox.cif.g08.bks.cpg/sg62_8_cif.got.tgz:14611.got - 2010.06.03 15:25:27.
