data_PCOD9463374
_publ_section_title
;
Structure prediction by ZEFSAII (Michael W. Deem and Ramdas Pophale) SiO2 
 PCOD9463374
Probable space group: P N M A
;
_chemical_formula_sum "Si O2"
_cell_formula_units_Z 64
_cell_length_a 12.528702
_cell_length_b 9.265303
_cell_length_c 27.812084
_cell_angle_alpha 90.000000
_cell_angle_beta 90.000000
_cell_angle_gamma 90.000000
_cell_volume 3228.488460
_symmetry_space_group_name_H-M "P N M A"
_symmetry_group_IT_number 62
_symmetry_cell_setting 'orthorhombic'
loop_
_space_group_symop_operation_xyz
x,y,z
1/2-x,-y,1/2+z
1/2+x,1/2-y,1/2-z
-x,1/2+y,-z
-x,-y,-z
1/2+x,y,1/2-z
1/2-x,1/2+y,1/2+z
x,1/2-y,z
loop_
_atom_site_type_symbol
_atom_site_label
_atom_site_fract_x
_atom_site_fract_y
_atom_site_fract_z
Si Si1 0.326646 0.074002 0.606292
Si Si2 0.464740 0.910438 0.831076
Si Si3 0.311383 0.908611 0.394557
Si Si4 0.517766 0.576486 0.551501
Si Si5 0.856796 0.590233 0.466403
Si Si6 0.788328 0.077606 0.306766
Si Si7 0.416539 0.473483 0.930008
Si Si8 0.232520 0.578736 0.291157
O O1 0.334744 0.250000 0.607681
O O2 0.235234 0.029911 0.567495
O O3 0.432922 0.996070 0.587853
O O4 0.287514 0.009503 0.656735
O O5 0.443175 0.750000 0.811775
O O6 0.588502 0.944809 0.822446
O O7 0.440395 0.911192 0.888170
O O8 0.384907 0.022684 0.806241
O O9 0.361695 0.750000 0.402019
O O10 0.307648 0.944224 0.337997
O O11 0.368523 0.027894 0.426804
O O12 0.187683 0.897218 0.409403
O O13 0.500000 0.500000 0.500000
O O14 0.507641 0.750000 0.548114
O O15 0.821011 0.750000 0.479662
O O16 0.881709 0.513896 0.516249
O O17 0.967752 0.596990 0.437246
O O18 0.767405 0.250000 0.308436
O O19 0.771655 0.012587 0.253996
O O20 0.230874 0.750000 0.281226
#
# Coordination Sequence:
#
# PCOD9463374 Si02
#       8
#     8   8   8   8   8   8   8   8
#     4  11  23  41  64  92 128 167 213 263 316 379
#     4  10  21  38  61  89 124 163 202 254 311 374
#     4  10  22  41  64  90 123 163 213 266 319 381
#     4  12  26  44  66  92 128 173 221 271 323 384
#     4  10  20  33  55  89 125 162 199 243 300 366
#     4  11  23  41  63  92 126 163 209 259 318 380
#     4  10  19  35  58  90 125 162 202 247 301 371
#     4  10  23  41  64  92 121 161 209 263 322 382
#
# _framework density 19.823518
#
# number of rings (size 3 to 8) (size 9 to 14) (size 15 to 20)
#    0.000    1.500    1.250    3.750    0.000    6.500 
#    0.000    3.750    0.000    0.000    0.000    0.000 
#    0.000    0.000    0.000    0.000    0.000    0.000 
#
# Total GULP energy -356958.381349 kJ/mol
# GULP energy per Si atom -5577.474709 kJ/mol
# Density = 1.977840 g / cm^3
# Si number density = 19.823518 Si / 1000 Ang^3
#
#
#
# Elastic Constant Matrix: (Units=GPa)
#
#
# Indices 1 2 3 4 5 6 
#
# 1 74.2939 39.4046 24.7939 0.0000 0.0000 0.0000
# 2 39.4046 123.6280 53.0473 0.0000 0.0000 0.0000
# 3 24.7939 53.0473 102.3361 0.0000 0.0000 0.0000
# 4 0.0000 0.0000 0.0000 104.2764 0.0000 0.0000
# 5 0.0000 0.0000 0.0000 0.0000 26.1136 0.0000
# 6 0.0000 0.0000 0.0000 0.0000 0.0000 32.0255
#
#
#
# Elastic Compliance Matrix: (Units=1/GPa)
#
#
# Indices 1 2 3 4 5 6 
#
# 1 0.016406 -0.004532 -0.001626 0.000000 0.000000 0.000000
# 2 -0.004532 0.011654 -0.004943 0.000000 0.000000 0.000000
# 3 -0.001626 -0.004943 0.012728 0.000000 0.000000 0.000000
# 4 0.000000 0.000000 0.000000 0.009590 0.000000 0.000000
# 5 0.000000 0.000000 0.000000 0.000000 0.038294 0.000000
# 6 0.000000 0.000000 0.000000 0.000000 0.000000 0.031225
#
#
# Mechanical properties :
#
#
# Convention : Reuss Voigt Hill
#
# Bulk Modulus (GPa) = 53.80083 59.41662 56.60872
# Shear Modulus (GPa) = 33.71667 44.68392 39.20029
#
# Velocity S-wave (km/s) = 4.12860 4.75287 4.45169
# Velocity P-wave (km/s) = 7.06583 7.75613 7.41901
#
# Compressibility (1/GPa) = 0.01858707
#
# Stress axis : x y z
#
# Youngs Moduli (GPa) = 60.95273 85.80572 78.56678
#
# Poissons Ratio (x) = 0.38883 0.12774
# Poissons Ratio (y) = 0.27621 0.38837
# Poissons Ratio (z) = 0.09910 0.42416
#
# Static dielectric constant tensor:
#      x y z
#    x 1.698580 0.000000 0.000000 
#    y 0.000000 1.740920 0.000000 
#    z 0.000000 0.000000 1.695390 
# 
# From -- ./inp_files/32547.got.cif
#   From: 2010.05.17/outbox.cif.g08.bks.cpg/sg62_17_cif.got.tgz:32547.got - 2010.06.03 15:25:27.
