data_PCOD9463891
_publ_section_title
;
Structure prediction by ZEFSAII (Michael W. Deem and Ramdas Pophale) SiO2 
 PCOD9463891
Probable space group: P N M A
;
_chemical_formula_sum "Si O2"
_cell_formula_units_Z 56
_cell_length_a 19.052226
_cell_length_b 8.861958
_cell_length_c 21.185328
_cell_angle_alpha 90.000000
_cell_angle_beta 90.000000
_cell_angle_gamma 90.000000
_cell_volume 3576.931343
_symmetry_space_group_name_H-M "P N M A"
_symmetry_group_IT_number 62
_symmetry_cell_setting 'orthorhombic'
loop_
_space_group_symop_operation_xyz
x,y,z
1/2-x,-y,1/2+z
1/2+x,1/2-y,1/2-z
-x,1/2+y,-z
-x,-y,-z
1/2+x,y,1/2-z
1/2-x,1/2+y,1/2+z
x,1/2-y,z
loop_
_atom_site_type_symbol
_atom_site_label
_atom_site_fract_x
_atom_site_fract_y
_atom_site_fract_z
Si Si1 0.422397 0.429650 0.499734
Si Si2 0.720698 0.929047 0.805461
Si Si3 0.152326 0.068229 0.878228
Si Si4 0.647785 0.070386 0.378648
Si Si5 0.792147 0.428509 0.683806
Si Si6 0.921246 0.930620 0.742233
Si Si7 0.080274 0.568965 0.753795
O O1 0.500000 0.500000 0.500000
O O2 0.427068 0.250000 0.494655
O O3 0.380357 0.496719 0.440431
O O4 0.383867 0.478348 0.564008
O O5 0.731454 0.750000 0.791050
O O6 0.769465 0.958988 0.865740
O O7 0.637705 0.957042 0.801443
O O8 0.753661 0.024906 0.748829
O O9 0.147868 0.250000 0.880280
O O10 0.234446 0.025180 0.868272
O O11 0.109536 0.008595 0.817186
O O12 0.638433 0.250000 0.390269
O O13 0.608081 0.033979 0.312673
O O14 0.800631 0.250000 0.680300
O O15 0.868160 0.503147 0.690492
O O16 0.919224 0.750000 0.736661
O O17 0.001738 0.981736 0.737863
O O18 0.077983 0.750000 0.765312
#
# Coordination Sequence:
#
# PCOD9463891 Si02
#       7
#     8   8   8   8   8   8   8
#     4  12  24  35  48  66  89 120 154 188 223 263
#     4   8  15  28  46  65  88 118 149 181 221 265
#     4  10  20  33  47  65  90 121 154 188 224 264
#     4   9  17  30  45  64  92 124 154 184 218 260
#     4   9  17  28  44  65  89 116 148 184 222 263
#     4   9  17  28  45  68  94 121 147 178 219 264
#     4   9  16  28  47  71  95 120 150 183 221 267
#
# _framework density 15.655877
#
# number of rings (size 3 to 8) (size 9 to 14) (size 15 to 20)
#    0.000    2.571    0.000    3.857    0.000    5.714 
#    0.000    0.000    0.000    0.000    0.000    1.000 
#    0.000    0.000    0.000    0.000    0.000    0.000 
#
# Total GULP energy -311874.575345 kJ/mol
# GULP energy per Si atom -5569.188845 kJ/mol
# Density = 1.562024 g / cm^3
# Si number density = 15.655877 Si / 1000 Ang^3
#
#
#
# Elastic Constant Matrix: (Units=GPa)
#
#
# Indices 1 2 3 4 5 6 
#
# 1 159.3683 46.6584 56.4218 0.0000 0.0000 0.0000
# 2 46.6584 45.6555 33.8923 0.0000 0.0000 0.0000
# 3 56.4218 33.8923 60.8902 0.0000 0.0000 0.0000
# 4 0.0000 0.0000 0.0000 22.0656 0.0000 0.0000
# 5 0.0000 0.0000 0.0000 0.0000 23.2037 0.0000
# 6 0.0000 0.0000 0.0000 0.0000 0.0000 22.6283
#
#
#
# Elastic Compliance Matrix: (Units=1/GPa)
#
#
# Indices 1 2 3 4 5 6 
#
# 1 0.010162 -0.005786 -0.006196 0.000000 0.000000 0.000000
# 2 -0.005786 0.040621 -0.017249 0.000000 0.000000 0.000000
# 3 -0.006196 -0.017249 0.031765 0.000000 0.000000 0.000000
# 4 0.000000 0.000000 0.000000 0.045319 0.000000 0.000000
# 5 0.000000 0.000000 0.000000 0.000000 0.043097 0.000000
# 6 0.000000 0.000000 0.000000 0.000000 0.000000 0.044193
#
#
# Mechanical properties :
#
#
# Convention : Reuss Voigt Hill
#
# Bulk Modulus (GPa) = 41.51629 59.98432 50.75030
# Shear Modulus (GPa) = 17.75271 22.17561 19.96416
#
# Velocity S-wave (km/s) = 3.37104 3.76764 3.57485
# Velocity P-wave (km/s) = 6.45968 7.57128 7.03746
#
# Compressibility (1/GPa) = 0.02408693
#
# Stress axis : x y z
#
# Youngs Moduli (GPa) = 98.40245 24.61798 31.48096
#
# Poissons Ratio (x) = 0.14244 0.19506
# Poissons Ratio (y) = 0.56935 0.54300
# Poissons Ratio (z) = 0.60971 0.42463
#
# Static dielectric constant tensor:
#      x y z
#    x 1.565940 0.000000 0.000000 
#    y 0.000000 1.524750 0.000000 
#    z 0.000000 0.000000 1.495110 
# 
# From -- ./inp_files/27530.got.cif
#   From: 2010.05.17/outbox.cif.g08.bks.cpg/sg62_14_cif.got.tgz:27530.got - 2010.06.03 15:25:27.
