data_PCOD9463845
_publ_section_title
;
Structure prediction by ZEFSAII (Michael W. Deem and Ramdas Pophale) SiO2 
 PCOD9463845
Probable space group: P N M A
;
_chemical_formula_sum "Si O2"
_cell_formula_units_Z 48
_cell_length_a 16.434823
_cell_length_b 9.484470
_cell_length_c 18.484151
_cell_angle_alpha 90.000000
_cell_angle_beta 90.000000
_cell_angle_gamma 90.000000
_cell_volume 2881.227863
_symmetry_space_group_name_H-M "P N M A"
_symmetry_group_IT_number 62
_symmetry_cell_setting 'orthorhombic'
loop_
_space_group_symop_operation_xyz
x,y,z
1/2-x,-y,1/2+z
1/2+x,1/2-y,1/2-z
-x,1/2+y,-z
-x,-y,-z
1/2+x,y,1/2-z
1/2-x,1/2+y,1/2+z
x,1/2-y,z
loop_
_atom_site_type_symbol
_atom_site_label
_atom_site_fract_x
_atom_site_fract_y
_atom_site_fract_z
Si Si1 0.416220 0.911107 0.804246
Si Si2 0.000396 0.916641 0.424898
Si Si3 0.175262 0.081181 0.161688
Si Si4 0.488901 0.581053 0.574235
Si Si5 0.414767 0.089363 0.286582
Si Si6 0.334141 0.584541 0.165974
O O1 0.400616 0.750000 0.828866
O O2 0.349031 0.953296 0.744964
O O3 0.499979 0.906908 0.757687
O O4 0.433572 0.014655 0.870475
O O5 0.014642 0.750000 0.435055
O O6 0.912423 0.933849 0.385995
O O7 0.000000 0.000000 0.500000
O O8 0.187418 0.250000 0.158474
O O9 0.097462 0.046670 0.111942
O O10 0.255208 0.998208 0.138932
O O11 0.500000 0.500000 0.500000
O O12 0.490684 0.750000 0.563736
O O13 0.559487 0.547600 0.632636
O O14 0.382261 0.250000 0.286121
O O15 0.358108 0.983896 0.242989
O O16 0.317981 0.750000 0.172589
#
# Coordination Sequence:
#
# PCOD9463845 Si02
#       6
#     8   8   8   8   8   8
#     4   8  15  30  51  71  91 120 160 199 234 282
#     4  10  20  33  50  73 100 130 164 201 243 292
#     4   9  18  33  52  73  98 129 163 199 244 296
#     4   9  18  32  51  75 100 129 165 200 239 290
#     4   8  15  30  50  69  92 125 160 192 234 287
#     4  10  20  32  49  75 100 123 160 207 247 285
#
# _framework density 16.659564
#
# number of rings (size 3 to 8) (size 9 to 14) (size 15 to 20)
#    0.000    3.000    0.000    3.000    0.000    4.000 
#    0.000    5.000    0.000    2.000    0.000    0.000 
#    0.000    0.000    0.000    0.000    0.000    0.000 
#
# Total GULP energy -267397.755387 kJ/mol
# GULP energy per Si atom -5570.786571 kJ/mol
# Density = 1.662165 g / cm^3
# Si number density = 16.659564 Si / 1000 Ang^3
#
#
#
# Elastic Constant Matrix: (Units=GPa)
#
#
# Indices 1 2 3 4 5 6 
#
# 1 50.8976 39.3032 20.9362 0.0000 0.0000 0.0000
# 2 39.3032 81.0377 69.9153 0.0000 0.0000 0.0000
# 3 20.9362 69.9153 119.8128 0.0000 0.0000 0.0000
# 4 0.0000 0.0000 0.0000 33.7755 0.0000 0.0000
# 5 0.0000 0.0000 0.0000 0.0000 11.4413 0.0000
# 6 0.0000 0.0000 0.0000 0.0000 0.0000 26.3997
#
#
#
# Elastic Compliance Matrix: (Units=1/GPa)
#
#
# Indices 1 2 3 4 5 6 
#
# 1 0.034475 -0.023206 0.007517 0.000000 0.000000 0.000000
# 2 -0.023206 0.040472 -0.019562 0.000000 0.000000 0.000000
# 3 0.007517 -0.019562 0.018448 0.000000 0.000000 0.000000
# 4 0.000000 0.000000 0.000000 0.029607 0.000000 0.000000
# 5 0.000000 0.000000 0.000000 0.000000 0.087403 0.000000
# 6 0.000000 0.000000 0.000000 0.000000 0.000000 0.037879
#
#
# Mechanical properties :
#
#
# Convention : Reuss Voigt Hill
#
# Bulk Modulus (GPa) = 43.68014 56.89528 50.28771
# Shear Modulus (GPa) = 15.31792 22.42951 18.87371
#
# Velocity S-wave (km/s) = 3.03556 3.67324 3.36952
# Velocity P-wave (km/s) = 6.20986 7.22607 6.73715
#
# Compressibility (1/GPa) = 0.02289370
#
# Stress axis : x y z
#
# Youngs Moduli (GPa) = 29.00683 24.70867 54.20701
#
# Poissons Ratio (x) = 0.57338 -0.40749
# Poissons Ratio (y) = 0.67313 1.06038
# Poissons Ratio (z) = -0.21805 0.48334
#
# Static dielectric constant tensor:
#      x y z
#    x 1.572110 0.000000 0.000000 
#    y 0.000000 1.550440 0.000000 
#    z 0.000000 0.000000 1.553340 
# 
# From -- ./inp_files/23673.got.cif
#   From: 2010.05.17/outbox.cif.g08.bks.cpg/sg62_12_cif.got.tgz:23673.got - 2010.06.03 15:25:27.
