data_PCOD9463433
_publ_section_title
;
Structure prediction by ZEFSAII (Michael W. Deem and Ramdas Pophale) SiO2 
 PCOD9463433
Probable space group: P N M A
;
_chemical_formula_sum "Si O2"
_cell_formula_units_Z 64
_cell_length_a 15.362700
_cell_length_b 17.365485
_cell_length_c 12.810323
_cell_angle_alpha 90.000000
_cell_angle_beta 90.000000
_cell_angle_gamma 90.000000
_cell_volume 3417.547404
_symmetry_space_group_name_H-M "P N M A"
_symmetry_group_IT_number 62
_symmetry_cell_setting 'orthorhombic'
loop_
_space_group_symop_operation_xyz
x,y,z
1/2-x,-y,1/2+z
1/2+x,1/2-y,1/2-z
-x,1/2+y,-z
-x,-y,-z
1/2+x,y,1/2-z
1/2-x,1/2+y,1/2+z
x,1/2-y,z
loop_
_atom_site_type_symbol
_atom_site_label
_atom_site_fract_x
_atom_site_fract_y
_atom_site_fract_z
Si Si1 0.462361 0.986367 0.333906
Si Si2 0.552530 0.162538 0.011225
Si Si3 0.915860 0.073186 0.364828
Si Si4 0.804712 0.923932 0.405982
Si Si5 0.228485 0.660447 0.289493
Si Si6 0.742026 0.659835 0.962846
Si Si7 0.361809 0.977296 0.548571
Si Si8 0.477341 0.336066 0.779393
O O1 0.428859 0.052513 0.256101
O O2 0.558580 0.006033 0.374991
O O3 0.400529 0.977160 0.432754
O O4 0.472568 0.904834 0.275779
O O5 0.547786 0.250000 0.051827
O O6 0.506797 0.101241 0.086859
O O7 0.650383 0.140237 0.977855
O O8 0.498362 0.160359 0.902487
O O9 0.845333 0.136453 0.400809
O O10 0.874644 0.993536 0.407547
O O11 0.783390 0.891272 0.290454
O O12 0.714252 0.959448 0.444753
O O13 0.254456 0.750000 0.276008
O O14 0.234011 0.642247 0.412772
O O15 0.125880 0.654494 0.262779
O O16 0.758962 0.750000 0.951810
O O17 0.817920 0.604038 0.924016
O O18 0.502734 0.250000 0.743248
#
# Coordination Sequence:
#
# PCOD9463433 Si02
#       8
#     8   8   8   8   8   8   8   8
#     4  11  22  42  61  85 121 160 205 247 300 371
#     4  11  22  38  58  89 123 155 199 245 302 365
#     4  11  22  37  60  85 119 161 197 250 302 358
#     4  11  21  36  58  92 121 150 194 247 305 359
#     4  10  19  35  60  88 120 151 187 248 312 358
#     4  10  21  39  61  89 121 154 202 254 304 360
#     4  10  24  40  60  86 118 161 205 249 302 360
#     4  10  20  35  60  89 116 150 191 242 304 359
#
# _framework density 18.726880999999999
#
# number of rings (size 3 to 8) (size 9 to 14) (size 15 to 20)
#    0.000    1.500    3.750    1.875    0.000    0.500 
#    4.500    1.250    0.000    3.750    0.000    0.000 
#    0.000    0.000    0.000    0.000    0.000    0.000 
#
# Total GULP energy -357225.885798 kJ/mol
# GULP energy per Si atom -5581.654466 kJ/mol
# Density = 1.868426 g / cm^3
# Si number density = 18.726881 Si / 1000 Ang^3
#
#
#
# Elastic Constant Matrix: (Units=GPa)
#
#
# Indices 1 2 3 4 5 6 
#
# 1 94.8145 38.4855 18.0263 0.0000 0.0000 0.0000
# 2 38.4855 85.6997 31.8348 0.0000 0.0000 0.0000
# 3 18.0263 31.8348 42.4091 0.0000 0.0000 0.0000
# 4 0.0000 0.0000 0.0000 27.5509 0.0000 0.0000
# 5 0.0000 0.0000 0.0000 0.0000 21.0465 0.0000
# 6 0.0000 0.0000 0.0000 0.0000 0.0000 16.0729
#
#
#
# Elastic Compliance Matrix: (Units=1/GPa)
#
#
# Indices 1 2 3 4 5 6 
#
# 1 0.012974 -0.005239 -0.001582 0.000000 0.000000 0.000000
# 2 -0.005239 0.018296 -0.011507 0.000000 0.000000 0.000000
# 3 -0.001582 -0.011507 0.032890 0.000000 0.000000 0.000000
# 4 0.000000 0.000000 0.000000 0.036296 0.000000 0.000000
# 5 0.000000 0.000000 0.000000 0.000000 0.047514 0.000000
# 6 0.000000 0.000000 0.000000 0.000000 0.000000 0.062217
#
#
# Mechanical properties :
#
#
# Convention : Reuss Voigt Hill
#
# Bulk Modulus (GPa) = 36.35827 44.40183 40.38005
# Shear Modulus (GPa) = 19.53040 21.90584 20.71812
#
# Velocity S-wave (km/s) = 3.23291 3.42388 3.32976
# Velocity P-wave (km/s) = 5.77865 6.27633 6.03262
#
# Compressibility (1/GPa) = 0.02750406
#
# Stress axis : x y z
#
# Youngs Moduli (GPa) = 77.07673 54.65768 30.40398
#
# Poissons Ratio (x) = 0.28632 0.04811
# Poissons Ratio (y) = 0.40377 0.34986
# Poissons Ratio (z) = 0.12197 0.62896
#
# Static dielectric constant tensor:
#      x y z
#    x 1.672140 0.000000 0.000000 
#    y 0.000000 1.655070 0.000000 
#    z 0.000000 0.000000 1.631640 
# 
# From -- ./inp_files/13581.got.cif
#   From: 2010.05.17/outbox.cif.g08.bks.cpg/sg62_7_cif.got.tgz:13581.got - 2010.06.03 15:25:27.
