data_PCOD9463540
_publ_section_title
;
Structure prediction by ZEFSAII (Michael W. Deem and Ramdas Pophale) SiO2 
 PCOD9463540
Probable space group: P N M A
;
_chemical_formula_sum "Si O2"
_cell_formula_units_Z 48
_cell_length_a 8.439783
_cell_length_b 8.396141
_cell_length_c 29.422269
_cell_angle_alpha 90.000000
_cell_angle_beta 90.000000
_cell_angle_gamma 90.000000
_cell_volume 2084.909295
_symmetry_space_group_name_H-M "P N M A"
_symmetry_group_IT_number 62
_symmetry_cell_setting 'orthorhombic'
loop_
_space_group_symop_operation_xyz
x,y,z
1/2-x,-y,1/2+z
1/2+x,1/2-y,1/2-z
-x,1/2+y,-z
-x,-y,-z
1/2+x,y,1/2-z
1/2-x,1/2+y,1/2+z
x,1/2-y,z
loop_
_atom_site_type_symbol
_atom_site_label
_atom_site_fract_x
_atom_site_fract_y
_atom_site_fract_z
Si Si1 0.565463 0.444564 0.771377
Si Si2 0.749224 0.561757 0.514361
Si Si3 0.428824 0.438201 0.402333
Si Si4 0.077239 0.931890 0.569833
Si Si5 0.238550 0.566022 0.145691
Si Si6 0.262334 0.557884 0.316188
O O1 0.564161 0.250000 0.771950
O O2 0.706493 0.494925 0.805297
O O3 0.401365 0.496828 0.793513
O O4 0.601557 0.491196 0.719854
O O5 0.729067 0.750000 0.503127
O O6 0.610424 0.498254 0.547192
O O7 0.791567 0.467660 0.468925
O O8 0.908144 0.548928 0.545563
O O9 0.417773 0.250000 0.406886
O O10 0.594731 0.483245 0.379916
O O11 0.298987 0.493433 0.365708
O O12 0.091397 0.750000 0.585644
O O13 0.111776 0.046532 0.611937
O O14 0.193977 0.750000 0.150918
O O15 0.260456 0.750000 0.318490
#
# Coordination Sequence:
#
# PCOD9463540 Si02
#       6
#     8   8   8   8   8   8
#     4   9  19  35  59  86 111 143 184 227 269 323
#     4   9  20  38  58  80 110 147 185 226 276 336
#     4  11  23  38  55  80 113 147 184 227 275 325
#     4  10  20  36  59  85 111 141 182 233 283 331
#     4  11  22  37  57  82 113 150 189 228 274 328
#     4  10  19  36  60  84 110 142 182 225 271 323
#
# _framework density 23.022586
#
# number of rings (size 3 to 8) (size 9 to 14) (size 15 to 20)
#    0.000    2.000    0.000    3.500    0.000    5.333 
#    0.000    5.000    0.000    0.000    0.000    0.000 
#    0.000    0.000    0.000    0.000    0.000    0.000 
#
# Total GULP energy -268396.046634 kJ/mol
# GULP energy per Si atom -5591.584305 kJ/mol
# Density = 2.297019 g / cm^3
# Si number density = 23.022586 Si / 1000 Ang^3
#
#
#
# Elastic Constant Matrix: (Units=GPa)
#
#
# Indices 1 2 3 4 5 6 
#
# 1 56.5408 1.0863 -5.4636 0.0000 0.0000 0.0000
# 2 1.0863 16.6213 0.2756 0.0000 0.0000 0.0000
# 3 -5.4636 0.2756 86.7303 0.0000 0.0000 0.0000
# 4 0.0000 0.0000 0.0000 22.8920 0.0000 0.0000
# 5 0.0000 0.0000 0.0000 0.0000 38.9960 0.0000
# 6 0.0000 0.0000 0.0000 0.0000 0.0000 24.5436
#
#
#
# Elastic Compliance Matrix: (Units=1/GPa)
#
#
# Indices 1 2 3 4 5 6 
#
# 1 0.017818 -0.001183 0.001126 0.000000 0.000000 0.000000
# 2 -0.001183 0.060246 -0.000266 0.000000 0.000000 0.000000
# 3 0.001126 -0.000266 0.011602 0.000000 0.000000 0.000000
# 4 0.000000 0.000000 0.000000 0.043683 0.000000 0.000000
# 5 0.000000 0.000000 0.000000 0.000000 0.025644 0.000000
# 6 0.000000 0.000000 0.000000 0.000000 0.000000 0.040744
#
#
# Mechanical properties :
#
#
# Convention : Reuss Voigt Hill
#
# Bulk Modulus (GPa) = 11.23351 16.85433 14.04392
# Shear Modulus (GPa) = 21.73390 28.21925 24.97657
#
# Velocity S-wave (km/s) = 3.07583 3.50483 3.29731
# Velocity P-wave (km/s) = 4.18381 4.86981 4.53979
#
# Compressibility (1/GPa) = 0.08901938
#
# Stress axis : x y z
#
# Youngs Moduli (GPa) = 56.12328 16.59871 86.19357
#
# Poissons Ratio (x) = 0.01964 -0.09707
# Poissons Ratio (y) = 0.06641 0.02293
# Poissons Ratio (z) = -0.06321 0.00442
#
# Static dielectric constant tensor:
#      x y z
#    x 1.935890 0.000000 0.000000 
#    y 0.000000 1.786120 0.000000 
#    z 0.000000 0.000000 1.838620 
# 
# From -- ./inp_files/31909.got.cif
#   From: 2010.05.17/outbox.cif.g08.bks.cpg/sg62_16_cif.got.tgz:31909.got - 2010.06.03 15:25:27.
