data_PCOD9463429
_publ_section_title
;
Structure prediction by ZEFSAII (Michael W. Deem and Ramdas Pophale) SiO2 
 PCOD9463429
Probable space group: P N M A
;
_chemical_formula_sum "Si O2"
_cell_formula_units_Z 64
_cell_length_a 24.520317
_cell_length_b 8.352914
_cell_length_c 15.993599
_cell_angle_alpha 90.000000
_cell_angle_beta 90.000000
_cell_angle_gamma 90.000000
_cell_volume 3275.746559
_symmetry_space_group_name_H-M "P N M A"
_symmetry_group_IT_number 62
_symmetry_cell_setting 'orthorhombic'
loop_
_space_group_symop_operation_xyz
x,y,z
1/2-x,-y,1/2+z
1/2+x,1/2-y,1/2-z
-x,1/2+y,-z
-x,-y,-z
1/2+x,y,1/2-z
1/2-x,1/2+y,1/2+z
x,1/2-y,z
loop_
_atom_site_type_symbol
_atom_site_label
_atom_site_fract_x
_atom_site_fract_y
_atom_site_fract_z
Si Si1 0.252614 0.058409 0.402849
Si Si2 0.061778 0.058544 0.501766
Si Si3 0.866885 0.945498 0.655449
Si Si4 0.367589 0.554785 0.659091
Si Si5 0.631650 0.059312 0.659603
Si Si6 0.368046 0.058874 0.157655
Si Si7 0.562009 0.443848 0.499848
Si Si8 0.250249 0.444014 0.093938
O O1 0.255669 0.250000 0.396279
O O2 0.195561 0.006002 0.361899
O O3 0.306069 0.987620 0.359937
O O4 0.251423 0.008063 0.499691
O O5 0.062179 0.250000 0.499084
O O6 0.095049 0.998798 0.420327
O O7 0.092803 0.004713 0.585243
O O8 0.000000 0.000000 0.500000
O O9 0.867617 0.750000 0.654377
O O10 0.884246 0.997542 0.748083
O O11 0.368487 0.750000 0.658484
O O12 0.406042 0.500831 0.583366
O O13 0.305162 0.506934 0.640421
O O14 0.627583 0.250000 0.661862
O O15 0.594357 0.000579 0.582581
O O16 0.615343 0.992864 0.749710
O O17 0.368036 0.250000 0.153750
O O18 0.306066 0.002917 0.138170
O O19 0.500000 0.500000 0.500000
O O20 0.563242 0.250000 0.499742
O O21 0.250416 0.250000 0.090802
#
# Coordination Sequence:
#
# PCOD9463429 Si02
#       8
#     8   8   8   8   8   8   8   8
#     4  11  20  34  59  91 122 154 195 243 296 359
#     4  11  23  41  61  87 121 160 205 256 303 357
#     4   9  19  35  59  87 117 152 194 241 295 351
#     4   9  17  35  59  83 112 151 191 233 289 352
#     4  11  23  40  60  88 124 161 198 244 303 362
#     4  11  23  39  63  92 119 158 204 250 304 362
#     4  10  22  39  60  83 113 154 199 246 295 345
#     4  10  19  35  60  87 120 154 192 240 297 360
#
# _framework density 19.537531000000001
#
# number of rings (size 3 to 8) (size 9 to 14) (size 15 to 20)
#    0.000    1.750    2.500    2.250    0.000    4.500 
#    0.000    1.250    0.000    3.750    0.000    0.000 
#    0.000    0.000    0.000    0.000    0.000    0.000 
#
# Total GULP energy -357579.406353 kJ/mol
# GULP energy per Si atom -5587.178224 kJ/mol
# Density = 1.949306 g / cm^3
# Si number density = 19.537531 Si / 1000 Ang^3
#
#
#
# Elastic Constant Matrix: (Units=GPa)
#
#
# Indices 1 2 3 4 5 6 
#
# 1 162.9458 20.5571 98.1729 0.0000 0.0000 0.0000
# 2 20.5571 20.2091 21.7792 0.0000 0.0000 0.0000
# 3 98.1729 21.7792 203.8044 0.0000 0.0000 0.0000
# 4 0.0000 0.0000 0.0000 19.0954 0.0000 0.0000
# 5 0.0000 0.0000 0.0000 0.0000 -1.5297 0.0000
# 6 0.0000 0.0000 0.0000 0.0000 0.0000 28.9791
#
#
#
# Elastic Compliance Matrix: (Units=1/GPa)
#
#
# Indices 1 2 3 4 5 6 
#
# 1 0.009092 -0.005118 -0.003833 0.000000 0.000000 0.000000
# 2 -0.005118 0.058804 -0.003819 0.000000 0.000000 0.000000
# 3 -0.003833 -0.003819 0.007161 0.000000 0.000000 0.000000
# 4 0.000000 0.000000 0.000000 0.052369 0.000000 0.000000
# 5 0.000000 0.000000 0.000000 0.000000 -0.653737 0.000000
# 6 0.000000 0.000000 0.000000 0.000000 0.000000 0.034508
#
#
# Mechanical properties :
#
#
# Convention : Reuss Voigt Hill
#
# Bulk Modulus (GPa) = 20.19451 74.21975 47.20713
# Shear Modulus (GPa) = -11.11706 25.73896 7.31095
#
# Velocity S-wave (km/s) = -2.38798 3.63355 1.93652
# Velocity P-wave (km/s) = 1.65995 7.46153 5.40508
#
# Compressibility (1/GPa) = 0.04951841
#
# Stress axis : x y z
#
# Youngs Moduli (GPa) = 109.98935 17.00559 139.64706
#
# Poissons Ratio (x) = 0.08703 0.53521
# Poissons Ratio (y) = 0.56292 0.53326
# Poissons Ratio (z) = 0.42155 0.06494
#
# Static dielectric constant tensor:
#      x y z
#    x 1.659460 0.000000 0.000000 
#    y 0.000000 1.676360 0.000000 
#    z 0.000000 0.000000 1.677400 
# 
# From -- ./inp_files/20867.got.cif
#   From: 2010.05.17/outbox.cif.g08.bks.cpg/sg62_11_cif.got.tgz:20867.got - 2010.06.03 15:25:27.
