data_PCOD9463187
_publ_section_title
;
Structure prediction by ZEFSAII (Michael W. Deem and Ramdas Pophale) SiO2 
 PCOD9463187
Probable space group: P N M A
;
_chemical_formula_sum "Si O2"
_cell_formula_units_Z 56
_cell_length_a 19.801040
_cell_length_b 8.813262
_cell_length_c 19.022215
_cell_angle_alpha 90.000000
_cell_angle_beta 90.000000
_cell_angle_gamma 90.000000
_cell_volume 3319.600093
_symmetry_space_group_name_H-M "P N M A"
_symmetry_group_IT_number 62
_symmetry_cell_setting 'orthorhombic'
loop_
_space_group_symop_operation_xyz
x,y,z
1/2-x,-y,1/2+z
1/2+x,1/2-y,1/2-z
-x,1/2+y,-z
-x,-y,-z
1/2+x,y,1/2-z
1/2-x,1/2+y,1/2+z
x,1/2-y,z
loop_
_atom_site_type_symbol
_atom_site_label
_atom_site_fract_x
_atom_site_fract_y
_atom_site_fract_z
Si Si1 0.273275 0.570388 0.364060
Si Si2 0.950630 0.068866 0.558644
Si Si3 0.214744 0.570077 0.635244
Si Si4 0.307244 0.929606 0.984568
Si Si5 0.176166 0.069089 0.247452
Si Si6 0.117466 0.931410 0.767144
Si Si7 0.473833 0.567773 0.789014
O O1 0.272528 0.750000 0.373090
O O2 0.253870 0.488991 0.436403
O O3 0.215652 0.520003 0.308204
O O4 0.342901 0.515183 0.329025
O O5 0.951967 0.250000 0.555165
O O6 0.875398 0.009016 0.543181
O O7 0.972766 0.012310 0.635505
O O8 0.000000 0.000000 0.500000
O O9 0.211410 0.750000 0.618675
O O10 0.203595 0.476176 0.565165
O O11 0.285600 0.538056 0.674460
O O12 0.157920 0.538541 0.694383
O O13 0.314622 0.750000 0.976939
O O14 0.185225 0.250000 0.261399
O O15 0.097068 0.034965 0.250824
O O16 0.121947 0.750000 0.779178
O O17 0.039961 0.975041 0.755086
O O18 0.477287 0.750000 0.800801
#
# Coordination Sequence:
#
# PCOD9463187 Si02
#       7
#     8   8   8   8   8   8   8
#     4  11  21  34  54  78 105 141 183 226 268 319
#     4  12  24  36  52  78 112 148 180 218 267 327
#     4   9  18  33  52  77 109 143 179 221 267 320
#     4  12  23  36  54  77 107 143 182 227 274 323
#     4   9  18  34  56  79 107 141 178 220 268 325
#     4   9  19  35  55  79 109 142 177 219 266 320
#     4  10  19  34  57  82 109 144 179 217 268 326
#
# _framework density 16.869501
#
# number of rings (size 3 to 8) (size 9 to 14) (size 15 to 20)
#    0.000    1.714    1.429    5.571    0.000    4.000 
#    0.000    0.000    0.000    0.857    0.000    0.000 
#    0.000    0.000    0.000    0.000    0.000    0.000 
#
# Total GULP energy -312769.417006 kJ/mol
# GULP energy per Si atom -5585.168161 kJ/mol
# Density = 1.683111 g / cm^3
# Si number density = 16.869501 Si / 1000 Ang^3
#
#
#
# Elastic Constant Matrix: (Units=GPa)
#
#
# Indices 1 2 3 4 5 6 
#
# 1 94.6227 22.1734 -0.9411 0.0000 0.0000 0.0000
# 2 22.1734 58.4160 6.8953 0.0000 0.0000 0.0000
# 3 -0.9411 6.8953 8.4656 0.0000 0.0000 0.0000
# 4 0.0000 0.0000 0.0000 29.3058 0.0000 0.0000
# 5 0.0000 0.0000 0.0000 0.0000 22.5042 0.0000
# 6 0.0000 0.0000 0.0000 0.0000 0.0000 20.5413
#
#
#
# Elastic Compliance Matrix: (Units=1/GPa)
#
#
# Indices 1 2 3 4 5 6 
#
# 1 0.011827 -0.005139 0.005500 0.000000 0.000000 0.000000
# 2 -0.005139 0.021172 -0.017816 0.000000 0.000000 0.000000
# 3 0.005500 -0.017816 0.133247 0.000000 0.000000 0.000000
# 4 0.000000 0.000000 0.000000 0.034123 0.000000 0.000000
# 5 0.000000 0.000000 0.000000 0.000000 0.044436 0.000000
# 6 0.000000 0.000000 0.000000 0.000000 0.000000 0.048682
#
#
# Mechanical properties :
#
#
# Convention : Reuss Voigt Hill
#
# Bulk Modulus (GPa) = 7.61397 24.19550 15.90473
# Shear Modulus (GPa) = 13.43451 23.36205 18.39828
#
# Velocity S-wave (km/s) = 2.82508 3.72542 3.30604
# Velocity P-wave (km/s) = 3.89419 5.73401 4.90120
#
# Compressibility (1/GPa) = 0.13133758
#
# Stress axis : x y z
#
# Youngs Moduli (GPa) = 84.55140 47.23205 7.50485
#
# Poissons Ratio (x) = 0.24270 -0.04128
# Poissons Ratio (y) = 0.43447 0.13371
# Poissons Ratio (z) = -0.46505 0.84149
#
# Static dielectric constant tensor:
#      x y z
#    x 1.578740 0.000000 0.000000 
#    y 0.000000 1.564920 0.000000 
#    z 0.000000 0.000000 1.545090 
# 
# From -- ./inp_files/24611.got.cif
#   From: 2010.05.17/outbox.cif.g08.bks.cpg/sg62_13_cif.got.tgz:24611.got - 2010.06.03 15:25:27.
