data_PCOD9463484
_publ_section_title
;
Structure prediction by ZEFSAII (Michael W. Deem and Ramdas Pophale) SiO2 
 PCOD9463484
Probable space group: P N M A
;
_chemical_formula_sum "Si O2"
_cell_formula_units_Z 56
_cell_length_a 19.984773
_cell_length_b 13.108230
_cell_length_c 10.221260
_cell_angle_alpha 90.000000
_cell_angle_beta 90.000000
_cell_angle_gamma 90.000000
_cell_volume 2677.612386
_symmetry_space_group_name_H-M "P N M A"
_symmetry_group_IT_number 62
_symmetry_cell_setting 'orthorhombic'
loop_
_space_group_symop_operation_xyz
x,y,z
1/2-x,-y,1/2+z
1/2+x,1/2-y,1/2-z
-x,1/2+y,-z
-x,-y,-z
1/2+x,y,1/2-z
1/2-x,1/2+y,1/2+z
x,1/2-y,z
loop_
_atom_site_type_symbol
_atom_site_label
_atom_site_fract_x
_atom_site_fract_y
_atom_site_fract_z
Si Si1 0.717308 0.363087 0.631112
Si Si2 0.347155 0.075209 0.285156
Si Si3 0.705583 0.140972 0.319472
Si Si4 0.641740 0.960074 0.178311
Si Si5 0.493016 0.419391 0.703318
Si Si6 0.024435 0.637610 0.910949
Si Si7 0.429069 0.983390 0.071933
O O1 0.698523 0.250000 0.680328
O O2 0.674250 0.458807 0.682139
O O3 0.713289 0.361466 0.474669
O O4 0.794347 0.388741 0.661912
O O5 0.277928 0.129648 0.250362
O O6 0.394998 0.120211 0.397653
O O7 0.394983 0.073548 0.157345
O O8 0.675739 0.250000 0.281139
O O9 0.661577 0.045437 0.281717
O O10 0.577528 0.898919 0.228332
O O11 0.623190 0.023754 0.046635
O O12 0.498823 0.368596 0.561889
O O13 0.494654 0.541044 0.666795
O O14 0.550064 0.403796 0.813368
O O15 0.008054 0.750000 0.859060
O O16 0.500000 0.000000 0.000000
#
# Coordination Sequence:
#
# PCOD9463484 Si02
#       7
#     8   8   8   8   8   8   8
#     4  10  21  36  58  85 114 153 194 240 296 351
#     4  10  19  36  59  84 115 149 193 244 285 342
#     4  10  20  34  55  82 111 150 194 236 285 346
#     4  10  19  36  57  80 114 149 189 240 292 348
#     4   9  20  36  56  84 113 146 194 243 291 337
#     4  10  20  36  58  83 112 152 195 236 289 349
#     4   9  18  36  60  81 109 151 187 233 292 342
#
# _framework density 20.914154
#
# number of rings (size 3 to 8) (size 9 to 14) (size 15 to 20)
#    0.000    2.286    1.429    1.286    0.000    1.143 
#    0.000   10.714    0.000   10.286    0.000    0.000 
#    0.000    0.000    0.000    0.000    0.000    0.000 
#
# Total GULP energy -311828.934678 kJ/mol
# GULP energy per Si atom -5568.373834 kJ/mol
# Density = 2.086655 g / cm^3
# Si number density = 20.914154 Si / 1000 Ang^3
#
#
#
# Elastic Constant Matrix: (Units=GPa)
#
#
# Indices 1 2 3 4 5 6 
#
# 1 35.3313 -4.0282 -5.1221 0.0000 0.0000 0.0000
# 2 -4.0282 98.7679 8.9274 0.0000 0.0000 0.0000
# 3 -5.1221 8.9274 49.5519 0.0000 0.0000 0.0000
# 4 0.0000 0.0000 0.0000 11.6036 0.0000 0.0000
# 5 0.0000 0.0000 0.0000 0.0000 32.8949 0.0000
# 6 0.0000 0.0000 0.0000 0.0000 0.0000 -0.6251
#
#
#
# Elastic Compliance Matrix: (Units=1/GPa)
#
#
# Indices 1 2 3 4 5 6 
#
# 1 0.028816 0.000921 0.002813 0.000000 0.000000 0.000000
# 2 0.000921 0.010322 -0.001764 0.000000 0.000000 0.000000
# 3 0.002813 -0.001764 0.020789 0.000000 0.000000 0.000000
# 4 0.000000 0.000000 0.000000 0.086180 0.000000 0.000000
# 5 0.000000 0.000000 0.000000 0.000000 0.030400 0.000000
# 6 0.000000 0.000000 0.000000 0.000000 0.000000 -1.599787
#
#
# Mechanical properties :
#
#
# Convention : Reuss Voigt Hill
#
# Bulk Modulus (GPa) = 15.65771 20.35615 18.00693
# Shear Modulus (GPa) = -3.55636 21.03296 8.73830
#
# Velocity S-wave (km/s) = -1.30543 3.17469 2.04628
# Velocity P-wave (km/s) = 2.28707 4.81586 3.76983
#
# Compressibility (1/GPa) = 0.06386632
#
# Stress axis : x y z
#
# Youngs Moduli (GPa) = 34.70257 96.88246 48.10127
#
# Poissons Ratio (x) = -0.08923 -0.13530
# Poissons Ratio (y) = -0.03196 0.08487
# Poissons Ratio (z) = -0.09761 0.17094
#
# Static dielectric constant tensor:
#      x y z
#    x 1.777700 0.000000 0.000000 
#    y 0.000000 1.741140 0.000000 
#    z 0.000000 0.000000 1.751410 
# 
# From -- ./inp_files/14803.got.cif
#   From: 2010.05.17/outbox.cif.g08.bks.cpg/sg62_8_cif.got.tgz:14803.got - 2010.06.03 15:25:27.
