data_PCOD9463000
_publ_section_title
;
Structure prediction by ZEFSAII (Michael W. Deem and Ramdas Pophale) SiO2 
 PCOD9463000
Probable space group: P N M A
;
_chemical_formula_sum "Si O2"
_cell_formula_units_Z 48
_cell_length_a 23.975548
_cell_length_b 7.747882
_cell_length_c 11.152311
_cell_angle_alpha 90.000000
_cell_angle_beta 90.000000
_cell_angle_gamma 90.000000
_cell_volume 2071.650133
_symmetry_space_group_name_H-M "P N M A"
_symmetry_group_IT_number 62
_symmetry_cell_setting 'orthorhombic'
loop_
_space_group_symop_operation_xyz
x,y,z
1/2-x,-y,1/2+z
1/2+x,1/2-y,1/2-z
-x,1/2+y,-z
-x,-y,-z
1/2+x,y,1/2-z
1/2-x,1/2+y,1/2+z
x,1/2-y,z
loop_
_atom_site_type_symbol
_atom_site_label
_atom_site_fract_x
_atom_site_fract_y
_atom_site_fract_z
Si Si1 0.020319 0.445910 0.821575
Si Si2 0.186817 0.960719 0.174110
Si Si3 0.425069 0.051010 0.077704
Si Si4 0.917166 0.462089 0.687505
Si Si5 0.632511 0.548443 0.575213
Si Si6 0.186957 0.448897 0.679790
O O1 0.013764 0.250000 0.862646
O O2 0.048300 0.449748 0.688382
O O3 0.065870 0.531380 0.907142
O O4 0.959706 0.520758 0.791354
O O5 0.188218 0.750000 0.177733
O O6 0.145453 0.015190 0.280370
O O7 0.250429 0.020161 0.178765
O O8 0.156728 0.011765 0.050686
O O9 0.443144 0.250000 0.087655
O O10 0.358442 0.045019 0.099136
O O11 0.435918 0.982324 0.944678
O O12 0.919302 0.250000 0.686563
O O13 0.645980 0.750000 0.587655
O O14 0.662678 0.455770 0.685580
O O15 0.188370 0.250000 0.639604
#
# Coordination Sequence:
#
# PCOD9463000 Si02
#       6
#     8   8   8   8   8   8
#     4  10  19  34  56  79 107 139 177 218 261 311
#     4   9  20  36  53  76 107 142 175 214 265 313
#     4  10  19  33  56  81 107 139 177 218 264 311
#     4   9  19  34  53  79 107 141 178 215 261 314
#     4  10  20  36  56  77 105 139 175 214 264 316
#     4  10  20  35  56  78 105 139 176 218 263 311
#
# _framework density 23.169934999999999
#
# number of rings (size 3 to 8) (size 9 to 14) (size 15 to 20)
#    0.000    2.333    0.000    4.500    2.333    0.667 
#    0.000    5.000    0.000   11.000    0.000    0.000 
#    0.000    0.000    0.000    0.000    0.000    0.000 
#
# Total GULP energy -268175.590601 kJ/mol
# GULP energy per Si atom -5586.991471 kJ/mol
# Density = 2.311720 g / cm^3
# Si number density = 23.169935 Si / 1000 Ang^3
#
#
#
# Elastic Constant Matrix: (Units=GPa)
#
#
# Indices 1 2 3 4 5 6 
#
# 1 111.9584 -0.7366 -2.9475 0.0000 0.0000 0.0000
# 2 -0.7366 50.5790 -1.7605 0.0000 0.0000 0.0000
# 3 -2.9475 -1.7605 56.9986 0.0000 0.0000 0.0000
# 4 0.0000 0.0000 0.0000 9.5601 0.0000 0.0000
# 5 0.0000 0.0000 0.0000 0.0000 23.9956 0.0000
# 6 0.0000 0.0000 0.0000 0.0000 0.0000 20.5735
#
#
#
# Elastic Compliance Matrix: (Units=1/GPa)
#
#
# Indices 1 2 3 4 5 6 
#
# 1 0.008945 0.000147 0.000467 0.000000 0.000000 0.000000
# 2 0.000147 0.019795 0.000619 0.000000 0.000000 0.000000
# 3 0.000467 0.000619 0.017588 0.000000 0.000000 0.000000
# 4 0.000000 0.000000 0.000000 0.104601 0.000000 0.000000
# 5 0.000000 0.000000 0.000000 0.000000 0.041674 0.000000
# 6 0.000000 0.000000 0.000000 0.000000 0.000000 0.048606
#
#
# Mechanical properties :
#
#
# Convention : Reuss Voigt Hill
#
# Bulk Modulus (GPa) = 20.49489 23.18298 21.83894
# Shear Modulus (GPa) = 19.60723 25.82456 22.71590
#
# Velocity S-wave (km/s) = 2.91217 3.34214 3.13454
# Velocity P-wave (km/s) = 4.49136 4.99205 4.74831
#
# Compressibility (1/GPa) = 0.04879264
#
# Stress axis : x y z
#
# Youngs Moduli (GPa) = 111.79239 50.51853 56.85834
#
# Poissons Ratio (x) = -0.00740 -0.02656
# Poissons Ratio (y) = -0.01638 -0.03519
# Poissons Ratio (z) = -0.05222 -0.03127
#
# Static dielectric constant tensor:
#      x y z
#    x 1.891980 0.000000 0.000000 
#    y 0.000000 1.820280 0.000000 
#    z 0.000000 0.000000 1.847050 
# 
# From -- ./inp_files/15113.got.cif
#   From: 2010.05.17/outbox.cif.g08.bks.cpg/sg62_8_cif.got.tgz:15113.got - 2010.06.03 15:25:27.
