data_PCOD9463181
_publ_section_title
;
Structure prediction by ZEFSAII (Michael W. Deem and Ramdas Pophale) SiO2 
 PCOD9463181
Probable space group: P N M A
;
_chemical_formula_sum "Si O2"
_cell_formula_units_Z 64
_cell_length_a 33.292411
_cell_length_b 9.426081
_cell_length_c 10.744341
_cell_angle_alpha 90.000000
_cell_angle_beta 90.000000
_cell_angle_gamma 90.000000
_cell_volume 3371.756460
_symmetry_space_group_name_H-M "P N M A"
_symmetry_group_IT_number 62
_symmetry_cell_setting 'orthorhombic'
loop_
_space_group_symop_operation_xyz
x,y,z
1/2-x,-y,1/2+z
1/2+x,1/2-y,1/2-z
-x,1/2+y,-z
-x,-y,-z
1/2+x,y,1/2-z
1/2-x,1/2+y,1/2+z
x,1/2-y,z
loop_
_atom_site_type_symbol
_atom_site_label
_atom_site_fract_x
_atom_site_fract_y
_atom_site_fract_z
Si Si1 0.777440 0.419692 0.590364
Si Si2 0.135605 0.090512 0.782657
Si Si3 0.988050 0.082432 0.309984
Si Si4 0.370656 0.413395 0.866054
Si Si5 0.721587 0.421643 0.828170
Si Si6 0.572634 0.917820 0.579418
Si Si7 0.424656 0.909515 0.050492
Si Si8 0.941065 0.084026 0.805172
O O1 0.772583 0.250000 0.568963
O O2 0.823744 0.446148 0.629583
O O3 0.750370 0.457065 0.710847
O O4 0.769364 0.501882 0.460145
O O5 0.143138 0.250000 0.830809
O O6 0.176713 0.039190 0.719125
O O7 0.102404 0.098637 0.674564
O O8 0.114175 0.993560 0.884433
O O9 0.990977 0.250000 0.331497
O O10 0.962933 0.004415 0.417011
O O11 0.960758 0.060846 0.185683
O O12 0.030403 0.009114 0.281892
O O13 0.375373 0.250000 0.909938
O O14 0.394534 0.422888 0.736371
O O15 0.395343 0.516846 0.953722
O O16 0.722822 0.250000 0.846757
O O17 0.580083 0.750000 0.570086
O O18 0.556085 0.966578 0.446668
O O19 0.435978 0.750000 0.014748
O O20 0.953475 0.250000 0.795728
#
# Coordination Sequence:
#
# PCOD9463181 Si02
#       8
#     8   8   8   8   8   8   8   8
#     4  10  22  39  61  88 119 155 194 240 295 351
#     4   9  18  33  55  81 108 141 180 223 272 329
#     4  10  20  34  54  81 109 141 185 235 279 331
#     4  10  21  37  56  78 108 145 184 229 278 331
#     4  10  21  39  61  89 122 153 193 243 292 351
#     4   9  19  34  54  80 110 144 184 229 276 335
#     4  10  19  34  57  80 105 143 184 225 276 328
#     4  10  21  36  52  75 110 147 184 230 282 334
#
# _framework density 18.981204999999999
#
# number of rings (size 3 to 8) (size 9 to 14) (size 15 to 20)
#    0.000    2.250    1.250    1.125    0.000    4.500 
#    0.000    1.250    0.000    0.000    0.000    0.000 
#    0.000    0.000    0.000    0.000    0.000    0.000 
#
# Total GULP energy -356972.352177 kJ/mol
# GULP energy per Si atom -5577.693003 kJ/mol
# Density = 1.893800 g / cm^3
# Si number density = 18.981205 Si / 1000 Ang^3
#
#
#
# Elastic Constant Matrix: (Units=GPa)
#
#
# Indices 1 2 3 4 5 6 
#
# 1 112.9413 51.1771 59.7866 0.0000 0.0000 0.0000
# 2 51.1771 56.9102 43.7402 0.0000 0.0000 0.0000
# 3 59.7866 43.7402 66.1711 0.0000 0.0000 0.0000
# 4 0.0000 0.0000 0.0000 22.6541 0.0000 0.0000
# 5 0.0000 0.0000 0.0000 0.0000 25.5882 0.0000
# 6 0.0000 0.0000 0.0000 0.0000 0.0000 25.2762
#
#
#
# Elastic Compliance Matrix: (Units=1/GPa)
#
#
# Indices 1 2 3 4 5 6 
#
# 1 0.018495 -0.007701 -0.011620 0.000000 0.000000 0.000000
# 2 -0.007701 0.038924 -0.018772 0.000000 0.000000 0.000000
# 3 -0.011620 -0.018772 0.038020 0.000000 0.000000 0.000000
# 4 0.000000 0.000000 0.000000 0.044142 0.000000 0.000000
# 5 0.000000 0.000000 0.000000 0.000000 0.039081 0.000000
# 6 0.000000 0.000000 0.000000 0.000000 0.000000 0.039563
#
#
# Mechanical properties :
#
#
# Convention : Reuss Voigt Hill
#
# Bulk Modulus (GPa) = 51.93844 60.60338 56.27091
# Shear Modulus (GPa) = 16.62085 20.12494 18.37289
#
# Velocity S-wave (km/s) = 2.96234 3.25969 3.11457
# Velocity P-wave (km/s) = 6.25485 6.79447 6.53024
#
# Compressibility (1/GPa) = 0.01925356
#
# Stress axis : x y z
#
# Youngs Moduli (GPa) = 54.06949 25.69097 26.30218
#
# Poissons Ratio (x) = 0.19784 0.30563
# Poissons Ratio (y) = 0.41637 0.49374
# Poissons Ratio (z) = 0.62829 0.48227
#
# Static dielectric constant tensor:
#      x y z
#    x 1.646770 0.000000 0.000000 
#    y 0.000000 1.655930 0.000000 
#    z 0.000000 0.000000 1.678910 
# 
# From -- ./inp_files/15818.got.cif
#   From: 2010.05.17/outbox.cif.g08.bks.cpg/sg62_8_cif.got.tgz:15818.got - 2010.06.03 15:25:27.
