data_PCOD9463447
_publ_section_title
;
Structure prediction by ZEFSAII (Michael W. Deem and Ramdas Pophale) SiO2 
 PCOD9463447
Probable space group: P N M A
;
_chemical_formula_sum "Si O2"
_cell_formula_units_Z 44
_cell_length_a 11.294403
_cell_length_b 8.045642
_cell_length_c 27.254499
_cell_angle_alpha 90.000000
_cell_angle_beta 90.000000
_cell_angle_gamma 90.000000
_cell_volume 2476.636033
_symmetry_space_group_name_H-M "P N M A"
_symmetry_group_IT_number 62
_symmetry_cell_setting 'orthorhombic'
loop_
_space_group_symop_operation_xyz
x,y,z
1/2-x,-y,1/2+z
1/2+x,1/2-y,1/2-z
-x,1/2+y,-z
-x,-y,-z
1/2+x,y,1/2-z
1/2-x,1/2+y,1/2+z
x,1/2-y,z
loop_
_atom_site_type_symbol
_atom_site_label
_atom_site_fract_x
_atom_site_fract_y
_atom_site_fract_z
Si Si1 0.826249 0.560902 0.112411
Si Si2 0.364358 0.750000 0.142846
Si Si3 0.755695 0.064695 0.407669
Si Si4 0.636623 0.944878 0.503955
Si Si5 0.138417 0.750000 0.335047
Si Si6 0.956052 0.935649 0.829023
Si Si7 0.653095 0.750000 0.278634
O O1 0.876610 0.750000 0.106578
O O2 0.821433 0.481132 0.059081
O O3 0.699687 0.593903 0.137403
O O4 0.915284 0.464638 0.147768
O O5 0.336874 0.585539 0.110928
O O6 0.498388 0.750000 0.160925
O O7 0.271522 0.750000 0.188153
O O8 0.806279 0.250000 0.401116
O O9 0.637251 0.055045 0.374091
O O10 0.713875 0.038610 0.463335
O O11 0.643553 0.750000 0.493121
O O12 0.500000 0.000000 0.500000
O O13 0.178559 0.750000 0.278798
O O14 0.947094 0.750000 0.807532
O O15 0.920785 0.085324 0.793192
#
# Coordination Sequence:
#
# PCOD9463447 Si02
#       7
#     8   4   8   8   4   8   4
#     4  10  21  36  57  89 130 156 195 254 308 364
#     4  10  22  42  64  86 124 164 216 251 307 378
#     4  10  20  36  60  92 121 160 208 254 302 373
#     4  12  21  32  58  95 129 163 202 252 318 368
#     4  10  25  42  65  86 124 169 214 256 315 366
#     4  10  19  35  61  95 125 151 196 261 317 367
#     4  10  21  40  69  88 116 165 208 259 322 366
#
# _framework density 17.766036
#
# number of rings (size 3 to 8) (size 9 to 14) (size 15 to 20)
#    0.545    1.091    3.636    2.182    2.545    0.000 
#    0.000    5.455    0.000    0.000    0.000    0.000 
#    0.000    0.000    0.000    0.000    0.000    0.000 
#
# Total GULP energy -245430.178619 kJ/mol
# GULP energy per Si atom -5577.958605 kJ/mol
# Density = 1.772560 g / cm^3
# Si number density = 17.766036 Si / 1000 Ang^3
#
#
#
# Elastic Constant Matrix: (Units=GPa)
#
#
# Indices 1 2 3 4 5 6 
#
# 1 63.0152 28.7154 30.2130 0.0000 0.0000 0.0000
# 2 28.7154 124.6924 20.4332 0.0000 0.0000 0.0000
# 3 30.2130 20.4332 87.6170 0.0000 0.0000 0.0000
# 4 0.0000 0.0000 0.0000 18.7880 0.0000 0.0000
# 5 0.0000 0.0000 0.0000 0.0000 16.9596 0.0000
# 6 0.0000 0.0000 0.0000 0.0000 0.0000 13.1796
#
#
#
# Elastic Compliance Matrix: (Units=1/GPa)
#
#
# Indices 1 2 3 4 5 6 
#
# 1 0.020542 -0.003712 -0.006218 0.000000 0.000000 0.000000
# 2 -0.003712 0.009009 -0.000821 0.000000 0.000000 0.000000
# 3 -0.006218 -0.000821 0.013749 0.000000 0.000000 0.000000
# 4 0.000000 0.000000 0.000000 0.053226 0.000000 0.000000
# 5 0.000000 0.000000 0.000000 0.000000 0.058964 0.000000
# 6 0.000000 0.000000 0.000000 0.000000 0.000000 0.075875
#
#
# Mechanical properties :
#
#
# Convention : Reuss Voigt Hill
#
# Bulk Modulus (GPa) = 45.87469 48.22754 47.05112
# Shear Modulus (GPa) = 19.22109 22.84963 21.03536
#
# Velocity S-wave (km/s) = 3.29279 3.59017 3.44469
# Velocity P-wave (km/s) = 6.35093 6.66263 6.50865
#
# Compressibility (1/GPa) = 0.02179851
#
# Stress axis : x y z
#
# Youngs Moduli (GPa) = 48.68141 110.99960 72.73315
#
# Poissons Ratio (x) = 0.41199 0.45224
# Poissons Ratio (y) = 0.18069 0.05972
# Poissons Ratio (z) = 0.30269 0.09114
#
# Static dielectric constant tensor:
#      x y z
#    x 1.573480 0.000000 0.000000 
#    y 0.000000 1.642540 0.000000 
#    z 0.000000 0.000000 1.588640 
# 
# From -- ./inp_files/29208.got.cif
#   From: 2010.05.17/outbox.cif.g08.bks.cpg/sg62_15_cif.got.tgz:29208.got - 2010.06.03 15:25:27.
