data_PCOD9463556
_publ_section_title
;
Structure prediction by ZEFSAII (Michael W. Deem and Ramdas Pophale) SiO2 
 PCOD9463556
Probable space group: P N M A
;
_chemical_formula_sum "Si O2"
_cell_formula_units_Z 32
_cell_length_a 18.128886
_cell_length_b 15.739605
_cell_length_c 5.068586
_cell_angle_alpha 90.000000
_cell_angle_beta 90.000000
_cell_angle_gamma 90.000000
_cell_volume 1446.277956
_symmetry_space_group_name_H-M "P N M A"
_symmetry_group_IT_number 62
_symmetry_cell_setting 'orthorhombic'
loop_
_space_group_symop_operation_xyz
x,y,z
1/2-x,-y,1/2+z
1/2+x,1/2-y,1/2-z
-x,1/2+y,-z
-x,-y,-z
1/2+x,y,1/2-z
1/2-x,1/2+y,1/2+z
x,1/2-y,z
loop_
_atom_site_type_symbol
_atom_site_label
_atom_site_fract_x
_atom_site_fract_y
_atom_site_fract_z
Si Si1 0.168400 0.647630 0.804229
Si Si2 0.492638 0.409556 0.137654
Si Si3 0.426004 0.652095 0.352634
Si Si4 0.738784 0.352603 0.707786
O O1 0.157182 0.750000 0.821403
O O2 0.090630 0.608998 0.723612
O O3 0.228525 0.630947 0.578815
O O4 0.203741 0.615040 0.075285
O O5 0.541119 0.398800 0.400982
O O6 0.500000 0.500000 0.000000
O O7 0.521671 0.349261 0.902770
O O8 0.417890 0.750000 0.442758
O O9 0.345423 0.618053 0.269983
O O10 0.736409 0.250000 0.745634
#
# Coordination Sequence:
#
# PCOD9463556 Si02
#       4
#     8   8   8   8
#     4  10  19  36  60  88 119 159 205 253 305 367
#     4  12  25  40  60  93 134 170 206 260 321 381
#     4  11  22  41  66  92 121 166 218 264 313 377
#     4   9  19  35  61  91 117 149 206 265 304 353
#
# _framework density 22.125761000000001
#
# number of rings (size 3 to 8) (size 9 to 14) (size 15 to 20)
#    0.000    1.500    0.000    6.000    0.000    6.000 
#    0.000    5.000    0.000    0.000    0.000    0.000 
#    0.000    0.000    0.000    0.000    0.000    0.000 
#
# Total GULP energy -179021.299337 kJ/mol
# GULP energy per Si atom -5594.415604 kJ/mol
# Density = 2.207540 g / cm^3
# Si number density = 22.125761 Si / 1000 Ang^3
#
#
#
# Elastic Constant Matrix: (Units=GPa)
#
#
# Indices 1 2 3 4 5 6 
#
# 1 87.6388 -4.3560 -2.2276 0.0000 0.0000 0.0000
# 2 -4.3560 -10.0848 -12.9073 0.0000 0.0000 0.0000
# 3 -2.2276 -12.9073 71.3738 0.0000 0.0000 0.0000
# 4 0.0000 0.0000 0.0000 11.2006 0.0000 0.0000
# 5 0.0000 0.0000 0.0000 0.0000 16.1804 0.0000
# 6 0.0000 0.0000 0.0000 0.0000 0.0000 -250.4195
#
#
#
# Elastic Compliance Matrix: (Units=1/GPa)
#
#
# Indices 1 2 3 4 5 6 
#
# 1 0.011187 -0.004287 -0.000426 0.000000 0.000000 0.000000
# 2 -0.004287 -0.078879 -0.014398 0.000000 0.000000 0.000000
# 3 -0.000426 -0.014398 0.011394 0.000000 0.000000 0.000000
# 4 0.000000 0.000000 0.000000 0.089281 0.000000 0.000000
# 5 0.000000 0.000000 0.000000 0.000000 0.061803 0.000000
# 6 0.000000 0.000000 0.000000 0.000000 0.000000 -0.003993
#
#
# Mechanical properties :
#
#
# Convention : Reuss Voigt Hill
#
# Bulk Modulus (GPa) = -10.57967 12.21623 0.81828
# Shear Modulus (GPa) = 51.27873 -33.37977 8.94948
#
# Velocity S-wave (km/s) = 4.81937 -3.88833 2.01336
# Velocity P-wave (km/s) = 5.11629 3.82434 2.40321
#
# Compressibility (1/GPa) = -0.09452090
#
# Stress axis : x y z
#
# Youngs Moduli (GPa) = 89.39285 -12.67762 87.76826
#
# Poissons Ratio (x) = -0.05434 0.03739
# Poissons Ratio (y) = 0.38319 1.26372
# Poissons Ratio (z) = 0.03809 -0.18254
#
# Static dielectric constant tensor:
#      x y z
#    x 1.779070 0.000000 0.000000 
#    y 0.000000 1.858850 0.000000 
#    z 0.000000 0.000000 1.830320 
# 
# From -- ./inp_files/880.got.cif
#   From: 2010.05.17/outbox.cif.g08.bks.cpg/sg62_1_cif.got.tgz:880.got - 2010.06.03 15:25:27.
