data_PCOD9463452
_publ_section_title
;
Structure prediction by ZEFSAII (Michael W. Deem and Ramdas Pophale) SiO2 
 PCOD9463452
Probable space group: P N M A
;
_chemical_formula_sum "Si O2"
_cell_formula_units_Z 64
_cell_length_a 12.776970
_cell_length_b 9.113160
_cell_length_c 28.632507
_cell_angle_alpha 90.000000
_cell_angle_beta 90.000000
_cell_angle_gamma 90.000000
_cell_volume 3333.928226
_symmetry_space_group_name_H-M "P N M A"
_symmetry_group_IT_number 62
_symmetry_cell_setting 'orthorhombic'
loop_
_space_group_symop_operation_xyz
x,y,z
1/2-x,-y,1/2+z
1/2+x,1/2-y,1/2-z
-x,1/2+y,-z
-x,-y,-z
1/2+x,y,1/2-z
1/2-x,1/2+y,1/2+z
x,1/2-y,z
loop_
_atom_site_type_symbol
_atom_site_label
_atom_site_fract_x
_atom_site_fract_y
_atom_site_fract_z
Si Si1 0.059669 0.080962 0.431048
Si Si2 0.376844 0.421529 0.302330
Si Si3 0.347874 0.575985 0.565870
Si Si4 0.759915 0.923015 0.037064
Si Si5 0.553521 0.426100 0.606201
Si Si6 0.440660 0.921389 0.208976
Si Si7 0.357819 0.924660 0.104270
Si Si8 0.132773 0.415233 0.323522
O O1 0.039322 0.250000 0.443841
O O2 0.107102 0.076953 0.378450
O O3 0.151246 0.010315 0.461794
O O4 0.951784 0.991714 0.426955
O O5 0.404916 0.250000 0.305209
O O6 0.438839 0.512430 0.341453
O O7 0.395652 0.483459 0.250906
O O8 0.254342 0.436280 0.314312
O O9 0.354199 0.750000 0.575243
O O10 0.321390 0.556050 0.511234
O O11 0.454862 0.497833 0.580445
O O12 0.250294 0.504023 0.592703
O O13 0.735964 0.750000 0.042389
O O14 0.839670 0.965962 0.078475
O O15 0.544618 0.250000 0.605841
O O16 0.429457 0.750000 0.219452
O O17 0.387573 0.950619 0.158636
O O18 0.561338 0.966602 0.202072
O O19 0.350652 0.750000 0.096839
O O20 0.103046 0.250000 0.307927
#
# Coordination Sequence:
#
# PCOD9463452 Si02
#       8
#     8   8   8   8   8   8   8   8
#     4  10  19  35  62  90 117 152 199 250 298 354
#     4  11  22  38  61  89 118 152 196 244 296 357
#     4  11  24  41  61  87 123 164 204 248 302 362
#     4  10  22  39  61  90 121 158 202 249 304 362
#     4  11  23  40  62  88 121 158 200 250 302 358
#     4  10  22  38  59  87 117 153 195 243 298 357
#     4  10  22  41  61  85 121 162 202 249 306 362
#     4   9  19  36  57  83 114 150 191 240 295 350
#
# _framework density 19.196573999999998
#
# number of rings (size 3 to 8) (size 9 to 14) (size 15 to 20)
#    0.000    1.750    1.250    2.625    0.000    6.000 
#    0.000    2.500    0.000    0.000    0.000    0.000 
#    0.000    0.000    0.000    0.000    0.000    0.000 
#
# Total GULP energy -357630.337877 kJ/mol
# GULP energy per Si atom -5587.974029 kJ/mol
# Density = 1.915288 g / cm^3
# Si number density = 19.196574 Si / 1000 Ang^3
#
#
#
# Elastic Constant Matrix: (Units=GPa)
#
#
# Indices 1 2 3 4 5 6 
#
# 1 96.0852 54.9185 14.1685 0.0000 0.0000 0.0000
# 2 54.9185 93.2415 43.7053 0.0000 0.0000 0.0000
# 3 14.1685 43.7053 56.5326 0.0000 0.0000 0.0000
# 4 0.0000 0.0000 0.0000 30.3543 0.0000 0.0000
# 5 0.0000 0.0000 0.0000 0.0000 25.0042 0.0000
# 6 0.0000 0.0000 0.0000 0.0000 0.0000 35.8169
#
#
#
# Elastic Compliance Matrix: (Units=1/GPa)
#
#
# Indices 1 2 3 4 5 6 
#
# 1 0.016660 -0.012320 0.005349 0.000000 0.000000 0.000000
# 2 -0.012320 0.025931 -0.016959 0.000000 0.000000 0.000000
# 3 0.005349 -0.016959 0.029459 0.000000 0.000000 0.000000
# 4 0.000000 0.000000 0.000000 0.032944 0.000000 0.000000
# 5 0.000000 0.000000 0.000000 0.000000 0.039993 0.000000
# 6 0.000000 0.000000 0.000000 0.000000 0.000000 0.027920
#
#
# Mechanical properties :
#
#
# Convention : Reuss Voigt Hill
#
# Bulk Modulus (GPa) = 41.33926 52.38266 46.86096
# Shear Modulus (GPa) = 21.85013 27.10621 24.47817
#
# Velocity S-wave (km/s) = 3.37743 3.76178 3.57477
# Velocity P-wave (km/s) = 6.06554 6.79814 6.44226
#
# Compressibility (1/GPa) = 0.02419008
#
# Stress axis : x y z
#
# Youngs Moduli (GPa) = 60.02261 38.56437 33.94499
#
# Poissons Ratio (x) = 0.47512 -0.18158
# Poissons Ratio (y) = 0.73949 0.57568
# Poissons Ratio (z) = -0.32107 0.65402
#
# Static dielectric constant tensor:
#      x y z
#    x 1.633130 0.000000 0.000000 
#    y 0.000000 1.651980 0.000000 
#    z 0.000000 0.000000 1.666070 
# 
# From -- ./inp_files/32435.got.cif
#   From: 2010.05.17/outbox.cif.g08.bks.cpg/sg62_17_cif.got.tgz:32435.got - 2010.06.03 15:25:27.
