data_PCOD9463203
_publ_section_title
;
Structure prediction by ZEFSAII (Michael W. Deem and Ramdas Pophale) SiO2 
 PCOD9463203
Probable space group: P N M A
;
_chemical_formula_sum "Si O2"
_cell_formula_units_Z 56
_cell_length_a 20.459506
_cell_length_b 8.837842
_cell_length_c 16.096786
_cell_angle_alpha 90.000000
_cell_angle_beta 90.000000
_cell_angle_gamma 90.000000
_cell_volume 2910.586742
_symmetry_space_group_name_H-M "P N M A"
_symmetry_group_IT_number 62
_symmetry_cell_setting 'orthorhombic'
loop_
_space_group_symop_operation_xyz
x,y,z
1/2-x,-y,1/2+z
1/2+x,1/2-y,1/2-z
-x,1/2+y,-z
-x,-y,-z
1/2+x,y,1/2-z
1/2-x,1/2+y,1/2+z
x,1/2-y,z
loop_
_atom_site_type_symbol
_atom_site_label
_atom_site_fract_x
_atom_site_fract_y
_atom_site_fract_z
Si Si1 0.902421 0.582597 0.473833
Si Si2 0.944152 0.931098 0.942382
Si Si3 0.836041 0.067013 0.191585
Si Si4 0.040753 0.919018 0.384229
Si Si5 0.294382 0.428830 0.125661
Si Si6 0.017628 0.433003 0.791547
Si Si7 0.191690 0.931583 0.995876
O O1 0.872225 0.750000 0.469011
O O2 0.908226 0.523194 0.567557
O O3 0.864348 0.467884 0.414853
O O4 0.975994 0.594717 0.440586
O O5 0.944006 0.750000 0.945021
O O6 0.966092 0.993523 0.853819
O O7 0.875992 0.996332 0.973608
O O8 0.000000 0.000000 0.000000
O O9 0.843046 0.250000 0.193902
O O10 0.798372 0.022294 0.277056
O O11 0.802257 0.028106 0.102874
O O12 0.909039 0.995812 0.194401
O O13 0.068379 0.750000 0.373375
O O14 0.011014 0.973571 0.298238
O O15 0.281430 0.250000 0.124463
O O16 0.245052 0.509021 0.061540
O O17 0.019793 0.250000 0.799292
O O18 0.188812 0.750000 0.000156
#
# Coordination Sequence:
#
# PCOD9463203 Si02
#       7
#     8   8   8   8   8   8   8
#     4  10  19  34  57  86 119 160 202 251 305 360
#     4  12  24  40  63  93 125 159 200 252 311 366
#     4  10  22  40  65  91 119 158 206 253 307 370
#     4   9  19  34  54  86 122 157 201 251 304 361
#     4  11  23  41  64  91 124 165 209 258 313 375
#     4  11  21  36  62  92 123 157 200 251 305 365
#     4  11  24  44  66  91 122 162 207 259 313 370
#
# _framework density 19.240106999999998
#
# number of rings (size 3 to 8) (size 9 to 14) (size 15 to 20)
#    0.000    1.429    2.857    3.000    0.000    2.857 
#    2.571    0.000    0.000    0.000    0.000    0.000 
#    0.000    0.000    0.000    0.000    0.000    0.000 
#
# Total GULP energy -312306.530179 kJ/mol
# GULP energy per Si atom -5576.902325 kJ/mol
# Density = 1.919632 g / cm^3
# Si number density = 19.240107 Si / 1000 Ang^3
#
#
#
# Elastic Constant Matrix: (Units=GPa)
#
#
# Indices 1 2 3 4 5 6 
#
# 1 39.2836 22.1705 46.6167 0.0000 0.0000 0.0000
# 2 22.1705 49.6323 61.3135 0.0000 0.0000 0.0000
# 3 46.6167 61.3135 167.1273 0.0000 0.0000 0.0000
# 4 0.0000 0.0000 0.0000 23.5826 0.0000 0.0000
# 5 0.0000 0.0000 0.0000 0.0000 29.3430 0.0000
# 6 0.0000 0.0000 0.0000 0.0000 0.0000 33.3793
#
#
#
# Elastic Compliance Matrix: (Units=1/GPa)
#
#
# Indices 1 2 3 4 5 6 
#
# 1 0.039472 -0.007372 -0.008305 0.000000 0.000000 0.000000
# 2 -0.007372 0.038225 -0.011967 0.000000 0.000000 0.000000
# 3 -0.008305 -0.011967 0.012690 0.000000 0.000000 0.000000
# 4 0.000000 0.000000 0.000000 0.042404 0.000000 0.000000
# 5 0.000000 0.000000 0.000000 0.000000 0.034080 0.000000
# 6 0.000000 0.000000 0.000000 0.000000 0.000000 0.029959
#
#
# Mechanical properties :
#
#
# Convention : Reuss Voigt Hill
#
# Bulk Modulus (GPa) = 28.49123 57.36052 42.92587
# Shear Modulus (GPa) = 18.95240 25.65714 22.30477
#
# Velocity S-wave (km/s) = 3.14195 3.65571 3.40852
# Velocity P-wave (km/s) = 5.29177 6.90627 6.15221
#
# Compressibility (1/GPa) = 0.03509852
#
# Stress axis : x y z
#
# Youngs Moduli (GPa) = 25.33420 26.16096 78.79916
#
# Poissons Ratio (x) = 0.19286 0.65447
# Poissons Ratio (y) = 0.18676 0.94301
# Poissons Ratio (z) = 0.21041 0.31307
#
# Static dielectric constant tensor:
#      x y z
#    x 1.642590 0.000000 0.000000 
#    y 0.000000 1.677580 0.000000 
#    z 0.000000 0.000000 1.672760 
# 
# From -- ./inp_files/20419.got.cif
#   From: 2010.05.17/outbox.cif.g08.bks.cpg/sg62_11_cif.got.tgz:20419.got - 2010.06.03 15:25:27.
