data_PCOD9463579
_publ_section_title
;
Structure prediction by ZEFSAII (Michael W. Deem and Ramdas Pophale) SiO2 
 PCOD9463579
Probable space group: P N M A
;
_chemical_formula_sum "Si O2"
_cell_formula_units_Z 64
_cell_length_a 31.729902
_cell_length_b 7.685212
_cell_length_c 12.200387
_cell_angle_alpha 90.000000
_cell_angle_beta 90.000000
_cell_angle_gamma 90.000000
_cell_volume 2975.076858
_symmetry_space_group_name_H-M "P N M A"
_symmetry_group_IT_number 62
_symmetry_cell_setting 'orthorhombic'
loop_
_space_group_symop_operation_xyz
x,y,z
1/2-x,-y,1/2+z
1/2+x,1/2-y,1/2-z
-x,1/2+y,-z
-x,-y,-z
1/2+x,y,1/2-z
1/2-x,1/2+y,1/2+z
x,1/2-y,z
loop_
_atom_site_type_symbol
_atom_site_label
_atom_site_fract_x
_atom_site_fract_y
_atom_site_fract_z
Si Si1 0.044454 0.043786 0.447010
Si Si2 0.579991 0.543662 0.272737
Si Si3 0.379864 0.460692 0.329875
Si Si4 0.712343 0.451685 0.037811
Si Si5 0.671976 0.960291 0.255900
Si Si6 0.450743 0.459468 0.494548
Si Si7 0.806311 0.462426 0.004673
Si Si8 0.872876 0.542448 0.426231
O O1 0.048374 0.250000 0.447427
O O2 0.085186 0.971588 0.512960
O O3 0.046099 0.985371 0.321031
O O4 0.000000 0.000000 0.500000
O O5 0.585359 0.750000 0.287398
O O6 0.624721 0.477940 0.228973
O O7 0.568923 0.472289 0.391719
O O8 0.379797 0.250000 0.330724
O O9 0.422763 0.520345 0.391523
O O10 0.340135 0.519884 0.404267
O O11 0.376261 0.515091 0.203923
O O12 0.715090 0.250000 0.002612
O O13 0.702897 0.461728 0.166790
O O14 0.758644 0.527795 0.019089
O O15 0.671324 0.528091 0.975695
O O16 0.675018 0.750000 0.246464
O O17 0.679706 0.006809 0.381778
O O18 0.500000 0.500000 0.500000
O O19 0.447149 0.250000 0.494266
O O20 0.806142 0.250000 0.011317
O O21 0.872103 0.750000 0.445953
#
# Coordination Sequence:
#
# PCOD9463579 Si02
#       8
#     8   8   8   8   8   8   8   8
#     4  11  24  41  60  84 116 151 192 235 285 340
#     4  10  20  38  62  85 113 147 189 239 286 334
#     4  10  21  39  60  83 113 151 192 231 276 338
#     4  10  21  38  58  83 117 152 186 230 287 337
#     4  10  19  36  62  85 109 146 193 236 277 331
#     4  10  22  39  59  85 115 147 187 234 284 336
#     4   9  19  37  60  84 114 152 187 229 285 337
#     4  10  23  40  56  81 118 153 183 230 288 335
#
# _framework density 21.512049999999999
#
# number of rings (size 3 to 8) (size 9 to 14) (size 15 to 20)
#    0.000    2.000    2.500    0.375    3.500    2.500 
#    0.000    1.250    0.000    0.000    0.000    0.000 
#    0.000    0.000    0.000    0.000    0.000    0.000 
#
# Total GULP energy -357346.240431 kJ/mol
# GULP energy per Si atom -5583.535007 kJ/mol
# Density = 2.146309 g / cm^3
# Si number density = 21.512050 Si / 1000 Ang^3
#
#
#
# Elastic Constant Matrix: (Units=GPa)
#
#
# Indices 1 2 3 4 5 6 
#
# 1 118.1083 3.8453 27.9323 0.0000 0.0000 0.0000
# 2 3.8453 35.9383 -8.1719 0.0000 0.0000 0.0000
# 3 27.9323 -8.1719 100.5881 0.0000 0.0000 0.0000
# 4 0.0000 0.0000 0.0000 26.6162 0.0000 0.0000
# 5 0.0000 0.0000 0.0000 0.0000 32.3126 0.0000
# 6 0.0000 0.0000 0.0000 0.0000 0.0000 13.8265
#
#
#
# Elastic Compliance Matrix: (Units=1/GPa)
#
#
# Indices 1 2 3 4 5 6 
#
# 1 0.009150 -0.001586 -0.002670 0.000000 0.000000 0.000000
# 2 -0.001586 0.028624 0.002766 0.000000 0.000000 0.000000
# 3 -0.002670 0.002766 0.010908 0.000000 0.000000 0.000000
# 4 0.000000 0.000000 0.000000 0.037571 0.000000 0.000000
# 5 0.000000 0.000000 0.000000 0.000000 0.030948 0.000000
# 6 0.000000 0.000000 0.000000 0.000000 0.000000 0.072325
#
#
# Mechanical properties :
#
#
# Convention : Reuss Voigt Hill
#
# Bulk Modulus (GPa) = 21.88095 33.53844 27.70969
# Shear Modulus (GPa) = 24.06868 29.95300 27.01084
#
# Velocity S-wave (km/s) = 3.34855 3.73551 3.54731
# Velocity P-wave (km/s) = 5.01437 5.85062 5.44856
#
# Compressibility (1/GPa) = 0.04570186
#
# Stress axis : x y z
#
# Youngs Moduli (GPa) = 109.29189 34.93558 91.67945
#
# Poissons Ratio (x) = 0.05541 0.24475
# Poissons Ratio (y) = 0.17334 -0.25357
# Poissons Ratio (z) = 0.29177 -0.09663
#
# Static dielectric constant tensor:
#      x y z
#    x 1.803590 0.000000 0.000000 
#    y 0.000000 1.816000 0.000000 
#    z 0.000000 0.000000 1.735450 
# 
# From -- ./inp_files/15921.got.cif
#   From: 2010.05.17/outbox.cif.g08.bks.cpg/sg62_8_cif.got.tgz:15921.got - 2010.06.03 15:25:27.
