data_PCOD9463605
_publ_section_title
;
Structure prediction by ZEFSAII (Michael W. Deem and Ramdas Pophale) SiO2 
 PCOD9463605
Probable space group: P N M A
;
_chemical_formula_sum "Si O2"
_cell_formula_units_Z 32
_cell_length_a 6.424975
_cell_length_b 22.858263
_cell_length_c 7.303706
_cell_angle_alpha 90.000000
_cell_angle_beta 90.000000
_cell_angle_gamma 90.000000
_cell_volume 1072.649786
_symmetry_space_group_name_H-M "P N M A"
_symmetry_group_IT_number 62
_symmetry_cell_setting 'orthorhombic'
loop_
_space_group_symop_operation_xyz
x,y,z
1/2-x,-y,1/2+z
1/2+x,1/2-y,1/2-z
-x,1/2+y,-z
-x,-y,-z
1/2+x,y,1/2-z
1/2-x,1/2+y,1/2+z
x,1/2-y,z
loop_
_atom_site_type_symbol
_atom_site_label
_atom_site_fract_x
_atom_site_fract_y
_atom_site_fract_z
Si Si1 0.236265 0.625716 0.972608
Si Si2 0.703640 0.500105 0.184759
Si Si3 0.272351 0.622077 0.408145
Si Si4 0.727857 0.750000 0.530682
Si Si5 0.759518 0.750000 0.096345
O O1 0.302530 0.621986 0.187107
O O2 0.964330 0.506864 0.226249
O O3 0.989177 0.625237 0.990986
O O4 0.299321 0.566432 0.878278
O O5 0.690281 0.557041 0.050937
O O6 0.711980 0.311799 0.116501
O O7 0.168026 0.685473 0.444111
O O8 0.799510 0.750000 0.316175
O O9 0.480574 0.750000 0.502926
#
# Coordination Sequence:
#
# PCOD9463605 Si02
#       5
#     8   8   8   4   4
#     4  10  21  39  64 100 135 176 227 278 342 401
#     4  12  27  45  66 100 138 186 225 271 331 405
#     4  10  19  36  64  97 131 172 216 287 338 392
#     4   8  16  34  60  90 134 166 216 282 334 394
#     4   8  16  30  56  94 126 158 216 274 350 386
#
# _framework density 29.832663
#
# number of rings (size 3 to 8) (size 9 to 14) (size 15 to 20)
#    0.000    2.000    2.500    0.750    0.000    3.000 
#    0.000    3.750    0.000    0.000    0.000    0.000 
#    0.000    0.000    0.000    0.000    0.000    0.000 
#
# Total GULP energy -178245.428662 kJ/mol
# GULP energy per Si atom -5570.169646 kJ/mol
# Density = 2.976476 g / cm^3
# Si number density = 29.832663 Si / 1000 Ang^3
#
#
#
# Elastic Constant Matrix: (Units=GPa)
#
#
# Indices 1 2 3 4 5 6 
#
# 1 225.0479 68.3445 42.1388 0.0000 0.0000 0.0000
# 2 68.3445 370.3762 24.7844 0.0000 0.0000 0.0000
# 3 42.1388 24.7844 82.7644 0.0000 0.0000 0.0000
# 4 0.0000 0.0000 0.0000 52.4024 0.0000 0.0000
# 5 0.0000 0.0000 0.0000 0.0000 40.4531 0.0000
# 6 0.0000 0.0000 0.0000 0.0000 0.0000 -15.1490
#
#
#
# Elastic Compliance Matrix: (Units=1/GPa)
#
#
# Indices 1 2 3 4 5 6 
#
# 1 0.005127 -0.000787 -0.002375 0.000000 0.000000 0.000000
# 2 -0.000787 0.002876 -0.000460 0.000000 0.000000 0.000000
# 3 -0.002375 -0.000460 0.013429 0.000000 0.000000 0.000000
# 4 0.000000 0.000000 0.000000 0.019083 0.000000 0.000000
# 5 0.000000 0.000000 0.000000 0.000000 0.024720 0.000000
# 6 0.000000 0.000000 0.000000 0.000000 0.000000 -0.066011
#
#
# Mechanical properties :
#
#
# Convention : Reuss Voigt Hill
#
# Bulk Modulus (GPa) = 70.48258 105.41376 87.94817
# Shear Modulus (GPa) = 446.47107 51.73601 249.10354
#
# Velocity S-wave (km/s) = 12.24677 4.16890 9.14776
# Velocity P-wave (km/s) = 14.95510 7.65406 11.87939
#
# Compressibility (1/GPa) = 0.01418790
#
# Stress axis : x y z
#
# Youngs Moduli (GPa) = 195.03752 347.70158 74.46322
#
# Poissons Ratio (x) = 0.27371 0.17683
# Poissons Ratio (y) = 0.15353 0.03429
# Poissons Ratio (z) = 0.46316 0.16010
#
# Static dielectric constant tensor:
#      x y z
#    x 2.336870 0.000000 0.000000 
#    y 0.000000 2.304540 0.000000 
#    z 0.000000 0.000000 2.414590 
# 
# From -- ./inp_files/11030.got.cif
#   From: 2010.05.17/outbox.cif.g08.bks.cpg/sg62_6_cif.got.tgz:11030.got - 2010.06.03 15:25:27.
