data_PCOD9463747
_publ_section_title
;
Structure prediction by ZEFSAII (Michael W. Deem and Ramdas Pophale) SiO2 
 PCOD9463747
Probable space group: P N M A
;
_chemical_formula_sum "Si O2"
_cell_formula_units_Z 40
_cell_length_a 9.339134
_cell_length_b 16.484531
_cell_length_c 13.273447
_cell_angle_alpha 90.000000
_cell_angle_beta 90.000000
_cell_angle_gamma 90.000000
_cell_volume 2043.463677
_symmetry_space_group_name_H-M "P N M A"
_symmetry_group_IT_number 62
_symmetry_cell_setting 'orthorhombic'
loop_
_space_group_symop_operation_xyz
x,y,z
1/2-x,-y,1/2+z
1/2+x,1/2-y,1/2-z
-x,1/2+y,-z
-x,-y,-z
1/2+x,y,1/2-z
1/2-x,1/2+y,1/2+z
x,1/2-y,z
loop_
_atom_site_type_symbol
_atom_site_label
_atom_site_fract_x
_atom_site_fract_y
_atom_site_fract_z
Si Si1 0.418809 0.056234 0.916649
Si Si2 0.167946 0.516021 0.008965
Si Si3 0.838560 0.542921 0.780321
Si Si4 0.935614 0.344142 0.262209
Si Si5 0.382172 0.841610 0.972211
O O1 0.513124 0.135944 0.933774
O O2 0.405269 0.012061 0.809130
O O3 0.500000 0.000000 0.000000
O O4 0.256223 0.057340 0.956729
O O5 0.199980 0.514205 0.127476
O O6 0.247626 0.596690 0.967932
O O7 0.000000 0.500000 0.000000
O O8 0.701035 0.598040 0.758888
O O9 0.954262 0.610954 0.811413
O O10 0.904170 0.250000 0.240752
O O11 0.018426 0.347170 0.371005
O O12 0.330654 0.750000 0.979148
#
# Coordination Sequence:
#
# PCOD9463747 Si02
#       5
#     8   8   8   8   8
#     4  10  19  40  60  85 120 167 215 245 303 386
#     4  11  22  37  59  95 127 158 210 256 306 375
#     4  12  21  37  62  89 122 165 209 254 305 374
#     4  11  22  37  60  94 126 155 199 257 323 377
#     4  10  21  43  64  84 123 169 205 255 319 375
#
# _framework density 19.574608000000001
#
# number of rings (size 3 to 8) (size 9 to 14) (size 15 to 20)
#    0.000    1.200    6.000    3.000    0.000    0.000 
#    0.000    3.000    0.000    0.000    0.000    0.000 
#    0.000    0.000    0.000    0.000    0.000    0.000 
#
# Total GULP energy -222744.864642 kJ/mol
# GULP energy per Si atom -5568.621616 kJ/mol
# Density = 1.953006 g / cm^3
# Si number density = 19.574608 Si / 1000 Ang^3
#
#
#
# Elastic Constant Matrix: (Units=GPa)
#
#
# Indices 1 2 3 4 5 6 
#
# 1 137.2474 39.6926 -1.6821 0.0000 0.0000 0.0000
# 2 39.6926 86.5941 40.0377 0.0000 0.0000 0.0000
# 3 -1.6821 40.0377 83.1441 0.0000 0.0000 0.0000
# 4 0.0000 0.0000 0.0000 21.7853 0.0000 0.0000
# 5 0.0000 0.0000 0.0000 0.0000 29.8155 0.0000
# 6 0.0000 0.0000 0.0000 0.0000 0.0000 22.8893
#
#
#
# Elastic Compliance Matrix: (Units=1/GPa)
#
#
# Indices 1 2 3 4 5 6 
#
# 1 0.008862 -0.005332 0.002747 0.000000 0.000000 0.000000
# 2 -0.005332 0.018064 -0.008807 0.000000 0.000000 0.000000
# 3 0.002747 -0.008807 0.016324 0.000000 0.000000 0.000000
# 4 0.000000 0.000000 0.000000 0.045903 0.000000 0.000000
# 5 0.000000 0.000000 0.000000 0.000000 0.033540 0.000000
# 6 0.000000 0.000000 0.000000 0.000000 0.000000 0.043689
#
#
# Mechanical properties :
#
#
# Convention : Reuss Voigt Hill
#
# Bulk Modulus (GPa) = 48.86131 51.45356 50.15743
# Shear Modulus (GPa) = 25.51207 30.16051 27.83629
#
# Velocity S-wave (km/s) = 3.61408 3.92956 3.77511
# Velocity P-wave (km/s) = 6.51392 6.85066 6.68441
#
# Compressibility (1/GPa) = 0.02046609
#
# Stress axis : x y z
#
# Youngs Moduli (GPa) = 112.84319 55.35860 61.26084
#
# Poissons Ratio (x) = 0.29518 -0.16828
# Poissons Ratio (y) = 0.60170 0.53950
# Poissons Ratio (z) = -0.30997 0.48752
#
# Static dielectric constant tensor:
#      x y z
#    x 1.837840 0.000000 0.000000 
#    y 0.000000 1.757190 0.000000 
#    z 0.000000 0.000000 1.767860 
# 
# From -- ./inp_files/11066.got.cif
#   From: 2010.05.17/outbox.cif.g08.bks.cpg/sg62_6_cif.got.tgz:11066.got - 2010.06.03 15:25:27.
