data_PCOD9463736
_publ_section_title
;
Structure prediction by ZEFSAII (Michael W. Deem and Ramdas Pophale) SiO2 
 PCOD9463736
Probable space group: P N M A
;
_chemical_formula_sum "Si O2"
_cell_formula_units_Z 60
_cell_length_a 19.279711
_cell_length_b 9.713199
_cell_length_c 16.804429
_cell_angle_alpha 90.000000
_cell_angle_beta 90.000000
_cell_angle_gamma 90.000000
_cell_volume 3146.926258
_symmetry_space_group_name_H-M "P N M A"
_symmetry_group_IT_number 62
_symmetry_cell_setting 'orthorhombic'
loop_
_space_group_symop_operation_xyz
x,y,z
1/2-x,-y,1/2+z
1/2+x,1/2-y,1/2-z
-x,1/2+y,-z
-x,-y,-z
1/2+x,y,1/2-z
1/2-x,1/2+y,1/2+z
x,1/2-y,z
loop_
_atom_site_type_symbol
_atom_site_label
_atom_site_fract_x
_atom_site_fract_y
_atom_site_fract_z
Si Si1 0.705088 0.588364 0.263386
Si Si2 0.489227 0.750000 0.479598
Si Si3 0.669823 0.912009 0.717068
Si Si4 0.702186 0.584815 0.450906
Si Si5 0.421113 0.411617 0.845812
Si Si6 0.081875 0.518054 0.938537
Si Si7 0.353600 0.588604 0.984937
Si Si8 0.582037 0.088098 0.840674
O O1 0.723843 0.750000 0.252395
O O2 0.756560 0.490066 0.215246
O O3 0.710000 0.557816 0.357169
O O4 0.627286 0.570177 0.231288
O O5 0.453631 0.627894 0.425513
O O6 0.526029 0.630686 0.535421
O O7 0.678884 0.750000 0.732093
O O8 0.626831 0.933176 0.636456
O O9 0.627836 0.988990 0.786706
O O10 0.689003 0.750000 0.459387
O O11 0.637249 0.507740 0.488881
O O12 0.773743 0.552042 0.495634
O O13 0.418957 0.250000 0.867519
O O14 0.501110 0.446299 0.831494
O O15 0.387937 0.498832 0.916680
O O16 0.355064 0.750000 0.962989
O O17 0.395225 0.572957 0.067589
O O18 0.593335 0.250000 0.819879
#
# Coordination Sequence:
#
# PCOD9463736 Si02
#       8
#     8   4   8   8   8   8   8   8
#     4  10  22  41  63  91 124 163 211 253 307 379
#     4  10  24  42  62  88 128 158 216 262 310 372
#     4  12  24  41  64  93 128 162 208 260 315 370
#     4  10  19  39  65  89 124 166 208 258 308 373
#     4  10  22  38  61  96 122 156 206 258 305 370
#     4  11  23  43  64  95 122 172 211 261 315 379
#     4  10  20  38  64  87 122 166 206 252 309 374
#     4  10  22  41  63  91 126 167 208 247 313 378
#
# _framework density 19.066222
#
# number of rings (size 3 to 8) (size 9 to 14) (size 15 to 20)
#    0.000    1.600    2.667    1.600    1.867    4.800 
#    4.800    0.000    0.000    0.000    0.000    0.000 
#    0.000    0.000    0.000    0.000    0.000    0.000 
#
# Total GULP energy -334145.568224 kJ/mol
# GULP energy per Si atom -5569.092804 kJ/mol
# Density = 1.902283 g / cm^3
# Si number density = 19.066222 Si / 1000 Ang^3
#
#
#
# Elastic Constant Matrix: (Units=GPa)
#
#
# Indices 1 2 3 4 5 6 
#
# 1 54.0626 26.6502 2.3434 0.0000 0.0000 0.0000
# 2 26.6502 88.9045 10.5083 0.0000 0.0000 0.0000
# 3 2.3434 10.5083 27.4592 0.0000 0.0000 0.0000
# 4 0.0000 0.0000 0.0000 28.5268 0.0000 0.0000
# 5 0.0000 0.0000 0.0000 0.0000 6.9426 0.0000
# 6 0.0000 0.0000 0.0000 0.0000 0.0000 2.4251
#
#
#
# Elastic Compliance Matrix: (Units=1/GPa)
#
#
# Indices 1 2 3 4 5 6 
#
# 1 0.021716 -0.006589 0.000668 0.000000 0.000000 0.000000
# 2 -0.006589 0.013780 -0.004711 0.000000 0.000000 0.000000
# 3 0.000668 -0.004711 0.038164 0.000000 0.000000 0.000000
# 4 0.000000 0.000000 0.000000 0.035055 0.000000 0.000000
# 5 0.000000 0.000000 0.000000 0.000000 0.144038 0.000000
# 6 0.000000 0.000000 0.000000 0.000000 0.000000 0.412362
#
#
# Mechanical properties :
#
#
# Convention : Reuss Voigt Hill
#
# Bulk Modulus (GPa) = 19.08537 27.71445 23.39991
# Shear Modulus (GPa) = 7.10386 16.30718 11.70552
#
# Velocity S-wave (km/s) = 1.93235 2.92771 2.48047
# Velocity P-wave (km/s) = 3.87433 5.09864 4.52805
#
# Compressibility (1/GPa) = 0.05239617
#
# Stress axis : x y z
#
# Youngs Moduli (GPa) = 46.04904 72.56964 26.20303
#
# Poissons Ratio (x) = 0.47813 -0.01751
# Poissons Ratio (y) = 0.30340 0.12344
# Poissons Ratio (z) = -0.03076 0.34188
#
# Static dielectric constant tensor:
#      x y z
#    x 1.685070 0.000000 0.000000 
#    y 0.000000 1.637850 0.000000 
#    z 0.000000 0.000000 1.646740 
# 
# From -- ./inp_files/24397.got.cif
#   From: 2010.05.17/outbox.cif.g08.bks.cpg/sg62_13_cif.got.tgz:24397.got - 2010.06.03 15:25:27.
