data_PCOD9463414
_publ_section_title
;
Structure prediction by ZEFSAII (Michael W. Deem and Ramdas Pophale) SiO2 
 PCOD9463414
Probable space group: P N M A
;
_chemical_formula_sum "Si O2"
_cell_formula_units_Z 48
_cell_length_a 29.918299
_cell_length_b 8.921563
_cell_length_c 10.314378
_cell_angle_alpha 90.000000
_cell_angle_beta 90.000000
_cell_angle_gamma 90.000000
_cell_volume 2753.093037
_symmetry_space_group_name_H-M "P N M A"
_symmetry_group_IT_number 62
_symmetry_cell_setting 'orthorhombic'
loop_
_space_group_symop_operation_xyz
x,y,z
1/2-x,-y,1/2+z
1/2+x,1/2-y,1/2-z
-x,1/2+y,-z
-x,-y,-z
1/2+x,y,1/2-z
1/2-x,1/2+y,1/2+z
x,1/2-y,z
loop_
_atom_site_type_symbol
_atom_site_label
_atom_site_fract_x
_atom_site_fract_y
_atom_site_fract_z
Si Si1 0.523917 0.570337 0.876661
Si Si2 0.718443 0.571068 0.496544
Si Si3 0.471308 0.930212 0.615385
Si Si4 0.288649 0.070229 0.201494
Si Si5 0.123337 0.072883 0.019430
Si Si6 0.384857 0.926841 0.211957
O O1 0.525942 0.750000 0.886763
O O2 0.494442 0.530828 0.750360
O O3 0.573324 0.504728 0.855944
O O4 0.500000 0.500000 0.000000
O O5 0.722231 0.750000 0.485534
O O6 0.753811 0.493203 0.402224
O O7 0.724288 0.530392 0.649199
O O8 0.668581 0.518030 0.458956
O O9 0.471998 0.750000 0.601096
O O10 0.419528 0.976312 0.602158
O O11 0.500000 0.000000 0.500000
O O12 0.290734 0.250000 0.193941
O O13 0.337581 0.001070 0.177043
O O14 0.132001 0.250000 0.041768
O O15 0.110300 0.055616 0.867846
O O16 0.384095 0.750000 0.183128
#
# Coordination Sequence:
#
# PCOD9463414 Si02
#       6
#     8   8   8   8   8   8
#     4  11  23  38  56  81 116 154 190 232 280 335
#     4  10  21  37  58  85 113 146 187 231 279 333
#     4  10  20  35  58  85 111 144 186 231 277 327
#     4  10  21  38  60  85 114 147 184 230 279 333
#     4   9  18  34  57  84 111 143 183 231 282 331
#     4  10  19  35  60  84 111 148 187 228 278 339
#
# _framework density 17.434933999999998
#
# number of rings (size 3 to 8) (size 9 to 14) (size 15 to 20)
#    0.000    2.000    1.667    2.000    0.000    4.000 
#    3.000    0.000    0.000    0.000    0.000    0.000 
#    0.000    0.000    0.000    0.000    0.000    0.000 
#
# Total GULP energy -267981.734261 kJ/mol
# GULP energy per Si atom -5582.952797 kJ/mol
# Density = 1.739525 g / cm^3
# Si number density = 17.434934 Si / 1000 Ang^3
#
#
#
# Elastic Constant Matrix: (Units=GPa)
#
#
# Indices 1 2 3 4 5 6 
#
# 1 172.0921 71.4126 102.3470 0.0000 0.0000 0.0000
# 2 71.4126 66.9382 64.9890 0.0000 0.0000 0.0000
# 3 102.3470 64.9890 119.2193 0.0000 0.0000 0.0000
# 4 0.0000 0.0000 0.0000 27.3370 0.0000 0.0000
# 5 0.0000 0.0000 0.0000 0.0000 34.1471 0.0000
# 6 0.0000 0.0000 0.0000 0.0000 0.0000 36.1266
#
#
#
# Elastic Compliance Matrix: (Units=1/GPa)
#
#
# Indices 1 2 3 4 5 6 
#
# 1 0.013074 -0.006481 -0.007691 0.000000 0.000000 0.000000
# 2 -0.006481 0.034948 -0.013487 0.000000 0.000000 0.000000
# 3 -0.007691 -0.013487 0.022342 0.000000 0.000000 0.000000
# 4 0.000000 0.000000 0.000000 0.036580 0.000000 0.000000
# 5 0.000000 0.000000 0.000000 0.000000 0.029285 0.000000
# 6 0.000000 0.000000 0.000000 0.000000 0.000000 0.027680
#
#
# Mechanical properties :
#
#
# Convention : Reuss Voigt Hill
#
# Bulk Modulus (GPa) = 66.46082 92.86077 79.66080
# Shear Modulus (GPa) = 22.29721 27.48888 24.89304
#
# Velocity S-wave (km/s) = 3.58002 3.97502 3.78268
# Velocity P-wave (km/s) = 7.43578 8.62813 8.05405
#
# Compressibility (1/GPa) = 0.01504646
#
# Stress axis : x y z
#
# Youngs Moduli (GPa) = 76.48577 28.61423 44.75833
#
# Poissons Ratio (x) = 0.18546 0.34423
# Poissons Ratio (y) = 0.49573 0.60364
# Poissons Ratio (z) = 0.58824 0.38591
#
# Static dielectric constant tensor:
#      x y z
#    x 1.570770 0.000000 0.000000 
#    y 0.000000 1.580740 0.000000 
#    z 0.000000 0.000000 1.575940 
# 
# From -- ./inp_files/10229.got.cif
#   From: 2010.05.17/outbox.cif.g08.bks.cpg/sg62_6_cif.got.tgz:10229.got - 2010.06.03 15:25:27.
