data_PCOD9463240
_publ_section_title
;
Structure prediction by ZEFSAII (Michael W. Deem and Ramdas Pophale) SiO2 
 PCOD9463240
Probable space group: P N M A
;
_chemical_formula_sum "Si O2"
_cell_formula_units_Z 64
_cell_length_a 10.746379
_cell_length_b 15.094935
_cell_length_c 18.688181
_cell_angle_alpha 90.000000
_cell_angle_beta 90.000000
_cell_angle_gamma 90.000000
_cell_volume 3031.519960
_symmetry_space_group_name_H-M "P N M A"
_symmetry_group_IT_number 62
_symmetry_cell_setting 'orthorhombic'
loop_
_space_group_symop_operation_xyz
x,y,z
1/2-x,-y,1/2+z
1/2+x,1/2-y,1/2-z
-x,1/2+y,-z
-x,-y,-z
1/2+x,y,1/2-z
1/2-x,1/2+y,1/2+z
x,1/2-y,z
loop_
_atom_site_type_symbol
_atom_site_label
_atom_site_fract_x
_atom_site_fract_y
_atom_site_fract_z
Si Si1 0.530943 0.534508 0.216845
Si Si2 0.769592 0.345608 0.401011
Si Si3 0.113289 0.103926 0.962193
Si Si4 0.083471 0.020323 0.569518
Si Si5 0.334070 0.404022 0.514907
Si Si6 0.566734 0.347543 0.282926
Si Si7 0.206792 0.448615 0.813351
Si Si8 0.684088 0.847817 0.638952
O O1 0.499048 0.554008 0.134768
O O2 0.539978 0.428782 0.231544
O O3 0.417787 0.563255 0.267256
O O4 0.667922 0.573925 0.229741
O O5 0.831505 0.250000 0.399805
O O6 0.677358 0.348586 0.470054
O O7 0.862573 0.425505 0.408031
O O8 0.694112 0.356634 0.326931
O O9 0.966751 0.127179 0.952840
O O10 0.186017 0.105773 0.886804
O O11 0.129368 0.001160 0.984802
O O12 0.207147 0.080302 0.558624
O O13 0.000000 0.000000 0.500000
O O14 0.297193 0.348901 0.445411
O O15 0.554495 0.250000 0.250450
O O16 0.462323 0.351297 0.344441
O O17 0.224269 0.554861 0.831975
O O18 0.725657 0.750000 0.667044
#
# Coordination Sequence:
#
# PCOD9463240 Si02
#       8
#     8   8   8   8   8   8   8   8
#     4  11  22  36  52  76 110 151 191 230 274 336
#     4  10  19  34  59  86 111 146 187 234 285 345
#     4   9  17  31  53  79 106 134 185 232 283 327
#     4  11  23  37  53  76 117 150 196 239 282 333
#     4   9  17  29  53  74 101 146 180 231 275 323
#     4   9  18  31  51  81 115 148 183 224 273 342
#     4  10  22  34  53  78 109 148 188 232 281 330
#     4   9  16  30  50  79 114 145 179 222 276 335
#
# _framework density 21.111522000000001
#
# number of rings (size 3 to 8) (size 9 to 14) (size 15 to 20)
#    0.000    2.250    1.250    3.000    7.000    1.000 
#    0.000    4.375    0.000    0.000    0.000    4.375 
#    0.000    0.000    0.000    0.000    0.000    0.000 
#
# Total GULP energy -356627.450285 kJ/mol
# GULP energy per Si atom -5572.303911 kJ/mol
# Density = 2.106347 g / cm^3
# Si number density = 21.111522 Si / 1000 Ang^3
#
#
#
# Elastic Constant Matrix: (Units=GPa)
#
#
# Indices 1 2 3 4 5 6 
#
# 1 98.6462 2.0346 21.8846 0.0000 0.0000 0.0000
# 2 2.0346 11.3471 -3.3680 0.0000 0.0000 0.0000
# 3 21.8846 -3.3680 68.6085 0.0000 0.0000 0.0000
# 4 0.0000 0.0000 0.0000 -14.2069 0.0000 0.0000
# 5 0.0000 0.0000 0.0000 0.0000 31.2406 0.0000
# 6 0.0000 0.0000 0.0000 0.0000 0.0000 4.4059
#
#
#
# Elastic Compliance Matrix: (Units=1/GPa)
#
#
# Indices 1 2 3 4 5 6 
#
# 1 0.011013 -0.003062 -0.003663 0.000000 0.000000 0.000000
# 2 -0.003062 0.090283 0.005409 0.000000 0.000000 0.000000
# 3 -0.003663 0.005409 0.016009 0.000000 0.000000 0.000000
# 4 0.000000 0.000000 0.000000 -0.070388 0.000000 0.000000
# 5 0.000000 0.000000 0.000000 0.000000 0.032010 0.000000
# 6 0.000000 0.000000 0.000000 0.000000 0.000000 0.226967
#
#
# Mechanical properties :
#
#
# Convention : Reuss Voigt Hill
#
# Bulk Modulus (GPa) = 8.72052 24.41155 16.56604
# Shear Modulus (GPa) = 14.41961 14.82465 14.62213
#
# Velocity S-wave (km/s) = 2.61630 2.65279 2.63461
# Velocity P-wave (km/s) = 3.64230 4.57945 4.13749
#
# Compressibility (1/GPa) = 0.11467206
#
# Stress axis : x y z
#
# Youngs Moduli (GPa) = 90.80112 11.07634 62.46310
#
# Poissons Ratio (x) = 0.03392 0.22882
# Poissons Ratio (y) = 0.27803 -0.33785
# Poissons Ratio (z) = 0.33263 -0.05991
#
# Static dielectric constant tensor:
#      x y z
#    x 1.796900 0.000000 0.000000 
#    y 0.000000 1.785750 0.000000 
#    z 0.000000 0.000000 1.816850 
# 
# From -- ./inp_files/23320.got.cif
#   From: 2010.05.17/outbox.cif.g08.bks.cpg/sg62_12_cif.got.tgz:23320.got - 2010.06.03 15:25:27.
