data_PCOD9463553
_publ_section_title
;
Structure prediction by ZEFSAII (Michael W. Deem and Ramdas Pophale) SiO2 
 PCOD9463553
Probable space group: P N M A
;
_chemical_formula_sum "Si O2"
_cell_formula_units_Z 48
_cell_length_a 17.213469
_cell_length_b 13.780389
_cell_length_c 9.678080
_cell_angle_alpha 90.000000
_cell_angle_beta 90.000000
_cell_angle_gamma 90.000000
_cell_volume 2295.720893
_symmetry_space_group_name_H-M "P N M A"
_symmetry_group_IT_number 62
_symmetry_cell_setting 'orthorhombic'
loop_
_space_group_symop_operation_xyz
x,y,z
1/2-x,-y,1/2+z
1/2+x,1/2-y,1/2-z
-x,1/2+y,-z
-x,-y,-z
1/2+x,y,1/2-z
1/2-x,1/2+y,1/2+z
x,1/2-y,z
loop_
_atom_site_type_symbol
_atom_site_label
_atom_site_fract_x
_atom_site_fract_y
_atom_site_fract_z
Si Si1 0.429023 0.355916 0.717000
Si Si2 0.427989 0.540850 0.586847
Si Si3 0.647087 0.859499 0.982367
Si Si4 0.905012 0.633132 0.348100
Si Si5 0.695858 0.133628 0.604236
Si Si6 0.013112 0.132547 0.369345
O O1 0.425127 0.250000 0.649653
O O2 0.387649 0.440547 0.633859
O O3 0.392520 0.349855 0.867970
O O4 0.518564 0.380270 0.752327
O O5 0.500000 0.500000 0.500000
O O6 0.374984 0.610064 0.496835
O O7 0.454884 0.593831 0.725965
O O8 0.663372 0.750000 0.927741
O O9 0.728493 0.907518 0.024565
O O10 0.576765 0.900938 0.890144
O O11 0.894948 0.750000 0.360535
O O12 0.831501 0.597584 0.256877
O O13 0.931702 0.601001 0.501896
O O14 0.708084 0.250000 0.617008
O O15 0.011092 0.250000 0.371976
#
# Coordination Sequence:
#
# PCOD9463553 Si02
#       6
#     8   8   8   8   8   8
#     4   9  18  36  55  77 109 147 194 234 278 345
#     4  12  23  34  53  90 117 154 198 243 295 337
#     4   8  17  36  61  81 107 155 193 229 295 353
#     4   8  15  31  57  81 106 144 187 232 280 342
#     4  10  19  36  60  86 117 147 188 242 296 352
#     4   9  19  37  60  85 115 153 197 239 291 355
#
# _framework density 20.908466000000001
#
# number of rings (size 3 to 8) (size 9 to 14) (size 15 to 20)
#    0.000    2.667    1.667    2.500    0.000    3.333 
#    3.000    0.000    0.000    0.000    0.000    0.000 
#    0.000    0.000    0.000    0.000    0.000    0.000 
#
# Total GULP energy -267258.981211 kJ/mol
# GULP energy per Si atom -5567.895442 kJ/mol
# Density = 2.086088 g / cm^3
# Si number density = 20.908466 Si / 1000 Ang^3
#
#
#
# Elastic Constant Matrix: (Units=GPa)
#
#
# Indices 1 2 3 4 5 6 
#
# 1 94.4486 0.0161 50.3899 0.0000 0.0000 0.0000
# 2 0.0161 40.9513 7.1595 0.0000 0.0000 0.0000
# 3 50.3899 7.1595 113.1102 0.0000 0.0000 0.0000
# 4 0.0000 0.0000 0.0000 23.2104 0.0000 0.0000
# 5 0.0000 0.0000 0.0000 0.0000 16.2649 0.0000
# 6 0.0000 0.0000 0.0000 0.0000 0.0000 11.0214
#
#
#
# Elastic Compliance Matrix: (Units=1/GPa)
#
#
# Indices 1 2 3 4 5 6 
#
# 1 0.013937 0.001092 -0.006278 0.000000 0.000000 0.000000
# 2 0.001092 0.024778 -0.002055 0.000000 0.000000 0.000000
# 3 -0.006278 -0.002055 0.011768 0.000000 0.000000 0.000000
# 4 0.000000 0.000000 0.000000 0.043084 0.000000 0.000000
# 5 0.000000 0.000000 0.000000 0.000000 0.061482 0.000000
# 6 0.000000 0.000000 0.000000 0.000000 0.000000 0.090733
#
#
# Mechanical properties :
#
#
# Convention : Reuss Voigt Hill
#
# Bulk Modulus (GPa) = 27.77675 40.40458 34.09067
# Shear Modulus (GPa) = 18.36455 22.82897 20.59676
#
# Velocity S-wave (km/s) = 2.96688 3.30790 3.14202
# Velocity P-wave (km/s) = 5.00502 5.82719 5.43168
#
# Compressibility (1/GPa) = 0.03600133
#
# Stress axis : x y z
#
# Youngs Moduli (GPa) = 71.75153 40.35823 84.97761
#
# Poissons Ratio (x) = -0.04407 0.53349
# Poissons Ratio (y) = -0.07836 0.17462
# Poissons Ratio (z) = 0.45045 0.08293
#
# Static dielectric constant tensor:
#      x y z
#    x 1.812500 0.000000 0.000000 
#    y 0.000000 1.862510 0.000000 
#    z 0.000000 0.000000 1.783220 
# 
# From -- ./inp_files/7658.got.cif
#   From: 2010.05.17/outbox.cif.g08.bks.cpg/sg62_4_cif.got.tgz:7658.got - 2010.06.03 15:25:27.
