data_PCOD9463911
_publ_section_title
;
Structure prediction by ZEFSAII (Michael W. Deem and Ramdas Pophale) SiO2 
 PCOD9463911
Probable space group: P N M A
;
_chemical_formula_sum "Si O2"
_cell_formula_units_Z 40
_cell_length_a 19.099735
_cell_length_b 8.397167
_cell_length_c 14.021380
_cell_angle_alpha 90.000000
_cell_angle_beta 90.000000
_cell_angle_gamma 90.000000
_cell_volume 2248.800305
_symmetry_space_group_name_H-M "P N M A"
_symmetry_group_IT_number 62
_symmetry_cell_setting 'orthorhombic'
loop_
_space_group_symop_operation_xyz
x,y,z
1/2-x,-y,1/2+z
1/2+x,1/2-y,1/2-z
-x,1/2+y,-z
-x,-y,-z
1/2+x,y,1/2-z
1/2-x,1/2+y,1/2+z
x,1/2-y,z
loop_
_atom_site_type_symbol
_atom_site_label
_atom_site_fract_x
_atom_site_fract_y
_atom_site_fract_z
Si Si1 0.285748 0.057589 0.105127
Si Si2 0.855894 0.441046 0.801298
Si Si3 0.999474 0.940835 0.891482
Si Si4 0.144507 0.557348 0.798747
Si Si5 0.714036 0.557733 0.107515
O O1 0.285861 0.250000 0.105002
O O2 0.336570 0.004746 0.191003
O O3 0.207966 0.001371 0.133120
O O4 0.304529 0.002301 0.998822
O O5 0.856022 0.250000 0.803557
O O6 0.929595 0.502503 0.838785
O O7 0.836591 0.494919 0.693573
O O8 0.000377 0.750000 0.892216
O O9 0.069762 0.997534 0.837676
O O10 0.000000 0.000000 0.000000
O O11 0.145127 0.750000 0.800185
O O12 0.208113 0.498115 0.864561
O O13 0.713666 0.750000 0.107481
#
# Coordination Sequence:
#
# PCOD9463911 Si02
#       5
#     8   8   8   8   8
#     4   9  17  33  54  73  95 128 165 203 244 287
#     4  10  20  33  49  74 103 129 160 200 242 291
#     4  11  22  35  51  73 100 131 163 201 247 294
#     4   9  19  33  50  72  98 126 162 203 242 286
#     4   9  18  32  52  74  97 126 161 199 242 288
#
# _framework density 17.787261000000001
#
# number of rings (size 3 to 8) (size 9 to 14) (size 15 to 20)
#    0.000    2.400    0.000    2.400    0.000    6.400 
#    0.000    1.000    0.000    0.000    0.000    0.000 
#    0.000    0.000    0.000    0.000    0.000    0.000 
#
# Total GULP energy -223152.015533 kJ/mol
# GULP energy per Si atom -5578.800388 kJ/mol
# Density = 1.774678 g / cm^3
# Si number density = 17.787261 Si / 1000 Ang^3
#
#
#
# Elastic Constant Matrix: (Units=GPa)
#
#
# Indices 1 2 3 4 5 6 
#
# 1 145.6629 12.9246 89.3591 0.0000 0.0000 0.0000
# 2 12.9246 9.9361 18.4787 0.0000 0.0000 0.0000
# 3 89.3591 18.4787 169.4079 0.0000 0.0000 0.0000
# 4 0.0000 0.0000 0.0000 22.1321 0.0000 0.0000
# 5 0.0000 0.0000 0.0000 0.0000 13.8222 0.0000
# 6 0.0000 0.0000 0.0000 0.0000 0.0000 24.0268
#
#
#
# Elastic Compliance Matrix: (Units=1/GPa)
#
#
# Indices 1 2 3 4 5 6 
#
# 1 0.010282 -0.004125 -0.004974 0.000000 0.000000 0.000000
# 2 -0.004125 0.127911 -0.011776 0.000000 0.000000 0.000000
# 3 -0.004974 -0.011776 0.009811 0.000000 0.000000 0.000000
# 4 0.000000 0.000000 0.000000 0.045183 0.000000 0.000000
# 5 0.000000 0.000000 0.000000 0.000000 0.072347 0.000000
# 6 0.000000 0.000000 0.000000 0.000000 0.000000 0.041620
#
#
# Mechanical properties :
#
#
# Convention : Reuss Voigt Hill
#
# Bulk Modulus (GPa) = 9.41145 62.94796 36.17970
# Shear Modulus (GPa) = 13.00988 25.61251 19.31120
#
# Velocity S-wave (km/s) = 2.70740 3.79877 3.29853
# Velocity P-wave (km/s) = 3.88278 7.39642 5.90690
#
# Compressibility (1/GPa) = 0.10625360
#
# Stress axis : x y z
#
# Youngs Moduli (GPa) = 97.25310 7.81796 101.92599
#
# Poissons Ratio (x) = 0.03225 0.50696
# Poissons Ratio (y) = 0.40118 1.20032
# Poissons Ratio (z) = 0.48372 0.09207
#
# Static dielectric constant tensor:
#      x y z
#    x 1.571160 0.000000 0.000000 
#    y 0.000000 1.614490 0.000000 
#    z 0.000000 0.000000 1.649980 
# 
# From -- ./inp_files/13856.got.cif
#   From: 2010.05.17/outbox.cif.g08.bks.cpg/sg62_7_cif.got.tgz:13856.got - 2010.06.03 15:25:27.
