data_PCOD9463945
_publ_section_title
;
Structure prediction by ZEFSAII (Michael W. Deem and Ramdas Pophale) SiO2 
 PCOD9463945
Probable space group: P N M A
;
_chemical_formula_sum "Si O2"
_cell_formula_units_Z 64
_cell_length_a 22.219226
_cell_length_b 7.459365
_cell_length_c 17.603943
_cell_angle_alpha 90.000000
_cell_angle_beta 90.000000
_cell_angle_gamma 90.000000
_cell_volume 2917.700693
_symmetry_space_group_name_H-M "P N M A"
_symmetry_group_IT_number 62
_symmetry_cell_setting 'orthorhombic'
loop_
_space_group_symop_operation_xyz
x,y,z
1/2-x,-y,1/2+z
1/2+x,1/2-y,1/2-z
-x,1/2+y,-z
-x,-y,-z
1/2+x,y,1/2-z
1/2-x,1/2+y,1/2+z
x,1/2-y,z
loop_
_atom_site_type_symbol
_atom_site_label
_atom_site_fract_x
_atom_site_fract_y
_atom_site_fract_z
Si Si1 0.547590 0.468583 0.401053
Si Si2 0.088583 0.044604 0.937720
Si Si3 0.900143 0.037433 0.625327
Si Si4 0.370074 0.532214 0.282299
Si Si5 0.968626 0.538391 0.334813
Si Si6 0.271420 0.461436 0.157395
Si Si7 0.630923 0.533015 0.959187
Si Si8 0.645652 0.034277 0.284713
O O1 0.543459 0.250000 0.403135
O O2 0.582776 0.529860 0.477379
O O3 0.480084 0.540055 0.406623
O O4 0.585265 0.525791 0.327919
O O5 0.108415 0.250000 0.947652
O O6 0.127491 0.966252 0.868932
O O7 0.908638 0.250000 0.613738
O O8 0.965361 0.962113 0.649897
O O9 0.876402 0.967265 0.545009
O O10 0.856552 0.012751 0.696465
O O11 0.372439 0.750000 0.284158
O O12 0.428567 0.466531 0.234905
O O13 0.312498 0.481743 0.232501
O O14 0.975486 0.750000 0.320102
O O15 0.927525 0.515091 0.409418
O O16 0.263936 0.250000 0.142789
O O17 0.311214 0.534668 0.087844
O O18 0.205405 0.535154 0.173908
O O19 0.634569 0.750000 0.959714
O O20 0.646035 0.250000 0.289843
#
# Coordination Sequence:
#
# PCOD9463945 Si02
#       8
#     8   8   8   8   8   8   8   8
#     4   9  18  32  50  73 100 132 166 201 247 300
#     4   9  17  31  51  77 104 128 161 205 250 295
#     4  10  20  33  51  78 104 127 163 207 249 296
#     4   9  17  30  49  74  99 129 165 201 244 292
#     4   9  17  29  48  75 108 135 156 195 248 297
#     4   9  19  36  52  67  96 133 167 206 246 287
#     4   9  18  33  52  75 100 130 167 203 243 293
#     4  10  21  36  51  69  98 135 171 206 249 295
#
# _framework density 21.935082999999999
#
# number of rings (size 3 to 8) (size 9 to 14) (size 15 to 20)
#    0.000    2.750    0.000    1.125    0.000    3.500 
#    2.250    2.500    0.000    0.000    0.000    0.000 
#    0.000    0.000    0.000    0.000    0.000    0.000 
#
# Total GULP energy -357191.337754 kJ/mol
# GULP energy per Si atom -5581.114652 kJ/mol
# Density = 2.188516 g / cm^3
# Si number density = 21.935083 Si / 1000 Ang^3
#
#
#
# Elastic Constant Matrix: (Units=GPa)
#
#
# Indices 1 2 3 4 5 6 
#
# 1 43.9478 -11.9751 1.4196 0.0000 0.0000 0.0000
# 2 -11.9751 63.9667 -15.1411 0.0000 0.0000 0.0000
# 3 1.4196 -15.1411 82.2291 0.0000 0.0000 0.0000
# 4 0.0000 0.0000 0.0000 -2.1096 0.0000 0.0000
# 5 0.0000 0.0000 0.0000 0.0000 9.0463 0.0000
# 6 0.0000 0.0000 0.0000 0.0000 0.0000 2.7810
#
#
#
# Elastic Compliance Matrix: (Units=1/GPa)
#
#
# Indices 1 2 3 4 5 6 
#
# 1 0.023992 0.004594 0.000432 0.000000 0.000000 0.000000
# 2 0.004594 0.017225 0.003092 0.000000 0.000000 0.000000
# 3 0.000432 0.003092 0.012723 0.000000 0.000000 0.000000
# 4 0.000000 0.000000 0.000000 -0.474017 0.000000 0.000000
# 5 0.000000 0.000000 0.000000 0.000000 0.110542 0.000000
# 6 0.000000 0.000000 0.000000 0.000000 0.000000 0.359585
#
#
# Mechanical properties :
#
#
# Convention : Reuss Voigt Hill
#
# Bulk Modulus (GPa) = 14.24995 15.41671 14.83333
# Shear Modulus (GPa) = 87.40256 16.33289 51.86772
#
# Velocity S-wave (km/s) = 6.31922 2.73170 4.86799
# Velocity P-wave (km/s) = 7.73006 4.12228 6.19464
#
# Compressibility (1/GPa) = 0.07017567
#
# Stress axis : x y z
#
# Youngs Moduli (GPa) = 41.68055 58.05488 78.59711
#
# Poissons Ratio (x) = -0.26668 -0.03393
# Poissons Ratio (y) = -0.19147 -0.24305
# Poissons Ratio (z) = -0.01799 -0.17953
#
# Static dielectric constant tensor:
#      x y z
#    x 1.774860 0.000000 0.000000 
#    y 0.000000 1.883800 0.000000 
#    z 0.000000 0.000000 1.804610 
# 
# From -- ./inp_files/24943.got.cif
#   From: 2010.05.17/outbox.cif.g08.bks.cpg/sg62_13_cif.got.tgz:24943.got - 2010.06.03 15:25:27.
