data_PCOD9463310
_publ_section_title
;
Structure prediction by ZEFSAII (Michael W. Deem and Ramdas Pophale) SiO2 
 PCOD9463310
Probable space group: P N M A
;
_chemical_formula_sum "Si O2"
_cell_formula_units_Z 32
_cell_length_a 8.974701
_cell_length_b 15.661734
_cell_length_c 12.240524
_cell_angle_alpha 90.000000
_cell_angle_beta 90.000000
_cell_angle_gamma 90.000000
_cell_volume 1720.520462
_symmetry_space_group_name_H-M "P N M A"
_symmetry_group_IT_number 62
_symmetry_cell_setting 'orthorhombic'
loop_
_space_group_symop_operation_xyz
x,y,z
1/2-x,-y,1/2+z
1/2+x,1/2-y,1/2-z
-x,1/2+y,-z
-x,-y,-z
1/2+x,y,1/2-z
1/2-x,1/2+y,1/2+z
x,1/2-y,z
loop_
_atom_site_type_symbol
_atom_site_label
_atom_site_fract_x
_atom_site_fract_y
_atom_site_fract_z
Si Si1 0.172114 0.989879 0.365835
Si Si2 0.134185 0.413375 0.690086
Si Si3 0.708731 0.653482 0.517490
Si Si4 0.113379 0.347835 0.923991
O O1 0.217933 0.082272 0.406883
O O2 0.241449 0.973350 0.245707
O O3 0.258223 0.918420 0.439205
O O4 0.999196 0.967939 0.360761
O O5 0.208708 0.355471 0.598823
O O6 0.074854 0.359904 0.794681
O O7 0.722731 0.750000 0.558526
O O8 0.534136 0.635232 0.494350
O O9 0.161465 0.250000 0.941600
#
# Coordination Sequence:
#
# PCOD9463310 Si02
#       4
#     8   8   8   8
#     4  10  21  35  56  84 112 144 180 225 274 322
#     4  10  19  35  57  78 112 138 183 225 275 312
#     4  11  21  36  57  84 111 143 183 226 269 323
#     4   9  18  33  56  82 108 139 177 223 270 316
#
# _framework density 18.599022999999999
#
# number of rings (size 3 to 8) (size 9 to 14) (size 15 to 20)
#    1.500    0.500    2.500    2.250    0.000    2.000 
#    0.000    1.250    0.000    1.500    0.000    0.000 
#    0.000    0.000    0.000    0.000    0.000    0.000 
#
# Total GULP energy -178229.211606 kJ/mol
# GULP energy per Si atom -5569.662863 kJ/mol
# Density = 1.855669 g / cm^3
# Si number density = 18.599023 Si / 1000 Ang^3
#
#
#
# Elastic Constant Matrix: (Units=GPa)
#
#
# Indices 1 2 3 4 5 6 
#
# 1 54.6785 8.6002 -3.5902 0.0000 0.0000 0.0000
# 2 8.6002 74.4188 10.9866 0.0000 0.0000 0.0000
# 3 -3.5902 10.9866 9.7644 0.0000 0.0000 0.0000
# 4 0.0000 0.0000 0.0000 5.8222 0.0000 0.0000
# 5 0.0000 0.0000 0.0000 0.0000 14.7307 0.0000
# 6 0.0000 0.0000 0.0000 0.0000 0.0000 9.9491
#
#
#
# Elastic Compliance Matrix: (Units=1/GPa)
#
#
# Indices 1 2 3 4 5 6 
#
# 1 0.019691 -0.004011 0.011753 0.000000 0.000000 0.000000
# 2 -0.004011 0.016931 -0.020525 0.000000 0.000000 0.000000
# 3 0.011753 -0.020525 0.129829 0.000000 0.000000 0.000000
# 4 0.000000 0.000000 0.000000 0.171755 0.000000 0.000000
# 5 0.000000 0.000000 0.000000 0.000000 0.067885 0.000000
# 6 0.000000 0.000000 0.000000 0.000000 0.000000 0.100512
#
#
# Mechanical properties :
#
#
# Convention : Reuss Voigt Hill
#
# Bulk Modulus (GPa) = 7.09798 18.98389 13.04094
# Shear Modulus (GPa) = 8.63362 14.29142 11.46252
#
# Velocity S-wave (km/s) = 2.15686 2.77500 2.48523
# Velocity P-wave (km/s) = 3.16660 4.52732 3.90666
#
# Compressibility (1/GPa) = 0.14088517
#
# Stress axis : x y z
#
# Youngs Moduli (GPa) = 50.78406 59.06274 7.70244
#
# Poissons Ratio (x) = 0.23688 -0.09053
# Poissons Ratio (y) = 0.20368 0.15809
# Poissons Ratio (z) = -0.59686 1.21227
#
# Static dielectric constant tensor:
#      x y z
#    x 1.630900 0.000000 0.000000 
#    y 0.000000 1.621290 0.000000 
#    z 0.000000 0.000000 1.660370 
# 
# From -- ./inp_files/10940.got.cif
#   From: 2010.05.17/outbox.cif.g08.bks.cpg/sg62_6_cif.got.tgz:10940.got - 2010.06.03 15:25:27.
