data_PCOD9463346
_publ_section_title
;
Structure prediction by ZEFSAII (Michael W. Deem and Ramdas Pophale) SiO2 
 PCOD9463346
Probable space group: P N M A
;
_chemical_formula_sum "Si O2"
_cell_formula_units_Z 64
_cell_length_a 19.710203
_cell_length_b 12.858840
_cell_length_c 15.088553
_cell_angle_alpha 90.000000
_cell_angle_beta 90.000000
_cell_angle_gamma 90.000000
_cell_volume 3824.198990
_symmetry_space_group_name_H-M "P N M A"
_symmetry_group_IT_number 62
_symmetry_cell_setting 'orthorhombic'
loop_
_space_group_symop_operation_xyz
x,y,z
1/2-x,-y,1/2+z
1/2+x,1/2-y,1/2-z
-x,1/2+y,-z
-x,-y,-z
1/2+x,y,1/2-z
1/2-x,1/2+y,1/2+z
x,1/2-y,z
loop_
_atom_site_type_symbol
_atom_site_label
_atom_site_fract_x
_atom_site_fract_y
_atom_site_fract_z
Si Si1 0.047415 0.127471 0.138499
Si Si2 0.427920 0.511533 0.281049
Si Si3 0.897185 0.491497 0.551398
Si Si4 0.345866 0.628226 0.790812
Si Si5 0.700251 0.873361 0.774566
Si Si6 0.383206 0.624642 0.459079
Si Si7 0.267490 0.373485 0.018199
Si Si8 0.467028 0.625594 0.099982
O O1 0.028855 0.250000 0.138132
O O2 0.115730 0.118014 0.197089
O O3 0.065919 0.094249 0.038752
O O4 0.989281 0.060822 0.184935
O O5 0.365160 0.439962 0.249931
O O6 0.404282 0.578733 0.365168
O O7 0.451255 0.581825 0.198063
O O8 0.885407 0.561987 0.637224
O O9 0.827807 0.432885 0.530044
O O10 0.918702 0.565265 0.469577
O O11 0.957585 0.410428 0.570849
O O12 0.348318 0.750000 0.814730
O O13 0.267204 0.597865 0.781447
O O14 0.687060 0.750000 0.762087
O O15 0.721032 0.888565 0.876971
O O16 0.383788 0.750000 0.455835
O O17 0.307009 0.592172 0.486760
O O18 0.272611 0.250000 0.001213
O O19 0.459608 0.750000 0.095813
#
# Coordination Sequence:
#
# PCOD9463346 Si02
#       8
#     8   8   8   8   8   8   8   8
#     4  10  20  36  57  83 109 139 188 234 273 327
#     4  12  21  37  55  85 112 152 182 224 286 334
#     4  11  21  38  55  81 108 149 186 221 287 329
#     4  10  19  35  59  82 108 141 182 231 277 326
#     4  10  20  35  57  85 113 140 184 237 278 323
#     4  10  21  37  59  82 110 148 187 230 275 329
#     4  10  19  35  58  82 107 142 189 231 271 328
#     4  11  24  37  52  80 117 147 184 228 275 342
#
# _framework density 16.735530000000001
#
# number of rings (size 3 to 8) (size 9 to 14) (size 15 to 20)
#    0.000    1.500    3.750    2.625    0.000    0.000 
#    0.000    0.000    0.000    0.000    0.000    0.000 
#    0.000    0.000    0.000    0.000    0.000    0.000 
#
# Total GULP energy -357217.301523 kJ/mol
# GULP energy per Si atom -5581.520336 kJ/mol
# Density = 1.669744 g / cm^3
# Si number density = 16.735530 Si / 1000 Ang^3
#
#
#
# Elastic Constant Matrix: (Units=GPa)
#
#
# Indices 1 2 3 4 5 6 
#
# 1 89.4002 43.7923 27.8581 0.0000 0.0000 0.0000
# 2 43.7923 65.3310 45.8840 0.0000 0.0000 0.0000
# 3 27.8581 45.8840 107.8791 0.0000 0.0000 0.0000
# 4 0.0000 0.0000 0.0000 31.5507 0.0000 0.0000
# 5 0.0000 0.0000 0.0000 0.0000 30.4084 0.0000
# 6 0.0000 0.0000 0.0000 0.0000 0.0000 27.1336
#
#
#
# Elastic Compliance Matrix: (Units=1/GPa)
#
#
# Indices 1 2 3 4 5 6 
#
# 1 0.016685 -0.011633 0.000639 0.000000 0.000000 0.000000
# 2 -0.011633 0.029938 -0.009729 0.000000 0.000000 0.000000
# 3 0.000639 -0.009729 0.013243 0.000000 0.000000 0.000000
# 4 0.000000 0.000000 0.000000 0.031695 0.000000 0.000000
# 5 0.000000 0.000000 0.000000 0.000000 0.032886 0.000000
# 6 0.000000 0.000000 0.000000 0.000000 0.000000 0.036855
#
#
# Mechanical properties :
#
#
# Convention : Reuss Voigt Hill
#
# Bulk Modulus (GPa) = 54.29160 55.29767 54.79464
# Shear Modulus (GPa) = 23.93647 27.49028 25.71337
#
# Velocity S-wave (km/s) = 3.78601 4.05733 3.92402
# Velocity P-wave (km/s) = 7.18492 7.42045 7.30364
#
# Compressibility (1/GPa) = 0.01841905
#
# Stress axis : x y z
#
# Youngs Moduli (GPa) = 59.93457 33.40278 75.51337
#
# Poissons Ratio (x) = 0.38858 -0.04827
# Poissons Ratio (y) = 0.69722 0.73469
# Poissons Ratio (z) = -0.03831 0.32498
#
# Static dielectric constant tensor:
#      x y z
#    x 1.551750 0.000000 0.000000 
#    y 0.000000 1.533210 0.000000 
#    z 0.000000 0.000000 1.552320 
# 
# From -- ./inp_files/14355.got.cif
#   From: 2010.05.17/outbox.cif.g08.bks.cpg/sg62_8_cif.got.tgz:14355.got - 2010.06.03 15:25:27.
