data_PCOD9463795
_publ_section_title
;
Structure prediction by ZEFSAII (Michael W. Deem and Ramdas Pophale) SiO2 
 PCOD9463795
Probable space group: P N M A
;
_chemical_formula_sum "Si O2"
_cell_formula_units_Z 64
_cell_length_a 34.669208
_cell_length_b 7.365562
_cell_length_c 12.498598
_cell_angle_alpha 90.000000
_cell_angle_beta 90.000000
_cell_angle_gamma 90.000000
_cell_volume 3191.619500
_symmetry_space_group_name_H-M "P N M A"
_symmetry_group_IT_number 62
_symmetry_cell_setting 'orthorhombic'
loop_
_space_group_symop_operation_xyz
x,y,z
1/2-x,-y,1/2+z
1/2+x,1/2-y,1/2-z
-x,1/2+y,-z
-x,-y,-z
1/2+x,y,1/2-z
1/2-x,1/2+y,1/2+z
x,1/2-y,z
loop_
_atom_site_type_symbol
_atom_site_label
_atom_site_fract_x
_atom_site_fract_y
_atom_site_fract_z
Si Si1 0.180188 0.971712 0.127302
Si Si2 0.263910 0.030534 0.815460
Si Si3 0.821015 0.459989 0.113368
Si Si4 0.612751 0.970471 0.218527
Si Si5 0.632092 0.527221 0.810372
Si Si6 0.949033 0.037707 0.398628
Si Si7 0.966685 0.469128 0.638405
Si Si8 0.330632 0.470196 0.971639
O O1 0.181452 0.750000 0.127795
O O2 0.214815 0.028473 0.206411
O O3 0.140251 0.027132 0.184565
O O4 0.182489 0.037418 0.005952
O O5 0.263395 0.250000 0.815632
O O6 0.291104 0.971522 0.914793
O O7 0.220704 0.966557 0.831116
O O8 0.831989 0.250000 0.097581
O O9 0.851548 0.537721 0.197375
O O10 0.612640 0.750000 0.219856
O O11 0.568483 0.029868 0.213263
O O12 0.634820 0.022824 0.109064
O O13 0.632756 0.750000 0.807759
O O14 0.588842 0.466926 0.839821
O O15 0.659710 0.470986 0.908816
O O16 0.940959 0.250000 0.415602
O O17 0.956793 0.963324 0.517960
O O18 0.989498 0.021743 0.336933
O O19 0.966421 0.250000 0.636627
O O20 0.330086 0.250000 0.972518
#
# Coordination Sequence:
#
# PCOD9463795 Si02
#       8
#     8   8   8   8   8   8   8   8
#     4   8  16  30  45  65  90 115 147 187 222 255
#     4   9  18  31  48  65  86 117 149 182 223 268
#     4  10  20  31  46  67  90 115 148 190 226 256
#     4   8  12  23  44  64  83 111 146 179 210 252
#     4   9  16  27  43  64  88 117 148 179 215 259
#     4   9  16  26  41  63  92 115 138 176 221 265
#     4   9  15  24  43  68  87 109 142 180 218 258
#     4   8  13  24  43  64  82 108 149 182 204 250
#
# _framework density 20.052516000000001
#
# number of rings (size 3 to 8) (size 9 to 14) (size 15 to 20)
#    0.000    3.250    1.250    1.500    1.750    0.000 
#    0.000    0.625    0.000    5.250    0.000    0.000 
#    0.000    0.000    0.000    0.000    0.000    0.000 
#
# Total GULP energy -356888.120705 kJ/mol
# GULP energy per Si atom -5576.376886 kJ/mol
# Density = 2.000688 g / cm^3
# Si number density = 20.052516 Si / 1000 Ang^3
#
#
#
# Elastic Constant Matrix: (Units=GPa)
#
#
# Indices 1 2 3 4 5 6 
#
# 1 107.4351 -11.2699 57.0517 0.0000 0.0000 0.0000
# 2 -11.2699 69.1501 1.7373 0.0000 0.0000 0.0000
# 3 57.0517 1.7373 132.4955 0.0000 0.0000 0.0000
# 4 0.0000 0.0000 0.0000 -10.9360 0.0000 0.0000
# 5 0.0000 0.0000 0.0000 0.0000 19.5057 0.0000
# 6 0.0000 0.0000 0.0000 0.0000 0.0000 14.6450
#
#
#
# Elastic Compliance Matrix: (Units=1/GPa)
#
#
# Indices 1 2 3 4 5 6 
#
# 1 0.012379 0.002152 -0.005359 0.000000 0.000000 0.000000
# 2 0.002152 0.014840 -0.001121 0.000000 0.000000 0.000000
# 3 -0.005359 -0.001121 0.009870 0.000000 0.000000 0.000000
# 4 0.000000 0.000000 0.000000 -0.091441 0.000000 0.000000
# 5 0.000000 0.000000 0.000000 0.000000 0.051267 0.000000
# 6 0.000000 0.000000 0.000000 0.000000 0.000000 0.068283
#
#
# Mechanical properties :
#
#
# Convention : Reuss Voigt Hill
#
# Bulk Modulus (GPa) = 35.16978 44.90211 40.03594
# Shear Modulus (GPa) = 60.00142 22.08037 41.04090
#
# Velocity S-wave (km/s) = 5.47605 3.32192 4.52892
# Velocity P-wave (km/s) = 7.58681 6.09544 6.88165
#
# Compressibility (1/GPa) = 0.02843350
#
# Stress axis : x y z
#
# Youngs Moduli (GPa) = 80.77966 67.38441 101.32185
#
# Poissons Ratio (x) = -0.14502 0.54295
# Poissons Ratio (y) = -0.17385 0.11361
# Poissons Ratio (z) = 0.43287 0.07556
#
# Static dielectric constant tensor:
#      x y z
#    x 1.705210 0.000000 0.000000 
#    y 0.000000 1.785940 0.000000 
#    z 0.000000 0.000000 1.692000 
# 
# From -- ./inp_files/15596.got.cif
#   From: 2010.05.17/outbox.cif.g08.bks.cpg/sg62_8_cif.got.tgz:15596.got - 2010.06.03 15:25:27.
