data_PCOD9463785
_publ_section_title
;
Structure prediction by ZEFSAII (Michael W. Deem and Ramdas Pophale) SiO2 
 PCOD9463785
Probable space group: P N M A
;
_chemical_formula_sum "Si O2"
_cell_formula_units_Z 64
_cell_length_a 9.373289
_cell_length_b 17.767761
_cell_length_c 16.927012
_cell_angle_alpha 90.000000
_cell_angle_beta 90.000000
_cell_angle_gamma 90.000000
_cell_volume 2819.064505
_symmetry_space_group_name_H-M "P N M A"
_symmetry_group_IT_number 62
_symmetry_cell_setting 'orthorhombic'
loop_
_space_group_symop_operation_xyz
x,y,z
1/2-x,-y,1/2+z
1/2+x,1/2-y,1/2-z
-x,1/2+y,-z
-x,-y,-z
1/2+x,y,1/2-z
1/2-x,1/2+y,1/2+z
x,1/2-y,z
loop_
_atom_site_type_symbol
_atom_site_label
_atom_site_fract_x
_atom_site_fract_y
_atom_site_fract_z
Si Si1 0.443392 0.337702 0.089213
Si Si2 0.793918 0.839090 0.306663
Si Si3 0.517415 0.044520 0.879686
Si Si4 0.214358 0.339104 0.210401
Si Si5 0.712848 0.945755 0.997053
Si Si6 0.494663 0.925197 0.294924
Si Si7 0.986069 0.938633 0.904312
Si Si8 0.750984 0.660804 0.601680
O O1 0.468470 0.250000 0.092611
O O2 0.369559 0.356285 0.172517
O O3 0.328614 0.360057 0.024539
O O4 0.598440 0.369141 0.068770
O O5 0.779251 0.750000 0.313019
O O6 0.643127 0.881998 0.309781
O O7 0.901820 0.874557 0.372017
O O8 0.871405 0.864859 0.225031
O O9 0.498414 0.027328 0.787199
O O10 0.622467 0.992069 0.930480
O O11 0.363902 0.041652 0.920523
O O12 0.181892 0.250000 0.196338
O O13 0.103547 0.390473 0.162098
O O14 0.227237 0.349180 0.303866
O O15 0.875413 0.955152 0.974474
O O16 0.467219 0.984655 0.362621
O O17 0.120087 0.888182 0.927866
O O18 0.727389 0.750000 0.586515
#
# Coordination Sequence:
#
# PCOD9463785 Si02
#       8
#     8   8   8   8   8   8   8   8
#     4   9  19  32  50  76 108 155 198 228 270 335
#     4  10  21  40  64  91 117 147 198 261 311 356
#     4   9  22  38  62  85 116 149 193 238 304 359
#     4   9  18  30  46  75 114 156 197 232 275 332
#     4  10  20  40  58  83 117 154 193 241 286 364
#     4  10  22  37  61  95 115 149 197 249 306 358
#     4  11  20  31  58  87 118 153 194 243 294 353
#     4  10  20  30  46  77 120 156 188 234 282 332
#
# _framework density 22.702566000000001
#
# number of rings (size 3 to 8) (size 9 to 14) (size 15 to 20)
#    0.750    1.500    1.250    1.500    7.000    3.000 
#    0.000    0.000    2.750    2.250    0.000    0.000 
#    0.000    0.000    0.000    0.000    0.000    0.000 
#
# Total GULP energy -357329.945267 kJ/mol
# GULP energy per Si atom -5583.280395 kJ/mol
# Density = 2.265089 g / cm^3
# Si number density = 22.702566 Si / 1000 Ang^3
#
#
#
# Elastic Constant Matrix: (Units=GPa)
#
#
# Indices 1 2 3 4 5 6 
#
# 1 109.5913 32.5688 3.2964 0.0000 0.0000 0.0000
# 2 32.5688 93.5236 10.9142 0.0000 0.0000 0.0000
# 3 3.2964 10.9142 67.0554 0.0000 0.0000 0.0000
# 4 0.0000 0.0000 0.0000 17.7972 0.0000 0.0000
# 5 0.0000 0.0000 0.0000 0.0000 24.9622 0.0000
# 6 0.0000 0.0000 0.0000 0.0000 0.0000 36.2534
#
#
#
# Elastic Compliance Matrix: (Units=1/GPa)
#
#
# Indices 1 2 3 4 5 6 
#
# 1 0.010179 -0.003554 0.000078 0.000000 0.000000 0.000000
# 2 -0.003554 0.012140 -0.001801 0.000000 0.000000 0.000000
# 3 0.000078 -0.001801 0.015202 0.000000 0.000000 0.000000
# 4 0.000000 0.000000 0.000000 0.056189 0.000000 0.000000
# 5 0.000000 0.000000 0.000000 0.000000 0.040061 0.000000
# 6 0.000000 0.000000 0.000000 0.000000 0.000000 0.027584
#
#
# Mechanical properties :
#
#
# Convention : Reuss Voigt Hill
#
# Bulk Modulus (GPa) = 37.08197 40.41435 38.74816
# Shear Modulus (GPa) = 27.64001 30.69528 29.16765
#
# Velocity S-wave (km/s) = 3.49303 3.68103 3.58826
# Velocity P-wave (km/s) = 5.71294 5.99224 5.85425
#
# Compressibility (1/GPa) = 0.02696729
#
# Stress axis : x y z
#
# Youngs Moduli (GPa) = 98.24565 82.37059 65.77909
#
# Poissons Ratio (x) = 0.29272 -0.00513
# Poissons Ratio (y) = 0.34914 0.11849
# Poissons Ratio (z) = -0.00767 0.14837
#
# Static dielectric constant tensor:
#      x y z
#    x 1.865860 0.000000 0.000000 
#    y 0.000000 1.878770 0.000000 
#    z 0.000000 0.000000 1.869790 
# 
# From -- ./inp_files/26168.got.cif
#   From: 2010.05.17/outbox.cif.g08.bks.cpg/sg62_14_cif.got.tgz:26168.got - 2010.06.03 15:25:27.
