data_PCOD9463045
_publ_section_title
;
Structure prediction by ZEFSAII (Michael W. Deem and Ramdas Pophale) SiO2 
 PCOD9463045
Probable space group: P N M A
;
_chemical_formula_sum "Si O2"
_cell_formula_units_Z 48
_cell_length_a 28.960184
_cell_length_b 8.704175
_cell_length_c 10.508467
_cell_angle_alpha 90.000000
_cell_angle_beta 90.000000
_cell_angle_gamma 90.000000
_cell_volume 2648.916665
_symmetry_space_group_name_H-M "P N M A"
_symmetry_group_IT_number 62
_symmetry_cell_setting 'orthorhombic'
loop_
_space_group_symop_operation_xyz
x,y,z
1/2-x,-y,1/2+z
1/2+x,1/2-y,1/2-z
-x,1/2+y,-z
-x,-y,-z
1/2+x,y,1/2-z
1/2-x,1/2+y,1/2+z
x,1/2-y,z
loop_
_atom_site_type_symbol
_atom_site_label
_atom_site_fract_x
_atom_site_fract_y
_atom_site_fract_z
Si Si1 0.352621 0.565233 0.751760
Si Si2 0.643201 0.934757 0.742209
Si Si3 0.195992 0.565327 0.500346
Si Si4 0.701004 0.934768 0.491435
Si Si5 0.450647 0.566587 0.349200
Si Si6 0.048828 0.434792 0.145779
O O1 0.349803 0.750000 0.759851
O O2 0.322870 0.508731 0.631507
O O3 0.405815 0.521371 0.724262
O O4 0.332593 0.490809 0.878723
O O5 0.640026 0.750000 0.741630
O O6 0.669674 0.980918 0.870232
O O7 0.672633 0.980777 0.617832
O O8 0.592109 0.002229 0.729676
O O9 0.200310 0.750000 0.498897
O O10 0.246638 0.491606 0.497621
O O11 0.699862 0.750000 0.481066
O O12 0.450261 0.750000 0.345208
O O13 0.444448 0.517832 0.497700
O O14 0.500742 0.505649 0.308407
O O15 0.044937 0.250000 0.147560
#
# Coordination Sequence:
#
# PCOD9463045 Si02
#       6
#     8   8   8   8   8   8
#     4  11  22  39  60  86 119 154 193 238 288 344
#     4  10  22  39  58  83 117 152 190 236 288 342
#     4  11  24  40  58  84 119 157 195 240 290 344
#     4  11  22  38  62  88 113 152 197 241 291 343
#     4  10  19  33  58  88 113 144 188 237 287 340
#     4   9  19  35  56  84 116 148 184 235 289 339
#
# _framework density 18.120615000000001
#
# number of rings (size 3 to 8) (size 9 to 14) (size 15 to 20)
#    0.000    1.667    1.667    3.000    0.000    5.333 
#    0.000    0.833    0.000    0.000    0.000    0.000 
#    0.000    0.000    0.000    0.000    0.000    0.000 
#
# Total GULP energy -268209.093944 kJ/mol
# GULP energy per Si atom -5587.689457 kJ/mol
# Density = 1.807937 g / cm^3
# Si number density = 18.120615 Si / 1000 Ang^3
#
#
#
# Elastic Constant Matrix: (Units=GPa)
#
#
# Indices 1 2 3 4 5 6 
#
# 1 151.8773 19.9745 48.8035 0.0000 0.0000 0.0000
# 2 19.9745 19.4982 14.1074 0.0000 0.0000 0.0000
# 3 48.8035 14.1074 98.1676 0.0000 0.0000 0.0000
# 4 0.0000 0.0000 0.0000 19.8976 0.0000 0.0000
# 5 0.0000 0.0000 0.0000 0.0000 -17.1349 0.0000
# 6 0.0000 0.0000 0.0000 0.0000 0.0000 35.4441
#
#
#
# Elastic Compliance Matrix: (Units=1/GPa)
#
#
# Indices 1 2 3 4 5 6 
#
# 1 0.008475 -0.006287 -0.003310 0.000000 0.000000 0.000000
# 2 -0.006287 0.061902 -0.005770 0.000000 0.000000 0.000000
# 3 -0.003310 -0.005770 0.012661 0.000000 0.000000 0.000000
# 4 0.000000 0.000000 0.000000 0.050257 0.000000 0.000000
# 5 0.000000 0.000000 0.000000 0.000000 -0.058360 0.000000
# 6 0.000000 0.000000 0.000000 0.000000 0.000000 0.028213
#
#
# Mechanical properties :
#
#
# Convention : Reuss Voigt Hill
#
# Bulk Modulus (GPa) = 19.11886 48.36821 33.74354
# Shear Modulus (GPa) = 33.04320 20.08521 26.56420
#
# Velocity S-wave (km/s) = 4.27490 3.33290 3.83295
# Velocity P-wave (km/s) = 5.91102 6.44681 6.18472
#
# Compressibility (1/GPa) = 0.05230437
#
# Stress axis : x y z
#
# Youngs Moduli (GPa) = 117.99947 16.15449 78.98114
#
# Poissons Ratio (x) = 0.10156 0.26140
# Poissons Ratio (y) = 0.74187 0.45574
# Poissons Ratio (z) = 0.39053 0.09322
#
# Static dielectric constant tensor:
#      x y z
#    x 1.598740 0.000000 0.000000 
#    y 0.000000 1.607580 0.000000 
#    z 0.000000 0.000000 1.602220 
# 
# From -- ./inp_files/10239.got.cif
#   From: 2010.05.17/outbox.cif.g08.bks.cpg/sg62_6_cif.got.tgz:10239.got - 2010.06.03 15:25:27.
