data_PCOD9463403
_publ_section_title
;
Structure prediction by ZEFSAII (Michael W. Deem and Ramdas Pophale) SiO2 
 PCOD9463403
Probable space group: P N M A
;
_chemical_formula_sum "Si O2"
_cell_formula_units_Z 56
_cell_length_a 20.368298
_cell_length_b 18.179228
_cell_length_c 7.512604
_cell_angle_alpha 90.000000
_cell_angle_beta 90.000000
_cell_angle_gamma 90.000000
_cell_volume 2781.766508
_symmetry_space_group_name_H-M "P N M A"
_symmetry_group_IT_number 62
_symmetry_cell_setting 'orthorhombic'
loop_
_space_group_symop_operation_xyz
x,y,z
1/2-x,-y,1/2+z
1/2+x,1/2-y,1/2-z
-x,1/2+y,-z
-x,-y,-z
1/2+x,y,1/2-z
1/2-x,1/2+y,1/2+z
x,1/2-y,z
loop_
_atom_site_type_symbol
_atom_site_label
_atom_site_fract_x
_atom_site_fract_y
_atom_site_fract_z
Si Si1 0.248265 0.337254 0.580670
Si Si2 0.009420 0.837344 0.320388
Si Si3 0.930261 0.962200 0.466891
Si Si4 0.104025 0.837501 0.015128
Si Si5 0.248330 0.409176 0.934406
Si Si6 0.184245 0.057932 0.293200
Si Si7 0.617055 0.614592 0.886802
O O1 0.245995 0.250000 0.556838
O O2 0.324698 0.362835 0.583138
O O3 0.212916 0.378126 0.419534
O O4 0.221505 0.361129 0.772435
O O5 0.995864 0.750000 0.315116
O O6 0.064028 0.853814 0.473587
O O7 0.946424 0.886782 0.367009
O O8 0.044444 0.864269 0.138107
O O9 0.891156 0.949980 0.649454
O O10 0.888743 0.025731 0.369607
O O11 0.000000 0.000000 0.500000
O O12 0.103214 0.750000 0.039731
O O13 0.102473 0.854056 0.806860
O O14 0.196656 0.426345 0.088067
O O15 0.310595 0.370933 0.034224
O O16 0.276172 0.484647 0.849809
#
# Coordination Sequence:
#
# PCOD9463403 Si02
#       7
#     8   8   8   8   8   8   8
#     4  11  23  37  58  95 128 153 195 249 308 371
#     4  10  20  37  58  80 119 161 197 245 294 350
#     4   9  22  40  59  86 114 157 207 243 285 349
#     4  10  20  33  57  90 118 151 195 244 302 357
#     4  11  21  37  62  89 122 155 193 246 310 367
#     4  11  22  39  63  89 121 158 196 245 306 365
#     4  10  19  35  59  89 114 148 199 251 297 350
#
# _framework density 20.131093
#
# number of rings (size 3 to 8) (size 9 to 14) (size 15 to 20)
#    0.000    1.714    4.286    0.429    0.000    2.286 
#    0.000    2.857    0.000    0.000    0.000    0.000 
#    0.000    0.000    0.000    0.000    0.000    0.000 
#
# Total GULP energy -312657.575453 kJ/mol
# GULP energy per Si atom -5583.170990 kJ/mol
# Density = 2.008527 g / cm^3
# Si number density = 20.131093 Si / 1000 Ang^3
#
#
#
# Elastic Constant Matrix: (Units=GPa)
#
#
# Indices 1 2 3 4 5 6 
#
# 1 19.7817 -3.8036 -15.8137 0.0000 0.0000 0.0000
# 2 -3.8036 51.8000 -15.5844 0.0000 0.0000 0.0000
# 3 -15.8137 -15.5844 72.6406 0.0000 0.0000 0.0000
# 4 0.0000 0.0000 0.0000 31.6335 0.0000 0.0000
# 5 0.0000 0.0000 0.0000 0.0000 18.2817 0.0000
# 6 0.0000 0.0000 0.0000 0.0000 0.0000 24.6032
#
#
#
# Elastic Compliance Matrix: (Units=1/GPa)
#
#
# Indices 1 2 3 4 5 6 
#
# 1 0.065486 0.009725 0.016343 0.000000 0.000000 0.000000
# 2 0.009725 0.022081 0.006855 0.000000 0.000000 0.000000
# 3 0.016343 0.006855 0.018795 0.000000 0.000000 0.000000
# 4 0.000000 0.000000 0.000000 0.031612 0.000000 0.000000
# 5 0.000000 0.000000 0.000000 0.000000 0.054700 0.000000
# 6 0.000000 0.000000 0.000000 0.000000 0.000000 0.040645
#
#
# Mechanical properties :
#
#
# Convention : Reuss Voigt Hill
#
# Bulk Modulus (GPa) = 5.80696 8.20212 7.00454
# Shear Modulus (GPa) = 22.23447 26.86530 24.54988
#
# Velocity S-wave (km/s) = 3.32698 3.65707 3.49592
# Velocity P-wave (km/s) = 4.20110 4.68139 4.44773
#
# Compressibility (1/GPa) = 0.17220729
#
# Stress axis : x y z
#
# Youngs Moduli (GPa) = 15.27041 45.28704 53.20642
#
# Poissons Ratio (x) = -0.44043 -0.86953
# Poissons Ratio (y) = -0.14851 -0.36471
# Poissons Ratio (z) = -0.24956 -0.31042
#
# Static dielectric constant tensor:
#      x y z
#    x 1.747640 0.000000 0.000000 
#    y 0.000000 1.741900 0.000000 
#    z 0.000000 0.000000 1.686980 
# 
# From -- ./inp_files/2817.got.cif
#   From: 2010.05.17/outbox.cif.g08.bks.cpg/sg62_2_cif.got.tgz:2817.got - 2010.06.03 15:25:27.
