data_PCOD9463164
_publ_section_title
;
Structure prediction by ZEFSAII (Michael W. Deem and Ramdas Pophale) SiO2 
 PCOD9463164
Probable space group: P N M A
;
_chemical_formula_sum "Si O2"
_cell_formula_units_Z 48
_cell_length_a 15.244708
_cell_length_b 12.201187
_cell_length_c 14.491234
_cell_angle_alpha 90.000000
_cell_angle_beta 90.000000
_cell_angle_gamma 90.000000
_cell_volume 2695.420723
_symmetry_space_group_name_H-M "P N M A"
_symmetry_group_IT_number 62
_symmetry_cell_setting 'orthorhombic'
loop_
_space_group_symop_operation_xyz
x,y,z
1/2-x,-y,1/2+z
1/2+x,1/2-y,1/2-z
-x,1/2+y,-z
-x,-y,-z
1/2+x,y,1/2-z
1/2-x,1/2+y,1/2+z
x,1/2-y,z
loop_
_atom_site_type_symbol
_atom_site_label
_atom_site_fract_x
_atom_site_fract_y
_atom_site_fract_z
Si Si1 0.207639 0.376385 0.922062
Si Si2 0.412870 0.871721 0.075868
Si Si3 0.643375 0.501705 0.753319
Si Si4 0.103390 0.955603 0.423598
Si Si5 0.037667 0.122997 0.268317
Si Si6 0.300292 0.878936 0.637277
O O1 0.179101 0.250000 0.911660
O O2 0.162659 0.455292 0.847917
O O3 0.311322 0.386570 0.901371
O O4 0.195758 0.409033 0.029256
O O5 0.382777 0.750000 0.051167
O O6 0.387525 0.902607 0.179967
O O7 0.517689 0.881754 0.061814
O O8 0.377154 0.970063 0.013018
O O9 0.561961 0.585852 0.750892
O O10 0.728890 0.555414 0.801844
O O11 0.076510 0.043170 0.346082
O O12 0.039953 0.250000 0.297686
O O13 0.103479 0.110273 0.182229
O O14 0.275290 0.750000 0.640902
#
# Coordination Sequence:
#
# PCOD9463164 Si02
#       6
#     8   8   8   8   8   8
#     4  11  22  37  58  83 115 156 194 232 289 348
#     4  10  20  33  52  82 115 145 184 235 293 341
#     4  11  21  37  59  83 114 152 192 239 284 338
#     4  10  19  34  56  83 113 147 184 241 285 341
#     4  10  21  37  59  85 114 150 193 235 285 342
#     4  10  21  38  59  84 117 152 189 234 286 341
#
# _framework density 17.807981000000002
#
# number of rings (size 3 to 8) (size 9 to 14) (size 15 to 20)
#    0.000    1.667    3.333    2.000    0.000    0.667 
#    0.000    0.000    0.000    0.000    0.000    0.000 
#    0.000    0.000    0.000    0.000    0.000    0.000 
#
# Total GULP energy -267709.054436 kJ/mol
# GULP energy per Si atom -5577.271967 kJ/mol
# Density = 1.776745 g / cm^3
# Si number density = 17.807981 Si / 1000 Ang^3
#
#
#
# Elastic Constant Matrix: (Units=GPa)
#
#
# Indices 1 2 3 4 5 6 
#
# 1 46.6400 7.5897 23.2528 0.0000 0.0000 0.0000
# 2 7.5897 59.9559 33.5514 0.0000 0.0000 0.0000
# 3 23.2528 33.5514 104.6476 0.0000 0.0000 0.0000
# 4 0.0000 0.0000 0.0000 19.7368 0.0000 0.0000
# 5 0.0000 0.0000 0.0000 0.0000 23.7191 0.0000
# 6 0.0000 0.0000 0.0000 0.0000 0.0000 18.8104
#
#
#
# Elastic Compliance Matrix: (Units=1/GPa)
#
#
# Indices 1 2 3 4 5 6 
#
# 1 0.024112 -0.000066 -0.005337 0.000000 0.000000 0.000000
# 2 -0.000066 0.020326 -0.006502 0.000000 0.000000 0.000000
# 3 -0.005337 -0.006502 0.012826 0.000000 0.000000 0.000000
# 4 0.000000 0.000000 0.000000 0.050667 0.000000 0.000000
# 5 0.000000 0.000000 0.000000 0.000000 0.042160 0.000000
# 6 0.000000 0.000000 0.000000 0.000000 0.000000 0.053162
#
#
# Mechanical properties :
#
#
# Convention : Reuss Voigt Hill
#
# Bulk Modulus (GPa) = 29.89084 37.78127 33.83605
# Shear Modulus (GPa) = 20.98952 22.24324 21.61638
#
# Velocity S-wave (km/s) = 3.43688 3.53804 3.48783
# Velocity P-wave (km/s) = 5.70711 6.16054 5.93815
#
# Compressibility (1/GPa) = 0.03345506
#
# Stress axis : x y z
#
# Youngs Moduli (GPa) = 41.47286 49.19846 77.96467
#
# Poissons Ratio (x) = 0.00325 0.41607
# Poissons Ratio (y) = 0.00274 0.50693
# Poissons Ratio (z) = 0.22132 0.31989
#
# Static dielectric constant tensor:
#      x y z
#    x 1.593110 0.000000 0.000000 
#    y 0.000000 1.592960 0.000000 
#    z 0.000000 0.000000 1.624070 
# 
# From -- ./inp_files/18872.got.cif
#   From: 2010.05.17/outbox.cif.g08.bks.cpg/sg62_10_cif.got.tgz:18872.got - 2010.06.03 15:25:27.
