data_PCOD9463239
_publ_section_title
;
Structure prediction by ZEFSAII (Michael W. Deem and Ramdas Pophale) SiO2 
 PCOD9463239
Probable space group: P N M A
;
_chemical_formula_sum "Si O2"
_cell_formula_units_Z 56
_cell_length_a 14.562083
_cell_length_b 13.153651
_cell_length_c 14.715876
_cell_angle_alpha 90.000000
_cell_angle_beta 90.000000
_cell_angle_gamma 90.000000
_cell_volume 2818.745958
_symmetry_space_group_name_H-M "P N M A"
_symmetry_group_IT_number 62
_symmetry_cell_setting 'orthorhombic'
loop_
_space_group_symop_operation_xyz
x,y,z
1/2-x,-y,1/2+z
1/2+x,1/2-y,1/2-z
-x,1/2+y,-z
-x,-y,-z
1/2+x,y,1/2-z
1/2-x,1/2+y,1/2+z
x,1/2-y,z
loop_
_atom_site_type_symbol
_atom_site_label
_atom_site_fract_x
_atom_site_fract_y
_atom_site_fract_z
Si Si1 0.823367 0.869761 0.460863
Si Si2 0.687540 0.137456 0.747078
Si Si3 0.419409 0.366544 0.267719
Si Si4 0.646008 0.502908 0.440266
Si Si5 0.957997 0.941928 0.113812
Si Si6 0.052963 0.369243 0.382638
Si Si7 0.285270 0.568661 0.748659
O O1 0.808373 0.750000 0.482932
O O2 0.838015 0.875951 0.352928
O O3 0.908185 0.908724 0.521617
O O4 0.731414 0.933811 0.479479
O O5 0.726533 0.250000 0.734903
O O6 0.597062 0.123985 0.686325
O O7 0.758450 0.047473 0.724359
O O8 0.448224 0.250000 0.283535
O O9 0.450571 0.442815 0.346714
O O10 0.464971 0.406680 0.173666
O O11 0.310165 0.372664 0.258691
O O12 0.565382 0.576779 0.402148
O O13 0.596885 0.439818 0.519383
O O14 0.681228 0.437304 0.355256
O O15 0.034989 0.250000 0.397207
O O16 0.136981 0.386372 0.312759
#
# Coordination Sequence:
#
# PCOD9463239 Si02
#       7
#     8   8   8   8   8   8   8
#     4   9  18  33  55  78 104 142 187 227 269 329
#     4   9  19  35  54  77 107 145 186 230 273 323
#     4  10  20  35  59  86 113 146 184 231 288 338
#     4  10  20  34  54  80 109 151 186 225 276 330
#     4  10  20  36  55  79 114 144 186 232 275 329
#     4  10  19  34  59  86 111 143 185 231 280 336
#     4  10  19  35  56  80 116 145 183 230 278 325
#
# _framework density 19.866990000000001
#
# number of rings (size 3 to 8) (size 9 to 14) (size 15 to 20)
#    0.000    2.286    1.429    2.143    0.000    2.286 
#    0.000   10.000    0.000    0.000    0.000    0.000 
#    0.000    0.000    0.000    0.000    0.000    0.000 
#
# Total GULP energy -312274.133074 kJ/mol
# GULP energy per Si atom -5576.323805 kJ/mol
# Density = 1.982177 g / cm^3
# Si number density = 19.866990 Si / 1000 Ang^3
#
#
#
# Elastic Constant Matrix: (Units=GPa)
#
#
# Indices 1 2 3 4 5 6 
#
# 1 40.8666 1.7500 -2.4844 0.0000 0.0000 0.0000
# 2 1.7500 32.9815 -6.1098 0.0000 0.0000 0.0000
# 3 -2.4844 -6.1098 35.5400 0.0000 0.0000 0.0000
# 4 0.0000 0.0000 0.0000 16.0889 0.0000 0.0000
# 5 0.0000 0.0000 0.0000 0.0000 39.3964 0.0000
# 6 0.0000 0.0000 0.0000 0.0000 0.0000 8.7303
#
#
#
# Elastic Compliance Matrix: (Units=1/GPa)
#
#
# Indices 1 2 3 4 5 6 
#
# 1 0.024607 -0.001019 0.001545 0.000000 0.000000 0.000000
# 2 -0.001019 0.031360 0.005320 0.000000 0.000000 0.000000
# 3 0.001545 0.005320 0.029160 0.000000 0.000000 0.000000
# 4 0.000000 0.000000 0.000000 0.062155 0.000000 0.000000
# 5 0.000000 0.000000 0.000000 0.000000 0.025383 0.000000
# 6 0.000000 0.000000 0.000000 0.000000 0.000000 0.114543
#
#
# Mechanical properties :
#
#
# Convention : Reuss Voigt Hill
#
# Bulk Modulus (GPa) = 10.32872 10.63330 10.48101
# Shear Modulus (GPa) = 16.24487 20.59195 18.41841
#
# Velocity S-wave (km/s) = 2.86262 3.22295 3.04811
# Velocity P-wave (km/s) = 4.01700 4.38335 4.20417
#
# Compressibility (1/GPa) = 0.09681745
#
# Stress axis : x y z
#
# Youngs Moduli (GPa) = 40.63809 31.88817 34.29371
#
# Poissons Ratio (x) = 0.03251 -0.05298
# Poissons Ratio (y) = 0.04143 -0.18244
# Poissons Ratio (z) = -0.06278 -0.16964
#
# Static dielectric constant tensor:
#      x y z
#    x 1.701000 0.000000 0.000000 
#    y 0.000000 1.716360 0.000000 
#    z 0.000000 0.000000 1.720490 
# 
# From -- ./inp_files/19111.got.cif
#   From: 2010.05.17/outbox.cif.g08.bks.cpg/sg62_10_cif.got.tgz:19111.got - 2010.06.03 15:25:27.
