data_PCOD9463296
_publ_section_title
;
Structure prediction by ZEFSAII (Michael W. Deem and Ramdas Pophale) SiO2 
 PCOD9463296
Probable space group: P N M A
;
_chemical_formula_sum "Si O2"
_cell_formula_units_Z 56
_cell_length_a 14.406788
_cell_length_b 12.927855
_cell_length_c 12.337751
_cell_angle_alpha 90.000000
_cell_angle_beta 90.000000
_cell_angle_gamma 90.000000
_cell_volume 2297.892136
_symmetry_space_group_name_H-M "P N M A"
_symmetry_group_IT_number 62
_symmetry_cell_setting 'orthorhombic'
loop_
_space_group_symop_operation_xyz
x,y,z
1/2-x,-y,1/2+z
1/2+x,1/2-y,1/2-z
-x,1/2+y,-z
-x,-y,-z
1/2+x,y,1/2-z
1/2-x,1/2+y,1/2+z
x,1/2-y,z
loop_
_atom_site_type_symbol
_atom_site_label
_atom_site_fract_x
_atom_site_fract_y
_atom_site_fract_z
Si Si1 0.206786 0.865420 0.761007
Si Si2 0.329810 0.140810 0.695886
Si Si3 0.918434 0.868878 0.075663
Si Si4 0.517246 0.868409 0.006361
Si Si5 0.630120 0.077044 0.807094
Si Si6 0.388979 0.527780 0.850485
Si Si7 0.881955 0.412655 0.026420
O O1 0.217947 0.750000 0.714562
O O2 0.299731 0.900596 0.827766
O O3 0.170829 0.959581 0.685932
O O4 0.131649 0.865462 0.856698
O O5 0.374118 0.250000 0.727223
O O6 0.223377 0.136196 0.730236
O O7 0.319997 0.134393 0.567053
O O8 0.383474 0.042982 0.743302
O O9 0.888991 0.750000 0.062755
O O10 0.931287 0.899800 0.201190
O O11 0.015452 0.886129 0.014552
O O12 0.858416 0.964958 0.031687
O O13 0.543747 0.750000 0.004216
O O14 0.429182 0.885418 0.089897
O O15 0.599398 0.939001 0.056296
O O16 0.476119 0.903132 0.889279
#
# Coordination Sequence:
#
# PCOD9463296 Si02
#       7
#     8   8   8   8   8   8   8
#     4  10  20  39  59  85 121 154 185 236 290 344
#     4  11  20  35  56  83 114 150 190 239 283 334
#     4  10  19  35  55  85 120 148 178 235 289 331
#     4  11  21  39  60  83 114 154 197 246 289 339
#     4  10  22  36  59  88 114 147 197 233 280 348
#     4  10  23  36  56  85 113 147 198 239 286 345
#     4  10  21  34  59  88 112 147 195 227 277 353
#
# _framework density 24.370159999999998
#
# number of rings (size 3 to 8) (size 9 to 14) (size 15 to 20)
#    0.000    1.714    0.000    5.143    0.000    0.000 
#    0.000    8.571    0.000    0.000    0.000    0.000 
#    0.000    0.000    0.000    0.000    0.000    0.000 
#
# Total GULP energy -312202.931488 kJ/mol
# GULP energy per Si atom -5575.052348 kJ/mol
# Density = 2.431469 g / cm^3
# Si number density = 24.370160 Si / 1000 Ang^3
#
#
#
# Elastic Constant Matrix: (Units=GPa)
#
#
# Indices 1 2 3 4 5 6 
#
# 1 56.3323 -0.3628 5.8363 0.0000 0.0000 0.0000
# 2 -0.3628 211.2715 4.3678 0.0000 0.0000 0.0000
# 3 5.8363 4.3678 46.6597 0.0000 0.0000 0.0000
# 4 0.0000 0.0000 0.0000 7.4935 0.0000 0.0000
# 5 0.0000 0.0000 0.0000 0.0000 19.9340 0.0000
# 6 0.0000 0.0000 0.0000 0.0000 0.0000 25.3422
#
#
#
# Elastic Compliance Matrix: (Units=1/GPa)
#
#
# Indices 1 2 3 4 5 6 
#
# 1 0.017986 0.000078 -0.002257 0.000000 0.000000 0.000000
# 2 0.000078 0.004743 -0.000454 0.000000 0.000000 0.000000
# 3 -0.002257 -0.000454 0.021757 0.000000 0.000000 0.000000
# 4 0.000000 0.000000 0.000000 0.133448 0.000000 0.000000
# 5 0.000000 0.000000 0.000000 0.000000 0.050166 0.000000
# 6 0.000000 0.000000 0.000000 0.000000 0.000000 0.039460
#
#
# Mechanical properties :
#
#
# Convention : Reuss Voigt Hill
#
# Bulk Modulus (GPa) = 25.49770 37.10513 31.30141
# Shear Modulus (GPa) = 17.48873 30.84874 24.16873
#
# Velocity S-wave (km/s) = 2.68177 3.56173 3.15260
# Velocity P-wave (km/s) = 4.48046 5.67214 5.11115
#
# Compressibility (1/GPa) = 0.03921922
#
# Stress axis : x y z
#
# Youngs Moduli (GPa) = 55.59832 210.84774 45.96315
#
# Poissons Ratio (x) = -0.01635 0.10374
# Poissons Ratio (y) = -0.00431 0.02085
# Poissons Ratio (z) = 0.12549 0.09566
#
# Static dielectric constant tensor:
#      x y z
#    x 2.253180 0.000000 0.000000 
#    y 0.000000 2.014510 0.000000 
#    z 0.000000 0.000000 2.138880 
# 
# From -- ./inp_files/19001.got.cif
#   From: 2010.05.17/outbox.cif.g08.bks.cpg/sg62_10_cif.got.tgz:19001.got - 2010.06.03 15:25:27.
