data_PCOD9463668
_publ_section_title
;
Structure prediction by ZEFSAII (Michael W. Deem and Ramdas Pophale) SiO2 
 PCOD9463668
Probable space group: P N M A
;
_chemical_formula_sum "Si O2"
_cell_formula_units_Z 64
_cell_length_a 24.814080
_cell_length_b 7.781459
_cell_length_c 15.872523
_cell_angle_alpha 90.000000
_cell_angle_beta 90.000000
_cell_angle_gamma 90.000000
_cell_volume 3064.821437
_symmetry_space_group_name_H-M "P N M A"
_symmetry_group_IT_number 62
_symmetry_cell_setting 'orthorhombic'
loop_
_space_group_symop_operation_xyz
x,y,z
1/2-x,-y,1/2+z
1/2+x,1/2-y,1/2-z
-x,1/2+y,-z
-x,-y,-z
1/2+x,y,1/2-z
1/2-x,1/2+y,1/2+z
x,1/2-y,z
loop_
_atom_site_type_symbol
_atom_site_label
_atom_site_fract_x
_atom_site_fract_y
_atom_site_fract_z
Si Si1 0.742382 0.042533 0.586462
Si Si2 0.363242 0.544760 0.147179
Si Si3 0.870891 0.543625 0.156817
Si Si4 0.984063 0.542909 0.094340
Si Si5 0.551549 0.542795 0.244878
Si Si6 0.255848 0.949248 0.604299
Si Si7 0.677476 0.045980 0.235368
Si Si8 0.523364 0.456737 0.909610
O O1 0.741258 0.250000 0.582369
O O2 0.686933 0.977358 0.627889
O O3 0.742678 0.976079 0.490329
O O4 0.791714 0.003403 0.649240
O O5 0.355795 0.750000 0.133326
O O6 0.377922 0.518318 0.244347
O O7 0.306557 0.458274 0.129636
O O8 0.415041 0.480807 0.096472
O O9 0.869219 0.750000 0.142737
O O10 0.923812 0.475702 0.111275
O O11 0.982476 0.750000 0.102293
O O12 0.025058 0.481371 0.167158
O O13 0.000000 0.500000 0.000000
O O14 0.548297 0.750000 0.244559
O O15 0.614408 0.498897 0.236018
O O16 0.515035 0.480334 0.166314
O O17 0.272862 0.750000 0.596524
O O18 0.291479 0.025602 0.681066
O O19 0.681999 0.250000 0.240152
O O20 0.526213 0.250000 0.900300
O O21 0.500000 0.500000 0.000000
#
# Coordination Sequence:
#
# PCOD9463668 Si02
#       8
#     8   8   8   8   8   8   8   8
#     4  10  21  39  62  84 112 155 194 227 286 356
#     4  10  19  37  63  85 108 146 195 240 282 335
#     4   9  17  35  63  84 106 147 194 234 279 341
#     4  10  21  38  61  88 117 151 193 238 284 340
#     4  10  22  41  60  82 118 161 195 228 282 354
#     4  10  23  39  57  86 118 150 189 236 289 341
#     4  11  24  40  58  86 120 151 191 245 290 332
#     4  10  22  39  60  87 116 150 193 238 285 341
#
# _framework density 20.88213
#
# number of rings (size 3 to 8) (size 9 to 14) (size 15 to 20)
#    0.000    2.000    2.500    0.375    3.500    2.500 
#    0.000    1.250    0.000    0.000    0.000    0.000 
#    0.000    0.000    0.000    0.000    0.000    0.000 
#
# Total GULP energy -357221.849296 kJ/mol
# GULP energy per Si atom -5581.591395 kJ/mol
# Density = 2.083460 g / cm^3
# Si number density = 20.882130 Si / 1000 Ang^3
#
#
#
# Elastic Constant Matrix: (Units=GPa)
#
#
# Indices 1 2 3 4 5 6 
#
# 1 89.9968 -9.0861 14.3109 0.0000 0.0000 0.0000
# 2 -9.0861 27.5682 6.6049 0.0000 0.0000 0.0000
# 3 14.3109 6.6049 80.9551 0.0000 0.0000 0.0000
# 4 0.0000 0.0000 0.0000 23.5458 0.0000 0.0000
# 5 0.0000 0.0000 0.0000 0.0000 39.5595 0.0000
# 6 0.0000 0.0000 0.0000 0.0000 0.0000 -19.0891
#
#
#
# Elastic Compliance Matrix: (Units=1/GPa)
#
#
# Indices 1 2 3 4 5 6 
#
# 1 0.011965 0.004539 -0.002485 0.000000 0.000000 0.000000
# 2 0.004539 0.038719 -0.003961 0.000000 0.000000 0.000000
# 3 -0.002485 -0.003961 0.013115 0.000000 0.000000 0.000000
# 4 0.000000 0.000000 0.000000 0.042470 0.000000 0.000000
# 5 0.000000 0.000000 0.000000 0.000000 0.025278 0.000000
# 6 0.000000 0.000000 0.000000 0.000000 0.000000 -0.052386
#
#
# Mechanical properties :
#
#
# Convention : Reuss Voigt Hill
#
# Bulk Modulus (GPa) = 16.67131 24.68659 20.67895
# Shear Modulus (GPa) = 48.55696 21.24926 34.90311
#
# Velocity S-wave (km/s) = 4.82735 3.19342 4.09275
# Velocity P-wave (km/s) = 6.25076 5.04428 5.67965
#
# Compressibility (1/GPa) = 0.05998329
#
# Stress axis : x y z
#
# Youngs Moduli (GPa) = 83.57716 25.82725 76.24807
#
# Poissons Ratio (x) = -0.11723 0.18951
# Poissons Ratio (y) = -0.37936 0.30204
# Poissons Ratio (z) = 0.20773 0.10231
#
# Static dielectric constant tensor:
#      x y z
#    x 1.675940 0.000000 0.000000 
#    y 0.000000 1.799830 0.000000 
#    z 0.000000 0.000000 1.747540 
# 
# From -- ./inp_files/20955.got.cif
#   From: 2010.05.17/outbox.cif.g08.bks.cpg/sg62_11_cif.got.tgz:20955.got - 2010.06.03 15:25:27.
