data_PCOD9463389
_publ_section_title
;
Structure prediction by ZEFSAII (Michael W. Deem and Ramdas Pophale) SiO2 
 PCOD9463389
Probable space group: P N M A
;
_chemical_formula_sum "Si O2"
_cell_formula_units_Z 40
_cell_length_a 16.631694
_cell_length_b 13.063303
_cell_length_c 9.169794
_cell_angle_alpha 90.000000
_cell_angle_beta 90.000000
_cell_angle_gamma 90.000000
_cell_volume 1992.273992
_symmetry_space_group_name_H-M "P N M A"
_symmetry_group_IT_number 62
_symmetry_cell_setting 'orthorhombic'
loop_
_space_group_symop_operation_xyz
x,y,z
1/2-x,-y,1/2+z
1/2+x,1/2-y,1/2-z
-x,1/2+y,-z
-x,-y,-z
1/2+x,y,1/2-z
1/2-x,1/2+y,1/2+z
x,1/2-y,z
loop_
_atom_site_type_symbol
_atom_site_label
_atom_site_fract_x
_atom_site_fract_y
_atom_site_fract_z
Si Si1 0.098468 0.632287 0.764310
Si Si2 0.816355 0.011008 0.983222
Si Si3 0.594166 0.979584 0.025726
Si Si4 0.210846 0.870110 0.301305
Si Si5 0.904298 0.865741 0.758662
O O1 0.125091 0.750000 0.744890
O O2 0.125176 0.562266 0.628206
O O3 0.001281 0.632711 0.765289
O O4 0.132704 0.583131 0.910125
O O5 0.777455 0.083945 0.859819
O O6 0.870652 0.933790 0.888938
O O7 0.760984 0.939401 0.084897
O O8 0.618995 0.892959 0.144142
O O9 0.622903 0.082970 0.105949
O O10 0.500000 0.000000 0.000000
O O11 0.228678 0.750000 0.309103
O O12 0.875745 0.750000 0.769439
#
# Coordination Sequence:
#
# PCOD9463389 Si02
#       5
#     8   8   8   8   8
#     4  10  19  35  59  84 113 148 185 231 283 333
#     4  11  22  38  57  84 116 150 193 236 279 339
#     4   9  19  36  58  83 110 143 186 231 280 341
#     4  11  23  39  59  83 115 153 191 237 290 340
#     4   9  19  36  58  84 114 148 186 229 278 331
#
# _framework density 20.077559999999998
#
# number of rings (size 3 to 8) (size 9 to 14) (size 15 to 20)
#    0.000    2.000    0.000    3.600    0.000    0.800 
#    0.000   15.000    0.000    3.600    0.000    0.000 
#    0.000    0.000    0.000    0.000    0.000    0.000 
#
# Total GULP energy -223054.458903 kJ/mol
# GULP energy per Si atom -5576.361473 kJ/mol
# Density = 2.003186 g / cm^3
# Si number density = 20.077560 Si / 1000 Ang^3
#
#
#
# Elastic Constant Matrix: (Units=GPa)
#
#
# Indices 1 2 3 4 5 6 
#
# 1 40.2457 51.8033 38.4328 0.0000 0.0000 0.0000
# 2 51.8033 121.2722 75.2973 0.0000 0.0000 0.0000
# 3 38.4328 75.2973 168.1334 0.0000 0.0000 0.0000
# 4 0.0000 0.0000 0.0000 26.5618 0.0000 0.0000
# 5 0.0000 0.0000 0.0000 0.0000 23.7922 0.0000
# 6 0.0000 0.0000 0.0000 0.0000 0.0000 22.1644
#
#
#
# Elastic Compliance Matrix: (Units=1/GPa)
#
#
# Indices 1 2 3 4 5 6 
#
# 1 0.056201 -0.022205 -0.002902 0.000000 0.000000 0.000000
# 2 -0.022205 0.020195 -0.003969 0.000000 0.000000 0.000000
# 3 -0.002902 -0.003969 0.008388 0.000000 0.000000 0.000000
# 4 0.000000 0.000000 0.000000 0.037648 0.000000 0.000000
# 5 0.000000 0.000000 0.000000 0.000000 0.042031 0.000000
# 6 0.000000 0.000000 0.000000 0.000000 0.000000 0.045117
#
#
# Mechanical properties :
#
#
# Convention : Reuss Voigt Hill
#
# Bulk Modulus (GPa) = 37.54805 73.41312 55.48059
# Shear Modulus (GPa) = 18.07605 25.44486 21.76045
#
# Velocity S-wave (km/s) = 3.00377 3.56382 3.29571
# Velocity P-wave (km/s) = 5.54728 7.31974 6.49426
#
# Compressibility (1/GPa) = 0.02663254
#
# Stress axis : x y z
#
# Youngs Moduli (GPa) = 17.79343 49.51696 119.21291
#
# Poissons Ratio (x) = 1.09952 0.34599
# Poissons Ratio (y) = 0.39510 0.47310
# Poissons Ratio (z) = 0.05164 0.19651
#
# Static dielectric constant tensor:
#      x y z
#    x 1.788780 0.000000 0.000000 
#    y 0.000000 1.680990 0.000000 
#    z 0.000000 0.000000 1.686720 
# 
# From -- ./inp_files/7263.got.cif
#   From: 2010.05.17/outbox.cif.g08.bks.cpg/sg62_4_cif.got.tgz:7263.got - 2010.06.03 15:25:27.
