data_PCOD9463622
_publ_section_title
;
Structure prediction by ZEFSAII (Michael W. Deem and Ramdas Pophale) SiO2 
 PCOD9463622
Probable space group: P N M A
;
_chemical_formula_sum "Si O2"
_cell_formula_units_Z 56
_cell_length_a 5.504686
_cell_length_b 14.443154
_cell_length_c 27.311293
_cell_angle_alpha 90.000000
_cell_angle_beta 90.000000
_cell_angle_gamma 90.000000
_cell_volume 2171.385104
_symmetry_space_group_name_H-M "P N M A"
_symmetry_group_IT_number 62
_symmetry_cell_setting 'orthorhombic'
loop_
_space_group_symop_operation_xyz
x,y,z
1/2-x,-y,1/2+z
1/2+x,1/2-y,1/2-z
-x,1/2+y,-z
-x,-y,-z
1/2+x,y,1/2-z
1/2-x,1/2+y,1/2+z
x,1/2-y,z
loop_
_atom_site_type_symbol
_atom_site_label
_atom_site_fract_x
_atom_site_fract_y
_atom_site_fract_z
Si Si1 0.611721 0.597525 0.267087
Si Si2 0.740820 0.036319 0.874410
Si Si3 0.500604 0.352519 0.369582
Si Si4 0.392468 0.250000 0.219293
Si Si5 0.614464 0.096307 0.547095
Si Si6 0.395262 0.938288 0.811616
Si Si7 0.240231 0.884098 0.965885
Si Si8 0.431967 0.250000 0.970429
O O1 0.858000 0.643466 0.247277
O O2 0.639759 0.576494 0.324506
O O3 0.606039 0.500883 0.236396
O O4 0.873815 0.090526 0.918337
O O5 0.469904 0.011576 0.854779
O O6 0.823802 0.932155 0.887662
O O7 0.596704 0.250000 0.363902
O O8 0.291943 0.349707 0.411081
O O9 0.361582 0.392072 0.322791
O O10 0.636574 0.250000 0.253013
O O11 0.425324 0.350293 0.192854
O O12 0.504096 0.139027 0.496988
O O13 0.812296 0.168527 0.564622
O O14 0.732013 0.996090 0.536488
O O15 0.452392 0.831688 0.993777
#
# Coordination Sequence:
#
# PCOD9463622 Si02
#       8
#     8   8   8   4   8   8   8   4
#     4  10  19  37  59  86 127 175 227 281 344 416
#     4  10  23  40  59  88 128 171 229 285 347 420
#     4  11  22  37  56  89 129 176 233 274 331 413
#     4  12  26  37  58  86 130 190 242 294 342 415
#     4  10  24  44  68  97 134 178 229 298 359 434
#     4  11  23  35  56  88 130 180 230 284 346 417
#     4  10  23  44  64  97 135 178 231 287 356 428
#     4  12  22  41  72  96 130 176 226 286 356 429
#
# _framework density 25.789987
#
# number of rings (size 3 to 8) (size 9 to 14) (size 15 to 20)
#    0.000    1.429    2.857    2.571    3.000    5.714 
#    0.000    0.000    0.000    0.000    0.000    4.000 
#    0.000    0.000    0.000    0.000    0.000    0.000 
#
# Total GULP energy -311866.889261 kJ/mol
# GULP energy per Si atom -5569.051594 kJ/mol
# Density = 2.573129 g / cm^3
# Si number density = 25.789987 Si / 1000 Ang^3
#
#
#
# Elastic Constant Matrix: (Units=GPa)
#
#
# Indices 1 2 3 4 5 6 
#
# 1 78.5933 2.9619 2.8728 0.0000 0.0000 0.0000
# 2 2.9619 118.0205 12.8051 0.0000 0.0000 0.0000
# 3 2.8728 12.8051 79.2799 0.0000 0.0000 0.0000
# 4 0.0000 0.0000 0.0000 -5.0777 0.0000 0.0000
# 5 0.0000 0.0000 0.0000 0.0000 30.3031 0.0000
# 6 0.0000 0.0000 0.0000 0.0000 0.0000 -36.8473
#
#
#
# Elastic Compliance Matrix: (Units=1/GPa)
#
#
# Indices 1 2 3 4 5 6 
#
# 1 0.012749 -0.000275 -0.000418 0.000000 0.000000 0.000000
# 2 -0.000275 0.008630 -0.001384 0.000000 0.000000 0.000000
# 3 -0.000418 -0.001384 0.012852 0.000000 0.000000 0.000000
# 4 0.000000 0.000000 0.000000 -0.196941 0.000000 0.000000
# 5 0.000000 0.000000 0.000000 0.000000 0.033000 0.000000
# 6 0.000000 0.000000 0.000000 0.000000 0.000000 -0.027139
#
#
# Mechanical properties :
#
#
# Convention : Reuss Voigt Hill
#
# Bulk Modulus (GPa) = 33.24555 34.79704 34.02129
# Shear Modulus (GPa) = -35.04604 14.82590 -10.11007
#
# Velocity S-wave (km/s) = -3.69033 2.40025 -1.98209
# Velocity P-wave (km/s) = 2.28892 4.60471 2.82526
#
# Compressibility (1/GPa) = 0.03007921
#
# Stress axis : x y z
#
# Youngs Moduli (GPa) = 78.43541 115.87278 77.80766
#
# Poissons Ratio (x) = 0.03182 0.03249
# Poissons Ratio (y) = 0.02154 0.10768
# Poissons Ratio (z) = 0.03276 0.16036
#
# Static dielectric constant tensor:
#      x y z
#    x 2.195110 0.000000 0.000000 
#    y 0.000000 1.977430 0.000000 
#    z 0.000000 0.000000 2.063030 
# 
# From -- ./inp_files/31637.got.cif
#   From: 2010.05.17/outbox.cif.g08.bks.cpg/sg62_16_cif.got.tgz:31637.got - 2010.06.03 15:25:27.
