data_PCOD9463488
_publ_section_title
;
Structure prediction by ZEFSAII (Michael W. Deem and Ramdas Pophale) SiO2 
 PCOD9463488
Probable space group: P N M A
;
_chemical_formula_sum "Si O2"
_cell_formula_units_Z 56
_cell_length_a 9.330205
_cell_length_b 24.039251
_cell_length_c 13.222885
_cell_angle_alpha 90.000000
_cell_angle_beta 90.000000
_cell_angle_gamma 90.000000
_cell_volume 2965.775949
_symmetry_space_group_name_H-M "P N M A"
_symmetry_group_IT_number 62
_symmetry_cell_setting 'orthorhombic'
loop_
_space_group_symop_operation_xyz
x,y,z
1/2-x,-y,1/2+z
1/2+x,1/2-y,1/2-z
-x,1/2+y,-z
-x,-y,-z
1/2+x,y,1/2-z
1/2-x,1/2+y,1/2+z
x,1/2-y,z
loop_
_atom_site_type_symbol
_atom_site_label
_atom_site_fract_x
_atom_site_fract_y
_atom_site_fract_z
Si Si1 0.225656 0.250000 0.860874
Si Si2 0.065576 0.250000 0.642546
Si Si3 0.064095 0.351623 0.951002
Si Si4 0.839848 0.577552 0.232400
Si Si5 0.064635 0.057629 0.114763
Si Si6 0.250539 0.848609 0.096972
Si Si7 0.234967 0.532730 0.990398
Si Si8 0.923886 0.500410 0.680733
O O1 0.141766 0.250000 0.753287
O O2 0.395895 0.250000 0.844154
O O3 0.177944 0.304401 0.924326
O O4 0.125566 0.196285 0.582949
O O5 0.078677 0.400940 0.867193
O O6 0.906587 0.326101 0.930474
O O7 0.081171 0.382828 0.058714
O O8 0.774304 0.630952 0.288310
O O9 0.708564 0.539378 0.205173
O O10 0.942084 0.540129 0.302389
O O11 0.071556 0.049439 0.235430
O O12 0.905111 0.037629 0.082488
O O13 0.183074 0.015326 0.067543
O O14 0.254391 0.906778 0.038269
O O15 0.379572 0.520977 0.929177
#
# Coordination Sequence:
#
# PCOD9463488 Si02
#       8
#     4   4   8   8   8   8   8   8
#     4  12  26  40  60  85 112 153 192 245 292 344
#     4  12  26  40  58  85 116 147 196 241 294 342
#     4  11  22  39  60  81 115 158 196 233 290 347
#     4  12  21  32  57  86 121 151 190 234 279 343
#     4  10  19  36  57  82 117 156 189 234 286 351
#     4  11  23  39  58  84 115 157 194 239 287 347
#     4  10  20  36  57  82 118 156 192 230 291 345
#     4  12  21  36  55  88 120 157 191 233 285 342
#
# _framework density 18.882075
#
# number of rings (size 3 to 8) (size 9 to 14) (size 15 to 20)
#    0.000    0.857    7.143    2.143    2.000    0.571 
#    2.571    0.000    0.000    0.857    0.000    0.000 
#    0.000    0.000    0.000    0.000    0.000    0.000 
#
# Total GULP energy -312471.029255 kJ/mol
# GULP energy per Si atom -5579.839808 kJ/mol
# Density = 1.883910 g / cm^3
# Si number density = 18.882075 Si / 1000 Ang^3
#
#
#
# Elastic Constant Matrix: (Units=GPa)
#
#
# Indices 1 2 3 4 5 6 
#
# 1 110.0493 40.7488 22.9417 0.0000 0.0000 0.0000
# 2 40.7488 85.7726 18.5824 0.0000 0.0000 0.0000
# 3 22.9417 18.5824 47.8892 0.0000 0.0000 0.0000
# 4 0.0000 0.0000 0.0000 21.3895 0.0000 0.0000
# 5 0.0000 0.0000 0.0000 0.0000 24.4379 0.0000
# 6 0.0000 0.0000 0.0000 0.0000 0.0000 24.2781
#
#
#
# Elastic Compliance Matrix: (Units=1/GPa)
#
#
# Indices 1 2 3 4 5 6 
#
# 1 0.011608 -0.004705 -0.003735 0.000000 0.000000 0.000000
# 2 -0.004705 0.014636 -0.003425 0.000000 0.000000 0.000000
# 3 -0.003735 -0.003425 0.024000 0.000000 0.000000 0.000000
# 4 0.000000 0.000000 0.000000 0.046752 0.000000 0.000000
# 5 0.000000 0.000000 0.000000 0.000000 0.040920 0.000000
# 6 0.000000 0.000000 0.000000 0.000000 0.000000 0.041189
#
#
# Mechanical properties :
#
#
# Convention : Reuss Voigt Hill
#
# Bulk Modulus (GPa) = 37.71758 45.36189 41.53973
# Shear Modulus (GPa) = 23.62124 24.78363 24.20244
#
# Velocity S-wave (km/s) = 3.54077 3.62684 3.58406
# Velocity P-wave (km/s) = 6.06092 6.45094 6.25897
#
# Compressibility (1/GPa) = 0.02651284
#
# Stress axis : x y z
#
# Youngs Moduli (GPa) = 86.14911 68.32351 41.66698
#
# Poissons Ratio (x) = 0.32149 0.15562
# Poissons Ratio (y) = 0.40537 0.14271
# Poissons Ratio (z) = 0.32176 0.23401
#
# Static dielectric constant tensor:
#      x y z
#    x 1.683690 0.000000 0.000000 
#    y 0.000000 1.687470 0.000000 
#    z 0.000000 0.000000 1.730810 
# 
# From -- ./inp_files/17239.got.cif
#   From: 2010.05.17/outbox.cif.g08.bks.cpg/sg62_9_cif.got.tgz:17239.got - 2010.06.03 15:25:27.
