data_PCOD9463076
_publ_section_title
;
Structure prediction by ZEFSAII (Michael W. Deem and Ramdas Pophale) SiO2 
 PCOD9463076
Probable space group: P N M A
;
_chemical_formula_sum "Si O2"
_cell_formula_units_Z 56
_cell_length_a 8.992421
_cell_length_b 23.480099
_cell_length_c 13.416567
_cell_angle_alpha 90.000000
_cell_angle_beta 90.000000
_cell_angle_gamma 90.000000
_cell_volume 2832.813338
_symmetry_space_group_name_H-M "P N M A"
_symmetry_group_IT_number 62
_symmetry_cell_setting 'orthorhombic'
loop_
_space_group_symop_operation_xyz
x,y,z
1/2-x,-y,1/2+z
1/2+x,1/2-y,1/2-z
-x,1/2+y,-z
-x,-y,-z
1/2+x,y,1/2-z
1/2-x,1/2+y,1/2+z
x,1/2-y,z
loop_
_atom_site_type_symbol
_atom_site_label
_atom_site_fract_x
_atom_site_fract_y
_atom_site_fract_z
Si Si1 0.822707 0.002995 0.767842
Si Si2 0.551585 0.984042 0.877678
Si Si3 0.121318 0.185973 0.482778
Si Si4 0.971274 0.593357 0.907331
Si Si5 0.829450 0.138112 0.425794
Si Si6 0.824446 0.183842 0.203870
Si Si7 0.774422 0.424637 0.939653
O O1 0.647846 0.990191 0.774406
O O2 0.840012 0.061076 0.830378
O O3 0.890009 0.001009 0.659113
O O4 0.893618 0.952843 0.835847
O O5 0.639976 0.028879 0.946355
O O6 0.577337 0.920266 0.911910
O O7 0.162143 0.250000 0.512569
O O8 0.180015 0.178515 0.368126
O O9 0.204666 0.137331 0.544914
O O10 0.944091 0.177635 0.484268
O O11 0.053930 0.641993 0.843800
O O12 0.832429 0.621512 0.966685
O O13 0.095798 0.567642 0.979914
O O14 0.798883 0.164698 0.316777
O O15 0.870959 0.250000 0.201731
#
# Coordination Sequence:
#
# PCOD9463076 Si02
#       7
#     8   8   8   8   8   8   8
#     4   9  18  34  53  81 107 140 172 227 265 325
#     4   9  20  33  54  81 109 137 176 223 273 321
#     4  10  22  37  52  75 110 146 184 227 265 315
#     4  10  19  34  52  78 115 147 182 216 264 316
#     4  11  20  30  50  82 111 146 182 217 252 323
#     4  10  20  33  52  75 112 157 185 212 254 314
#     4   9  21  37  54  79 106 146 177 222 282 324
#
# _framework density 19.768333999999999
#
# number of rings (size 3 to 8) (size 9 to 14) (size 15 to 20)
#    0.857    1.429    1.429    1.714    2.000    2.857 
#    2.571    0.000    0.000    0.857    0.000    0.000 
#    0.000    0.000    0.000    0.000    0.000    0.000 
#
# Total GULP energy -312214.947101 kJ/mol
# GULP energy per Si atom -5575.266913 kJ/mol
# Density = 1.972334 g / cm^3
# Si number density = 19.768334 Si / 1000 Ang^3
#
#
#
# Elastic Constant Matrix: (Units=GPa)
#
#
# Indices 1 2 3 4 5 6 
#
# 1 49.3370 9.7936 5.4458 0.0000 0.0000 0.0000
# 2 9.7936 111.7262 17.7513 0.0000 0.0000 0.0000
# 3 5.4458 17.7513 31.5141 0.0000 0.0000 0.0000
# 4 0.0000 0.0000 0.0000 20.6186 0.0000 0.0000
# 5 0.0000 0.0000 0.0000 0.0000 26.5620 0.0000
# 6 0.0000 0.0000 0.0000 0.0000 0.0000 26.0751
#
#
#
# Elastic Compliance Matrix: (Units=1/GPa)
#
#
# Indices 1 2 3 4 5 6 
#
# 1 0.020855 -0.001379 -0.002827 0.000000 0.000000 0.000000
# 2 -0.001379 0.009921 -0.005350 0.000000 0.000000 0.000000
# 3 -0.002827 -0.005350 0.035234 0.000000 0.000000 0.000000
# 4 0.000000 0.000000 0.000000 0.048500 0.000000 0.000000
# 5 0.000000 0.000000 0.000000 0.000000 0.037648 0.000000
# 6 0.000000 0.000000 0.000000 0.000000 0.000000 0.038351
#
#
# Mechanical properties :
#
#
# Convention : Reuss Voigt Hill
#
# Bulk Modulus (GPa) = 21.32309 28.72877 25.02593
# Shear Modulus (GPa) = 22.19723 25.29024 23.74373
#
# Velocity S-wave (km/s) = 3.35456 3.58065 3.46945
# Velocity P-wave (km/s) = 5.08075 5.62664 5.36064
#
# Compressibility (1/GPa) = 0.04689752
#
# Stress axis : x y z
#
# Youngs Moduli (GPa) = 47.95117 100.79245 28.38167
#
# Poissons Ratio (x) = 0.13898 0.08024
# Poissons Ratio (y) = 0.06612 0.15185
# Poissons Ratio (z) = 0.13556 0.53926
#
# Static dielectric constant tensor:
#      x y z
#    x 1.763030 0.000000 0.000000 
#    y 0.000000 1.696980 0.000000 
#    z 0.000000 0.000000 1.746880 
# 
# From -- ./inp_files/22515.got.cif
#   From: 2010.05.17/outbox.cif.g08.bks.cpg/sg62_12_cif.got.tgz:22515.got - 2010.06.03 15:25:27.
