data_PCOD9463783
_publ_section_title
;
Structure prediction by ZEFSAII (Michael W. Deem and Ramdas Pophale) SiO2 
 PCOD9463783
Probable space group: P N M A
;
_chemical_formula_sum "Si O2"
_cell_formula_units_Z 64
_cell_length_a 17.145165
_cell_length_b 7.271665
_cell_length_c 20.602285
_cell_angle_alpha 90.000000
_cell_angle_beta 90.000000
_cell_angle_gamma 90.000000
_cell_volume 2568.567143
_symmetry_space_group_name_H-M "P N M A"
_symmetry_group_IT_number 62
_symmetry_cell_setting 'orthorhombic'
loop_
_space_group_symop_operation_xyz
x,y,z
1/2-x,-y,1/2+z
1/2+x,1/2-y,1/2-z
-x,1/2+y,-z
-x,-y,-z
1/2+x,y,1/2-z
1/2-x,1/2+y,1/2+z
x,1/2-y,z
loop_
_atom_site_type_symbol
_atom_site_label
_atom_site_fract_x
_atom_site_fract_y
_atom_site_fract_z
Si Si1 0.284642 0.974793 0.896604
Si Si2 0.212938 0.468831 0.116210
Si Si3 0.597724 0.474753 0.281809
Si Si4 0.819798 0.461647 0.217561
Si Si5 0.467533 0.461029 0.379588
Si Si6 0.358306 0.467664 0.483191
Si Si7 0.449049 0.526258 0.863483
Si Si8 0.122683 0.525626 0.641585
O O1 0.283471 0.750000 0.895957
O O2 0.251219 0.035220 0.826094
O O3 0.374128 0.031528 0.905511
O O4 0.221502 0.036502 0.949452
O O5 0.217489 0.250000 0.119578
O O6 0.179596 0.530908 0.185820
O O7 0.152491 0.509190 0.059156
O O8 0.300622 0.534475 0.102107
O O9 0.596476 0.250000 0.279808
O O10 0.534362 0.540192 0.334369
O O11 0.572532 0.530084 0.210205
O O12 0.797964 0.250000 0.232318
O O13 0.891221 0.459581 0.166569
O O14 0.855238 0.533145 0.284754
O O15 0.492273 0.250000 0.392072
O O16 0.434250 0.543453 0.446317
O O17 0.360980 0.250000 0.470420
O O18 0.450456 0.750000 0.864855
O O19 0.536689 0.463361 0.878820
O O20 0.118954 0.750000 0.641266
#
# Coordination Sequence:
#
# PCOD9463783 Si02
#       8
#     8   8   8   8   8   8   8   8
#     4   8  14  23  39  60  80 109 148 182 207 248
#     4  10  20  30  42  65  93 117 143 179 217 254
#     4   9  15  24  40  66  96 114 132 174 231 272
#     4   8  11  19  35  57  84 108 132 169 221 264
#     4   8  13  23  41  63  85 112 142 175 213 255
#     4   9  18  32  46  60  85 121 157 180 201 245
#     4   9  14  22  39  65  93 112 132 174 231 272
#     4   9  15  23  37  60  91 116 133 169 227 272
#
# _framework density 24.916616999999999
#
# number of rings (size 3 to 8) (size 9 to 14) (size 15 to 20)
#    0.000    3.250    1.250    2.250    0.000    3.500 
#    0.000    0.625    0.000    0.000    0.000    8.750 
#    0.000    0.000    0.000    0.000    0.000    0.000 
#
# Total GULP energy -357143.264764 kJ/mol
# GULP energy per Si atom -5580.363512 kJ/mol
# Density = 2.485991 g / cm^3
# Si number density = 24.916617 Si / 1000 Ang^3
#
#
#
# Elastic Constant Matrix: (Units=GPa)
#
#
# Indices 1 2 3 4 5 6 
#
# 1 76.0110 1.0940 -35.1522 0.0000 0.0000 0.0000
# 2 1.0940 106.3837 -8.2100 0.0000 0.0000 0.0000
# 3 -35.1522 -8.2100 32.3697 0.0000 0.0000 0.0000
# 4 0.0000 0.0000 0.0000 -2.8438 0.0000 0.0000
# 5 0.0000 0.0000 0.0000 0.0000 35.0963 0.0000
# 6 0.0000 0.0000 0.0000 0.0000 0.0000 -18.8798
#
#
#
# Elastic Compliance Matrix: (Units=1/GPa)
#
#
# Indices 1 2 3 4 5 6 
#
# 1 0.026845 0.002013 0.029663 0.000000 0.000000 0.000000
# 2 0.002013 0.009739 0.004656 0.000000 0.000000 0.000000
# 3 0.029663 0.004656 0.064287 0.000000 0.000000 0.000000
# 4 0.000000 0.000000 0.000000 -0.351643 0.000000 0.000000
# 5 0.000000 0.000000 0.000000 0.000000 0.028493 0.000000
# 6 0.000000 0.000000 0.000000 0.000000 0.000000 -0.052967
#
#
# Mechanical properties :
#
#
# Convention : Reuss Voigt Hill
#
# Bulk Modulus (GPa) = 5.76247 14.46980 10.11613
# Shear Modulus (GPa) = -17.23751 19.81004 1.28626
#
# Velocity S-wave (km/s) = -2.63308 2.82273 0.71927
# Velocity P-wave (km/s) = 2.63181 4.05507 2.18142
#
# Compressibility (1/GPa) = 0.17353682
#
# Stress axis : x y z
#
# Youngs Moduli (GPa) = 37.25056 102.68456 15.55514
#
# Poissons Ratio (x) = -0.20672 -0.46142
# Poissons Ratio (y) = -0.07499 -0.07243
# Poissons Ratio (z) = -1.10498 -0.47812
#
# Static dielectric constant tensor:
#      x y z
#    x 2.000720 0.000000 0.000000 
#    y 0.000000 1.992670 0.000000 
#    z 0.000000 0.000000 1.940900 
# 
# From -- ./inp_files/27787.got.cif
#   From: 2010.05.17/outbox.cif.g08.bks.cpg/sg62_14_cif.got.tgz:27787.got - 2010.06.03 15:25:27.
