data_PCOD9463439
_publ_section_title
;
Structure prediction by ZEFSAII (Michael W. Deem and Ramdas Pophale) SiO2 
 PCOD9463439
Probable space group: P N M A
;
_chemical_formula_sum "Si O2"
_cell_formula_units_Z 64
_cell_length_a 12.349805
_cell_length_b 7.860794
_cell_length_c 31.173106
_cell_angle_alpha 90.000000
_cell_angle_beta 90.000000
_cell_angle_gamma 90.000000
_cell_volume 3026.262469
_symmetry_space_group_name_H-M "P N M A"
_symmetry_group_IT_number 62
_symmetry_cell_setting 'orthorhombic'
loop_
_space_group_symop_operation_xyz
x,y,z
1/2-x,-y,1/2+z
1/2+x,1/2-y,1/2-z
-x,1/2+y,-z
-x,-y,-z
1/2+x,y,1/2-z
1/2-x,1/2+y,1/2+z
x,1/2-y,z
loop_
_atom_site_type_symbol
_atom_site_label
_atom_site_fract_x
_atom_site_fract_y
_atom_site_fract_z
Si Si1 0.554186 0.547177 0.287550
Si Si2 0.056579 0.044168 0.044232
Si Si3 0.265555 0.543254 0.165804
Si Si4 0.511919 0.453572 0.049767
Si Si5 0.573396 0.949488 0.627790
Si Si6 0.721571 0.552047 0.928327
Si Si7 0.822070 0.049778 0.620653
Si Si8 0.493617 0.041570 0.807928
O O1 0.561090 0.750000 0.282707
O O2 0.673285 0.487220 0.301391
O O3 0.472059 0.516981 0.326918
O O4 0.523582 0.480846 0.240690
O O5 0.061462 0.250000 0.047432
O O6 0.990573 0.979994 0.086021
O O7 0.180488 0.978344 0.044005
O O8 0.000000 0.000000 0.000000
O O9 0.262931 0.750000 0.162680
O O10 0.237822 0.465773 0.119975
O O11 0.386525 0.490270 0.177645
O O12 0.518899 0.250000 0.054179
O O13 0.398870 0.521960 0.069624
O O14 0.614070 0.523999 0.075898
O O15 0.500000 0.500000 0.000000
O O16 0.551250 0.750000 0.628849
O O17 0.701857 0.975043 0.622176
O O18 0.708976 0.750000 0.940237
O O19 0.808546 0.250000 0.627706
O O20 0.902059 0.983744 0.658367
O O21 0.491921 0.250000 0.808566
#
# Coordination Sequence:
#
# PCOD9463439 Si02
#       8
#     8   8   8   8   8   8   8   8
#     4  10  21  37  62  91 118 156 202 247 294 350
#     4  10  23  41  61  86 117 154 195 242 297 351
#     4  10  19  35  61  89 116 151 199 249 292 347
#     4  11  24  41  63  91 123 159 202 249 301 361
#     4  11  24  42  60  86 124 160 195 246 303 361
#     4  10  21  40  62  85 118 155 192 244 299 354
#     4  11  23  41  64  88 121 163 203 250 302 359
#     4   9  20  37  60  90 121 154 198 248 297 347
#
# _framework density 21.148199000000002
#
# number of rings (size 3 to 8) (size 9 to 14) (size 15 to 20)
#    0.000    1.750    2.500    1.125    3.500    2.000 
#    0.000    1.875    0.000    0.000    0.000    0.000 
#    0.000    0.000    0.000    0.000    0.000    0.000 
#
# Total GULP energy -357346.482540 kJ/mol
# GULP energy per Si atom -5583.538790 kJ/mol
# Density = 2.110006 g / cm^3
# Si number density = 21.148199 Si / 1000 Ang^3
#
#
#
# Elastic Constant Matrix: (Units=GPa)
#
#
# Indices 1 2 3 4 5 6 
#
# 1 101.7275 -7.2450 13.8460 0.0000 0.0000 0.0000
# 2 -7.2450 19.2970 -13.6116 0.0000 0.0000 0.0000
# 3 13.8460 -13.6116 89.2887 0.0000 0.0000 0.0000
# 4 0.0000 0.0000 0.0000 21.4334 0.0000 0.0000
# 5 0.0000 0.0000 0.0000 0.0000 37.8276 0.0000
# 6 0.0000 0.0000 0.0000 0.0000 0.0000 19.6599
#
#
#
# Elastic Compliance Matrix: (Units=1/GPa)
#
#
# Indices 1 2 3 4 5 6 
#
# 1 0.010199 0.003041 -0.001118 0.000000 0.000000 0.000000
# 2 0.003041 0.058972 0.008518 0.000000 0.000000 0.000000
# 3 -0.001118 0.008518 0.012672 0.000000 0.000000 0.000000
# 4 0.000000 0.000000 0.000000 0.046656 0.000000 0.000000
# 5 0.000000 0.000000 0.000000 0.000000 0.026436 0.000000
# 6 0.000000 0.000000 0.000000 0.000000 0.000000 0.050865
#
#
# Mechanical properties :
#
#
# Convention : Reuss Voigt Hill
#
# Bulk Modulus (GPa) = 9.73481 21.81022 15.77252
# Shear Modulus (GPa) = 22.81451 30.27242 26.54347
#
# Velocity S-wave (km/s) = 3.28806 3.78755 3.54661
# Velocity P-wave (km/s) = 4.36214 5.42796 4.92397
#
# Compressibility (1/GPa) = 0.10272416
#
# Stress axis : x y z
#
# Youngs Moduli (GPa) = 98.04977 16.95724 78.91671
#
# Poissons Ratio (x) = -0.05156 0.08823
# Poissons Ratio (y) = -0.29812 -0.67225
# Poissons Ratio (z) = 0.10962 -0.14445
#
# Static dielectric constant tensor:
#      x y z
#    x 1.773480 0.000000 0.000000 
#    y 0.000000 1.778770 0.000000 
#    z 0.000000 0.000000 1.772130 
# 
# From -- ./inp_files/32446.got.cif
#   From: 2010.05.17/outbox.cif.g08.bks.cpg/sg62_17_cif.got.tgz:32446.got - 2010.06.03 15:25:27.
