data_PCOD9463635
_publ_section_title
;
Structure prediction by ZEFSAII (Michael W. Deem and Ramdas Pophale) SiO2 
 PCOD9463635
Probable space group: P N M A
;
_chemical_formula_sum "Si O2"
_cell_formula_units_Z 56
_cell_length_a 17.587913
_cell_length_b 19.993188
_cell_length_c 7.642362
_cell_angle_alpha 90.000000
_cell_angle_beta 90.000000
_cell_angle_gamma 90.000000
_cell_volume 2687.348337
_symmetry_space_group_name_H-M "P N M A"
_symmetry_group_IT_number 62
_symmetry_cell_setting 'orthorhombic'
loop_
_space_group_symop_operation_xyz
x,y,z
1/2-x,-y,1/2+z
1/2+x,1/2-y,1/2-z
-x,1/2+y,-z
-x,-y,-z
1/2+x,y,1/2-z
1/2-x,1/2+y,1/2+z
x,1/2-y,z
loop_
_atom_site_type_symbol
_atom_site_label
_atom_site_fract_x
_atom_site_fract_y
_atom_site_fract_z
Si Si1 0.283966 0.325315 0.768793
Si Si2 0.681833 0.438735 0.544085
Si Si3 0.881495 0.327491 0.055541
Si Si4 0.824970 0.501501 0.404529
Si Si5 0.019033 0.423397 0.955542
Si Si6 0.537127 0.072716 0.959725
Si Si7 0.396675 0.140300 0.054162
O O1 0.251714 0.250000 0.761384
O O2 0.227619 0.378439 0.860306
O O3 0.312678 0.346315 0.575699
O O4 0.359830 0.323153 0.889533
O O5 0.736644 0.484223 0.426391
O O6 0.659293 0.488648 0.700687
O O7 0.603395 0.411892 0.465827
O O8 0.899259 0.250000 0.015101
O O9 0.865522 0.332883 0.262270
O O10 0.952835 0.375433 0.021454
O O11 0.872487 0.562151 0.492482
O O12 0.864314 0.434274 0.468548
O O13 0.024859 0.414021 0.746344
O O14 0.000000 0.500000 0.000000
O O15 0.487619 0.129593 0.054891
O O16 0.500000 0.000000 0.000000
#
# Coordination Sequence:
#
# PCOD9463635 Si02
#       7
#     8   8   8   8   8   8   8
#     4  10  22  40  61  83 118 162 203 247 302 365
#     4  10  22  35  56  85 120 158 193 247 305 354
#     4  11  23  38  63  91 117 158 207 252 304 368
#     4   9  20  32  54  88 118 153 191 245 302 361
#     4  11  22  37  61  92 123 160 203 259 305 365
#     4   9  17  33  53  84 121 155 191 243 301 358
#     4  10  19  37  60  87 119 156 201 246 300 362
#
# _framework density 20.838386
#
# number of rings (size 3 to 8) (size 9 to 14) (size 15 to 20)
#    0.000    2.000    1.429    3.000    4.000    1.714 
#    0.000    0.000    0.000    0.000    0.000    0.000 
#    0.000    0.000    0.000    0.000    0.000    0.000 
#
# Total GULP energy -311972.574132 kJ/mol
# GULP energy per Si atom -5570.938824 kJ/mol
# Density = 2.079096 g / cm^3
# Si number density = 20.838386 Si / 1000 Ang^3
#
#
#
# Elastic Constant Matrix: (Units=GPa)
#
#
# Indices 1 2 3 4 5 6 
#
# 1 74.9054 10.7787 -9.6206 0.0000 0.0000 0.0000
# 2 10.7787 52.0369 -5.2643 0.0000 0.0000 0.0000
# 3 -9.6206 -5.2643 59.5218 0.0000 0.0000 0.0000
# 4 0.0000 0.0000 0.0000 85.7801 0.0000 0.0000
# 5 0.0000 0.0000 0.0000 0.0000 26.0618 0.0000
# 6 0.0000 0.0000 0.0000 0.0000 0.0000 17.2643
#
#
#
# Elastic Compliance Matrix: (Units=1/GPa)
#
#
# Indices 1 2 3 4 5 6 
#
# 1 0.013998 -0.002695 0.002024 0.000000 0.000000 0.000000
# 2 -0.002695 0.019909 0.001325 0.000000 0.000000 0.000000
# 3 0.002024 0.001325 0.017245 0.000000 0.000000 0.000000
# 4 0.000000 0.000000 0.000000 0.011658 0.000000 0.000000
# 5 0.000000 0.000000 0.000000 0.000000 0.038370 0.000000
# 6 0.000000 0.000000 0.000000 0.000000 0.000000 0.057923
#
#
# Mechanical properties :
#
#
# Convention : Reuss Voigt Hill
#
# Bulk Modulus (GPa) = 19.06149 19.80575 19.43362
# Shear Modulus (GPa) = 28.52561 38.52592 33.52577
#
# Velocity S-wave (km/s) = 3.70388 4.30443 4.01539
# Velocity P-wave (km/s) = 5.24011 5.85057 5.55374
#
# Compressibility (1/GPa) = 0.05246180
#
# Stress axis : x y z
#
# Youngs Moduli (GPa) = 71.43928 50.22759 57.98798
#
# Poissons Ratio (x) = 0.13535 -0.11738
# Poissons Ratio (y) = 0.19251 -0.07685
# Poissons Ratio (z) = -0.14460 -0.06657
#
# Static dielectric constant tensor:
#      x y z
#    x 1.885450 0.000000 0.000000 
#    y 0.000000 1.746340 0.000000 
#    z 0.000000 0.000000 1.776950 
# 
# From -- ./inp_files/8049.got.cif
#   From: 2010.05.17/outbox.cif.g08.bks.cpg/sg62_5_cif.got.tgz:8049.got - 2010.06.03 15:25:27.
