data_PCOD9463846
_publ_section_title
;
Structure prediction by ZEFSAII (Michael W. Deem and Ramdas Pophale) SiO2 
 PCOD9463846
Probable space group: P N M A
;
_chemical_formula_sum "Si O2"
_cell_formula_units_Z 48
_cell_length_a 15.783374
_cell_length_b 9.774450
_cell_length_c 15.031953
_cell_angle_alpha 90.000000
_cell_angle_beta 90.000000
_cell_angle_gamma 90.000000
_cell_volume 2319.036511
_symmetry_space_group_name_H-M "P N M A"
_symmetry_group_IT_number 62
_symmetry_cell_setting 'orthorhombic'
loop_
_space_group_symop_operation_xyz
x,y,z
1/2-x,-y,1/2+z
1/2+x,1/2-y,1/2-z
-x,1/2+y,-z
-x,-y,-z
1/2+x,y,1/2-z
1/2-x,1/2+y,1/2+z
x,1/2-y,z
loop_
_atom_site_type_symbol
_atom_site_label
_atom_site_fract_x
_atom_site_fract_y
_atom_site_fract_z
Si Si1 0.587824 0.406440 0.759596
Si Si2 0.279775 0.406756 0.733080
Si Si3 0.569556 0.403279 0.276380
Si Si4 0.922544 0.594135 0.473514
Si Si5 0.581171 0.095636 0.486777
Si Si6 0.267728 0.407951 0.515803
O O1 0.570086 0.250000 0.730523
O O2 0.684791 0.442029 0.735994
O O3 0.517339 0.512265 0.728700
O O4 0.583192 0.405723 0.866641
O O5 0.298813 0.250000 0.759063
O O6 0.353270 0.508758 0.763612
O O7 0.275905 0.407583 0.624313
O O8 0.562183 0.250000 0.238937
O O9 0.590300 0.391123 0.380654
O O10 0.937415 0.750000 0.502950
O O11 0.828832 0.552492 0.506090
O O12 0.000000 0.500000 0.500000
O O13 0.571866 0.250000 0.522717
O O14 0.500000 0.000000 0.500000
O O15 0.663262 0.013577 0.520138
O O16 0.282943 0.250000 0.487959
#
# Coordination Sequence:
#
# PCOD9463846 Si02
#       6
#     8   8   8   8   8   8
#     4   9  18  33  52  73  97 128 165 198 233 285
#     4   8  15  30  51  70  91 125 164 197 232 281
#     4  10  20  32  49  75 101 124 156 200 245 286
#     4   9  18  32  51  75 100 127 161 199 238 283
#     4  10  20  33  50  73  98 125 160 199 240 288
#     4   8  15  30  50  70  94 125 160 197 237 281
#
# _framework density 20.698252
#
# number of rings (size 3 to 8) (size 9 to 14) (size 15 to 20)
#    0.000    3.000    0.000    3.000    0.000    4.000 
#    0.000    5.000    0.000    0.000    0.000    0.000 
#    0.000    0.000    0.000    0.000    0.000    0.000 
#
# Total GULP energy -267805.225850 kJ/mol
# GULP energy per Si atom -5579.275539 kJ/mol
# Density = 2.065114 g / cm^3
# Si number density = 20.698252 Si / 1000 Ang^3
#
#
#
# Elastic Constant Matrix: (Units=GPa)
#
#
# Indices 1 2 3 4 5 6 
#
# 1 176.6271 140.1779 2.4331 0.0000 0.0000 0.0000
# 2 140.1779 169.3532 6.0700 0.0000 0.0000 0.0000
# 3 2.4331 6.0700 39.3102 0.0000 0.0000 0.0000
# 4 0.0000 0.0000 0.0000 15.3035 0.0000 0.0000
# 5 0.0000 0.0000 0.0000 0.0000 24.0376 0.0000
# 6 0.0000 0.0000 0.0000 0.0000 0.0000 32.8381
#
#
#
# Elastic Compliance Matrix: (Units=1/GPa)
#
#
# Indices 1 2 3 4 5 6 
#
# 1 0.016549 -0.013737 0.001097 0.000000 0.000000 0.000000
# 2 -0.013737 0.017341 -0.001827 0.000000 0.000000 0.000000
# 3 0.001097 -0.001827 0.025653 0.000000 0.000000 0.000000
# 4 0.000000 0.000000 0.000000 0.065344 0.000000 0.000000
# 5 0.000000 0.000000 0.000000 0.000000 0.041601 0.000000
# 6 0.000000 0.000000 0.000000 0.000000 0.000000 0.030452
#
#
# Mechanical properties :
#
#
# Convention : Reuss Voigt Hill
#
# Bulk Modulus (GPa) = 32.67188 75.85027 54.26108
# Shear Modulus (GPa) = 21.17930 30.20981 25.69456
#
# Velocity S-wave (km/s) = 3.20228 3.82453 3.52716
# Velocity P-wave (km/s) = 5.43065 7.49853 6.54675
#
# Compressibility (1/GPa) = 0.03060736
#
# Stress axis : x y z
#
# Youngs Moduli (GPa) = 60.42661 57.66662 38.98187
#
# Poissons Ratio (x) = 0.79219 -0.04276
# Poissons Ratio (y) = 0.83010 0.07124
# Poissons Ratio (z) = -0.06628 0.10538
#
# Static dielectric constant tensor:
#      x y z
#    x 1.719480 0.000000 0.000000 
#    y 0.000000 1.730810 0.000000 
#    z 0.000000 0.000000 1.797310 
# 
# From -- ./inp_files/26863.got.cif
#   From: 2010.05.17/outbox.cif.g08.bks.cpg/sg62_14_cif.got.tgz:26863.got - 2010.06.03 15:25:27.
