data_PCOD9463610
_publ_section_title
;
Structure prediction by ZEFSAII (Michael W. Deem and Ramdas Pophale) SiO2 
 PCOD9463610
Probable space group: P N M A
;
_chemical_formula_sum "Si O2"
_cell_formula_units_Z 60
_cell_length_a 5.428901
_cell_length_b 23.267068
_cell_length_c 25.456826
_cell_angle_alpha 90.000000
_cell_angle_beta 90.000000
_cell_angle_gamma 90.000000
_cell_volume 3215.569016
_symmetry_space_group_name_H-M "P N M A"
_symmetry_group_IT_number 62
_symmetry_cell_setting 'orthorhombic'
loop_
_space_group_symop_operation_xyz
x,y,z
1/2-x,-y,1/2+z
1/2+x,1/2-y,1/2-z
-x,1/2+y,-z
-x,-y,-z
1/2+x,y,1/2-z
1/2-x,1/2+y,1/2+z
x,1/2-y,z
loop_
_atom_site_type_symbol
_atom_site_label
_atom_site_fract_x
_atom_site_fract_y
_atom_site_fract_z
Si Si1 0.750068 0.145433 0.635567
Si Si2 0.750288 0.480599 0.684557
Si Si3 0.249713 0.473789 0.199135
Si Si4 0.750277 0.180372 0.047265
Si Si5 0.750279 0.317186 0.402048
Si Si6 0.750061 0.250000 0.716460
Si Si7 0.749934 0.680688 0.422774
Si Si8 0.750063 0.839148 0.779112
O O1 0.750115 0.083438 0.662962
O O2 0.750089 0.194068 0.680068
O O3 0.499918 0.155285 0.602305
O O4 0.000174 0.155290 0.602290
O O5 0.499602 0.512544 0.668488
O O6 0.750362 0.486346 0.748395
O O7 0.001079 0.512486 0.668470
O O8 0.249906 0.408702 0.219163
O O9 0.750318 0.250000 0.054668
O O10 0.501836 0.157671 0.074403
O O11 0.998822 0.157668 0.074355
O O12 0.750122 0.170267 0.985153
O O13 0.750322 0.250000 0.417500
O O14 0.750105 0.320408 0.339376
O O15 0.500037 0.250000 0.749992
O O16 0.749926 0.750000 0.413957
O O17 0.500120 0.820524 0.749977
#
# Coordination Sequence:
#
# PCOD9463610 Si02
#       8
#     8   8   8   8   8   4   8   8
#     4  12  23  36  53  82 108 151 193 234 288 337
#     4  10  20  33  54  71 105 136 185 240 263 310
#     4  10  19  37  51  76 101 141 194 231 260 316
#     4   9  19  36  59  80 113 151 186 235 276 324
#     4  10  21  36  55  90 120 150 187 214 276 350
#     4  12  26  36  46  72 120 154 180 210 286 356
#     4  11  20  38  57  81 112 145 191 244 280 340
#     4  12  21  36  58  84 121 151 186 227 268 327
#
# _framework density 18.659217000000002
#
# number of rings (size 3 to 8) (size 9 to 14) (size 15 to 20)
#    0.000    1.333    4.000    3.200    3.733    2.667 
#    0.000    0.000    0.000    0.000    0.000   18.667 
#    0.000    0.000    0.000    0.000    0.000    0.000 
#
# Total GULP energy -334844.586777 kJ/mol
# GULP energy per Si atom -5580.743113 kJ/mol
# Density = 1.861675 g / cm^3
# Si number density = 18.659217 Si / 1000 Ang^3
#
#
#
# Elastic Constant Matrix: (Units=GPa)
#
#
# Indices 1 2 3 4 5 6 
#
# 1 230.7086 24.9523 64.9572 0.0000 0.0000 0.0000
# 2 24.9523 44.8213 1.1619 0.0000 0.0000 0.0000
# 3 64.9572 1.1619 60.9505 0.0000 0.0000 0.0000
# 4 0.0000 0.0000 0.0000 21.8406 0.0000 0.0000
# 5 0.0000 0.0000 0.0000 0.0000 37.4883 0.0000
# 6 0.0000 0.0000 0.0000 0.0000 0.0000 -16.0252
#
#
#
# Elastic Compliance Matrix: (Units=1/GPa)
#
#
# Indices 1 2 3 4 5 6 
#
# 1 0.006715 -0.003554 -0.007088 0.000000 0.000000 0.000000
# 2 -0.003554 0.024203 0.003327 0.000000 0.000000 0.000000
# 3 -0.007088 0.003327 0.023898 0.000000 0.000000 0.000000
# 4 0.000000 0.000000 0.000000 0.045786 0.000000 0.000000
# 5 0.000000 0.000000 0.000000 0.000000 0.026675 0.000000
# 6 0.000000 0.000000 0.000000 0.000000 0.000000 -0.062402
#
#
# Mechanical properties :
#
#
# Convention : Reuss Voigt Hill
#
# Bulk Modulus (GPa) = 24.88585 57.62482 41.25534
# Shear Modulus (GPa) = 53.82029 25.02133 39.42081
#
# Velocity S-wave (km/s) = 5.37647 3.66589 4.60137
# Velocity P-wave (km/s) = 7.20471 6.99057 7.09845
#
# Compressibility (1/GPa) = 0.04018347
#
# Stress axis : x y z
#
# Youngs Moduli (GPa) = 148.92856 41.31664 41.84529
#
# Poissons Ratio (x) = 0.14685 0.29661
# Poissons Ratio (y) = 0.52934 -0.13920
# Poissons Ratio (z) = 1.05565 -0.13744
#
# Static dielectric constant tensor:
#      x y z
#    x 1.789980 0.000000 0.000000 
#    y 0.000000 1.633340 0.000000 
#    z 0.000000 0.000000 1.609180 
# 
# From -- ./inp_files/25419.got.cif
#   From: 2010.05.17/outbox.cif.g08.bks.cpg/sg62_13_cif.got.tgz:25419.got - 2010.06.03 15:25:27.
