data_PCOD9463490
_publ_section_title
;
Structure prediction by ZEFSAII (Michael W. Deem and Ramdas Pophale) SiO2 
 PCOD9463490
Probable space group: P N M A
;
_chemical_formula_sum "Si O2"
_cell_formula_units_Z 48
_cell_length_a 8.119611
_cell_length_b 18.730934
_cell_length_c 12.886625
_cell_angle_alpha 90.000000
_cell_angle_beta 90.000000
_cell_angle_gamma 90.000000
_cell_volume 1959.899705
_symmetry_space_group_name_H-M "P N M A"
_symmetry_group_IT_number 62
_symmetry_cell_setting 'orthorhombic'
loop_
_space_group_symop_operation_xyz
x,y,z
1/2-x,-y,1/2+z
1/2+x,1/2-y,1/2-z
-x,1/2+y,-z
-x,-y,-z
1/2+x,y,1/2-z
1/2-x,1/2+y,1/2+z
x,1/2-y,z
loop_
_atom_site_type_symbol
_atom_site_label
_atom_site_fract_x
_atom_site_fract_y
_atom_site_fract_z
Si Si1 0.983208 0.250000 0.152134
Si Si2 0.873194 0.090679 0.410466
Si Si3 0.574782 0.164937 0.877395
Si Si4 0.313171 0.954005 0.954300
Si Si5 0.680736 0.165851 0.642900
Si Si6 0.628593 0.750000 0.883970
Si Si7 0.018183 0.393686 0.064594
O O1 0.954438 0.250000 0.273022
O O2 0.921925 0.323364 0.104873
O O3 0.176003 0.250000 0.127624
O O4 0.910205 0.174056 0.432902
O O5 0.685608 0.093150 0.368951
O O6 0.048958 0.063610 0.366743
O O7 0.849756 0.031464 0.499305
O O8 0.614223 0.250000 0.898418
O O9 0.655773 0.106968 0.956203
O O10 0.636714 0.147717 0.760777
O O11 0.377110 0.157954 0.866586
O O12 0.121716 0.952510 0.926500
O O13 0.641696 0.250000 0.627108
O O14 0.582292 0.125175 0.551482
#
# Coordination Sequence:
#
# PCOD9463490 Si02
#       7
#     4   8   8   8   8   4   8
#     4  10  24  40  70 103 123 176 222 279 325 383
#     4  10  24  44  63  93 127 169 214 280 311 395
#     4  10  21  34  60  93 133 172 204 258 317 387
#     4  11  23  39  66  95 129 169 215 256 342 379
#     4  10  19  36  57  93 133 162 213 257 310 386
#     4  10  24  46  68  91 133 164 232 271 329 381
#     4  11  21  39  67  93 131 166 217 270 325 383
#
# _framework density 24.491049
#
# number of rings (size 3 to 8) (size 9 to 14) (size 15 to 20)
#    0.000    1.667    2.500    1.500    4.667    1.333 
#    0.000    8.333    0.000    0.000    0.000    0.000 
#    0.000    0.000    0.000    0.000    0.000    0.000 
#
# Total GULP energy -267621.567892 kJ/mol
# GULP energy per Si atom -5575.449331 kJ/mol
# Density = 2.443531 g / cm^3
# Si number density = 24.491049 Si / 1000 Ang^3
#
#
#
# Elastic Constant Matrix: (Units=GPa)
#
#
# Indices 1 2 3 4 5 6 
#
# 1 73.2095 22.9474 14.1702 0.0000 0.0000 0.0000
# 2 22.9474 138.3098 26.0673 0.0000 0.0000 0.0000
# 3 14.1702 26.0673 88.0175 0.0000 0.0000 0.0000
# 4 0.0000 0.0000 0.0000 -11.3500 0.0000 0.0000
# 5 0.0000 0.0000 0.0000 0.0000 29.0370 0.0000
# 6 0.0000 0.0000 0.0000 0.0000 0.0000 40.0742
#
#
#
# Elastic Compliance Matrix: (Units=1/GPa)
#
#
# Indices 1 2 3 4 5 6 
#
# 1 0.014655 -0.002104 -0.001736 0.000000 0.000000 0.000000
# 2 -0.002104 0.007960 -0.002019 0.000000 0.000000 0.000000
# 3 -0.001736 -0.002019 0.012239 0.000000 0.000000 0.000000
# 4 0.000000 0.000000 0.000000 -0.088106 0.000000 0.000000
# 5 0.000000 0.000000 0.000000 0.000000 0.034439 0.000000
# 6 0.000000 0.000000 0.000000 0.000000 0.000000 0.024954
#
#
# Mechanical properties :
#
#
# Convention : Reuss Voigt Hill
#
# Bulk Modulus (GPa) = 43.22365 47.32294 45.27330
# Shear Modulus (GPa) = 195.54106 27.30902 111.42504
#
# Velocity S-wave (km/s) = 8.94512 3.34288 6.75241
# Velocity P-wave (km/s) = 11.15231 5.85357 8.90613
#
# Compressibility (1/GPa) = 0.02313548
#
# Stress axis : x y z
#
# Youngs Moduli (GPa) = 68.23585 125.63268 81.70793
#
# Poissons Ratio (x) = 0.26436 0.14186
# Poissons Ratio (y) = 0.14359 0.16493
# Poissons Ratio (z) = 0.11847 0.25360
#
# Static dielectric constant tensor:
#      x y z
#    x 2.031710 0.000000 0.000000 
#    y 0.000000 1.988930 0.000000 
#    z 0.000000 0.000000 1.941690 
# 
# From -- ./inp_files/17019.got.cif
#   From: 2010.05.17/outbox.cif.g08.bks.cpg/sg62_9_cif.got.tgz:17019.got - 2010.06.03 15:25:27.
