data_PCOD9463679
_publ_section_title
;
Structure prediction by ZEFSAII (Michael W. Deem and Ramdas Pophale) SiO2 
 PCOD9463679
Probable space group: P N M A
;
_chemical_formula_sum "Si O2"
_cell_formula_units_Z 40
_cell_length_a 10.007054
_cell_length_b 11.313936
_cell_length_c 16.011626
_cell_angle_alpha 90.000000
_cell_angle_beta 90.000000
_cell_angle_gamma 90.000000
_cell_volume 1812.822982
_symmetry_space_group_name_H-M "P N M A"
_symmetry_group_IT_number 62
_symmetry_cell_setting 'orthorhombic'
loop_
_space_group_symop_operation_xyz
x,y,z
1/2-x,-y,1/2+z
1/2+x,1/2-y,1/2-z
-x,1/2+y,-z
-x,-y,-z
1/2+x,y,1/2-z
1/2-x,1/2+y,1/2+z
x,1/2-y,z
loop_
_atom_site_type_symbol
_atom_site_label
_atom_site_fract_x
_atom_site_fract_y
_atom_site_fract_z
Si Si1 0.317924 0.542392 0.470864
Si Si2 0.762721 0.388870 0.186606
Si Si3 0.907481 0.119265 0.897314
Si Si4 0.995022 0.522892 0.277333
Si Si5 0.470685 0.122663 0.952517
O O1 0.306836 0.434625 0.404780
O O2 0.319033 0.484305 0.562325
O O3 0.455223 0.609029 0.450949
O O4 0.190374 0.621957 0.453430
O O5 0.779437 0.250000 0.195355
O O6 0.610120 0.428120 0.200346
O O7 0.859353 0.459003 0.249931
O O8 0.849607 0.250000 0.905485
O O9 0.949316 0.093642 0.802585
O O10 0.979954 0.604864 0.358015
O O11 0.518153 0.250000 0.986789
O O12 0.500000 0.000000 0.000000
#
# Coordination Sequence:
#
# PCOD9463679 Si02
#       5
#     8   8   8   8   8
#     4   9  21  38  60  92 121 159 206 252 309 372
#     4  10  20  38  60  88 129 166 209 257 312 372
#     4  10  19  37  64  90 120 156 202 256 310 369
#     4  10  23  39  60  93 122 164 211 260 313 372
#     4  11  25  44  63  89 127 171 213 260 316 377
#
# _framework density 22.065033
#
# number of rings (size 3 to 8) (size 9 to 14) (size 15 to 20)
#    0.000    2.000    0.000    2.400    2.800    4.800 
#    0.000    4.000    0.000    0.000    0.000    0.000 
#    0.000    0.000    0.000    0.000    0.000    0.000 
#
# Total GULP energy -223547.225767 kJ/mol
# GULP energy per Si atom -5588.680644 kJ/mol
# Density = 2.201481 g / cm^3
# Si number density = 22.065033 Si / 1000 Ang^3
#
#
#
# Elastic Constant Matrix: (Units=GPa)
#
#
# Indices 1 2 3 4 5 6 
#
# 1 55.4055 -0.5556 -7.9279 0.0000 0.0000 0.0000
# 2 -0.5556 140.2895 36.9995 0.0000 0.0000 0.0000
# 3 -7.9279 36.9995 99.6648 0.0000 0.0000 0.0000
# 4 0.0000 0.0000 0.0000 1.7353 0.0000 0.0000
# 5 0.0000 0.0000 0.0000 0.0000 29.2492 0.0000
# 6 0.0000 0.0000 0.0000 0.0000 0.0000 -4.8407
#
#
#
# Elastic Compliance Matrix: (Units=1/GPa)
#
#
# Indices 1 2 3 4 5 6 
#
# 1 0.018272 -0.000345 0.001581 0.000000 0.000000 0.000000
# 2 -0.000345 0.007908 -0.002963 0.000000 0.000000 0.000000
# 3 0.001581 -0.002963 0.011260 0.000000 0.000000 0.000000
# 4 0.000000 0.000000 0.000000 0.576273 0.000000 0.000000
# 5 0.000000 0.000000 0.000000 0.000000 0.034189 0.000000
# 6 0.000000 0.000000 0.000000 0.000000 0.000000 -0.206583
#
#
# Mechanical properties :
#
#
# Convention : Reuss Voigt Hill
#
# Bulk Modulus (GPa) = 29.42373 39.15464 34.28918
# Shear Modulus (GPa) = 10.96250 23.01834 16.99042
#
# Velocity S-wave (km/s) = 2.23138 3.23337 2.77793
# Velocity P-wave (km/s) = 4.47244 5.63234 5.08556
#
# Compressibility (1/GPa) = 0.03398618
#
# Stress axis : x y z
#
# Youngs Moduli (GPa) = 54.72980 126.44978 88.81376
#
# Poissons Ratio (x) = 0.04359 -0.14045
# Poissons Ratio (y) = 0.01887 0.26318
# Poissons Ratio (z) = -0.08655 0.37471
#
# Static dielectric constant tensor:
#      x y z
#    x 1.830470 0.000000 0.000000 
#    y 0.000000 1.791230 0.000000 
#    z 0.000000 0.000000 1.811790 
# 
# From -- ./inp_files/17789.got.cif
#   From: 2010.05.17/outbox.cif.g08.bks.cpg/sg62_9_cif.got.tgz:17789.got - 2010.06.03 15:25:27.
