data_PCOD9463334
_publ_section_title
;
Structure prediction by ZEFSAII (Michael W. Deem and Ramdas Pophale) SiO2 
 PCOD9463334
Probable space group: P N M A
;
_chemical_formula_sum "Si O2"
_cell_formula_units_Z 64
_cell_length_a 24.866990
_cell_length_b 8.133695
_cell_length_c 14.100451
_cell_angle_alpha 90.000000
_cell_angle_beta 90.000000
_cell_angle_gamma 90.000000
_cell_volume 2851.964442
_symmetry_space_group_name_H-M "P N M A"
_symmetry_group_IT_number 62
_symmetry_cell_setting 'orthorhombic'
loop_
_space_group_symop_operation_xyz
x,y,z
1/2-x,-y,1/2+z
1/2+x,1/2-y,1/2-z
-x,1/2+y,-z
-x,-y,-z
1/2+x,y,1/2-z
1/2-x,1/2+y,1/2+z
x,1/2-y,z
loop_
_atom_site_type_symbol
_atom_site_label
_atom_site_fract_x
_atom_site_fract_y
_atom_site_fract_z
Si Si1 0.442129 0.933758 0.108542
Si Si2 0.220195 0.051453 0.212222
Si Si3 0.778692 0.945690 0.562737
Si Si4 0.607234 0.564642 0.066623
Si Si5 0.460119 0.939138 0.771878
Si Si6 0.112813 0.451256 0.108738
Si Si7 0.163113 0.056127 0.920918
Si Si8 0.337972 0.057525 0.208646
O O1 0.444680 0.750000 0.070400
O O2 0.491646 0.967243 0.177600
O O3 0.387846 0.959437 0.168005
O O4 0.436142 0.049749 0.017395
O O5 0.221267 0.250000 0.202342
O O6 0.216848 0.017675 0.324233
O O7 0.167339 0.989264 0.160199
O O8 0.278930 0.992833 0.178715
O O9 0.775442 0.750000 0.549219
O O10 0.834946 0.014160 0.524625
O O11 0.722544 0.028250 0.533977
O O12 0.609642 0.750000 0.101939
O O13 0.589180 0.450612 0.153378
O O14 0.476591 0.750000 0.760752
O O15 0.437774 0.004287 0.671824
O O16 0.113070 0.250000 0.112957
O O17 0.119230 0.495671 0.998910
O O18 0.157268 0.250000 0.900701
O O19 0.160776 0.957885 0.823136
O O20 0.343219 0.250000 0.182562
#
# Coordination Sequence:
#
# PCOD9463334 Si02
#       8
#     8   8   8   8   8   8   8   8
#     4  12  26  43  62  87 119 157 205 256 305 361
#     4   8  15  31  56  84 116 154 192 237 294 351
#     4  10  19  35  57  85 122 163 202 245 298 355
#     4  12  24  39  60  90 123 160 201 246 304 367
#     4  11  22  42  66  89 120 159 204 249 302 363
#     4   9  18  34  60  90 120 158 198 244 299 357
#     4  10  20  35  59  91 125 161 202 249 305 364
#     4  10  21  39  62  87 121 161 203 251 307 361
#
# _framework density 22.440671999999999
#
# number of rings (size 3 to 8) (size 9 to 14) (size 15 to 20)
#    0.000    1.750    1.250    4.875    1.750    0.000 
#    0.000    3.125    0.000    0.000    0.000    0.000 
#    0.000    0.000    0.000    0.000    0.000    0.000 
#
# Total GULP energy -357790.702122 kJ/mol
# GULP energy per Si atom -5590.479721 kJ/mol
# Density = 2.238960 g / cm^3
# Si number density = 22.440672 Si / 1000 Ang^3
#
#
#
# Elastic Constant Matrix: (Units=GPa)
#
#
# Indices 1 2 3 4 5 6 
#
# 1 56.4236 -3.0681 -3.3906 0.0000 0.0000 0.0000
# 2 -3.0681 53.3736 -7.8853 0.0000 0.0000 0.0000
# 3 -3.3906 -7.8853 32.3882 0.0000 0.0000 0.0000
# 4 0.0000 0.0000 0.0000 19.7593 0.0000 0.0000
# 5 0.0000 0.0000 0.0000 0.0000 32.0267 0.0000
# 6 0.0000 0.0000 0.0000 0.0000 0.0000 24.9707
#
#
#
# Elastic Compliance Matrix: (Units=1/GPa)
#
#
# Indices 1 2 3 4 5 6 
#
# 1 0.017929 0.001357 0.002207 0.000000 0.000000 0.000000
# 2 0.001357 0.019538 0.004899 0.000000 0.000000 0.000000
# 3 0.002207 0.004899 0.032299 0.000000 0.000000 0.000000
# 4 0.000000 0.000000 0.000000 0.050609 0.000000 0.000000
# 5 0.000000 0.000000 0.000000 0.000000 0.031224 0.000000
# 6 0.000000 0.000000 0.000000 0.000000 0.000000 0.040047
#
#
# Mechanical properties :
#
#
# Convention : Reuss Voigt Hill
#
# Bulk Modulus (GPa) = 11.53513 12.61082 12.07297
# Shear Modulus (GPa) = 24.55580 25.78664 25.17122
#
# Velocity S-wave (km/s) = 3.31154 3.39352 3.35278
# Velocity P-wave (km/s) = 4.44670 4.58110 4.51440
#
# Compressibility (1/GPa) = 0.08669171
#
# Stress axis : x y z
#
# Youngs Moduli (GPa) = 55.77402 51.18343 30.96058
#
# Poissons Ratio (x) = -0.06944 -0.06834
# Poissons Ratio (y) = -0.07567 -0.15167
# Poissons Ratio (z) = -0.12311 -0.25073
#
# Static dielectric constant tensor:
#      x y z
#    x 1.857940 0.000000 0.000000 
#    y 0.000000 1.760700 0.000000 
#    z 0.000000 0.000000 1.859340 
# 
# From -- ./inp_files/20761.got.cif
#   From: 2010.05.17/outbox.cif.g08.bks.cpg/sg62_11_cif.got.tgz:20761.got - 2010.06.03 15:25:27.
