data_PCOD9463325
_publ_section_title
;
Structure prediction by ZEFSAII (Michael W. Deem and Ramdas Pophale) SiO2 
 PCOD9463325
Probable space group: P N M A
;
_chemical_formula_sum "Si O2"
_cell_formula_units_Z 64
_cell_length_a 20.294642
_cell_length_b 8.730858
_cell_length_c 19.938374
_cell_angle_alpha 90.000000
_cell_angle_beta 90.000000
_cell_angle_gamma 90.000000
_cell_volume 3532.873261
_symmetry_space_group_name_H-M "P N M A"
_symmetry_group_IT_number 62
_symmetry_cell_setting 'orthorhombic'
loop_
_space_group_symop_operation_xyz
x,y,z
1/2-x,-y,1/2+z
1/2+x,1/2-y,1/2-z
-x,1/2+y,-z
-x,-y,-z
1/2+x,y,1/2-z
1/2-x,1/2+y,1/2+z
x,1/2-y,z
loop_
_atom_site_type_symbol
_atom_site_label
_atom_site_fract_x
_atom_site_fract_y
_atom_site_fract_z
Si Si1 0.320160 0.932505 0.095066
Si Si2 0.590034 0.566585 0.674561
Si Si3 0.066623 0.431433 0.969602
Si Si4 0.209749 0.932647 0.738307
Si Si5 0.988760 0.564126 0.707450
Si Si6 0.329537 0.433620 0.571012
Si Si7 0.459054 0.065904 0.062071
Si Si8 0.858742 0.565710 0.784022
O O1 0.326550 0.750000 0.088861
O O2 0.247782 0.978317 0.067678
O O3 0.317079 0.980299 0.173173
O O4 0.383188 0.011450 0.061927
O O5 0.583161 0.750000 0.663747
O O6 0.571558 0.480264 0.607502
O O7 0.664344 0.533782 0.698271
O O8 0.543091 0.523769 0.736779
O O9 0.934386 0.750000 0.023469
O O10 0.127875 0.498841 0.011039
O O11 0.000000 0.500000 0.000000
O O12 0.203356 0.750000 0.724615
O O13 0.286715 0.967974 0.746330
O O14 0.987414 0.750000 0.704445
O O15 0.918213 0.513362 0.736538
O O16 0.009294 0.512412 0.633245
O O17 0.332998 0.250000 0.570351
O O18 0.358482 0.493307 0.641895
O O19 0.461004 0.250000 0.060417
O O20 0.500000 0.000000 0.000000
O O21 0.864278 0.750000 0.791881
#
# Coordination Sequence:
#
# PCOD9463325 Si02
#       8
#     8   8   8   8   8   8   8   8
#     4  10  20  36  60  86 113 149 194 240 286 340
#     4  10  19  35  57  82 113 153 193 235 282 338
#     4  12  25  40  58  84 117 155 195 241 292 348
#     4   9  17  32  56  83 111 145 186 229 278 340
#     4   9  18  34  57  82 111 146 186 229 279 342
#     4  10  21  38  59  86 118 154 195 240 288 344
#     4  11  22  39  59  83 115 151 194 243 296 353
#     4   9  17  32  57  86 112 147 190 232 281 339
#
# _framework density 18.115566000000001
#
# number of rings (size 3 to 8) (size 9 to 14) (size 15 to 20)
#    0.000    2.000    1.250    3.000    0.000    3.000 
#    2.250    1.250    0.000    0.000    0.000    0.000 
#    0.000    0.000    0.000    0.000    0.000    0.000 
#
# Total GULP energy -357288.664668 kJ/mol
# GULP energy per Si atom -5582.635385 kJ/mol
# Density = 1.807433 g / cm^3
# Si number density = 18.115566 Si / 1000 Ang^3
#
#
#
# Elastic Constant Matrix: (Units=GPa)
#
#
# Indices 1 2 3 4 5 6 
#
# 1 127.6291 44.3908 81.8364 0.0000 0.0000 0.0000
# 2 44.3908 45.9254 40.3349 0.0000 0.0000 0.0000
# 3 81.8364 40.3349 128.9790 0.0000 0.0000 0.0000
# 4 0.0000 0.0000 0.0000 29.3134 0.0000 0.0000
# 5 0.0000 0.0000 0.0000 0.0000 28.9398 0.0000
# 6 0.0000 0.0000 0.0000 0.0000 0.0000 24.3323
#
#
#
# Elastic Compliance Matrix: (Units=1/GPa)
#
#
# Indices 1 2 3 4 5 6 
#
# 1 0.015362 -0.008669 -0.007036 0.000000 0.000000 0.000000
# 2 -0.008669 0.034912 -0.005417 0.000000 0.000000 0.000000
# 3 -0.007036 -0.005417 0.013912 0.000000 0.000000 0.000000
# 4 0.000000 0.000000 0.000000 0.034114 0.000000 0.000000
# 5 0.000000 0.000000 0.000000 0.000000 0.034554 0.000000
# 6 0.000000 0.000000 0.000000 0.000000 0.000000 0.041098
#
#
# Mechanical properties :
#
#
# Convention : Reuss Voigt Hill
#
# Bulk Modulus (GPa) = 45.57780 70.62864 58.10322
# Shear Modulus (GPa) = 22.37038 25.58185 23.97611
#
# Velocity S-wave (km/s) = 3.51789 3.76193 3.64195
# Velocity P-wave (km/s) = 6.45870 7.61196 7.05892
#
# Compressibility (1/GPa) = 0.02194051
#
# Stress axis : x y z
#
# Youngs Moduli (GPa) = 65.09593 28.64371 71.88230
#
# Poissons Ratio (x) = 0.24832 0.50577
# Poissons Ratio (y) = 0.56432 0.38940
# Poissons Ratio (z) = 0.45802 0.15517
#
# Static dielectric constant tensor:
#      x y z
#    x 1.634180 0.000000 0.000000 
#    y 0.000000 1.615630 0.000000 
#    z 0.000000 0.000000 1.587660 
# 
# From -- ./inp_files/24711.got.cif
#   From: 2010.05.17/outbox.cif.g08.bks.cpg/sg62_13_cif.got.tgz:24711.got - 2010.06.03 15:25:27.
