data_PCOD9463267
_publ_section_title
;
Structure prediction by ZEFSAII (Michael W. Deem and Ramdas Pophale) SiO2 
 PCOD9463267
Probable space group: P N M A
;
_chemical_formula_sum "Si O2"
_cell_formula_units_Z 64
_cell_length_a 7.606428
_cell_length_b 25.114980
_cell_length_c 14.649550
_cell_angle_alpha 90.000000
_cell_angle_beta 90.000000
_cell_angle_gamma 90.000000
_cell_volume 2798.580990
_symmetry_space_group_name_H-M "P N M A"
_symmetry_group_IT_number 62
_symmetry_cell_setting 'orthorhombic'
loop_
_space_group_symop_operation_xyz
x,y,z
1/2-x,-y,1/2+z
1/2+x,1/2-y,1/2-z
-x,1/2+y,-z
-x,-y,-z
1/2+x,y,1/2-z
1/2-x,1/2+y,1/2+z
x,1/2-y,z
loop_
_atom_site_type_symbol
_atom_site_label
_atom_site_fract_x
_atom_site_fract_y
_atom_site_fract_z
Si Si1 0.875572 0.190171 0.583159
Si Si2 0.415202 0.038299 0.179865
Si Si3 0.196713 0.374580 0.564885
Si Si4 0.876610 0.370907 0.757171
Si Si5 0.753750 0.530609 0.549516
Si Si6 0.849369 0.553483 0.165768
Si Si7 0.051021 0.093273 0.154773
Si Si8 0.481537 0.687773 0.527456
O O1 0.937089 0.250000 0.564205
O O2 0.880730 0.179803 0.692273
O O3 0.680564 0.184430 0.543566
O O4 0.007650 0.148127 0.537265
O O5 0.560301 0.026715 0.102801
O O6 0.226886 0.057673 0.143258
O O7 0.499648 0.086404 0.239429
O O8 0.384782 0.991019 0.255337
O O9 0.214586 0.365326 0.672886
O O10 0.216838 0.437276 0.543200
O O11 0.345629 0.338728 0.517130
O O12 0.833985 0.418819 0.687865
O O13 0.017439 0.397792 0.824432
O O14 0.661390 0.473851 0.567165
O O15 0.616664 0.568830 0.602233
O O16 0.071519 0.152030 0.114612
O O17 0.510360 0.750000 0.547865
#
# Coordination Sequence:
#
# PCOD9463267 Si02
#       8
#     8   8   8   8   8   8   8   8
#     4  11  25  45  68  92 123 172 221 270 332 378
#     4  11  18  36  64  90 124 176 209 248 307 391
#     4  11  24  43  66  96 126 167 217 266 318 386
#     4  12  23  41  62  93 132 161 211 275 305 378
#     4  10  21  38  64  92 127 172 208 256 320 378
#     4  11  20  38  61  89 130 167 206 253 315 376
#     4  10  19  34  62  93 122 164 216 253 317 384
#     4  10  23  43  64  91 127 161 210 279 326 373
#
# _framework density 22.868734
#
# number of rings (size 3 to 8) (size 9 to 14) (size 15 to 20)
#    0.000    1.250    5.000    2.625    0.000    1.500 
#    0.000    5.625    0.000    0.000    0.000    0.000 
#    0.000    0.000    0.000    0.000    0.000    0.000 
#
# Total GULP energy -357326.830827 kJ/mol
# GULP energy per Si atom -5583.231732 kJ/mol
# Density = 2.281668 g / cm^3
# Si number density = 22.868734 Si / 1000 Ang^3
#
#
#
# Elastic Constant Matrix: (Units=GPa)
#
#
# Indices 1 2 3 4 5 6 
#
# 1 100.5615 24.3857 6.6969 0.0000 0.0000 0.0000
# 2 24.3857 94.1556 12.3002 0.0000 0.0000 0.0000
# 3 6.6969 12.3002 54.5392 0.0000 0.0000 0.0000
# 4 0.0000 0.0000 0.0000 36.8855 0.0000 0.0000
# 5 0.0000 0.0000 0.0000 0.0000 22.7280 0.0000
# 6 0.0000 0.0000 0.0000 0.0000 0.0000 29.3744
#
#
#
# Elastic Compliance Matrix: (Units=1/GPa)
#
#
# Indices 1 2 3 4 5 6 
#
# 1 0.010637 -0.002663 -0.000706 0.000000 0.000000 0.000000
# 2 -0.002663 0.011610 -0.002291 0.000000 0.000000 0.000000
# 3 -0.000706 -0.002291 0.018939 0.000000 0.000000 0.000000
# 4 0.000000 0.000000 0.000000 0.027111 0.000000 0.000000
# 5 0.000000 0.000000 0.000000 0.000000 0.043999 0.000000
# 6 0.000000 0.000000 0.000000 0.000000 0.000000 0.034043
#
#
# Mechanical properties :
#
#
# Convention : Reuss Voigt Hill
#
# Bulk Modulus (GPa) = 33.48281 37.33576 35.40929
# Shear Modulus (GPa) = 29.83066 31.52248 30.67657
#
# Velocity S-wave (km/s) = 3.61561 3.71672 3.66651
# Velocity P-wave (km/s) = 5.66597 5.89748 5.78288
#
# Compressibility (1/GPa) = 0.02986607
#
# Stress axis : x y z
#
# Youngs Moduli (GPa) = 94.01285 86.13508 52.80155
#
# Poissons Ratio (x) = 0.22935 0.03726
# Poissons Ratio (y) = 0.25033 0.12099
# Poissons Ratio (z) = 0.06633 0.19737
#
# Static dielectric constant tensor:
#      x y z
#    x 2.034570 0.000000 0.000000 
#    y 0.000000 1.839670 0.000000 
#    z 0.000000 0.000000 1.924030 
# 
# From -- ./inp_files/17368.got.cif
#   From: 2010.05.17/outbox.cif.g08.bks.cpg/sg62_9_cif.got.tgz:17368.got - 2010.06.03 15:25:27.
