data_PCOD9463065
_publ_section_title
;
Structure prediction by ZEFSAII (Michael W. Deem and Ramdas Pophale) SiO2 
 PCOD9463065
Probable space group: P N M A
;
_chemical_formula_sum "Si O2"
_cell_formula_units_Z 48
_cell_length_a 11.017455
_cell_length_b 19.294134
_cell_length_c 13.183274
_cell_angle_alpha 90.000000
_cell_angle_beta 90.000000
_cell_angle_gamma 90.000000
_cell_volume 2802.398258
_symmetry_space_group_name_H-M "P N M A"
_symmetry_group_IT_number 62
_symmetry_cell_setting 'orthorhombic'
loop_
_space_group_symop_operation_xyz
x,y,z
1/2-x,-y,1/2+z
1/2+x,1/2-y,1/2-z
-x,1/2+y,-z
-x,-y,-z
1/2+x,y,1/2-z
1/2-x,1/2+y,1/2+z
x,1/2-y,z
loop_
_atom_site_type_symbol
_atom_site_label
_atom_site_fract_x
_atom_site_fract_y
_atom_site_fract_z
Si Si1 0.052026 0.610518 0.945739
Si Si2 0.072391 0.523560 0.131755
Si Si3 0.817003 0.462801 0.462157
Si Si4 0.212043 0.327608 0.081567
Si Si5 0.723020 0.330800 0.182509
Si Si6 0.930401 0.533986 0.651656
O O1 0.167751 0.645455 0.892065
O O2 0.029491 0.533309 0.899947
O O3 0.931023 0.653884 0.920801
O O4 0.056831 0.593769 0.066635
O O5 0.201014 0.493866 0.094097
O O6 0.075253 0.517354 0.252449
O O7 0.782287 0.383775 0.484139
O O8 0.846163 0.504773 0.562653
O O9 0.933836 0.464815 0.390660
O O10 0.230794 0.250000 0.046750
O O11 0.257555 0.333920 0.198186
O O12 0.689801 0.250000 0.162020
O O13 0.616787 0.388282 0.174221
#
# Coordination Sequence:
#
# PCOD9463065 Si02
#       6
#     8   8   8   8   8   8
#     4  10  19  34  51  80 106 140 180 218 268 316
#     4  10  20  32  58  77 106 141 178 229 263 308
#     4  10  21  35  53  79 111 144 175 225 266 316
#     4  10  21  34  54  82 109 142 176 218 274 324
#     4  11  21  32  52  80 114 141 166 221 279 322
#     4  11  21  35  53  82 111 140 187 218 268 326
#
# _framework density 17.128187
#
# number of rings (size 3 to 8) (size 9 to 14) (size 15 to 20)
#    0.000    1.667    5.000    1.500    0.000    0.667 
#    0.000    0.000    0.000    2.000    0.000    0.000 
#    0.000    0.000    0.000    0.000    0.000    0.000 
#
# Total GULP energy -267533.086135 kJ/mol
# GULP energy per Si atom -5573.605961 kJ/mol
# Density = 1.708920 g / cm^3
# Si number density = 17.128187 Si / 1000 Ang^3
#
#
#
# Elastic Constant Matrix: (Units=GPa)
#
#
# Indices 1 2 3 4 5 6 
#
# 1 47.0942 15.4183 28.0108 0.0000 0.0000 0.0000
# 2 15.4183 84.3380 24.6616 0.0000 0.0000 0.0000
# 3 28.0108 24.6616 49.1886 0.0000 0.0000 0.0000
# 4 0.0000 0.0000 0.0000 21.1717 0.0000 0.0000
# 5 0.0000 0.0000 0.0000 0.0000 5.8664 0.0000
# 6 0.0000 0.0000 0.0000 0.0000 0.0000 15.2797
#
#
#
# Elastic Compliance Matrix: (Units=1/GPa)
#
#
# Indices 1 2 3 4 5 6 
#
# 1 0.032137 -0.000614 -0.017993 0.000000 0.000000 0.000000
# 2 -0.000614 0.013906 -0.006622 0.000000 0.000000 0.000000
# 3 -0.017993 -0.006622 0.033896 0.000000 0.000000 0.000000
# 4 0.000000 0.000000 0.000000 0.047233 0.000000 0.000000
# 5 0.000000 0.000000 0.000000 0.000000 0.170462 0.000000
# 6 0.000000 0.000000 0.000000 0.000000 0.000000 0.065446
#
#
# Mechanical properties :
#
#
# Convention : Reuss Voigt Hill
#
# Bulk Modulus (GPa) = 33.92021 35.20022 34.56022
# Shear Modulus (GPa) = 11.81014 15.96556 13.88785
#
# Velocity S-wave (km/s) = 2.62871 3.05638 2.85058
# Velocity P-wave (km/s) = 5.39075 5.74899 5.57275
#
# Compressibility (1/GPa) = 0.02948095
#
# Stress axis : x y z
#
# Youngs Moduli (GPa) = 31.11699 71.91284 29.50176
#
# Poissons Ratio (x) = 0.04414 0.53082
# Poissons Ratio (y) = 0.01910 0.19537
# Poissons Ratio (z) = 0.55988 0.47623
#
# Static dielectric constant tensor:
#      x y z
#    x 1.590150 0.000000 0.000000 
#    y 0.000000 1.587260 0.000000 
#    z 0.000000 0.000000 1.595610 
# 
# From -- ./inp_files/12367.got.cif
#   From: 2010.05.17/outbox.cif.g08.bks.cpg/sg62_7_cif.got.tgz:12367.got - 2010.06.03 15:25:27.
