data_PCOD9463869
_publ_section_title
;
Structure prediction by ZEFSAII (Michael W. Deem and Ramdas Pophale) SiO2 
 PCOD9463869
Probable space group: P N M A
;
_chemical_formula_sum "Si O2"
_cell_formula_units_Z 56
_cell_length_a 14.529699
_cell_length_b 8.878997
_cell_length_c 25.090073
_cell_angle_alpha 90.000000
_cell_angle_beta 90.000000
_cell_angle_gamma 90.000000
_cell_volume 3236.849087
_symmetry_space_group_name_H-M "P N M A"
_symmetry_group_IT_number 62
_symmetry_cell_setting 'orthorhombic'
loop_
_space_group_symop_operation_xyz
x,y,z
1/2-x,-y,1/2+z
1/2+x,1/2-y,1/2-z
-x,1/2+y,-z
-x,-y,-z
1/2+x,y,1/2-z
1/2-x,1/2+y,1/2+z
x,1/2-y,z
loop_
_atom_site_type_symbol
_atom_site_label
_atom_site_fract_x
_atom_site_fract_y
_atom_site_fract_z
Si Si1 0.103211 0.929221 0.499433
Si Si2 0.488108 0.918689 0.839533
Si Si3 0.701766 0.425240 0.101897
Si Si4 0.149402 0.073686 0.607771
Si Si5 0.727815 0.931776 0.290241
Si Si6 0.338914 0.569478 0.317463
Si Si7 0.473602 0.574707 0.713750
O O1 0.094439 0.750000 0.495965
O O2 0.161839 0.993645 0.450220
O O3 0.153443 0.979109 0.553843
O O4 0.000000 0.000000 0.500000
O O5 0.520159 0.750000 0.855892
O O6 0.382587 0.930369 0.856219
O O7 0.496533 0.933249 0.776625
O O8 0.547756 0.042941 0.869011
O O9 0.721477 0.250000 0.090340
O O10 0.786187 0.504116 0.131434
O O11 0.162536 0.250000 0.596311
O O12 0.216608 0.027837 0.656056
O O13 0.720966 0.750000 0.288449
O O14 0.784154 0.978285 0.236903
O O15 0.626585 0.001720 0.292547
O O16 0.338159 0.750000 0.318634
O O17 0.442917 0.509739 0.314899
O O18 0.470948 0.750000 0.698279
#
# Coordination Sequence:
#
# PCOD9463869 Si02
#       7
#     8   8   8   8   8   8   8
#     4  12  24  38  57  84 115 153 192 236 287 342
#     4  10  20  32  52  82 117 152 188 232 279 335
#     4  11  22  38  57  84 117 153 193 236 283 341
#     4  11  22  37  57  83 115 153 192 236 284 342
#     4  10  22  37  56  83 115 152 191 232 285 340
#     4  11  22  37  57  84 117 154 191 235 286 342
#     4  11  22  36  56  83 116 154 193 236 283 336
#
# _framework density 17.300775000000002
#
# number of rings (size 3 to 8) (size 9 to 14) (size 15 to 20)
#    0.000    1.143    4.286    3.000    0.000    2.857 
#    0.000    0.000    0.000    0.857    0.000    0.000 
#    0.000    0.000    0.000    0.000    0.000    0.000 
#
# Total GULP energy -312768.175158 kJ/mol
# GULP energy per Si atom -5585.145985 kJ/mol
# Density = 1.726140 g / cm^3
# Si number density = 17.300775 Si / 1000 Ang^3
#
#
#
# Elastic Constant Matrix: (Units=GPa)
#
#
# Indices 1 2 3 4 5 6 
#
# 1 70.5092 23.5702 10.0389 0.0000 0.0000 0.0000
# 2 23.5702 73.4403 28.6249 0.0000 0.0000 0.0000
# 3 10.0389 28.6249 59.8346 0.0000 0.0000 0.0000
# 4 0.0000 0.0000 0.0000 26.7859 0.0000 0.0000
# 5 0.0000 0.0000 0.0000 0.0000 30.7052 0.0000
# 6 0.0000 0.0000 0.0000 0.0000 0.0000 29.1742
#
#
#
# Elastic Compliance Matrix: (Units=1/GPa)
#
#
# Indices 1 2 3 4 5 6 
#
# 1 0.015891 -0.004992 -0.000278 0.000000 0.000000 0.000000
# 2 -0.004992 0.018305 -0.007920 0.000000 0.000000 0.000000
# 3 -0.000278 -0.007920 0.020548 0.000000 0.000000 0.000000
# 4 0.000000 0.000000 0.000000 0.037333 0.000000 0.000000
# 5 0.000000 0.000000 0.000000 0.000000 0.032568 0.000000
# 6 0.000000 0.000000 0.000000 0.000000 0.000000 0.034277
#
#
# Mechanical properties :
#
#
# Convention : Reuss Voigt Hill
#
# Bulk Modulus (GPa) = 35.25436 36.47245 35.86341
# Shear Modulus (GPa) = 25.67307 26.76973 26.22140
#
# Velocity S-wave (km/s) = 3.85636 3.93786 3.89732
# Velocity P-wave (km/s) = 6.34430 6.46551 6.40519
#
# Compressibility (1/GPa) = 0.02836528
#
# Stress axis : x y z
#
# Youngs Moduli (GPa) = 62.92961 54.62843 48.66589
#
# Poissons Ratio (x) = 0.27269 0.01353
# Poissons Ratio (y) = 0.31412 0.38543
# Poissons Ratio (z) = 0.01750 0.43265
#
# Static dielectric constant tensor:
#      x y z
#    x 1.559690 0.000000 0.000000 
#    y 0.000000 1.600730 0.000000 
#    z 0.000000 0.000000 1.588510 
# 
# From -- ./inp_files/27145.got.cif
#   From: 2010.05.17/outbox.cif.g08.bks.cpg/sg62_14_cif.got.tgz:27145.got - 2010.06.03 15:25:27.
