data_PCOD9463896
_publ_section_title
;
Structure prediction by ZEFSAII (Michael W. Deem and Ramdas Pophale) SiO2 
 PCOD9463896
Probable space group: P N M A
;
_chemical_formula_sum "Si O2"
_cell_formula_units_Z 56
_cell_length_a 9.548192
_cell_length_b 20.693379
_cell_length_c 16.628833
_cell_angle_alpha 90.000000
_cell_angle_beta 90.000000
_cell_angle_gamma 90.000000
_cell_volume 3285.597256
_symmetry_space_group_name_H-M "P N M A"
_symmetry_group_IT_number 62
_symmetry_cell_setting 'orthorhombic'
loop_
_space_group_symop_operation_xyz
x,y,z
1/2-x,-y,1/2+z
1/2+x,1/2-y,1/2-z
-x,1/2+y,-z
-x,-y,-z
1/2+x,y,1/2-z
1/2-x,1/2+y,1/2+z
x,1/2-y,z
loop_
_atom_site_type_symbol
_atom_site_label
_atom_site_fract_x
_atom_site_fract_y
_atom_site_fract_z
Si Si1 0.004685 0.548604 0.884341
Si Si2 0.892161 0.179119 0.883657
Si Si3 0.698251 0.887236 0.069348
Si Si4 0.424662 0.925643 0.296080
Si Si5 0.239899 0.983459 0.008921
Si Si6 0.393813 0.879128 0.115857
Si Si7 0.071819 0.324096 0.043074
O O1 0.035935 0.500872 0.810207
O O2 0.879309 0.512139 0.931658
O O3 0.146505 0.545230 0.936869
O O4 0.958231 0.623420 0.887207
O O5 0.941068 0.250000 0.855647
O O6 0.725566 0.174871 0.882841
O O7 0.953349 0.121220 0.830149
O O8 0.951706 0.170362 0.974015
O O9 0.793374 0.904811 0.147313
O O10 0.549850 0.857974 0.092914
O O11 0.790680 0.844592 0.008140
O O12 0.675583 0.955834 0.025386
O O13 0.399717 0.910921 0.203795
O O14 0.334379 0.931774 0.053278
O O15 0.079427 0.250000 0.069854
#
# Coordination Sequence:
#
# PCOD9463896 Si02
#       7
#     8   8   8   8   8   8   8
#     4   9  15  32  54  72  92 131 171 218 242 284
#     4  10  20  33  48  67  97 140 176 201 236 298
#     4   9  20  30  46  73 102 128 157 214 256 287
#     4  10  20  33  48  68 102 139 171 202 246 298
#     4   9  16  30  50  69  96 127 165 208 251 290
#     4  12  19  30  48  74 103 131 168 205 251 303
#     4   9  17  33  54  73  94 129 174 211 250 301
#
# _framework density 17.044084000000002
#
# number of rings (size 3 to 8) (size 9 to 14) (size 15 to 20)
#    0.000    2.286    2.857    3.000    0.000    1.143 
#    0.000    2.857    0.000    0.000    0.000    4.000 
#    0.000    1.143    0.000    0.000    0.000    0.000 
#
# Total GULP energy -311898.192741 kJ/mol
# GULP energy per Si atom -5569.610585 kJ/mol
# Density = 1.700529 g / cm^3
# Si number density = 17.044084 Si / 1000 Ang^3
#
#
#
# Elastic Constant Matrix: (Units=GPa)
#
#
# Indices 1 2 3 4 5 6 
#
# 1 92.0590 23.5216 11.2685 0.0000 0.0000 0.0000
# 2 23.5216 105.1370 21.6996 0.0000 0.0000 0.0000
# 3 11.2685 21.6996 21.1731 0.0000 0.0000 0.0000
# 4 0.0000 0.0000 0.0000 11.8103 0.0000 0.0000
# 5 0.0000 0.0000 0.0000 0.0000 9.5699 0.0000
# 6 0.0000 0.0000 0.0000 0.0000 0.0000 12.9225
#
#
#
# Elastic Compliance Matrix: (Units=1/GPa)
#
#
# Indices 1 2 3 4 5 6 
#
# 1 0.011858 -0.001713 -0.004556 0.000000 0.000000 0.000000
# 2 -0.001713 0.012310 -0.011705 0.000000 0.000000 0.000000
# 3 -0.004556 -0.011705 0.061650 0.000000 0.000000 0.000000
# 4 0.000000 0.000000 0.000000 0.084672 0.000000 0.000000
# 5 0.000000 0.000000 0.000000 0.000000 0.104494 0.000000
# 6 0.000000 0.000000 0.000000 0.000000 0.000000 0.077384
#
#
# Mechanical properties :
#
#
# Convention : Reuss Voigt Hill
#
# Bulk Modulus (GPa) = 20.05132 36.81650 28.43391
# Shear Modulus (GPa) = 12.34753 17.65252 15.00002
#
# Velocity S-wave (km/s) = 2.69447 3.22172 2.96982
# Velocity P-wave (km/s) = 4.63359 5.95709 5.33653
#
# Compressibility (1/GPa) = 0.04987203
#
# Stress axis : x y z
#
# Youngs Moduli (GPa) = 84.33265 81.23209 16.22051
#
# Poissons Ratio (x) = 0.13912 0.07389
# Poissons Ratio (y) = 0.14443 0.18986
# Poissons Ratio (z) = 0.38418 0.95083
#
# Static dielectric constant tensor:
#      x y z
#    x 1.601030 0.000000 0.000000 
#    y 0.000000 1.598570 0.000000 
#    z 0.000000 0.000000 1.554050 
# 
# From -- ./inp_files/22518.got.cif
#   From: 2010.05.17/outbox.cif.g08.bks.cpg/sg62_12_cif.got.tgz:22518.got - 2010.06.03 15:25:27.
