data_PCOD9463262
_publ_section_title
;
Structure prediction by ZEFSAII (Michael W. Deem and Ramdas Pophale) SiO2 
 PCOD9463262
Probable space group: P N M A
;
_chemical_formula_sum "Si O2"
_cell_formula_units_Z 64
_cell_length_a 17.926687
_cell_length_b 14.971458
_cell_length_c 11.762006
_cell_angle_alpha 90.000000
_cell_angle_beta 90.000000
_cell_angle_gamma 90.000000
_cell_volume 3156.788812
_symmetry_space_group_name_H-M "P N M A"
_symmetry_group_IT_number 62
_symmetry_cell_setting 'orthorhombic'
loop_
_space_group_symop_operation_xyz
x,y,z
1/2-x,-y,1/2+z
1/2+x,1/2-y,1/2-z
-x,1/2+y,-z
-x,-y,-z
1/2+x,y,1/2-z
1/2-x,1/2+y,1/2+z
x,1/2-y,z
loop_
_atom_site_type_symbol
_atom_site_label
_atom_site_fract_x
_atom_site_fract_y
_atom_site_fract_z
Si Si1 0.009298 0.141926 0.212356
Si Si2 0.788059 0.351826 0.341166
Si Si3 0.515202 0.027391 0.850226
Si Si4 0.482116 0.850002 0.351024
Si Si5 0.125046 0.962348 0.476800
Si Si6 0.634909 0.107391 0.464284
Si Si7 0.278317 0.045341 0.396320
Si Si8 0.105378 0.646433 0.987440
O O1 0.017504 0.250000 0.230468
O O2 0.079983 0.101536 0.144384
O O3 0.937836 0.126968 0.130255
O O4 0.997818 0.076792 0.318696
O O5 0.805120 0.250000 0.304028
O O6 0.845531 0.388391 0.435069
O O7 0.709276 0.352471 0.408259
O O8 0.785202 0.420212 0.233789
O O9 0.544064 0.081882 0.743577
O O10 0.435948 0.069505 0.886167
O O11 0.576030 0.031005 0.948896
O O12 0.495384 0.750000 0.305395
O O13 0.419784 0.842898 0.448612
O O14 0.555916 0.892900 0.410518
O O15 0.196148 0.008938 0.419702
O O16 0.665244 0.026989 0.545046
O O17 0.307747 0.127367 0.472921
O O18 0.094006 0.750000 0.006215
#
# Coordination Sequence:
#
# PCOD9463262 Si02
#       8
#     8   8   8   8   8   8   8   8
#     4  10  19  34  61  92 118 152 198 244 292 346
#     4  11  22  38  61  86 116 153 194 244 295 349
#     4  11  22  41  59  79 116 156 194 242 296 349
#     4  10  20  36  59  84 113 154 196 234 287 350
#     4  10  25  40  56  83 114 147 190 239 291 353
#     4  10  20  35  57  88 121 148 189 245 292 341
#     4  11  21  36  58  83 114 153 188 231 296 351
#     4   9  18  32  54  86 116 142 186 239 279 332
#
# _framework density 20.273766999999999
#
# number of rings (size 3 to 8) (size 9 to 14) (size 15 to 20)
#    0.000    1.750    0.000    6.000    0.000    5.000 
#    0.000    3.750    0.000    3.000    0.000    0.000 
#    0.000    0.000    0.000    0.000    0.000    0.000 
#
# Total GULP energy -356300.925758 kJ/mol
# GULP energy per Si atom -5567.201965 kJ/mol
# Density = 2.022762 g / cm^3
# Si number density = 20.273767 Si / 1000 Ang^3
#
#
#
# Elastic Constant Matrix: (Units=GPa)
#
#
# Indices 1 2 3 4 5 6 
#
# 1 66.0221 14.6870 -11.3692 0.0000 0.0000 0.0000
# 2 14.6870 78.5668 36.0868 0.0000 0.0000 0.0000
# 3 -11.3692 36.0868 51.2460 0.0000 0.0000 0.0000
# 4 0.0000 0.0000 0.0000 0.5255 0.0000 0.0000
# 5 0.0000 0.0000 0.0000 0.0000 25.1494 0.0000
# 6 0.0000 0.0000 0.0000 0.0000 0.0000 0.7509
#
#
#
# Elastic Compliance Matrix: (Units=1/GPa)
#
#
# Indices 1 2 3 4 5 6 
#
# 1 0.018583 -0.007934 0.009710 0.000000 0.000000 0.000000
# 2 -0.007934 0.022200 -0.017393 0.000000 0.000000 0.000000
# 3 0.009710 -0.017393 0.033916 0.000000 0.000000 0.000000
# 4 0.000000 0.000000 0.000000 1.902826 0.000000 0.000000
# 5 0.000000 0.000000 0.000000 0.000000 0.039762 0.000000
# 6 0.000000 0.000000 0.000000 0.000000 0.000000 1.331765
#
#
# Mechanical properties :
#
#
# Convention : Reuss Voigt Hill
#
# Bulk Modulus (GPa) = 23.00709 30.51604 26.76157
# Shear Modulus (GPa) = 1.47285 15.71386 8.59335
#
# Velocity S-wave (km/s) = 0.85326 2.78705 2.06103
# Velocity P-wave (km/s) = 3.51334 5.04396 4.34656
#
# Compressibility (1/GPa) = 0.04346486
#
# Stress axis : x y z
#
# Youngs Moduli (GPa) = 53.81162 45.04507 29.48477
#
# Poissons Ratio (x) = 0.35737 -0.28629
# Poissons Ratio (y) = 0.42692 0.51283
# Poissons Ratio (z) = -0.52249 0.78347
#
# Static dielectric constant tensor:
#      x y z
#    x 1.747930 0.000000 0.000000 
#    y 0.000000 1.792190 0.000000 
#    z 0.000000 0.000000 1.754090 
# 
# From -- ./inp_files/14328.got.cif
#   From: 2010.05.17/outbox.cif.g08.bks.cpg/sg62_8_cif.got.tgz:14328.got - 2010.06.03 15:25:27.
