data_PCOD9463753
_publ_section_title
;
Structure prediction by ZEFSAII (Michael W. Deem and Ramdas Pophale) SiO2 
 PCOD9463753
Probable space group: P N M A
;
_chemical_formula_sum "Si O2"
_cell_formula_units_Z 64
_cell_length_a 13.677739
_cell_length_b 23.227375
_cell_length_c 8.016001
_cell_angle_alpha 90.000000
_cell_angle_beta 90.000000
_cell_angle_gamma 90.000000
_cell_volume 2546.667269
_symmetry_space_group_name_H-M "P N M A"
_symmetry_group_IT_number 62
_symmetry_cell_setting 'orthorhombic'
loop_
_space_group_symop_operation_xyz
x,y,z
1/2-x,-y,1/2+z
1/2+x,1/2-y,1/2-z
-x,1/2+y,-z
-x,-y,-z
1/2+x,y,1/2-z
1/2-x,1/2+y,1/2+z
x,1/2-y,z
loop_
_atom_site_type_symbol
_atom_site_label
_atom_site_fract_x
_atom_site_fract_y
_atom_site_fract_z
Si Si1 0.633719 0.488908 0.608676
Si Si2 0.235527 0.883446 0.305501
Si Si3 0.934558 0.621177 0.554246
Si Si4 0.031289 0.923057 0.229537
Si Si5 0.301282 0.943158 0.735715
Si Si6 0.037811 0.850200 0.887642
Si Si7 0.246238 0.813356 0.982833
Si Si8 0.318924 0.685476 0.583340
O O1 0.679631 0.428043 0.662475
O O2 0.526827 0.481837 0.687429
O O3 0.697295 0.537335 0.696442
O O4 0.658786 0.484243 0.411404
O O5 0.257372 0.827001 0.415372
O O6 0.135917 0.919562 0.321463
O O7 0.236429 0.862371 0.118735
O O8 0.972394 0.615139 0.366955
O O9 0.874352 0.564109 0.608831
O O10 0.014407 0.627776 0.700922
O O11 0.858256 0.674612 0.574328
O O12 0.039153 0.895874 0.041945
O O13 0.295287 0.877426 0.667333
O O14 0.143754 0.820018 0.882758
O O15 0.937339 0.815741 0.934128
O O16 0.243649 0.750000 0.054742
O O17 0.291826 0.750000 0.647776
#
# Coordination Sequence:
#
# PCOD9463753 Si02
#       8
#     8   8   8   8   8   8   8   8
#     4  11  20  44  65  98 141 177 234 291 354 415
#     4  10  22  39  68 102 134 186 234 286 354 429
#     4  11  22  42  64  96 136 183 231 292 347 415
#     4  11  21  42  68  98 141 176 233 289 348 418
#     4  10  23  39  71  99 133 190 231 291 360 414
#     4  10  22  41  64  99 136 187 233 277 348 414
#     4  11  23  39  65 101 140 185 236 291 350 420
#     4  10  19  40  67  95 136 178 227 285 347 414
#
# _framework density 25.130883000000001
#
# number of rings (size 3 to 8) (size 9 to 14) (size 15 to 20)
#    0.000    1.500    5.000    1.500    0.000    5.500 
#    0.000   11.875    0.000    0.000    0.000    0.000 
#    0.000    0.000    0.000    0.000    0.000    0.000 
#
# Total GULP energy -356805.417809 kJ/mol
# GULP energy per Si atom -5575.084653 kJ/mol
# Density = 2.507368 g / cm^3
# Si number density = 25.130883 Si / 1000 Ang^3
#
#
#
# Elastic Constant Matrix: (Units=GPa)
#
#
# Indices 1 2 3 4 5 6 
#
# 1 129.1684 37.6945 48.7773 0.0000 0.0000 0.0000
# 2 37.6945 92.4663 24.0354 0.0000 0.0000 0.0000
# 3 48.7773 24.0354 80.2357 0.0000 0.0000 0.0000
# 4 0.0000 0.0000 0.0000 33.7264 0.0000 0.0000
# 5 0.0000 0.0000 0.0000 0.0000 33.4098 0.0000
# 6 0.0000 0.0000 0.0000 0.0000 0.0000 23.7612
#
#
#
# Elastic Compliance Matrix: (Units=1/GPa)
#
#
# Indices 1 2 3 4 5 6 
#
# 1 0.010722 -0.002903 -0.005649 0.000000 0.000000 0.000000
# 2 -0.002903 0.012514 -0.001984 0.000000 0.000000 0.000000
# 3 -0.005649 -0.001984 0.016492 0.000000 0.000000 0.000000
# 4 0.000000 0.000000 0.000000 0.029650 0.000000 0.000000
# 5 0.000000 0.000000 0.000000 0.000000 0.029931 0.000000
# 6 0.000000 0.000000 0.000000 0.000000 0.000000 0.042085
#
#
# Mechanical properties :
#
#
# Convention : Reuss Voigt Hill
#
# Bulk Modulus (GPa) = 53.60008 58.09832 55.84920
# Shear Modulus (GPa) = 29.64124 30.93702 30.28913
#
# Velocity S-wave (km/s) = 3.43807 3.51242 3.47545
# Velocity P-wave (km/s) = 6.09386 6.29428 6.19488
#
# Compressibility (1/GPa) = 0.01865669
#
# Stress axis : x y z
#
# Youngs Moduli (GPa) = 93.26664 79.91215 60.63703
#
# Poissons Ratio (x) = 0.23195 0.34252
# Poissons Ratio (y) = 0.27071 0.12031
# Poissons Ratio (z) = 0.52683 0.15855
#
# Static dielectric constant tensor:
#      x y z
#    x 2.083900 0.000000 0.000000 
#    y 0.000000 1.966010 0.000000 
#    z 0.000000 0.000000 2.168640 
# 
# From -- ./inp_files/6932.got.cif
#   From: 2010.05.17/outbox.cif.g08.bks.cpg/sg62_4_cif.got.tgz:6932.got - 2010.06.03 15:25:27.
