data_PCOD9463505
_publ_section_title
;
Structure prediction by ZEFSAII (Michael W. Deem and Ramdas Pophale) SiO2 
 PCOD9463505
Probable space group: P N M A
;
_chemical_formula_sum "Si O2"
_cell_formula_units_Z 64
_cell_length_a 29.421978
_cell_length_b 8.180938
_cell_length_c 11.365922
_cell_angle_alpha 90.000000
_cell_angle_beta 90.000000
_cell_angle_gamma 90.000000
_cell_volume 2735.770354
_symmetry_space_group_name_H-M "P N M A"
_symmetry_group_IT_number 62
_symmetry_cell_setting 'orthorhombic'
loop_
_space_group_symop_operation_xyz
x,y,z
1/2-x,-y,1/2+z
1/2+x,1/2-y,1/2-z
-x,1/2+y,-z
-x,-y,-z
1/2+x,y,1/2-z
1/2-x,1/2+y,1/2+z
x,1/2-y,z
loop_
_atom_site_type_symbol
_atom_site_label
_atom_site_fract_x
_atom_site_fract_y
_atom_site_fract_z
Si Si1 0.015141 0.559299 0.316299
Si Si2 0.679988 0.433138 0.902036
Si Si3 0.604055 0.942627 0.065961
Si Si4 0.831051 0.433772 0.165316
Si Si5 0.731105 0.440170 0.466977
Si Si6 0.559938 0.443823 0.420143
Si Si7 0.846431 0.556269 0.798647
Si Si8 0.433448 0.551874 0.317420
O O1 0.010505 0.750000 0.346603
O O2 0.053361 0.489831 0.404281
O O3 0.037470 0.542467 0.186203
O O4 0.965196 0.489479 0.289274
O O5 0.678964 0.250000 0.855496
O O6 0.689554 0.553973 0.795055
O O7 0.632736 0.469946 0.965756
O O8 0.723089 0.458459 0.986289
O O9 0.600915 0.750000 0.040463
O O10 0.634006 0.966281 0.184694
O O11 0.830957 0.250000 0.119551
O O12 0.802359 0.541466 0.076878
O O13 0.882272 0.492830 0.185727
O O14 0.742005 0.250000 0.453410
O O15 0.701152 0.497659 0.354514
O O16 0.549174 0.250000 0.406599
O O17 0.614170 0.459702 0.397863
O O18 0.548939 0.498341 0.552351
O O19 0.843432 0.750000 0.770439
O O20 0.434335 0.750000 0.315318
#
# Coordination Sequence:
#
# PCOD9463505 Si02
#       8
#     8   8   8   8   8   8   8   8
#     4   9  19  33  56  88 124 164 209 258 312 372
#     4  12  27  46  67  90 121 164 212 260 315 375
#     4  10  21  39  61  90 127 164 209 261 311 367
#     4  12  26  44  66  95 128 163 209 261 316 376
#     4  11  23  43  68  94 126 161 203 254 312 377
#     4   9  16  29  51  82 123 163 200 245 300 363
#     4   9  18  34  58  88 122 161 199 242 302 366
#     4  10  19  36  58  86 125 168 209 257 315 370
#
# _framework density 23.393775999999999
#
# number of rings (size 3 to 8) (size 9 to 14) (size 15 to 20)
#    0.000    1.750    1.250    3.375    1.750    2.500 
#    0.000    0.625    0.000    0.000    0.000    0.000 
#    0.000    0.000    0.000    0.000    0.000    0.000 
#
# Total GULP energy -357687.804897 kJ/mol
# GULP energy per Si atom -5588.871952 kJ/mol
# Density = 2.334053 g / cm^3
# Si number density = 23.393776 Si / 1000 Ang^3
#
#
#
# Elastic Constant Matrix: (Units=GPa)
#
#
# Indices 1 2 3 4 5 6 
#
# 1 83.2934 3.6037 -5.0344 0.0000 0.0000 0.0000
# 2 3.6037 39.0336 -5.7327 0.0000 0.0000 0.0000
# 3 -5.0344 -5.7327 36.9973 0.0000 0.0000 0.0000
# 4 0.0000 0.0000 0.0000 24.4483 0.0000 0.0000
# 5 0.0000 0.0000 0.0000 0.0000 21.1041 0.0000
# 6 0.0000 0.0000 0.0000 0.0000 0.0000 21.2750
#
#
#
# Elastic Compliance Matrix: (Units=1/GPa)
#
#
# Indices 1 2 3 4 5 6 
#
# 1 0.012136 -0.000898 0.001512 0.000000 0.000000 0.000000
# 2 -0.000898 0.026282 0.003950 0.000000 0.000000 0.000000
# 3 0.001512 0.003950 0.027847 0.000000 0.000000 0.000000
# 4 0.000000 0.000000 0.000000 0.040903 0.000000 0.000000
# 5 0.000000 0.000000 0.000000 0.000000 0.047384 0.000000
# 6 0.000000 0.000000 0.000000 0.000000 0.000000 0.047004
#
#
# Mechanical properties :
#
#
# Convention : Reuss Voigt Hill
#
# Bulk Modulus (GPa) = 13.26385 16.11083 14.68734
# Shear Modulus (GPa) = 22.98237 24.46467 23.72352
#
# Velocity S-wave (km/s) = 3.13775 3.23736 3.18794
# Velocity P-wave (km/s) = 4.33698 4.56900 4.45450
#
# Compressibility (1/GPa) = 0.07539288
#
# Stress axis : x y z
#
# Youngs Moduli (GPa) = 82.39936 38.04880 35.91076
#
# Poissons Ratio (x) = 0.03418 -0.05430
# Poissons Ratio (y) = 0.07402 -0.14185
# Poissons Ratio (z) = -0.12460 -0.15030
#
# Static dielectric constant tensor:
#      x y z
#    x 1.954640 0.000000 0.000000 
#    y 0.000000 1.797360 0.000000 
#    z 0.000000 0.000000 1.897980 
# 
# From -- ./inp_files/15780.got.cif
#   From: 2010.05.17/outbox.cif.g08.bks.cpg/sg62_8_cif.got.tgz:15780.got - 2010.06.03 15:25:27.
