data_PCOD9463798
_publ_section_title
;
Structure prediction by ZEFSAII (Michael W. Deem and Ramdas Pophale) SiO2 
 PCOD9463798
Probable space group: P N M A
;
_chemical_formula_sum "Si O2"
_cell_formula_units_Z 36
_cell_length_a 22.667364
_cell_length_b 7.420060
_cell_length_c 7.749606
_cell_angle_alpha 90.000000
_cell_angle_beta 90.000000
_cell_angle_gamma 90.000000
_cell_volume 1303.431039
_symmetry_space_group_name_H-M "P N M A"
_symmetry_group_IT_number 62
_symmetry_cell_setting 'orthorhombic'
loop_
_space_group_symop_operation_xyz
x,y,z
1/2-x,-y,1/2+z
1/2+x,1/2-y,1/2-z
-x,1/2+y,-z
-x,-y,-z
1/2+x,y,1/2-z
1/2-x,1/2+y,1/2+z
x,1/2-y,z
loop_
_atom_site_type_symbol
_atom_site_label
_atom_site_fract_x
_atom_site_fract_y
_atom_site_fract_z
Si Si1 0.054649 0.750000 0.710376
Si Si2 0.734630 0.033368 0.338909
Si Si3 0.954120 0.049801 0.713702
Si Si4 0.844951 0.542490 0.523530
Si Si5 0.376784 0.963701 0.442777
O O1 0.098066 0.592325 0.796815
O O2 0.003140 0.594831 0.678613
O O3 0.738270 0.250000 0.332095
O O4 0.699979 0.970980 0.169959
O O5 0.688510 0.984739 0.490248
O O6 0.800125 0.960789 0.364548
O O7 0.978896 0.250000 0.738945
O O8 0.905288 0.061940 0.559853
O O9 0.918805 0.995880 0.887895
O O10 0.860561 0.750000 0.559379
O O11 0.379098 0.750000 0.403682
#
# Coordination Sequence:
#
# PCOD9463798 Si02
#       5
#     4   8   8   8   8
#     4  12  20  30  46  74 104 150 174 220 272 334
#     4   9  20  36  53  80 114 142 182 228 271 329
#     4  11  20  30  47  73 107 141 177 222 271 324
#     4  10  20  36  55  80 114 145 181 227 277 329
#     4  10  20  31  46  74 108 139 178 222 269 327
#
# _framework density 27.619413000000002
#
# number of rings (size 3 to 8) (size 9 to 14) (size 15 to 20)
#    0.000    1.778    3.333    3.333    1.556    1.778 
#    0.000    0.000    0.000    0.000    0.000    1.556 
#    0.000    0.000    0.000    0.000    0.000    0.000 
#
# Total GULP energy -201006.865090 kJ/mol
# GULP energy per Si atom -5583.524030 kJ/mol
# Density = 2.755655 g / cm^3
# Si number density = 27.619413 Si / 1000 Ang^3
#
#
#
# Elastic Constant Matrix: (Units=GPa)
#
#
# Indices 1 2 3 4 5 6 
#
# 1 205.6583 56.9714 16.5450 0.0000 0.0000 0.0000
# 2 56.9714 212.0521 -20.1787 0.0000 0.0000 0.0000
# 3 16.5450 -20.1787 81.0465 0.0000 0.0000 0.0000
# 4 0.0000 0.0000 0.0000 -92.6643 0.0000 0.0000
# 5 0.0000 0.0000 0.0000 0.0000 59.2704 0.0000
# 6 0.0000 0.0000 0.0000 0.0000 0.0000 20.6670
#
#
#
# Elastic Compliance Matrix: (Units=1/GPa)
#
#
# Indices 1 2 3 4 5 6 
#
# 1 0.005427 -0.001602 -0.001507 0.000000 0.000000 0.000000
# 2 -0.001602 0.005303 0.001647 0.000000 0.000000 0.000000
# 3 -0.001507 0.001647 0.013056 0.000000 0.000000 0.000000
# 4 0.000000 0.000000 0.000000 -0.010792 0.000000 0.000000
# 5 0.000000 0.000000 0.000000 0.000000 0.016872 0.000000
# 6 0.000000 0.000000 0.000000 0.000000 0.000000 0.048386
#
#
# Mechanical properties :
#
#
# Convention : Reuss Voigt Hill
#
# Bulk Modulus (GPa) = 47.92832 67.27026 57.59929
# Shear Modulus (GPa) = 56.73460 27.14925 41.94192
#
# Velocity S-wave (km/s) = 4.53720 3.13865 3.90111
# Velocity P-wave (km/s) = 6.69619 6.12730 6.41805
#
# Compressibility (1/GPa) = 0.02086449
#
# Stress axis : x y z
#
# Youngs Moduli (GPa) = 184.25394 188.57814 76.59148
#
# Poissons Ratio (x) = 0.30201 0.11540
# Poissons Ratio (y) = 0.29508 -0.12616
# Poissons Ratio (z) = 0.27761 -0.31063
#
# Static dielectric constant tensor:
#      x y z
#    x 2.048260 0.000000 0.000000 
#    y 0.000000 1.816240 0.000000 
#    z 0.000000 0.000000 2.398020 
# 
# From -- ./inp_files/14578.got.cif
#   From: 2010.05.17/outbox.cif.g08.bks.cpg/sg62_8_cif.got.tgz:14578.got - 2010.06.03 15:25:27.
