data_PCOD9463697
_publ_section_title
;
Structure prediction by ZEFSAII (Michael W. Deem and Ramdas Pophale) SiO2 
 PCOD9463697
Probable space group: P N M A
;
_chemical_formula_sum "Si O2"
_cell_formula_units_Z 48
_cell_length_a 11.565487
_cell_length_b 16.512351
_cell_length_c 13.353407
_cell_angle_alpha 90.000000
_cell_angle_beta 90.000000
_cell_angle_gamma 90.000000
_cell_volume 2550.145280
_symmetry_space_group_name_H-M "P N M A"
_symmetry_group_IT_number 62
_symmetry_cell_setting 'orthorhombic'
loop_
_space_group_symop_operation_xyz
x,y,z
1/2-x,-y,1/2+z
1/2+x,1/2-y,1/2-z
-x,1/2+y,-z
-x,-y,-z
1/2+x,y,1/2-z
1/2-x,1/2+y,1/2+z
x,1/2-y,z
loop_
_atom_site_type_symbol
_atom_site_label
_atom_site_fract_x
_atom_site_fract_y
_atom_site_fract_z
Si Si1 0.376076 0.995813 0.449368
Si Si2 0.386373 0.161963 0.732963
Si Si3 0.048643 0.007329 0.734957
Si Si4 0.999009 0.911342 0.552569
Si Si5 0.224533 0.840858 0.454446
Si Si6 0.294344 0.603948 0.079367
O O1 0.609964 0.977201 0.665212
O O2 0.285866 0.050783 0.507945
O O3 0.500000 0.000000 0.500000
O O4 0.326773 0.905157 0.455623
O O5 0.448390 0.250000 0.726859
O O6 0.465034 0.081448 0.731228
O O7 0.326295 0.158517 0.841685
O O8 0.290697 0.158639 0.645520
O O9 0.142564 0.048067 0.662011
O O10 0.987786 0.936915 0.668971
O O11 0.896524 0.864373 0.493976
O O12 0.120137 0.869160 0.526774
O O13 0.000000 0.000000 0.500000
O O14 0.261076 0.750000 0.479056
#
# Coordination Sequence:
#
# PCOD9463697 Si02
#       6
#     8   8   8   8   8   8
#     4  12  23  37  59  93 120 167 216 259 315 374
#     4  11  22  35  57  96 131 156 193 255 332 383
#     4  11  21  37  61  86 123 165 209 253 307 376
#     4  10  19  38  61  85 119 162 218 251 303 392
#     4  11  22  38  62  92 125 163 207 266 325 377
#     4  11  21  36  60  89 124 161 210 251 308 382
#
# _framework density 18.822457
#
# number of rings (size 3 to 8) (size 9 to 14) (size 15 to 20)
#    0.000    1.000   10.000    0.000    0.000    2.000 
#    0.000    0.000    0.000    2.000    0.000    0.000 
#    0.000    0.000    0.000    0.000    0.000    0.000 
#
# Total GULP energy -267662.349403 kJ/mol
# GULP energy per Si atom -5576.298946 kJ/mol
# Density = 1.877962 g / cm^3
# Si number density = 18.822457 Si / 1000 Ang^3
#
#
#
# Elastic Constant Matrix: (Units=GPa)
#
#
# Indices 1 2 3 4 5 6 
#
# 1 76.3361 9.8397 41.1233 0.0000 0.0000 0.0000
# 2 9.8397 53.3443 33.0746 0.0000 0.0000 0.0000
# 3 41.1233 33.0746 105.9522 0.0000 0.0000 0.0000
# 4 0.0000 0.0000 0.0000 5.4781 0.0000 0.0000
# 5 0.0000 0.0000 0.0000 0.0000 43.4041 0.0000
# 6 0.0000 0.0000 0.0000 0.0000 0.0000 11.9745
#
#
#
# Elastic Compliance Matrix: (Units=1/GPa)
#
#
# Indices 1 2 3 4 5 6 
#
# 1 0.016621 0.001158 -0.006813 0.000000 0.000000 0.000000
# 2 0.001158 0.023326 -0.007731 0.000000 0.000000 0.000000
# 3 -0.006813 -0.007731 0.014496 0.000000 0.000000 0.000000
# 4 0.000000 0.000000 0.000000 0.182544 0.000000 0.000000
# 5 0.000000 0.000000 0.000000 0.000000 0.023039 0.000000
# 6 0.000000 0.000000 0.000000 0.000000 0.000000 0.083511
#
#
# Mechanical properties :
#
#
# Convention : Reuss Voigt Hill
#
# Bulk Modulus (GPa) = 36.13833 44.85642 40.49738
# Shear Modulus (GPa) = 13.17416 22.27769 17.72593
#
# Velocity S-wave (km/s) = 2.64846 3.44404 3.07211
# Velocity P-wave (km/s) = 5.34731 6.30066 5.84346
#
# Compressibility (1/GPa) = 0.02767145
#
# Stress axis : x y z
#
# Youngs Moduli (GPa) = 60.16604 42.87071 68.98586
#
# Poissons Ratio (x) = -0.04965 0.46997
# Poissons Ratio (y) = -0.06968 0.53333
# Poissons Ratio (z) = 0.40988 0.33144
#
# Static dielectric constant tensor:
#      x y z
#    x 1.691060 0.000000 0.000000 
#    y 0.000000 1.728400 0.000000 
#    z 0.000000 0.000000 1.674190 
# 
# From -- ./inp_files/17967.got.cif
#   From: 2010.05.17/outbox.cif.g08.bks.cpg/sg62_9_cif.got.tgz:17967.got - 2010.06.03 15:25:27.
