data_PCOD9463686
_publ_section_title
;
Structure prediction by ZEFSAII (Michael W. Deem and Ramdas Pophale) SiO2 
 PCOD9463686
Probable space group: P N M A
;
_chemical_formula_sum "Si O2"
_cell_formula_units_Z 40
_cell_length_a 9.527947
_cell_length_b 10.265535
_cell_length_c 20.509088
_cell_angle_alpha 90.000000
_cell_angle_beta 90.000000
_cell_angle_gamma 90.000000
_cell_volume 2005.983097
_symmetry_space_group_name_H-M "P N M A"
_symmetry_group_IT_number 62
_symmetry_cell_setting 'orthorhombic'
loop_
_space_group_symop_operation_xyz
x,y,z
1/2-x,-y,1/2+z
1/2+x,1/2-y,1/2-z
-x,1/2+y,-z
-x,-y,-z
1/2+x,y,1/2-z
1/2-x,1/2+y,1/2+z
x,1/2-y,z
loop_
_atom_site_type_symbol
_atom_site_label
_atom_site_fract_x
_atom_site_fract_y
_atom_site_fract_z
Si Si1 0.080789 0.250000 0.819575
Si Si2 0.149402 0.000896 0.460865
Si Si3 0.659497 0.250000 0.528043
Si Si4 0.773916 0.250000 0.851694
Si Si5 0.662015 0.750000 0.502930
Si Si6 0.819510 0.519223 0.271328
Si Si7 0.907976 0.900080 0.680795
O O1 0.118576 0.250000 0.895321
O O2 0.134946 0.120231 0.785083
O O3 0.914765 0.250000 0.809226
O O4 0.241587 0.875733 0.481583
O O5 0.253399 0.123515 0.472652
O O6 0.115560 0.011261 0.383502
O O7 0.000000 0.000000 0.500000
O O8 0.509246 0.250000 0.489076
O O9 0.814205 0.250000 0.925852
O O10 0.699860 0.383266 0.832135
O O11 0.687476 0.447074 0.240827
O O12 0.935307 0.417588 0.293238
O O13 0.878331 0.750000 0.664030
#
# Coordination Sequence:
#
# PCOD9463686 Si02
#       7
#     4   8   4   4   4   8   8
#     4  10  19  37  65  97 124 162 217 277 332 391
#     4  12  25  45  70 103 142 187 232 288 351 419
#     4  11  24  42  74  99 132 185 234 287 339 407
#     4  10  21  39  69  96 129 165 220 285 324 402
#     4  11  24  46  66 104 141 182 237 281 339 418
#     4  11  22  40  65  98 128 173 220 278 347 403
#     4  12  25  43  66  95 141 179 222 283 352 418
#
# _framework density 19.940346999999999
#
# number of rings (size 3 to 8) (size 9 to 14) (size 15 to 20)
#    0.000    0.800    5.000    3.000    0.000    1.600 
#    0.000    0.000    0.000    0.000    0.000    0.000 
#    0.000    0.000    0.000    0.000    0.000    0.000 
#
# Total GULP energy -223169.127003 kJ/mol
# GULP energy per Si atom -5579.228175 kJ/mol
# Density = 1.989496 g / cm^3
# Si number density = 19.940347 Si / 1000 Ang^3
#
#
#
# Elastic Constant Matrix: (Units=GPa)
#
#
# Indices 1 2 3 4 5 6 
#
# 1 120.8743 55.0206 28.0582 0.0000 0.0000 0.0000
# 2 55.0206 122.9379 0.4114 0.0000 0.0000 0.0000
# 3 28.0582 0.4114 52.3081 0.0000 0.0000 0.0000
# 4 0.0000 0.0000 0.0000 73.4047 0.0000 0.0000
# 5 0.0000 0.0000 0.0000 0.0000 33.4939 0.0000
# 6 0.0000 0.0000 0.0000 0.0000 0.0000 41.2907
#
#
#
# Elastic Compliance Matrix: (Units=1/GPa)
#
#
# Indices 1 2 3 4 5 6 
#
# 1 0.012286 -0.005477 -0.006547 0.000000 0.000000 0.000000
# 2 -0.005477 0.010576 0.002854 0.000000 0.000000 0.000000
# 3 -0.006547 0.002854 0.022607 0.000000 0.000000 0.000000
# 4 0.000000 0.000000 0.000000 0.013623 0.000000 0.000000
# 5 0.000000 0.000000 0.000000 0.000000 0.029856 0.000000
# 6 0.000000 0.000000 0.000000 0.000000 0.000000 0.024219
#
#
# Mechanical properties :
#
#
# Convention : Reuss Voigt Hill
#
# Bulk Modulus (GPa) = 36.85947 51.45563 44.15755
# Shear Modulus (GPa) = 35.57519 43.81319 39.69419
#
# Velocity S-wave (km/s) = 4.22842 4.69253 4.46651
# Velocity P-wave (km/s) = 6.50879 7.43105 6.98516
#
# Compressibility (1/GPa) = 0.02713007
#
# Stress axis : x y z
#
# Youngs Moduli (GPa) = 81.39595 94.55697 44.23432
#
# Poissons Ratio (x) = 0.51784 0.28960
# Poissons Ratio (y) = 0.44576 -0.12626
# Poissons Ratio (z) = 0.53290 -0.26991
#
# Static dielectric constant tensor:
#      x y z
#    x 1.729090 0.000000 0.000000 
#    y 0.000000 1.743880 0.000000 
#    z 0.000000 0.000000 1.686880 
# 
# From -- ./inp_files/28645.got.cif
#   From: 2010.05.17/outbox.cif.g08.bks.cpg/sg62_15_cif.got.tgz:28645.got - 2010.06.03 15:25:27.
