data_PCOD9463960
_publ_section_title
;
Structure prediction by ZEFSAII (Michael W. Deem and Ramdas Pophale) SiO2 
 PCOD9463960
Probable space group: P N M A
;
_chemical_formula_sum "Si O2"
_cell_formula_units_Z 56
_cell_length_a 15.081836
_cell_length_b 7.487513
_cell_length_c 22.798776
_cell_angle_alpha 90.000000
_cell_angle_beta 90.000000
_cell_angle_gamma 90.000000
_cell_volume 2574.561882
_symmetry_space_group_name_H-M "P N M A"
_symmetry_group_IT_number 62
_symmetry_cell_setting 'orthorhombic'
loop_
_space_group_symop_operation_xyz
x,y,z
1/2-x,-y,1/2+z
1/2+x,1/2-y,1/2-z
-x,1/2+y,-z
-x,-y,-z
1/2+x,y,1/2-z
1/2-x,1/2+y,1/2+z
x,1/2-y,z
loop_
_atom_site_type_symbol
_atom_site_label
_atom_site_fract_x
_atom_site_fract_y
_atom_site_fract_z
Si Si1 0.797304 0.467274 0.116248
Si Si2 0.989387 0.534847 0.631999
Si Si3 0.674659 0.457489 0.902636
Si Si4 0.635073 0.032864 0.031543
Si Si5 0.329861 0.968389 0.783000
Si Si6 0.487256 0.035308 0.430845
Si Si7 0.143028 0.454385 0.152520
O O1 0.800530 0.250000 0.117783
O O2 0.723288 0.514667 0.067868
O O3 0.755703 0.525493 0.178693
O O4 0.893617 0.530284 0.095593
O O5 0.990742 0.750000 0.631635
O O6 0.948365 0.470756 0.569913
O O7 0.917932 0.481388 0.680717
O O8 0.089517 0.472786 0.639094
O O9 0.697254 0.250000 0.910329
O O10 0.762674 0.546926 0.879389
O O11 0.643974 0.531729 0.965530
O O12 0.630237 0.250000 0.030428
O O13 0.325654 0.750000 0.782256
O O14 0.339900 0.034562 0.716793
O O15 0.486010 0.250000 0.426497
O O16 0.568692 0.967531 0.390784
O O17 0.500000 0.000000 0.500000
O O18 0.114508 0.250000 0.163669
#
# Coordination Sequence:
#
# PCOD9463960 Si02
#       7
#     8   8   8   8   8   8   8
#     4   8  14  28  51  75  97 127 165 206 249 297
#     4   9  17  32  54  77  99 127 163 205 246 292
#     4  11  21  32  48  73 104 137 164 195 247 302
#     4   8  15  28  48  74 102 129 160 195 239 296
#     4   8  16  32  54  77  99 125 165 212 255 294
#     4  10  20  33  52  77 104 134 171 211 255 303
#     4  10  21  35  51  75 102 131 172 218 252 290
#
# _framework density 21.751273999999999
#
# number of rings (size 3 to 8) (size 9 to 14) (size 15 to 20)
#    0.000    2.857    0.000    3.429    0.000    2.857 
#    0.000    5.714    0.000    6.000    0.000    0.000 
#    0.000    0.000    0.000    0.000    0.000    0.000 
#
# Total GULP energy -312512.546865 kJ/mol
# GULP energy per Si atom -5580.581194 kJ/mol
# Density = 2.170177 g / cm^3
# Si number density = 21.751274 Si / 1000 Ang^3
#
#
#
# Elastic Constant Matrix: (Units=GPa)
#
#
# Indices 1 2 3 4 5 6 
#
# 1 177.6109 -4.8355 79.5419 0.0000 0.0000 0.0000
# 2 -4.8355 61.2205 1.6700 0.0000 0.0000 0.0000
# 3 79.5419 1.6700 148.4740 0.0000 0.0000 0.0000
# 4 0.0000 0.0000 0.0000 10.6037 0.0000 0.0000
# 5 0.0000 0.0000 0.0000 0.0000 17.9455 0.0000
# 6 0.0000 0.0000 0.0000 0.0000 0.0000 -3.7140
#
#
#
# Elastic Compliance Matrix: (Units=1/GPa)
#
#
# Indices 1 2 3 4 5 6 
#
# 1 0.007437 0.000696 -0.003992 0.000000 0.000000 0.000000
# 2 0.000696 0.016405 -0.000558 0.000000 0.000000 0.000000
# 3 -0.003992 -0.000558 0.008880 0.000000 0.000000 0.000000
# 4 0.000000 0.000000 0.000000 0.094307 0.000000 0.000000
# 5 0.000000 0.000000 0.000000 0.000000 0.055724 0.000000
# 6 0.000000 0.000000 0.000000 0.000000 0.000000 -0.269248
#
#
# Mechanical properties :
#
#
# Convention : Reuss Voigt Hill
#
# Bulk Modulus (GPa) = 39.97576 60.00648 49.99112
# Shear Modulus (GPa) = -70.97230 25.69563 -22.63833
#
# Velocity S-wave (km/s) = -5.71838 3.44079 -3.22961
# Velocity P-wave (km/s) = 5.01810 6.59036 3.02089
#
# Compressibility (1/GPa) = 0.02501516
#
# Stress axis : x y z
#
# Youngs Moduli (GPa) = 134.46144 60.95851 112.61087
#
# Poissons Ratio (x) = -0.04245 0.44955
# Poissons Ratio (y) = -0.09363 0.06279
# Poissons Ratio (z) = 0.53678 0.03399
#
# Static dielectric constant tensor:
#      x y z
#    x 1.764140 0.000000 0.000000 
#    y 0.000000 1.854300 0.000000 
#    z 0.000000 0.000000 1.790310 
# 
# From -- ./inp_files/27131.got.cif
#   From: 2010.05.17/outbox.cif.g08.bks.cpg/sg62_14_cif.got.tgz:27131.got - 2010.06.03 15:25:27.
