data_PCOD9463583
_publ_section_title
;
Structure prediction by ZEFSAII (Michael W. Deem and Ramdas Pophale) SiO2 
 PCOD9463583
Probable space group: P N M A
;
_chemical_formula_sum "Si O2"
_cell_formula_units_Z 64
_cell_length_a 21.629597
_cell_length_b 7.675654
_cell_length_c 17.343782
_cell_angle_alpha 90.000000
_cell_angle_beta 90.000000
_cell_angle_gamma 90.000000
_cell_volume 2879.437282
_symmetry_space_group_name_H-M "P N M A"
_symmetry_group_IT_number 62
_symmetry_cell_setting 'orthorhombic'
loop_
_space_group_symop_operation_xyz
x,y,z
1/2-x,-y,1/2+z
1/2+x,1/2-y,1/2-z
-x,1/2+y,-z
-x,-y,-z
1/2+x,y,1/2-z
1/2-x,1/2+y,1/2+z
x,1/2-y,z
loop_
_atom_site_type_symbol
_atom_site_label
_atom_site_fract_x
_atom_site_fract_y
_atom_site_fract_z
Si Si1 0.569944 0.963738 0.169348
Si Si2 0.031233 0.535672 0.164334
Si Si3 0.107430 0.453369 0.850269
Si Si4 0.258752 0.952273 0.573180
Si Si5 0.610414 0.551975 0.476000
Si Si6 0.822581 0.956661 0.288652
Si Si7 0.939002 0.957451 0.400036
Si Si8 0.351368 0.047449 0.965665
O O1 0.570278 0.750000 0.168107
O O2 0.567608 0.016265 0.258534
O O3 0.505323 0.018947 0.129521
O O4 0.626339 0.025949 0.116007
O O5 0.031569 0.750000 0.162366
O O6 0.062134 0.474949 0.084996
O O7 0.960450 0.475134 0.168955
O O8 0.104255 0.250000 0.828431
O O9 0.162784 0.523693 0.797157
O O10 0.116515 0.464954 0.941140
O O11 0.270139 0.750000 0.554503
O O12 0.206476 0.025440 0.514074
O O13 0.323052 0.048250 0.564415
O O14 0.229774 0.961457 0.658229
O O15 0.591331 0.750000 0.491900
O O16 0.808735 0.750000 0.288075
O O17 0.887148 0.985031 0.334444
O O18 0.943081 0.750000 0.412904
O O19 0.910595 0.037963 0.477302
O O20 0.336477 0.250000 0.953310
#
# Coordination Sequence:
#
# PCOD9463583 Si02
#       8
#     8   8   8   8   8   8   8   8
#     4   9  15  28  50  77 107 136 174 220 265 323
#     4   9  18  34  57  84 111 140 180 231 280 335
#     4  10  19  36  62  87 110 140 182 228 283 343
#     4  10  21  38  55  76 112 151 188 230 276 324
#     4  11  23  38  57  82 111 146 189 236 282 329
#     4   9  17  32  57  85 108 140 182 222 270 335
#     4   9  15  26  49  77 107 138 170 213 267 324
#     4   9  18  30  49  76 105 141 180 219 265 320
#
# _framework density 22.226565999999998
#
# number of rings (size 3 to 8) (size 9 to 14) (size 15 to 20)
#    0.000    2.500    1.250    1.500    0.000    1.000 
#    2.250    0.625    0.000    3.750    0.000    0.000 
#    0.000    0.000    0.000    0.000    0.000    0.000 
#
# Total GULP energy -357211.965756 kJ/mol
# GULP energy per Si atom -5581.436965 kJ/mol
# Density = 2.217598 g / cm^3
# Si number density = 22.226566 Si / 1000 Ang^3
#
#
#
# Elastic Constant Matrix: (Units=GPa)
#
#
# Indices 1 2 3 4 5 6 
#
# 1 25.7532 -3.8105 16.9785 0.0000 0.0000 0.0000
# 2 -3.8105 35.4975 2.2066 0.0000 0.0000 0.0000
# 3 16.9785 2.2066 101.5985 0.0000 0.0000 0.0000
# 4 0.0000 0.0000 0.0000 5.9266 0.0000 0.0000
# 5 0.0000 0.0000 0.0000 0.0000 9.5255 0.0000
# 6 0.0000 0.0000 0.0000 0.0000 0.0000 7.8824
#
#
#
# Elastic Compliance Matrix: (Units=1/GPa)
#
#
# Indices 1 2 3 4 5 6 
#
# 1 0.044597 0.005258 -0.007567 0.000000 0.000000 0.000000
# 2 0.005258 0.028829 -0.001505 0.000000 0.000000 0.000000
# 3 -0.007567 -0.001505 0.011140 0.000000 0.000000 0.000000
# 4 0.000000 0.000000 0.000000 0.168731 0.000000 0.000000
# 5 0.000000 0.000000 0.000000 0.000000 0.104982 0.000000
# 6 0.000000 0.000000 0.000000 0.000000 0.000000 0.126865
#
#
# Mechanical properties :
#
#
# Convention : Reuss Voigt Hill
#
# Bulk Modulus (GPa) = 12.99755 21.51092 17.25424
# Shear Modulus (GPa) = 9.64474 14.49853 12.07164
#
# Velocity S-wave (km/s) = 2.08536 2.55680 2.33302
# Velocity P-wave (km/s) = 3.41449 4.29131 3.87776
#
# Compressibility (1/GPa) = 0.07693756
#
# Stress axis : x y z
#
# Youngs Moduli (GPa) = 22.42312 34.68736 89.76745
#
# Poissons Ratio (x) = -0.18237 0.67927
# Poissons Ratio (y) = -0.11789 0.13508
# Poissons Ratio (z) = 0.16967 0.05220
#
# Static dielectric constant tensor:
#      x y z
#    x 1.799400 0.000000 0.000000 
#    y 0.000000 1.830560 0.000000 
#    z 0.000000 0.000000 1.841950 
# 
# From -- ./inp_files/24845.got.cif
#   From: 2010.05.17/outbox.cif.g08.bks.cpg/sg62_13_cif.got.tgz:24845.got - 2010.06.03 15:25:27.
