data_PCOD9463555
_publ_section_title
;
Structure prediction by ZEFSAII (Michael W. Deem and Ramdas Pophale) SiO2 
 PCOD9463555
Probable space group: P N M A
;
_chemical_formula_sum "Si O2"
_cell_formula_units_Z 64
_cell_length_a 17.529101
_cell_length_b 8.479568
_cell_length_c 20.790084
_cell_angle_alpha 90.000000
_cell_angle_beta 90.000000
_cell_angle_gamma 90.000000
_cell_volume 3090.221535
_symmetry_space_group_name_H-M "P N M A"
_symmetry_group_IT_number 62
_symmetry_cell_setting 'orthorhombic'
loop_
_space_group_symop_operation_xyz
x,y,z
1/2-x,-y,1/2+z
1/2+x,1/2-y,1/2-z
-x,1/2+y,-z
-x,-y,-z
1/2+x,y,1/2-z
1/2-x,1/2+y,1/2+z
x,1/2-y,z
loop_
_atom_site_type_symbol
_atom_site_label
_atom_site_fract_x
_atom_site_fract_y
_atom_site_fract_z
Si Si1 0.419659 0.565767 0.771171
Si Si2 0.580341 0.434234 0.771166
Si Si3 0.207893 0.939509 0.638174
Si Si4 0.805547 0.068852 0.499998
Si Si5 0.880627 0.567978 0.999997
Si Si6 0.707894 0.560491 0.138169
Si Si7 0.378767 0.065312 0.361861
Si Si8 0.621235 0.934687 0.361855
O O1 0.412732 0.750000 0.783993
O O2 0.500000 0.499997 0.795806
O O3 0.349515 0.477228 0.804787
O O4 0.416322 0.533917 0.694968
O O5 0.587271 0.250000 0.783986
O O6 0.650485 0.522775 0.804782
O O7 0.583674 0.466089 0.694963
O O8 0.221916 0.750000 0.634525
O O9 0.172702 0.996377 0.569641
O O10 0.288566 0.026224 0.644700
O O11 0.831478 0.250000 0.499998
O O12 0.712612 0.066648 0.499997
O O13 0.827296 0.003622 0.569637
O O14 0.904866 0.750000 0.999996
O O15 0.903329 0.485017 0.933587
O O16 0.903330 0.485023 0.066407
O O17 0.721915 0.750000 0.134521
O O18 0.788568 0.473780 0.144696
O O19 0.392582 0.250000 0.351888
O O20 0.607418 0.750000 0.351880
#
# Coordination Sequence:
#
# PCOD9463555 Si02
#       8
#     8   8   8   8   8   8   8   8
#     4  12  25  41  57  79 111 150 191 236 285 338
#     4  12  25  41  57  79 111 150 191 236 285 338
#     4  10  19  36  60  87 115 148 187 232 280 332
#     4   7  14  29  54  83 112 141 177 223 273 321
#     4   9  17  33  56  85 116 147 182 229 279 329
#     4  10  19  36  60  87 115 148 187 232 280 332
#     4  11  21  36  59  88 116 148 187 231 279 334
#     4  11  21  36  59  88 116 148 187 231 279 334
#
# _framework density 20.710491000000001
#
# number of rings (size 3 to 8) (size 9 to 14) (size 15 to 20)
#    0.000    1.750    0.000    7.875    0.000    0.000 
#    0.000    3.125    0.000    0.000    0.000    0.000 
#    0.000    0.000    0.000    0.000    0.000    0.000 
#
# Total GULP energy -357538.789161 kJ/mol
# GULP energy per Si atom -5586.543581 kJ/mol
# Density = 2.066335 g / cm^3
# Si number density = 20.710491 Si / 1000 Ang^3
#
#
#
# Elastic Constant Matrix: (Units=GPa)
#
#
# Indices 1 2 3 4 5 6 
#
# 1 45.1627 -12.6649 5.2194 0.0000 0.0000 0.0000
# 2 -12.6649 66.8985 -17.5269 0.0000 0.0000 0.0000
# 3 5.2194 -17.5269 80.5932 0.0000 0.0000 0.0000
# 4 0.0000 0.0000 0.0000 25.6676 0.0000 0.0000
# 5 0.0000 0.0000 0.0000 0.0000 -15.4412 0.0000
# 6 0.0000 0.0000 0.0000 0.0000 0.0000 21.1050
#
#
#
# Elastic Compliance Matrix: (Units=1/GPa)
#
#
# Indices 1 2 3 4 5 6 
#
# 1 0.023410 0.004278 -0.000586 0.000000 0.000000 0.000000
# 2 0.004278 0.016633 0.003340 0.000000 0.000000 0.000000
# 3 -0.000586 0.003340 0.013172 0.000000 0.000000 0.000000
# 4 0.000000 0.000000 0.000000 0.038960 0.000000 0.000000
# 5 0.000000 0.000000 0.000000 0.000000 -0.064762 0.000000
# 6 0.000000 0.000000 0.000000 0.000000 0.000000 0.047382
#
#
# Mechanical properties :
#
#
# Convention : Reuss Voigt Hill
#
# Bulk Modulus (GPa) = 14.86307 15.85662 15.35985
# Shear Modulus (GPa) = 60.12777 20.77472 40.45125
#
# Velocity S-wave (km/s) = 5.39403 3.17061 4.42427
# Velocity P-wave (km/s) = 6.78131 4.59093 5.79063
#
# Compressibility (1/GPa) = 0.06728085
#
# Stress axis : x y z
#
# Youngs Moduli (GPa) = 42.71751 60.12113 75.91677
#
# Poissons Ratio (x) = -0.25722 0.04446
# Poissons Ratio (y) = -0.18276 -0.25358
# Poissons Ratio (z) = 0.02502 -0.20082
#
# Static dielectric constant tensor:
#      x y z
#    x 1.733520 0.000000 0.000000 
#    y 0.000000 1.690320 0.000000 
#    z 0.000000 0.000000 1.778500 
# 
# From -- ./inp_files/27648.got.cif
#   From: 2010.05.17/outbox.cif.g08.bks.cpg/sg62_14_cif.got.tgz:27648.got - 2010.06.03 15:25:27.
