data_PCOD9463990
_publ_section_title
;
Structure prediction by ZEFSAII (Michael W. Deem and Ramdas Pophale) SiO2 
 PCOD9463990
Probable space group: P N M A
;
_chemical_formula_sum "Si O2"
_cell_formula_units_Z 64
_cell_length_a 23.543275
_cell_length_b 21.674779
_cell_length_c 6.386140
_cell_angle_alpha 90.000000
_cell_angle_beta 90.000000
_cell_angle_gamma 90.000000
_cell_volume 3258.817116
_symmetry_space_group_name_H-M "P N M A"
_symmetry_group_IT_number 62
_symmetry_cell_setting 'orthorhombic'
loop_
_space_group_symop_operation_xyz
x,y,z
1/2-x,-y,1/2+z
1/2+x,1/2-y,1/2-z
-x,1/2+y,-z
-x,-y,-z
1/2+x,y,1/2-z
1/2-x,1/2+y,1/2+z
x,1/2-y,z
loop_
_atom_site_type_symbol
_atom_site_label
_atom_site_fract_x
_atom_site_fract_y
_atom_site_fract_z
Si Si1 0.367383 0.677183 0.050250
Si Si2 0.792642 0.468091 0.411052
Si Si3 0.966284 0.816587 0.789923
Si Si4 0.352001 0.395729 0.715265
Si Si5 0.546226 0.099687 0.677939
Si Si6 0.947302 0.130790 0.501301
Si Si7 0.753821 0.898234 0.551652
Si Si8 0.595657 0.966603 0.658563
O O1 0.360263 0.750000 0.103352
O O2 0.400132 0.638129 0.228927
O O3 0.308349 0.643735 0.993449
O O4 0.410262 0.674772 0.851703
O O5 0.821486 0.440905 0.618810
O O6 0.762744 0.532447 0.460967
O O7 0.842167 0.483485 0.246406
O O8 0.756675 0.414180 0.296680
O O9 0.963271 0.750000 0.896682
O O10 0.020282 0.818756 0.636032
O O11 0.970824 0.869105 0.961123
O O12 0.302127 0.370925 0.563488
O O13 0.393827 0.433090 0.561100
O O14 0.392394 0.352701 0.858235
O O15 0.560845 0.028840 0.642260
O O16 0.495868 0.105757 0.844610
O O17 0.929138 0.078837 0.334341
#
# Coordination Sequence:
#
# PCOD9463990 Si02
#       8
#     8   8   8   8   8   8   8   8
#     4  10  23  40  59  88 123 158 201 251 301 363
#     4  10  20  33  54  85 117 155 196 241 305 356
#     4  10  23  40  59  84 116 160 206 248 300 366
#     4  10  22  36  56  86 121 156 202 243 303 363
#     4  11  21  36  65  88 121 158 195 245 309 364
#     4  10  22  39  57  86 124 155 197 252 304 367
#     4  11  20  35  59  85 119 158 203 251 299 364
#     4  10  21  35  56  89 123 152 190 243 307 368
#
# _framework density 19.639026999999999
#
# number of rings (size 3 to 8) (size 9 to 14) (size 15 to 20)
#    0.000    1.750    2.500    1.500    1.750    4.500 
#    0.000    0.625    0.000    9.750    0.000    0.000 
#    0.000    0.000    0.000    0.000    0.000    0.000 
#
# Total GULP energy -357032.973062 kJ/mol
# GULP energy per Si atom -5578.640204 kJ/mol
# Density = 1.959433 g / cm^3
# Si number density = 19.639027 Si / 1000 Ang^3
#
#
#
# Elastic Constant Matrix: (Units=GPa)
#
#
# Indices 1 2 3 4 5 6 
#
# 1 98.5620 45.5064 26.0598 0.0000 0.0000 0.0000
# 2 45.5064 51.6563 27.4632 0.0000 0.0000 0.0000
# 3 26.0598 27.4632 81.6624 0.0000 0.0000 0.0000
# 4 0.0000 0.0000 0.0000 8.6174 0.0000 0.0000
# 5 0.0000 0.0000 0.0000 0.0000 19.2985 0.0000
# 6 0.0000 0.0000 0.0000 0.0000 0.0000 6.1385
#
#
#
# Elastic Compliance Matrix: (Units=1/GPa)
#
#
# Indices 1 2 3 4 5 6 
#
# 1 0.017117 -0.014826 -0.000476 0.000000 0.000000 0.000000
# 2 -0.014826 0.036415 -0.007515 0.000000 0.000000 0.000000
# 3 -0.000476 -0.007515 0.014925 0.000000 0.000000 0.000000
# 4 0.000000 0.000000 0.000000 0.116045 0.000000 0.000000
# 5 0.000000 0.000000 0.000000 0.000000 0.051817 0.000000
# 6 0.000000 0.000000 0.000000 0.000000 0.000000 0.162907
#
#
# Mechanical properties :
#
#
# Convention : Reuss Voigt Hill
#
# Bulk Modulus (GPa) = 43.81738 47.77106 45.79422
# Shear Modulus (GPa) = 11.05050 15.66764 13.35907
#
# Velocity S-wave (km/s) = 2.37466 2.82757 2.61095
# Velocity P-wave (km/s) = 5.46612 5.91925 5.69719
#
# Compressibility (1/GPa) = 0.02282199
#
# Stress axis : x y z
#
# Youngs Moduli (GPa) = 58.42149 27.46122 67.00201
#
# Poissons Ratio (x) = 0.40714 0.03192
# Poissons Ratio (y) = 0.86615 0.50354
# Poissons Ratio (z) = 0.02783 0.20638
#
# Static dielectric constant tensor:
#      x y z
#    x 1.720630 0.000000 0.000000 
#    y 0.000000 1.639090 0.000000 
#    z 0.000000 0.000000 1.712370 
# 
# From -- ./inp_files/2904.got.cif
#   From: 2010.05.17/outbox.cif.g08.bks.cpg/sg62_2_cif.got.tgz:2904.got - 2010.06.03 15:25:27.
