data_PCOD9463173
_publ_section_title
;
Structure prediction by ZEFSAII (Michael W. Deem and Ramdas Pophale) SiO2 
 PCOD9463173
Probable space group: P N M A
;
_chemical_formula_sum "Si O2"
_cell_formula_units_Z 48
_cell_length_a 21.840053
_cell_length_b 12.766419
_cell_length_c 9.223253
_cell_angle_alpha 90.000000
_cell_angle_beta 90.000000
_cell_angle_gamma 90.000000
_cell_volume 2571.620646
_symmetry_space_group_name_H-M "P N M A"
_symmetry_group_IT_number 62
_symmetry_cell_setting 'orthorhombic'
loop_
_space_group_symop_operation_xyz
x,y,z
1/2-x,-y,1/2+z
1/2+x,1/2-y,1/2-z
-x,1/2+y,-z
-x,-y,-z
1/2+x,y,1/2-z
1/2-x,1/2+y,1/2+z
x,1/2-y,z
loop_
_atom_site_type_symbol
_atom_site_label
_atom_site_fract_x
_atom_site_fract_y
_atom_site_fract_z
Si Si1 0.502279 0.482321 0.737155
Si Si2 0.926355 0.626075 0.984297
Si Si3 0.379605 0.127905 0.823420
Si Si4 0.899651 0.370567 0.356069
Si Si5 0.196524 0.014775 0.103541
Si Si6 0.282781 0.373310 0.333069
O O1 0.545300 0.410914 0.636389
O O2 0.467579 0.566834 0.635451
O O3 0.449022 0.412708 0.805777
O O4 0.545670 0.547656 0.842770
O O5 0.930198 0.750000 0.967562
O O6 0.857015 0.586279 0.965054
O O7 0.376114 0.250000 0.786707
O O8 0.337133 0.063366 0.715704
O O9 0.364111 0.114068 0.992674
O O10 0.922042 0.250000 0.356596
O O11 0.853120 0.382446 0.221925
O O12 0.241888 0.083824 0.200811
O O13 0.225516 0.944822 0.975296
O O14 0.270455 0.250000 0.359952
#
# Coordination Sequence:
#
# PCOD9463173 Si02
#       6
#     8   8   8   8   8   8
#     4  10  19  34  56  85 116 156 189 240 286 348
#     4  10  20  34  55  85 117 150 192 239 296 349
#     4  10  21  36  59  86 118 155 193 240 293 351
#     4  10  20  36  57  85 117 154 194 237 293 349
#     4  11  22  40  61  84 118 152 200 248 297 349
#     4  11  23  40  63  86 116 157 202 248 299 356
#
# _framework density 18.665272000000002
#
# number of rings (size 3 to 8) (size 9 to 14) (size 15 to 20)
#    0.000    1.667    1.667    3.500    0.000    0.000 
#    0.000    2.500    0.000    4.000    0.000    0.000 
#    0.000    0.000    0.000    0.000    0.000    0.000 
#
# Total GULP energy -268001.146820 kJ/mol
# GULP energy per Si atom -5583.357225 kJ/mol
# Density = 1.862279 g / cm^3
# Si number density = 18.665272 Si / 1000 Ang^3
#
#
#
# Elastic Constant Matrix: (Units=GPa)
#
#
# Indices 1 2 3 4 5 6 
#
# 1 52.5531 16.7845 0.1905 0.0000 0.0000 0.0000
# 2 16.7845 91.2506 11.2090 0.0000 0.0000 0.0000
# 3 0.1905 11.2090 52.6191 0.0000 0.0000 0.0000
# 4 0.0000 0.0000 0.0000 26.6191 0.0000 0.0000
# 5 0.0000 0.0000 0.0000 0.0000 25.6111 0.0000
# 6 0.0000 0.0000 0.0000 0.0000 0.0000 18.5848
#
#
#
# Elastic Compliance Matrix: (Units=1/GPa)
#
#
# Indices 1 2 3 4 5 6 
#
# 1 0.020244 -0.003814 0.000739 0.000000 0.000000 0.000000
# 2 -0.003814 0.011972 -0.002537 0.000000 0.000000 0.000000
# 3 0.000739 -0.002537 0.019542 0.000000 0.000000 0.000000
# 4 0.000000 0.000000 0.000000 0.037567 0.000000 0.000000
# 5 0.000000 0.000000 0.000000 0.000000 0.039046 0.000000
# 6 0.000000 0.000000 0.000000 0.000000 0.000000 0.053807
#
#
# Mechanical properties :
#
#
# Convention : Reuss Voigt Hill
#
# Bulk Modulus (GPa) = 24.67015 28.08787 26.37901
# Shear Modulus (GPa) = 24.16474 25.37893 24.77183
#
# Velocity S-wave (km/s) = 3.60201 3.69139 3.64698
# Velocity P-wave (km/s) = 5.52676 5.76623 5.64777
#
# Compressibility (1/GPa) = 0.04053481
#
# Stress axis : x y z
#
# Youngs Moduli (GPa) = 49.39745 83.52796 51.17141
#
# Poissons Ratio (x) = 0.31861 -0.03783
# Poissons Ratio (y) = 0.18842 0.12980
# Poissons Ratio (z) = -0.03652 0.21187
#
# Static dielectric constant tensor:
#      x y z
#    x 1.634450 0.000000 0.000000 
#    y 0.000000 1.606720 0.000000 
#    z 0.000000 0.000000 1.648340 
# 
# From -- ./inp_files/9299.got.cif
#   From: 2010.05.17/outbox.cif.g08.bks.cpg/sg62_5_cif.got.tgz:9299.got - 2010.06.03 15:25:27.
