data_PCOD9463224
_publ_section_title
;
Structure prediction by ZEFSAII (Michael W. Deem and Ramdas Pophale) SiO2 
 PCOD9463224
Probable space group: P N M A
;
_chemical_formula_sum "Si O2"
_cell_formula_units_Z 64
_cell_length_a 18.546086
_cell_length_b 11.610796
_cell_length_c 15.226672
_cell_angle_alpha 90.000000
_cell_angle_beta 90.000000
_cell_angle_gamma 90.000000
_cell_volume 3278.832692
_symmetry_space_group_name_H-M "P N M A"
_symmetry_group_IT_number 62
_symmetry_cell_setting 'orthorhombic'
loop_
_space_group_symop_operation_xyz
x,y,z
1/2-x,-y,1/2+z
1/2+x,1/2-y,1/2-z
-x,1/2+y,-z
-x,-y,-z
1/2+x,y,1/2-z
1/2-x,1/2+y,1/2+z
x,1/2-y,z
loop_
_atom_site_type_symbol
_atom_site_label
_atom_site_fract_x
_atom_site_fract_y
_atom_site_fract_z
Si Si1 0.181505 0.041704 0.508523
Si Si2 0.764040 0.114328 0.330786
Si Si3 0.025743 0.379601 0.544614
Si Si4 0.374337 0.471024 0.676941
Si Si5 0.340717 0.970413 0.321269
Si Si6 0.489328 0.618989 0.251298
Si Si7 0.158795 0.878829 0.985753
Si Si8 0.188700 0.625001 0.352657
O O1 0.112651 0.113079 0.538322
O O2 0.253918 0.113165 0.490201
O O3 0.203763 0.950808 0.584251
O O4 0.163267 0.972859 0.419434
O O5 0.773564 0.250000 0.336526
O O6 0.804828 0.061325 0.246434
O O7 0.679135 0.080613 0.324171
O O8 0.003904 0.250000 0.511194
O O9 0.003287 0.385573 0.646373
O O10 0.000000 0.500000 0.500000
O O11 0.457561 0.473810 0.704453
O O12 0.368231 0.415192 0.581441
O O13 0.340404 0.393474 0.754774
O O14 0.364704 0.034635 0.409627
O O15 0.407375 0.907838 0.276606
O O16 0.275077 0.886779 0.347065
O O17 0.507722 0.750000 0.279816
O O18 0.136164 0.750000 0.964807
O O19 0.167270 0.750000 0.385900
#
# Coordination Sequence:
#
# PCOD9463224 Si02
#       8
#     8   8   8   8   8   8   8   8
#     4  10  20  36  60  88 115 152 201 252 306 368
#     4  10  20  38  60  84 118 155 200 257 313 370
#     4  11  24  41  61  91 128 167 207 252 310 375
#     4  10  22  37  57  84 113 154 202 244 302 363
#     4  10  21  36  56  86 117 154 204 246 310 364
#     4  11  22  40  61  85 123 161 203 257 305 362
#     4  10  20  36  58  83 113 150 196 251 304 358
#     4  10  19  34  58  86 116 152 202 256 305 362
#
# _framework density 19.51914
#
# number of rings (size 3 to 8) (size 9 to 14) (size 15 to 20)
#    0.000    1.750    1.250    3.375    0.000    2.500 
#    0.000    6.875    0.000    0.000    0.000    0.000 
#    0.000    0.000    0.000    0.000    0.000    0.000 
#
# Total GULP energy -357162.759196 kJ/mol
# GULP energy per Si atom -5580.668112 kJ/mol
# Density = 1.947471 g / cm^3
# Si number density = 19.519140 Si / 1000 Ang^3
#
#
#
# Elastic Constant Matrix: (Units=GPa)
#
#
# Indices 1 2 3 4 5 6 
#
# 1 64.8962 11.3191 5.8302 0.0000 0.0000 0.0000
# 2 11.3191 97.2119 26.2047 0.0000 0.0000 0.0000
# 3 5.8302 26.2047 87.9663 0.0000 0.0000 0.0000
# 4 0.0000 0.0000 0.0000 5.2149 0.0000 0.0000
# 5 0.0000 0.0000 0.0000 0.0000 30.4947 0.0000
# 6 0.0000 0.0000 0.0000 0.0000 0.0000 10.2463
#
#
#
# Elastic Compliance Matrix: (Units=1/GPa)
#
#
# Indices 1 2 3 4 5 6 
#
# 1 0.015752 -0.001688 -0.000541 0.000000 0.000000 0.000000
# 2 -0.001688 0.011366 -0.003274 0.000000 0.000000 0.000000
# 3 -0.000541 -0.003274 0.012379 0.000000 0.000000 0.000000
# 4 0.000000 0.000000 0.000000 0.191757 0.000000 0.000000
# 5 0.000000 0.000000 0.000000 0.000000 0.032793 0.000000
# 6 0.000000 0.000000 0.000000 0.000000 0.000000 0.097596
#
#
# Mechanical properties :
#
#
# Convention : Reuss Voigt Hill
#
# Bulk Modulus (GPa) = 35.09918 37.42027 36.25973
# Shear Modulus (GPa) = 13.08399 22.97255 18.02827
#
# Velocity S-wave (km/s) = 2.59185 3.43435 3.04241
# Velocity P-wave (km/s) = 5.19403 5.91093 5.56404
#
# Compressibility (1/GPa) = 0.02849069
#
# Stress axis : x y z
#
# Youngs Moduli (GPa) = 63.48276 87.98230 80.78102
#
# Poissons Ratio (x) = 0.14854 0.04371
# Poissons Ratio (y) = 0.10718 0.26447
# Poissons Ratio (z) = 0.03435 0.28805
#
# Static dielectric constant tensor:
#      x y z
#    x 1.706880 0.000000 0.000000 
#    y 0.000000 1.686410 0.000000 
#    z 0.000000 0.000000 1.661410 
# 
# From -- ./inp_files/19893.got.cif
#   From: 2010.05.17/outbox.cif.g08.bks.cpg/sg62_10_cif.got.tgz:19893.got - 2010.06.03 15:25:27.
