data_PCOD9463489
_publ_section_title
;
Structure prediction by ZEFSAII (Michael W. Deem and Ramdas Pophale) SiO2 
 PCOD9463489
Probable space group: P N M A
;
_chemical_formula_sum "Si O2"
_cell_formula_units_Z 56
_cell_length_a 9.012832
_cell_length_b 19.408536
_cell_length_c 16.638444
_cell_angle_alpha 90.000000
_cell_angle_beta 90.000000
_cell_angle_gamma 90.000000
_cell_volume 2910.494364
_symmetry_space_group_name_H-M "P N M A"
_symmetry_group_IT_number 62
_symmetry_cell_setting 'orthorhombic'
loop_
_space_group_symop_operation_xyz
x,y,z
1/2-x,-y,1/2+z
1/2+x,1/2-y,1/2-z
-x,1/2+y,-z
-x,-y,-z
1/2+x,y,1/2-z
1/2-x,1/2+y,1/2+z
x,1/2-y,z
loop_
_atom_site_type_symbol
_atom_site_label
_atom_site_fract_x
_atom_site_fract_y
_atom_site_fract_z
Si Si1 0.775482 0.449822 0.519864
Si Si2 0.476757 0.121182 0.509735
Si Si3 0.973498 0.386499 0.648424
Si Si4 0.587823 0.473209 0.248023
Si Si5 0.678062 0.928391 0.637755
Si Si6 0.244746 0.044532 0.613349
Si Si7 0.822972 0.250000 0.719793
Si Si8 0.994066 0.750000 0.127622
O O1 0.636084 0.408414 0.484670
O O2 0.887665 0.400354 0.565515
O O3 0.708737 0.501576 0.587026
O O4 0.843198 0.496052 0.449108
O O5 0.375044 0.126038 0.429818
O O6 0.392137 0.066747 0.566732
O O7 0.503558 0.185374 0.567676
O O8 0.955497 0.455779 0.702345
O O9 0.903946 0.319177 0.687592
O O10 0.149273 0.388080 0.633493
O O11 0.454019 0.441550 0.299089
O O12 0.668966 0.420816 0.187048
O O13 0.710616 0.500398 0.310563
O O14 0.654112 0.250000 0.684978
O O15 0.862568 0.250000 0.814220
#
# Coordination Sequence:
#
# PCOD9463489 Si02
#       8
#     8   8   8   8   8   8   4   4
#     4  10  19  36  57  83 116 159 195 236 293 353
#     4  11  21  40  59  82 115 164 199 232 287 368
#     4  11  24  35  53  83 125 153 199 235 292 345
#     4  11  19  32  57  86 113 149 189 248 298 339
#     4  10  20  34  58  87 115 146 194 243 301 343
#     4  11  20  34  58  86 120 151 190 253 295 339
#     4  12  28  40  58  86 118 169 197 233 275 354
#     4  12  28  44  62  80 120 163 203 233 283 352
#
# _framework density 19.240718000000001
#
# number of rings (size 3 to 8) (size 9 to 14) (size 15 to 20)
#    0.000    1.143    5.714    2.143    4.000    0.000 
#    0.000    0.000    0.000    0.857    0.000    0.000 
#    0.000    0.000    0.000    0.000    0.000    0.000 
#
# Total GULP energy -312314.634372 kJ/mol
# GULP energy per Si atom -5577.047042 kJ/mol
# Density = 1.919693 g / cm^3
# Si number density = 19.240718 Si / 1000 Ang^3
#
#
#
# Elastic Constant Matrix: (Units=GPa)
#
#
# Indices 1 2 3 4 5 6 
#
# 1 53.9106 11.0127 27.0454 0.0000 0.0000 0.0000
# 2 11.0127 51.7561 22.6166 0.0000 0.0000 0.0000
# 3 27.0454 22.6166 76.7685 0.0000 0.0000 0.0000
# 4 0.0000 0.0000 0.0000 15.6357 0.0000 0.0000
# 5 0.0000 0.0000 0.0000 0.0000 36.9938 0.0000
# 6 0.0000 0.0000 0.0000 0.0000 0.0000 14.7384
#
#
#
# Elastic Compliance Matrix: (Units=1/GPa)
#
#
# Indices 1 2 3 4 5 6 
#
# 1 0.022636 -0.001528 -0.007524 0.000000 0.000000 0.000000
# 2 -0.001528 0.022280 -0.006025 0.000000 0.000000 0.000000
# 3 -0.007524 -0.006025 0.017452 0.000000 0.000000 0.000000
# 4 0.000000 0.000000 0.000000 0.063956 0.000000 0.000000
# 5 0.000000 0.000000 0.000000 0.000000 0.027032 0.000000
# 6 0.000000 0.000000 0.000000 0.000000 0.000000 0.067850
#
#
# Mechanical properties :
#
#
# Convention : Reuss Voigt Hill
#
# Bulk Modulus (GPa) = 31.04471 33.75384 32.39928
# Shear Modulus (GPa) = 19.07674 21.59094 20.33384
#
# Velocity S-wave (km/s) = 3.15219 3.35348 3.25439
# Velocity P-wave (km/s) = 5.42387 5.70749 5.56749
#
# Compressibility (1/GPa) = 0.03221161
#
# Stress axis : x y z
#
# Youngs Moduli (GPa) = 44.17697 44.88417 57.29968
#
# Poissons Ratio (x) = 0.06860 0.43115
# Poissons Ratio (y) = 0.06752 0.34525
# Poissons Ratio (z) = 0.33241 0.27044
#
# Static dielectric constant tensor:
#      x y z
#    x 1.746230 0.000000 0.000000 
#    y 0.000000 1.670130 0.000000 
#    z 0.000000 0.000000 1.700740 
# 
# From -- ./inp_files/17227.got.cif
#   From: 2010.05.17/outbox.cif.g08.bks.cpg/sg62_9_cif.got.tgz:17227.got - 2010.06.03 15:25:27.
