data_PCOD9463932
_publ_section_title
;
Structure prediction by ZEFSAII (Michael W. Deem and Ramdas Pophale) SiO2 
 PCOD9463932
Probable space group: P N M A
;
_chemical_formula_sum "Si O2"
_cell_formula_units_Z 48
_cell_length_a 16.821634
_cell_length_b 18.133587
_cell_length_c 7.912638
_cell_angle_alpha 90.000000
_cell_angle_beta 90.000000
_cell_angle_gamma 90.000000
_cell_volume 2413.643905
_symmetry_space_group_name_H-M "P N M A"
_symmetry_group_IT_number 62
_symmetry_cell_setting 'orthorhombic'
loop_
_space_group_symop_operation_xyz
x,y,z
1/2-x,-y,1/2+z
1/2+x,1/2-y,1/2-z
-x,1/2+y,-z
-x,-y,-z
1/2+x,y,1/2-z
1/2-x,1/2+y,1/2+z
x,1/2-y,z
loop_
_atom_site_type_symbol
_atom_site_label
_atom_site_fract_x
_atom_site_fract_y
_atom_site_fract_z
Si Si1 0.270659 0.592005 0.085093
Si Si2 0.874095 0.332123 0.764309
Si Si3 0.147803 0.523297 0.835098
Si Si4 0.067818 0.402438 0.425318
Si Si5 0.407452 0.168059 0.134712
Si Si6 0.487097 0.037951 0.725174
O O1 0.214951 0.652007 0.174041
O O2 0.310418 0.537362 0.218698
O O3 0.209790 0.543173 0.977891
O O4 0.342964 0.621436 0.969242
O O5 0.899486 0.250000 0.813202
O O6 0.879550 0.337563 0.560654
O O7 0.933540 0.394342 0.835908
O O8 0.128721 0.599053 0.734602
O O9 0.062103 0.489405 0.883936
O O10 0.065942 0.469653 0.291454
O O11 0.003073 0.343185 0.364843
O O12 0.029541 0.433312 0.600360
O O13 0.386646 0.250000 0.198026
#
# Coordination Sequence:
#
# PCOD9463932 Si02
#       6
#     8   8   8   8   8   8
#     4  11  20  32  52  80 108 131 172 219 262 304
#     4  10  20  33  51  75 104 134 169 217 264 308
#     4  10  20  33  55  78 103 139 174 215 258 307
#     4   8  15  29  52  74  96 132 174 209 242 304
#     4   9  18  35  55  73  99 138 176 209 256 313
#     4   8  15  32  51  71  98 133 175 206 246 308
#
# _framework density 19.886944
#
# number of rings (size 3 to 8) (size 9 to 14) (size 15 to 20)
#    0.000    2.667    0.000    5.000    0.000    2.000 
#    0.000    2.500    0.000    1.000    0.000    0.000 
#    0.000    0.000    0.000    0.000    0.000    0.000 
#
# Total GULP energy -267766.719757 kJ/mol
# GULP energy per Si atom -5578.473328 kJ/mol
# Density = 1.984168 g / cm^3
# Si number density = 19.886944 Si / 1000 Ang^3
#
#
#
# Elastic Constant Matrix: (Units=GPa)
#
#
# Indices 1 2 3 4 5 6 
#
# 1 118.4823 22.2383 25.4189 0.0000 0.0000 0.0000
# 2 22.2383 68.1089 3.0275 0.0000 0.0000 0.0000
# 3 25.4189 3.0275 23.4234 0.0000 0.0000 0.0000
# 4 0.0000 0.0000 0.0000 16.7598 0.0000 0.0000
# 5 0.0000 0.0000 0.0000 0.0000 33.9513 0.0000
# 6 0.0000 0.0000 0.0000 0.0000 0.0000 26.6718
#
#
#
# Elastic Compliance Matrix: (Units=1/GPa)
#
#
# Indices 1 2 3 4 5 6 
#
# 1 0.011683 -0.003270 -0.012256 0.000000 0.000000 0.000000
# 2 -0.003270 0.015682 0.001521 0.000000 0.000000 0.000000
# 3 -0.012256 0.001521 0.055796 0.000000 0.000000 0.000000
# 4 0.000000 0.000000 0.000000 0.059667 0.000000 0.000000
# 5 0.000000 0.000000 0.000000 0.000000 0.029454 0.000000
# 6 0.000000 0.000000 0.000000 0.000000 0.000000 0.037493
#
#
# Mechanical properties :
#
#
# Convention : Reuss Voigt Hill
#
# Bulk Modulus (GPa) = 18.13144 34.59820 26.36482
# Shear Modulus (GPa) = 19.51849 26.09858 22.80853
#
# Velocity S-wave (km/s) = 3.13624 3.62656 3.39028
# Velocity P-wave (km/s) = 4.71718 5.91364 5.34897
#
# Compressibility (1/GPa) = 0.05515281
#
# Stress axis : x y z
#
# Youngs Moduli (GPa) = 85.59342 63.76584 17.92252
#
# Poissons Ratio (x) = 0.20851 0.21966
# Poissons Ratio (y) = 0.27988 -0.02727
# Poissons Ratio (z) = 1.04902 -0.09702
#
# Static dielectric constant tensor:
#      x y z
#    x 1.705710 0.000000 0.000000 
#    y 0.000000 1.703040 0.000000 
#    z 0.000000 0.000000 1.753830 
# 
# From -- ./inp_files/6493.got.cif
#   From: 2010.05.17/outbox.cif.g08.bks.cpg/sg62_4_cif.got.tgz:6493.got - 2010.06.03 15:25:27.
