data_PCOD9463182
_publ_section_title
;
Structure prediction by ZEFSAII (Michael W. Deem and Ramdas Pophale) SiO2 
 PCOD9463182
Probable space group: P N M A
;
_chemical_formula_sum "Si O2"
_cell_formula_units_Z 48
_cell_length_a 10.388105
_cell_length_b 8.786409
_cell_length_c 30.223755
_cell_angle_alpha 90.000000
_cell_angle_beta 90.000000
_cell_angle_gamma 90.000000
_cell_volume 2758.647223
_symmetry_space_group_name_H-M "P N M A"
_symmetry_group_IT_number 62
_symmetry_cell_setting 'orthorhombic'
loop_
_space_group_symop_operation_xyz
x,y,z
1/2-x,-y,1/2+z
1/2+x,1/2-y,1/2-z
-x,1/2+y,-z
-x,-y,-z
1/2+x,y,1/2-z
1/2-x,1/2+y,1/2+z
x,1/2-y,z
loop_
_atom_site_type_symbol
_atom_site_label
_atom_site_fract_x
_atom_site_fract_y
_atom_site_fract_z
Si Si1 0.716033 0.931607 0.385781
Si Si2 0.518351 0.932099 0.120645
Si Si3 0.504264 0.433163 0.215611
Si Si4 0.707295 0.434302 0.289961
Si Si5 0.881981 0.066354 0.527723
Si Si6 0.376222 0.567455 0.523852
O O1 0.700375 0.750000 0.386185
O O2 0.868835 0.966021 0.390853
O O3 0.677716 0.998249 0.338184
O O4 0.641727 0.004811 0.426679
O O5 0.529301 0.750000 0.125747
O O6 0.603442 0.981655 0.078882
O O7 0.546835 0.008539 0.167463
O O8 0.505808 0.250000 0.215254
O O9 0.602611 0.483897 0.253709
O O10 0.354582 0.480299 0.222088
O O11 0.704968 0.250000 0.292551
O O12 0.891111 0.250000 0.526934
O O13 0.749554 0.021561 0.504479
O O14 0.000000 0.000000 0.500000
O O15 0.500000 0.500000 0.500000
O O16 0.382624 0.750000 0.524882
#
# Coordination Sequence:
#
# PCOD9463182 Si02
#       6
#     8   8   8   8   8   8
#     4  10  19  34  57  80 106 141 181 219 267 323
#     4   9  18  33  54  80 107 134 173 222 266 315
#     4   9  18  33  53  75 103 137 174 216 261 314
#     4   9  18  34  54  76 104 136 175 218 264 316
#     4  10  20  35  57  82 108 140 179 223 267 317
#     4  11  23  38  56  79 112 148 183 223 273 325
#
# _framework density 17.399832
#
# number of rings (size 3 to 8) (size 9 to 14) (size 15 to 20)
#    0.000    2.333    1.667    1.000    0.000    2.667 
#    3.000    0.000    0.000    0.000    0.000    0.000 
#    0.000    0.000    0.000    0.000    0.000    0.000 
#
# Total GULP energy -267782.912890 kJ/mol
# GULP energy per Si atom -5578.810685 kJ/mol
# Density = 1.736023 g / cm^3
# Si number density = 17.399832 Si / 1000 Ang^3
#
#
#
# Elastic Constant Matrix: (Units=GPa)
#
#
# Indices 1 2 3 4 5 6 
#
# 1 118.9358 35.0684 104.9420 0.0000 0.0000 0.0000
# 2 35.0684 16.3241 39.7899 0.0000 0.0000 0.0000
# 3 104.9420 39.7899 188.1724 0.0000 0.0000 0.0000
# 4 0.0000 0.0000 0.0000 33.4670 0.0000 0.0000
# 5 0.0000 0.0000 0.0000 0.0000 37.2092 0.0000
# 6 0.0000 0.0000 0.0000 0.0000 0.0000 20.3162
#
#
#
# Elastic Compliance Matrix: (Units=1/GPa)
#
#
# Indices 1 2 3 4 5 6 
#
# 1 0.025352 -0.041272 -0.005411 0.000000 0.000000 0.000000
# 2 -0.041272 0.193608 -0.017922 0.000000 0.000000 0.000000
# 3 -0.005411 -0.017922 0.012122 0.000000 0.000000 0.000000
# 4 0.000000 0.000000 0.000000 0.029880 0.000000 0.000000
# 5 0.000000 0.000000 0.000000 0.000000 0.026875 0.000000
# 6 0.000000 0.000000 0.000000 0.000000 0.000000 0.049222
#
#
# Mechanical properties :
#
#
# Convention : Reuss Voigt Hill
#
# Bulk Modulus (GPa) = 9.81639 75.89256 42.85448
# Shear Modulus (GPa) = 9.99547 27.77393 18.88470
#
# Velocity S-wave (km/s) = 2.39938 3.99960 3.29802
# Velocity P-wave (km/s) = 3.65102 8.06478 6.25982
#
# Compressibility (1/GPa) = 0.10187047
#
# Stress axis : x y z
#
# Youngs Moduli (GPa) = 39.44533 5.16507 82.49640
#
# Poissons Ratio (x) = 0.21317 0.44640
# Poissons Ratio (y) = 1.62800 1.47852
# Poissons Ratio (z) = 0.21344 0.09257
#
# Static dielectric constant tensor:
#      x y z
#    x 1.582860 0.000000 0.000000 
#    y 0.000000 1.585170 0.000000 
#    z 0.000000 0.000000 1.573100 
# 
# From -- ./inp_files/31963.got.cif
#   From: 2010.05.17/outbox.cif.g08.bks.cpg/sg62_16_cif.got.tgz:31963.got - 2010.06.03 15:25:27.
