data_PCOD9463167
_publ_section_title
;
Structure prediction by ZEFSAII (Michael W. Deem and Ramdas Pophale) SiO2 
 PCOD9463167
Probable space group: P N M A
;
_chemical_formula_sum "Si O2"
_cell_formula_units_Z 64
_cell_length_a 24.376870
_cell_length_b 9.026394
_cell_length_c 15.397689
_cell_angle_alpha 90.000000
_cell_angle_beta 90.000000
_cell_angle_gamma 90.000000
_cell_volume 3388.034088
_symmetry_space_group_name_H-M "P N M A"
_symmetry_group_IT_number 62
_symmetry_cell_setting 'orthorhombic'
loop_
_space_group_symop_operation_xyz
x,y,z
1/2-x,-y,1/2+z
1/2+x,1/2-y,1/2-z
-x,1/2+y,-z
-x,-y,-z
1/2+x,y,1/2-z
1/2-x,1/2+y,1/2+z
x,1/2-y,z
loop_
_atom_site_type_symbol
_atom_site_label
_atom_site_fract_x
_atom_site_fract_y
_atom_site_fract_z
Si Si1 0.250784 0.426566 0.713895
Si Si2 0.126050 0.573092 0.164358
Si Si3 0.726004 0.921864 0.966627
Si Si4 0.450483 0.427088 0.822933
Si Si5 0.845237 0.425670 0.192773
Si Si6 0.376921 0.925339 0.969366
Si Si7 0.353330 0.921369 0.484548
Si Si8 0.921017 0.925556 0.336100
O O1 0.244823 0.250000 0.722300
O O2 0.315399 0.463956 0.709871
O O3 0.227051 0.481228 0.621200
O O4 0.214703 0.506352 0.786368
O O5 0.127134 0.750000 0.148177
O O6 0.077412 0.538351 0.230594
O O7 0.122928 0.489417 0.073106
O O8 0.713665 0.750000 0.946049
O O9 0.787265 0.928606 0.004014
O O10 0.680555 0.987772 0.030314
O O11 0.443990 0.250000 0.837456
O O12 0.417642 0.513211 0.896956
O O13 0.514839 0.460677 0.825509
O O14 0.841988 0.250000 0.191276
O O15 0.866874 0.487965 0.101515
O O16 0.884511 0.482109 0.269634
O O17 0.368120 0.750000 0.958903
O O18 0.402854 0.951597 0.064757
O O19 0.369047 0.750000 0.474999
O O20 0.912907 0.750000 0.318057
#
# Coordination Sequence:
#
# PCOD9463167 Si02
#       8
#     8   8   8   8   8   8   8   8
#     4  10  19  34  56  83 118 154 189 235 294 350
#     4   9  20  39  61  86 117 152 194 245 296 350
#     4  10  20  35  56  84 117 155 194 235 289 349
#     4  10  22  40  62  86 116 158 202 246 297 354
#     4  12  24  37  59  88 118 156 201 244 293 354
#     4  11  22  35  56  87 121 159 197 241 292 349
#     4  10  22  39  60  85 119 156 194 244 298 353
#     4  10  22  41  61  84 119 159 201 248 297 346
#
# _framework density 18.890011999999999
#
# number of rings (size 3 to 8) (size 9 to 14) (size 15 to 20)
#    0.000    1.750    1.250    3.000    1.750    3.500 
#    0.000    0.625    0.000    0.000    0.000    0.000 
#    0.000    0.000    0.000    0.000    0.000    0.000 
#
# Total GULP energy -357689.896978 kJ/mol
# GULP energy per Si atom -5588.904640 kJ/mol
# Density = 1.884702 g / cm^3
# Si number density = 18.890012 Si / 1000 Ang^3
#
#
#
# Elastic Constant Matrix: (Units=GPa)
#
#
# Indices 1 2 3 4 5 6 
#
# 1 14.1738 9.6653 -5.8890 0.0000 0.0000 0.0000
# 2 9.6653 75.2604 40.0227 0.0000 0.0000 0.0000
# 3 -5.8890 40.0227 72.2120 0.0000 0.0000 0.0000
# 4 0.0000 0.0000 0.0000 32.3594 0.0000 0.0000
# 5 0.0000 0.0000 0.0000 0.0000 15.9519 0.0000
# 6 0.0000 0.0000 0.0000 0.0000 0.0000 20.3177
#
#
#
# Elastic Compliance Matrix: (Units=1/GPa)
#
#
# Indices 1 2 3 4 5 6 
#
# 1 0.094839 -0.023102 0.020538 0.000000 0.000000 0.000000
# 2 -0.023102 0.024467 -0.015445 0.000000 0.000000 0.000000
# 3 0.020538 -0.015445 0.024083 0.000000 0.000000 0.000000
# 4 0.000000 0.000000 0.000000 0.030903 0.000000 0.000000
# 5 0.000000 0.000000 0.000000 0.000000 0.062688 0.000000
# 6 0.000000 0.000000 0.000000 0.000000 0.000000 0.049218
#
#
# Mechanical properties :
#
#
# Convention : Reuss Voigt Hill
#
# Bulk Modulus (GPa) = 9.31334 27.69381 18.50358
# Shear Modulus (GPa) = 13.96623 21.58227 17.77425
#
# Velocity S-wave (km/s) = 2.72204 3.38379 3.07079
# Velocity P-wave (km/s) = 3.84972 5.47349 4.73178
#
# Compressibility (1/GPa) = 0.10737283
#
# Stress axis : x y z
#
# Youngs Moduli (GPa) = 10.54419 40.87070 41.52286
#
# Poissons Ratio (x) = 0.94418 -0.85280
# Poissons Ratio (y) = 0.24359 0.64131
# Poissons Ratio (z) = -0.21656 0.63124
#
# Static dielectric constant tensor:
#      x y z
#    x 1.646960 0.000000 0.000000 
#    y 0.000000 1.633160 0.000000 
#    z 0.000000 0.000000 1.638430 
# 
# From -- ./inp_files/20931.got.cif
#   From: 2010.05.17/outbox.cif.g08.bks.cpg/sg62_11_cif.got.tgz:20931.got - 2010.06.03 15:25:27.
