data_PCOD9463698
_publ_section_title
;
Structure prediction by ZEFSAII (Michael W. Deem and Ramdas Pophale) SiO2 
 PCOD9463698
Probable space group: P N M A
;
_chemical_formula_sum "Si O2"
_cell_formula_units_Z 40
_cell_length_a 9.156359
_cell_length_b 14.342864
_cell_length_c 15.726794
_cell_angle_alpha 90.000000
_cell_angle_beta 90.000000
_cell_angle_gamma 90.000000
_cell_volume 2065.374880
_symmetry_space_group_name_H-M "P N M A"
_symmetry_group_IT_number 62
_symmetry_cell_setting 'orthorhombic'
loop_
_space_group_symop_operation_xyz
x,y,z
1/2-x,-y,1/2+z
1/2+x,1/2-y,1/2-z
-x,1/2+y,-z
-x,-y,-z
1/2+x,y,1/2-z
1/2-x,1/2+y,1/2+z
x,1/2-y,z
loop_
_atom_site_type_symbol
_atom_site_label
_atom_site_fract_x
_atom_site_fract_y
_atom_site_fract_z
Si Si1 0.879677 0.550730 0.810312
Si Si2 0.070557 0.853065 0.675854
Si Si3 0.898930 0.359923 0.059153
Si Si4 0.196241 0.853813 0.122885
Si Si5 0.586049 0.405422 0.016553
O O1 0.734838 0.612875 0.814113
O O2 0.970044 0.574614 0.726406
O O3 0.981270 0.584939 0.888457
O O4 0.834384 0.442890 0.819540
O O5 0.050470 0.750000 0.712951
O O6 0.022157 0.850375 0.577852
O O7 0.889420 0.250000 0.083531
O O8 0.739705 0.407910 0.068625
O O9 0.917301 0.360251 0.956841
O O10 0.187874 0.750000 0.160197
O O11 0.351604 0.865116 0.072472
O O12 0.500000 0.500000 0.000000
#
# Coordination Sequence:
#
# PCOD9463698 Si02
#       5
#     8   8   8   8   8
#     4  12  23  38  59  89 123 164 199 248 308 367
#     4  12  23  36  57  89 124 155 198 250 309 365
#     4   9  18  35  58  87 121 155 195 245 299 354
#     4   9  20  39  63  86 117 158 204 253 297 354
#     4  10  19  38  61  89 119 160 197 246 300 359
#
# _framework density 19.366944
#
# number of rings (size 3 to 8) (size 9 to 14) (size 15 to 20)
#    1.200    0.400    2.000    4.800    0.000    0.000 
#    0.000    1.000    0.000    2.400    0.000    0.000 
#    0.000    0.000    0.000    0.000    0.000    0.000 
#
# Total GULP energy -222687.337094 kJ/mol
# GULP energy per Si atom -5567.183427 kJ/mol
# Density = 1.932286 g / cm^3
# Si number density = 19.366944 Si / 1000 Ang^3
#
#
#
# Elastic Constant Matrix: (Units=GPa)
#
#
# Indices 1 2 3 4 5 6 
#
# 1 90.3179 26.1321 6.1177 0.0000 0.0000 0.0000
# 2 26.1321 140.0954 33.4747 0.0000 0.0000 0.0000
# 3 6.1177 33.4747 20.7070 0.0000 0.0000 0.0000
# 4 0.0000 0.0000 0.0000 15.3080 0.0000 0.0000
# 5 0.0000 0.0000 0.0000 0.0000 10.4531 0.0000
# 6 0.0000 0.0000 0.0000 0.0000 0.0000 38.2850
#
#
#
# Elastic Compliance Matrix: (Units=1/GPa)
#
#
# Indices 1 2 3 4 5 6 
#
# 1 0.011704 -0.002211 0.000116 0.000000 0.000000 0.000000
# 2 -0.002211 0.012048 -0.018824 0.000000 0.000000 0.000000
# 3 0.000116 -0.018824 0.078689 0.000000 0.000000 0.000000
# 4 0.000000 0.000000 0.000000 0.065325 0.000000 0.000000
# 5 0.000000 0.000000 0.000000 0.000000 0.095665 0.000000
# 6 0.000000 0.000000 0.000000 0.000000 0.000000 0.026120
#
#
# Mechanical properties :
#
#
# Convention : Reuss Voigt Hill
#
# Bulk Modulus (GPa) = 16.50056 42.50769 29.50413
# Shear Modulus (GPa) = 14.22115 25.16894 19.69504
#
# Velocity S-wave (km/s) = 2.71274 3.60888 3.19241
# Velocity P-wave (km/s) = 4.28373 6.27388 5.37178
#
# Compressibility (1/GPa) = 0.06060399
#
# Stress axis : x y z
#
# Youngs Moduli (GPa) = 85.44221 83.00015 12.70834
#
# Poissons Ratio (x) = 0.18351 -0.00148
# Poissons Ratio (y) = 0.18891 0.23922
# Poissons Ratio (z) = -0.00994 1.56237
#
# Static dielectric constant tensor:
#      x y z
#    x 1.663070 0.000000 0.000000 
#    y 0.000000 1.650250 0.000000 
#    z 0.000000 0.000000 1.731330 
# 
# From -- ./inp_files/22072.got.cif
#   From: 2010.05.17/outbox.cif.g08.bks.cpg/sg62_12_cif.got.tgz:22072.got - 2010.06.03 15:25:27.
