data_PCOD9463216
_publ_section_title
;
Structure prediction by ZEFSAII (Michael W. Deem and Ramdas Pophale) SiO2 
 PCOD9463216
Probable space group: P N M A
;
_chemical_formula_sum "Si O2"
_cell_formula_units_Z 64
_cell_length_a 20.822235
_cell_length_b 9.007512
_cell_length_c 17.431658
_cell_angle_alpha 90.000000
_cell_angle_beta 90.000000
_cell_angle_gamma 90.000000
_cell_volume 3269.421315
_symmetry_space_group_name_H-M "P N M A"
_symmetry_group_IT_number 62
_symmetry_cell_setting 'orthorhombic'
loop_
_space_group_symop_operation_xyz
x,y,z
1/2-x,-y,1/2+z
1/2+x,1/2-y,1/2-z
-x,1/2+y,-z
-x,-y,-z
1/2+x,y,1/2-z
1/2-x,1/2+y,1/2+z
x,1/2-y,z
loop_
_atom_site_type_symbol
_atom_site_label
_atom_site_fract_x
_atom_site_fract_y
_atom_site_fract_z
Si Si1 0.151483 0.419407 0.303417
Si Si2 0.626377 0.071553 0.632847
Si Si3 0.131437 0.575613 0.699654
Si Si4 0.488768 0.923540 0.783881
Si Si5 0.645141 0.422229 0.382066
Si Si6 0.276852 0.925598 0.076119
Si Si7 0.485666 0.425232 0.621141
Si Si8 0.734670 0.575195 0.077037
O O1 0.170121 0.250000 0.322279
O O2 0.149430 0.431017 0.211076
O O3 0.199805 0.529744 0.344330
O O4 0.077558 0.445216 0.328683
O O5 0.624466 0.250000 0.645490
O O6 0.557678 0.030529 0.595528
O O7 0.689827 0.038077 0.584654
O O8 0.634122 0.991095 0.714714
O O9 0.147271 0.750000 0.702382
O O10 0.056736 0.559367 0.674637
O O11 0.179036 0.494568 0.642319
O O12 0.486759 0.750000 0.755323
O O13 0.488345 0.034891 0.712045
O O14 0.651790 0.250000 0.404594
O O15 0.704508 0.516669 0.411599
O O16 0.575889 0.484123 0.407157
O O17 0.279631 0.750000 0.079260
O O18 0.296351 0.986053 0.992748
O O19 0.476252 0.250000 0.609186
O O20 0.728818 0.750000 0.063396
#
# Coordination Sequence:
#
# PCOD9463216 Si02
#       8
#     8   8   8   8   8   8   8   8
#     4   9  18  34  56  82 109 137 172 215 261 310
#     4   9  19  35  56  82 111 142 178 221 265 314
#     4  10  19  34  58  84 109 140 178 219 266 320
#     4   8  16  31  52  79 110 141 174 215 262 313
#     4  10  20  36  58  83 110 140 176 218 264 317
#     4  12  25  39  54  75 106 142 181 224 270 319
#     4   9  16  29  52  82 111 137 171 217 266 312
#     4  11  23  38  54  75 106 143 182 221 264 315
#
# _framework density 19.575330000000001
#
# number of rings (size 3 to 8) (size 9 to 14) (size 15 to 20)
#    0.000    2.250    0.000    4.125    0.000    6.500 
#    0.000    1.250    0.000    0.000    0.000    0.000 
#    0.000    0.000    0.000    0.000    0.000    0.000 
#
# Total GULP energy -357211.229552 kJ/mol
# GULP energy per Si atom -5581.425462 kJ/mol
# Density = 1.953078 g / cm^3
# Si number density = 19.575330 Si / 1000 Ang^3
#
#
#
# Elastic Constant Matrix: (Units=GPa)
#
#
# Indices 1 2 3 4 5 6 
#
# 1 81.3488 27.8287 15.0446 0.0000 0.0000 0.0000
# 2 27.8287 51.8922 11.6768 0.0000 0.0000 0.0000
# 3 15.0446 11.6768 35.8721 0.0000 0.0000 0.0000
# 4 0.0000 0.0000 0.0000 20.8270 0.0000 0.0000
# 5 0.0000 0.0000 0.0000 0.0000 -17.9072 0.0000
# 6 0.0000 0.0000 0.0000 0.0000 0.0000 32.3944
#
#
#
# Elastic Compliance Matrix: (Units=1/GPa)
#
#
# Indices 1 2 3 4 5 6 
#
# 1 0.015600 -0.007438 -0.004121 0.000000 0.000000 0.000000
# 2 -0.007438 0.024341 -0.004804 0.000000 0.000000 0.000000
# 3 -0.004121 -0.004804 0.031169 0.000000 0.000000 0.000000
# 4 0.000000 0.000000 0.000000 0.048015 0.000000 0.000000
# 5 0.000000 0.000000 0.000000 0.000000 -0.055843 0.000000
# 6 0.000000 0.000000 0.000000 0.000000 0.000000 0.030870
#
#
# Mechanical properties :
#
#
# Convention : Reuss Voigt Hill
#
# Bulk Modulus (GPa) = 26.05324 30.91260 28.48292
# Shear Modulus (GPa) = 35.79865 14.70035 25.24950
#
# Velocity S-wave (km/s) = 4.28104 2.74334 3.59536
# Velocity P-wave (km/s) = 6.14610 5.08532 5.64070
#
# Compressibility (1/GPa) = 0.03838294
#
# Stress axis : x y z
#
# Youngs Moduli (GPa) = 64.10460 41.08355 32.08341
#
# Poissons Ratio (x) = 0.30559 0.13222
# Poissons Ratio (y) = 0.47683 0.15411
# Poissons Ratio (z) = 0.26418 0.19735
#
# Static dielectric constant tensor:
#      x y z
#    x 1.723470 0.000000 0.000000 
#    y 0.000000 1.653370 0.000000 
#    z 0.000000 0.000000 1.683540 
# 
# From -- ./inp_files/24815.got.cif
#   From: 2010.05.17/outbox.cif.g08.bks.cpg/sg62_13_cif.got.tgz:24815.got - 2010.06.03 15:25:27.
