data_PCOD9463264
_publ_section_title
;
Structure prediction by ZEFSAII (Michael W. Deem and Ramdas Pophale) SiO2 
 PCOD9463264
Probable space group: P N M A
;
_chemical_formula_sum "Si O2"
_cell_formula_units_Z 64
_cell_length_a 9.763976
_cell_length_b 17.293548
_cell_length_c 19.467823
_cell_angle_alpha 90.000000
_cell_angle_beta 90.000000
_cell_angle_gamma 90.000000
_cell_volume 3287.215650
_symmetry_space_group_name_H-M "P N M A"
_symmetry_group_IT_number 62
_symmetry_cell_setting 'orthorhombic'
loop_
_space_group_symop_operation_xyz
x,y,z
1/2-x,-y,1/2+z
1/2+x,1/2-y,1/2-z
-x,1/2+y,-z
-x,-y,-z
1/2+x,y,1/2-z
1/2-x,1/2+y,1/2+z
x,1/2-y,z
loop_
_atom_site_type_symbol
_atom_site_label
_atom_site_fract_x
_atom_site_fract_y
_atom_site_fract_z
Si Si1 0.252654 0.122585 0.775168
Si Si2 0.284417 0.447143 0.237552
Si Si3 0.567326 0.658208 0.523841
Si Si4 0.435924 0.997684 0.102131
Si Si5 0.020442 0.078183 0.161301
Si Si6 0.573052 0.422013 0.604911
Si Si7 0.964038 0.665532 0.336375
Si Si8 0.711289 0.035478 0.032185
O O1 0.151901 0.131090 0.840473
O O2 0.400547 0.157923 0.789058
O O3 0.171514 0.154682 0.709815
O O4 0.266022 0.029836 0.766979
O O5 0.380877 0.467860 0.172771
O O6 0.380499 0.409571 0.295439
O O7 0.152011 0.404069 0.207985
O O8 0.570877 0.750000 0.524809
O O9 0.486415 0.624736 0.590256
O O10 0.502314 0.625795 0.453571
O O11 0.715406 0.617682 0.527688
O O12 0.471025 0.907372 0.113542
O O13 0.571342 0.038695 0.074567
O O14 0.323222 0.998400 0.042580
O O15 0.022344 0.985566 0.143436
O O16 0.684657 0.476956 0.568534
O O17 0.963070 0.750000 0.369182
#
# Coordination Sequence:
#
# PCOD9463264 Si02
#       8
#     8   8   8   8   8   8   8   8
#     4  10  20  35  56  85 113 154 192 229 289 347
#     4  10  19  34  62  88 114 146 197 252 291 339
#     4  11  24  39  58  85 122 159 199 245 301 362
#     4  10  20  35  59  87 115 150 198 244 298 342
#     4  10  21  36  63  91 116 150 198 245 295 353
#     4  10  19  37  62  83 115 148 198 240 289 349
#     4  11  22  35  51  81 125 157 188 232 284 355
#     4  10  20  37  62  85 112 151 198 250 287 349
#
# _framework density 19.469365
#
# number of rings (size 3 to 8) (size 9 to 14) (size 15 to 20)
#    0.000    1.750    1.250    5.625    3.500    2.500 
#    0.000    0.625    0.000    0.750    0.000    0.000 
#    0.000    0.000    0.000    0.000    0.000    0.000 
#
# Total GULP energy -357563.703852 kJ/mol
# GULP energy per Si atom -5586.932873 kJ/mol
# Density = 1.942505 g / cm^3
# Si number density = 19.469365 Si / 1000 Ang^3
#
#
#
# Elastic Constant Matrix: (Units=GPa)
#
#
# Indices 1 2 3 4 5 6 
#
# 1 58.3343 12.2529 13.7685 0.0000 0.0000 0.0000
# 2 12.2529 37.1188 2.8089 0.0000 0.0000 0.0000
# 3 13.7685 2.8089 67.4939 0.0000 0.0000 0.0000
# 4 0.0000 0.0000 0.0000 7.3695 0.0000 0.0000
# 5 0.0000 0.0000 0.0000 0.0000 32.4005 0.0000
# 6 0.0000 0.0000 0.0000 0.0000 0.0000 4.4742
#
#
#
# Elastic Compliance Matrix: (Units=1/GPa)
#
#
# Indices 1 2 3 4 5 6 
#
# 1 0.019291 -0.006089 -0.003682 0.000000 0.000000 0.000000
# 2 -0.006089 0.028948 0.000037 0.000000 0.000000 0.000000
# 3 -0.003682 0.000037 0.015566 0.000000 0.000000 0.000000
# 4 0.000000 0.000000 0.000000 0.135695 0.000000 0.000000
# 5 0.000000 0.000000 0.000000 0.000000 0.030864 0.000000
# 6 0.000000 0.000000 0.000000 0.000000 0.000000 0.223505
#
#
# Mechanical properties :
#
#
# Convention : Reuss Voigt Hill
#
# Bulk Modulus (GPa) = 22.55456 24.51194 23.53325
# Shear Modulus (GPa) = 10.24352 17.78994 14.01673
#
# Velocity S-wave (km/s) = 2.29625 3.02609 2.68608
# Velocity P-wave (km/s) = 4.31742 4.98267 4.66193
#
# Compressibility (1/GPa) = 0.04433693
#
# Stress axis : x y z
#
# Youngs Moduli (GPa) = 51.83877 34.54501 64.24401
#
# Poissons Ratio (x) = 0.21035 0.23653
# Poissons Ratio (y) = 0.31566 -0.00240
# Poissons Ratio (z) = 0.19086 -0.00129
#
# Static dielectric constant tensor:
#      x y z
#    x 1.701650 0.000000 0.000000 
#    y 0.000000 1.661460 0.000000 
#    z 0.000000 0.000000 1.712240 
# 
# From -- ./inp_files/26167.got.cif
#   From: 2010.05.17/outbox.cif.g08.bks.cpg/sg62_14_cif.got.tgz:26167.got - 2010.06.03 15:25:27.
