data_PCOD9463589
_publ_section_title
;
Structure prediction by ZEFSAII (Michael W. Deem and Ramdas Pophale) SiO2 
 PCOD9463589
Probable space group: P N M A
;
_chemical_formula_sum "Si O2"
_cell_formula_units_Z 64
_cell_length_a 17.919262
_cell_length_b 12.098714
_cell_length_c 13.804272
_cell_angle_alpha 90.000000
_cell_angle_beta 90.000000
_cell_angle_gamma 90.000000
_cell_volume 2992.766529
_symmetry_space_group_name_H-M "P N M A"
_symmetry_group_IT_number 62
_symmetry_cell_setting 'orthorhombic'
loop_
_space_group_symop_operation_xyz
x,y,z
1/2-x,-y,1/2+z
1/2+x,1/2-y,1/2-z
-x,1/2+y,-z
-x,-y,-z
1/2+x,y,1/2-z
1/2-x,1/2+y,1/2+z
x,1/2-y,z
loop_
_atom_site_type_symbol
_atom_site_label
_atom_site_fract_x
_atom_site_fract_y
_atom_site_fract_z
Si Si1 0.801662 0.119709 0.423104
Si Si2 0.745691 0.128662 0.088452
Si Si3 0.121743 0.870203 0.186777
Si Si4 0.857538 0.520204 0.981405
Si Si5 0.902320 0.559395 0.507267
Si Si6 0.511981 0.551205 0.163899
Si Si7 0.582381 0.122331 0.663325
Si Si8 0.729861 0.461075 0.749434
O O1 0.811785 0.250000 0.412168
O O2 0.867320 0.063107 0.486366
O O3 0.804773 0.047329 0.325305
O O4 0.716779 0.094733 0.460779
O O5 0.756904 0.250000 0.129356
O O6 0.730059 0.038476 0.170670
O O7 0.819298 0.085127 0.034566
O O8 0.673310 0.127754 0.019855
O O9 0.104919 0.750000 0.144959
O O10 0.104705 0.971963 0.114912
O O11 0.080919 0.881481 0.290117
O O12 0.209804 0.884222 0.201038
O O13 0.914182 0.580582 0.053269
O O14 0.950949 0.550889 0.605489
O O15 0.955373 0.596313 0.418863
O O16 0.462688 0.545334 0.261658
O O17 0.558874 0.250000 0.672322
O O18 0.667421 0.110101 0.697967
#
# Coordination Sequence:
#
# PCOD9463589 Si02
#       8
#     8   8   8   8   8   8   8   8
#     4  10  19  36  62  88 121 162 200 249 310 360
#     4  10  19  36  62  88 121 162 200 249 310 360
#     4  11  22  39  64  90 121 163 204 250 306 361
#     4   9  22  38  58  94 123 152 204 264 299 356
#     4  10  22  41  60  89 129 159 200 255 301 363
#     4  11  23  41  61  87 127 162 202 246 306 360
#     4  11  22  39  64  90 121 163 204 250 306 361
#     4  10  20  38  58  92 124 156 204 258 290 360
#
# _framework density 21.384896000000001
#
# number of rings (size 3 to 8) (size 9 to 14) (size 15 to 20)
#    0.000    1.750    2.500    1.875    0.000    2.500 
#    0.000    1.875    0.000    0.000    0.000    0.000 
#    0.000    0.000    0.000    0.000    0.000    0.000 
#
# Total GULP energy -356671.523515 kJ/mol
# GULP energy per Si atom -5572.992555 kJ/mol
# Density = 2.133622 g / cm^3
# Si number density = 21.384896 Si / 1000 Ang^3
#
#
#
# Elastic Constant Matrix: (Units=GPa)
#
#
# Indices 1 2 3 4 5 6 
#
# 1 62.5960 27.5668 20.5796 0.0000 0.0000 0.0000
# 2 27.5668 93.8521 26.4490 0.0000 0.0000 0.0000
# 3 20.5796 26.4490 97.8164 0.0000 0.0000 0.0000
# 4 0.0000 0.0000 0.0000 13.1104 0.0000 0.0000
# 5 0.0000 0.0000 0.0000 0.0000 48.2829 0.0000
# 6 0.0000 0.0000 0.0000 0.0000 0.0000 -15.2627
#
#
#
# Elastic Compliance Matrix: (Units=1/GPa)
#
#
# Indices 1 2 3 4 5 6 
#
# 1 0.018982 -0.004817 -0.002691 0.000000 0.000000 0.000000
# 2 -0.004817 0.012756 -0.002436 0.000000 0.000000 0.000000
# 3 -0.002691 -0.002436 0.011448 0.000000 0.000000 0.000000
# 4 0.000000 0.000000 0.000000 0.076275 0.000000 0.000000
# 5 0.000000 0.000000 0.000000 0.000000 0.020711 0.000000
# 6 0.000000 0.000000 0.000000 0.000000 0.000000 -0.065519
#
#
# Mechanical properties :
#
#
# Convention : Reuss Voigt Hill
#
# Bulk Modulus (GPa) = 42.92161 44.82836 43.87498
# Shear Modulus (GPa) = 48.87246 21.20407 35.03826
#
# Velocity S-wave (km/s) = 4.78574 3.15230 4.05218
# Velocity P-wave (km/s) = 7.11705 5.85298 6.51574
#
# Compressibility (1/GPa) = 0.02329829
#
# Stress axis : x y z
#
# Youngs Moduli (GPa) = 52.68270 78.39215 87.35129
#
# Poissons Ratio (x) = 0.37761 0.23507
# Poissons Ratio (y) = 0.25377 0.21277
# Poissons Ratio (z) = 0.14177 0.19095
#
# Static dielectric constant tensor:
#      x y z
#    x 1.823210 0.000000 0.000000 
#    y 0.000000 1.737370 0.000000 
#    z 0.000000 0.000000 1.830740 
# 
# From -- ./inp_files/19917.got.cif
#   From: 2010.05.17/outbox.cif.g08.bks.cpg/sg62_10_cif.got.tgz:19917.got - 2010.06.03 15:25:27.
