data_PCOD9463563
_publ_section_title
;
Structure prediction by ZEFSAII (Michael W. Deem and Ramdas Pophale) SiO2 
 PCOD9463563
Probable space group: P N M A
;
_chemical_formula_sum "Si O2"
_cell_formula_units_Z 64
_cell_length_a 16.711283
_cell_length_b 11.885565
_cell_length_c 16.748215
_cell_angle_alpha 90.000000
_cell_angle_beta 90.000000
_cell_angle_gamma 90.000000
_cell_volume 3326.581383
_symmetry_space_group_name_H-M "P N M A"
_symmetry_group_IT_number 62
_symmetry_cell_setting 'orthorhombic'
loop_
_space_group_symop_operation_xyz
x,y,z
1/2-x,-y,1/2+z
1/2+x,1/2-y,1/2-z
-x,1/2+y,-z
-x,-y,-z
1/2+x,y,1/2-z
1/2-x,1/2+y,1/2+z
x,1/2-y,z
loop_
_atom_site_type_symbol
_atom_site_label
_atom_site_fract_x
_atom_site_fract_y
_atom_site_fract_z
Si Si1 0.191303 0.618245 0.522208
Si Si2 0.057388 0.880307 0.200526
Si Si3 0.418979 0.055112 0.303803
Si Si4 0.963076 0.122269 0.372187
Si Si5 0.164568 0.049892 0.111423
Si Si6 0.496866 0.874516 0.541823
Si Si7 0.613914 0.978840 0.132790
Si Si8 0.743260 0.118687 0.222047
O O1 0.213162 0.750000 0.529222
O O2 0.120830 0.595073 0.585870
O O3 0.268404 0.544201 0.543638
O O4 0.155756 0.592130 0.435832
O O5 0.049927 0.750000 0.188436
O O6 0.121156 0.936268 0.140278
O O7 0.089987 0.907499 0.289222
O O8 0.971763 0.941706 0.191298
O O9 0.452272 0.114298 0.223537
O O10 0.440275 0.118465 0.385377
O O11 0.324173 0.048150 0.292034
O O12 0.983914 0.250000 0.394122
O O13 0.032834 0.037876 0.396850
O O14 0.091220 0.124549 0.081032
O O15 0.208630 0.100466 0.189022
O O16 0.507081 0.750000 0.501427
O O17 0.500000 0.000000 0.500000
O O18 0.674499 0.074994 0.163258
O O19 0.762125 0.250000 0.211284
#
# Coordination Sequence:
#
# PCOD9463563 Si02
#       8
#     8   8   8   8   8   8   8   8
#     4  11  21  36  59  85 121 156 190 241 300 359
#     4   9  20  41  61  81 116 160 201 242 295 363
#     4  10  21  37  62  88 114 153 201 252 294 357
#     4  10  19  36  61  86 115 155 196 242 293 348
#     4  10  22  39  63  87 116 154 205 251 300 360
#     4  11  24  40  61  89 123 164 205 252 310 370
#     4  10  22  34  57  87 123 151 193 234 297 364
#     4  11  20  37  63  91 120 150 197 255 300 345
#
# _framework density 19.238969999999998
#
# number of rings (size 3 to 8) (size 9 to 14) (size 15 to 20)
#    0.000    1.750    1.250    4.125    1.750    2.000 
#    0.000    4.375    0.000    0.750    0.000    0.000 
#    0.000    0.000    0.000    0.000    0.000    0.000 
#
# Total GULP energy -357074.127516 kJ/mol
# GULP energy per Si atom -5579.283242 kJ/mol
# Density = 1.919518 g / cm^3
# Si number density = 19.238970 Si / 1000 Ang^3
#
#
#
# Elastic Constant Matrix: (Units=GPa)
#
#
# Indices 1 2 3 4 5 6 
#
# 1 102.5566 39.5764 16.9173 0.0000 0.0000 0.0000
# 2 39.5764 123.4303 18.6457 0.0000 0.0000 0.0000
# 3 16.9173 18.6457 54.2970 0.0000 0.0000 0.0000
# 4 0.0000 0.0000 0.0000 9.8292 0.0000 0.0000
# 5 0.0000 0.0000 0.0000 0.0000 26.5636 0.0000
# 6 0.0000 0.0000 0.0000 0.0000 0.0000 -5.8305
#
#
#
# Elastic Compliance Matrix: (Units=1/GPa)
#
#
# Indices 1 2 3 4 5 6 
#
# 1 0.011423 -0.003296 -0.002427 0.000000 0.000000 0.000000
# 2 -0.003296 0.009496 -0.002234 0.000000 0.000000 0.000000
# 3 -0.002427 -0.002234 0.019941 0.000000 0.000000 0.000000
# 4 0.000000 0.000000 0.000000 0.101738 0.000000 0.000000
# 5 0.000000 0.000000 0.000000 0.000000 0.037646 0.000000
# 6 0.000000 0.000000 0.000000 0.000000 0.000000 -0.171513
#
#
# Mechanical properties :
#
#
# Convention : Reuss Voigt Hill
#
# Bulk Modulus (GPa) = 40.08782 47.84029 43.96406
# Shear Modulus (GPa) = 151.70032 19.78875 85.74454
#
# Velocity S-wave (km/s) = 8.88942 3.21062 6.68318
# Velocity P-wave (km/s) = 11.23585 6.21808 9.08044
#
# Compressibility (1/GPa) = 0.02494523
#
# Stress axis : x y z
#
# Youngs Moduli (GPa) = 87.54256 105.30708 50.14885
#
# Poissons Ratio (x) = 0.34709 0.12172
# Poissons Ratio (y) = 0.28854 0.11203
# Poissons Ratio (z) = 0.21248 0.23526
#
# Static dielectric constant tensor:
#      x y z
#    x 1.672010 0.000000 0.000000 
#    y 0.000000 1.666390 0.000000 
#    z 0.000000 0.000000 1.698080 
# 
# From -- ./inp_files/24056.got.cif
#   From: 2010.05.17/outbox.cif.g08.bks.cpg/sg62_13_cif.got.tgz:24056.got - 2010.06.03 15:25:27.
