data_PCOD9463939
_publ_section_title
;
Structure prediction by ZEFSAII (Michael W. Deem and Ramdas Pophale) SiO2 
 PCOD9463939
Probable space group: P N M A
;
_chemical_formula_sum "Si O2"
_cell_formula_units_Z 64
_cell_length_a 19.480453
_cell_length_b 8.709970
_cell_length_c 23.643003
_cell_angle_alpha 90.000000
_cell_angle_beta 90.000000
_cell_angle_gamma 90.000000
_cell_volume 4011.606703
_symmetry_space_group_name_H-M "P N M A"
_symmetry_group_IT_number 62
_symmetry_cell_setting 'orthorhombic'
loop_
_space_group_symop_operation_xyz
x,y,z
1/2-x,-y,1/2+z
1/2+x,1/2-y,1/2-z
-x,1/2+y,-z
-x,-y,-z
1/2+x,y,1/2-z
1/2-x,1/2+y,1/2+z
x,1/2-y,z
loop_
_atom_site_type_symbol
_atom_site_label
_atom_site_fract_x
_atom_site_fract_y
_atom_site_fract_z
Si Si1 0.854855 0.066490 0.939171
Si Si2 0.733771 0.434593 0.342021
Si Si3 0.005831 0.568152 0.242048
Si Si4 0.993013 0.933256 0.883424
Si Si5 0.132143 0.066833 0.936419
Si Si6 0.159265 0.933590 0.268364
Si Si7 0.631923 0.932956 0.776939
Si Si8 0.280401 0.433217 0.336500
O O1 0.855359 0.250000 0.940472
O O2 0.793371 0.005861 0.899769
O O3 0.925108 0.006557 0.910480
O O4 0.851357 0.999095 0.001964
O O5 0.727140 0.250000 0.342981
O O6 0.686848 0.499257 0.291071
O O7 0.811927 0.472651 0.324540
O O8 0.004171 0.750000 0.230078
O O9 0.002755 0.480129 0.182299
O O10 0.078422 0.533042 0.271504
O O11 0.939685 0.520136 0.277912
O O12 0.990187 0.750000 0.888636
O O13 0.060147 0.996506 0.914993
O O14 0.126585 0.250000 0.938400
O O15 0.189161 0.015618 0.891072
O O16 0.168994 0.750000 0.268260
O O17 0.206137 0.007923 0.316760
O O18 0.619898 0.750000 0.778990
O O19 0.669240 0.966108 0.716855
O O20 0.279828 0.250000 0.344644
#
# Coordination Sequence:
#
# PCOD9463939 Si02
#       8
#     8   8   8   8   8   8   8   8
#     4  12  24  38  54  75 104 139 181 220 261 310
#     4  10  20  35  53  75 102 136 177 219 262 310
#     4  11  21  32  51  79 108 139 176 213 259 312
#     4  12  23  36  52  73 106 142 180 218 256 304
#     4  12  24  38  55  75 103 140 180 219 262 308
#     4  10  20  33  51  76 106 138 174 216 261 312
#     4   9  19  33  52  75 104 136 172 213 261 311
#     4  10  20  35  53  76 103 136 176 218 262 309
#
# _framework density 15.953708000000001
#
# number of rings (size 3 to 8) (size 9 to 14) (size 15 to 20)
#    0.000    1.250    2.500    6.000    0.000    4.000 
#    0.000    0.000    0.000    0.000    0.000    0.875 
#    0.000    0.000    0.000    0.000    0.000    0.000 
#
# Total GULP energy -357626.926392 kJ/mol
# GULP energy per Si atom -5587.920725 kJ/mol
# Density = 1.591740 g / cm^3
# Si number density = 15.953708 Si / 1000 Ang^3
#
#
#
# Elastic Constant Matrix: (Units=GPa)
#
#
# Indices 1 2 3 4 5 6 
#
# 1 87.7704 39.1504 26.4521 0.0000 0.0000 0.0000
# 2 39.1504 87.7476 20.8129 0.0000 0.0000 0.0000
# 3 26.4521 20.8129 57.7937 0.0000 0.0000 0.0000
# 4 0.0000 0.0000 0.0000 26.0607 0.0000 0.0000
# 5 0.0000 0.0000 0.0000 0.0000 15.5298 0.0000
# 6 0.0000 0.0000 0.0000 0.0000 0.0000 27.7131
#
#
#
# Elastic Compliance Matrix: (Units=1/GPa)
#
#
# Indices 1 2 3 4 5 6 
#
# 1 0.015449 -0.005703 -0.005017 0.000000 0.000000 0.000000
# 2 -0.005703 0.014566 -0.002635 0.000000 0.000000 0.000000
# 3 -0.005017 -0.002635 0.020548 0.000000 0.000000 0.000000
# 4 0.000000 0.000000 0.000000 0.038372 0.000000 0.000000
# 5 0.000000 0.000000 0.000000 0.000000 0.064392 0.000000
# 6 0.000000 0.000000 0.000000 0.000000 0.000000 0.036084
#
#
# Mechanical properties :
#
#
# Convention : Reuss Voigt Hill
#
# Bulk Modulus (GPa) = 41.92454 45.12694 43.52574
# Shear Modulus (GPa) = 22.31406 23.65380 22.98393
#
# Velocity S-wave (km/s) = 3.74394 3.85470 3.79973
# Velocity P-wave (km/s) = 6.71010 6.93968 6.82586
#
# Compressibility (1/GPa) = 0.02385238
#
# Stress axis : x y z
#
# Youngs Moduli (GPa) = 64.72774 68.65354 48.66564
#
# Poissons Ratio (x) = 0.39153 0.24417
# Poissons Ratio (y) = 0.36914 0.12825
# Poissons Ratio (z) = 0.32476 0.18092
#
# Static dielectric constant tensor:
#      x y z
#    x 1.535540 0.000000 0.000000 
#    y 0.000000 1.531970 0.000000 
#    z 0.000000 0.000000 1.508270 
# 
# From -- ./inp_files/30056.got.cif
#   From: 2010.05.17/outbox.cif.g08.bks.cpg/sg62_16_cif.got.tgz:30056.got - 2010.06.03 15:25:27.
