data_PCOD9463639
_publ_section_title
;
Structure prediction by ZEFSAII (Michael W. Deem and Ramdas Pophale) SiO2 
 PCOD9463639
Probable space group: P N M A
;
_chemical_formula_sum "Si O2"
_cell_formula_units_Z 48
_cell_length_a 8.954746
_cell_length_b 16.629244
_cell_length_c 13.918982
_cell_angle_alpha 90.000000
_cell_angle_beta 90.000000
_cell_angle_gamma 90.000000
_cell_volume 2072.684743
_symmetry_space_group_name_H-M "P N M A"
_symmetry_group_IT_number 62
_symmetry_cell_setting 'orthorhombic'
loop_
_space_group_symop_operation_xyz
x,y,z
1/2-x,-y,1/2+z
1/2+x,1/2-y,1/2-z
-x,1/2+y,-z
-x,-y,-z
1/2+x,y,1/2-z
1/2-x,1/2+y,1/2+z
x,1/2-y,z
loop_
_atom_site_type_symbol
_atom_site_label
_atom_site_fract_x
_atom_site_fract_y
_atom_site_fract_z
Si Si1 0.935363 0.121949 0.432072
Si Si2 0.353794 0.481120 0.727751
Si Si3 0.600128 0.335202 0.473756
Si Si4 0.847787 0.975536 0.114651
Si Si5 0.392090 0.839651 0.739317
Si Si6 0.320702 0.560082 0.048288
O O1 0.197232 0.075538 0.236286
O O2 0.899373 0.026346 0.430649
O O3 0.061315 0.126337 0.514751
O O4 0.778967 0.163296 0.454060
O O5 0.300795 0.446208 0.829120
O O6 0.525639 0.487850 0.695432
O O7 0.273617 0.430501 0.644556
O O8 0.554274 0.250000 0.516660
O O9 0.532800 0.341269 0.366685
O O10 0.003530 0.348716 0.331942
O O11 0.917084 0.910025 0.042854
O O12 0.786830 0.044329 0.043568
O O13 0.320614 0.750000 0.745755
#
# Coordination Sequence:
#
# PCOD9463639 Si02
#       6
#     8   8   8   8   8   8
#     4  10  19  37  60  92 121 166 206 255 316 376
#     4  12  23  40  64  96 125 166 223 262 310 381
#     4  10  23  43  63  90 129 169 208 259 327 381
#     4  11  24  40  66  93 123 172 210 269 316 370
#     4  11  22  35  58  93 129 164 202 255 320 382
#     4  10  21  37  62  90 127 159 213 264 313 372
#
# _framework density 23.158370000000001
#
# number of rings (size 3 to 8) (size 9 to 14) (size 15 to 20)
#    0.000    1.333    5.000    2.000    4.667    0.000 
#    0.000    0.833    0.000    1.000    0.000    0.000 
#    0.000    0.000    0.000    0.000    0.000    0.000 
#
# Total GULP energy -267729.960166 kJ/mol
# GULP energy per Si atom -5577.707503 kJ/mol
# Density = 2.310566 g / cm^3
# Si number density = 23.158370 Si / 1000 Ang^3
#
#
#
# Elastic Constant Matrix: (Units=GPa)
#
#
# Indices 1 2 3 4 5 6 
#
# 1 82.4601 12.9778 48.7941 0.0000 0.0000 0.0000
# 2 12.9778 46.5979 7.3308 0.0000 0.0000 0.0000
# 3 48.7941 7.3308 118.4806 0.0000 0.0000 0.0000
# 4 0.0000 0.0000 0.0000 7.5865 0.0000 0.0000
# 5 0.0000 0.0000 0.0000 0.0000 48.3352 0.0000
# 6 0.0000 0.0000 0.0000 0.0000 0.0000 7.6987
#
#
#
# Elastic Compliance Matrix: (Units=1/GPa)
#
#
# Indices 1 2 3 4 5 6 
#
# 1 0.016607 -0.003584 -0.006617 0.000000 0.000000 0.000000
# 2 -0.003584 0.022445 0.000087 0.000000 0.000000 0.000000
# 3 -0.006617 0.000087 0.011160 0.000000 0.000000 0.000000
# 4 0.000000 0.000000 0.000000 0.131813 0.000000 0.000000
# 5 0.000000 0.000000 0.000000 0.000000 0.020689 0.000000
# 6 0.000000 0.000000 0.000000 0.000000 0.000000 0.129892
#
#
# Mechanical properties :
#
#
# Convention : Reuss Voigt Hill
#
# Bulk Modulus (GPa) = 33.35206 42.86043 38.10625
# Shear Modulus (GPa) = 13.78063 24.61981 19.20022
#
# Velocity S-wave (km/s) = 2.44203 3.26407 2.88250
# Velocity P-wave (km/s) = 4.73121 5.72304 5.25060
#
# Compressibility (1/GPa) = 0.02998315
#
# Stress axis : x y z
#
# Youngs Moduli (GPa) = 60.21591 44.55406 89.60496
#
# Poissons Ratio (x) = 0.15968 0.59296
# Poissons Ratio (y) = 0.21582 -0.00782
# Poissons Ratio (z) = 0.39848 -0.00389
#
# Static dielectric constant tensor:
#      x y z
#    x 1.969770 0.000000 0.000000 
#    y 0.000000 1.862690 0.000000 
#    z 0.000000 0.000000 1.884270 
# 
# From -- ./inp_files/11292.got.cif
#   From: 2010.05.17/outbox.cif.g08.bks.cpg/sg62_6_cif.got.tgz:11292.got - 2010.06.03 15:25:27.
