data_PCOD9463858
_publ_section_title
;
Structure prediction by ZEFSAII (Michael W. Deem and Ramdas Pophale) SiO2 
 PCOD9463858
Probable space group: P N M A
;
_chemical_formula_sum "Si O2"
_cell_formula_units_Z 48
_cell_length_a 19.026739
_cell_length_b 19.544829
_cell_length_c 5.421729
_cell_angle_alpha 90.000000
_cell_angle_beta 90.000000
_cell_angle_gamma 90.000000
_cell_volume 2016.202003
_symmetry_space_group_name_H-M "P N M A"
_symmetry_group_IT_number 62
_symmetry_cell_setting 'orthorhombic'
loop_
_space_group_symop_operation_xyz
x,y,z
1/2-x,-y,1/2+z
1/2+x,1/2-y,1/2-z
-x,1/2+y,-z
-x,-y,-z
1/2+x,y,1/2-z
1/2-x,1/2+y,1/2+z
x,1/2-y,z
loop_
_atom_site_type_symbol
_atom_site_label
_atom_site_fract_x
_atom_site_fract_y
_atom_site_fract_z
Si Si1 0.399291 0.550755 0.941925
Si Si2 0.548754 0.911232 0.822058
Si Si3 0.233428 0.938921 0.907786
Si Si4 0.765232 0.904348 0.073417
Si Si5 0.553293 0.671468 0.345158
Si Si6 0.893375 0.824621 0.189246
O O1 0.417222 0.482289 0.090587
O O2 0.398982 0.617767 0.107958
O O3 0.466924 0.564842 0.769898
O O4 0.317927 0.548335 0.867357
O O5 0.578620 0.877739 0.569467
O O6 0.554325 0.862294 0.068791
O O7 0.213628 0.900951 0.657526
O O8 0.206669 0.016827 0.906577
O O9 0.227602 0.897832 0.161481
O O10 0.827472 0.850672 0.032715
O O11 0.581601 0.750000 0.340875
O O12 0.470765 0.678870 0.420865
O O13 0.876955 0.750000 0.292650
#
# Coordination Sequence:
#
# PCOD9463858 Si02
#       6
#     8   8   8   8   8   8
#     4   9  19  32  50  76 104 134 174 209 253 300
#     4  10  20  32  51  74 103 135 169 216 250 295
#     4   9  17  30  49  70  95 124 160 204 242 293
#     4   9  17  30  48  71  95 123 158 198 247 296
#     4  10  20  34  51  73 100 133 169 207 258 307
#     4   9  18  32  51  75 104 133 164 209 259 305
#
# _framework density 23.807137000000001
#
# number of rings (size 3 to 8) (size 9 to 14) (size 15 to 20)
#    0.000    2.667    0.000    1.500    0.000    9.333 
#    0.000    6.667    0.000    2.000    0.000    0.000 
#    0.000    0.000    0.000    0.000    0.000    0.000 
#
# Total GULP energy -267382.913166 kJ/mol
# GULP energy per Si atom -5570.477358 kJ/mol
# Density = 2.375295 g / cm^3
# Si number density = 23.807137 Si / 1000 Ang^3
#
#
#
# Elastic Constant Matrix: (Units=GPa)
#
#
# Indices 1 2 3 4 5 6 
#
# 1 56.1558 8.0583 6.0225 0.0000 0.0000 0.0000
# 2 8.0583 125.4429 9.8871 0.0000 0.0000 0.0000
# 3 6.0225 9.8871 128.7582 0.0000 0.0000 0.0000
# 4 0.0000 0.0000 0.0000 34.3096 0.0000 0.0000
# 5 0.0000 0.0000 0.0000 0.0000 27.5547 0.0000
# 6 0.0000 0.0000 0.0000 0.0000 0.0000 29.6811
#
#
#
# Elastic Compliance Matrix: (Units=1/GPa)
#
#
# Indices 1 2 3 4 5 6 
#
# 1 0.018047 -0.001099 -0.000760 0.000000 0.000000 0.000000
# 2 -0.001099 0.008087 -0.000570 0.000000 0.000000 0.000000
# 3 -0.000760 -0.000570 0.007846 0.000000 0.000000 0.000000
# 4 0.000000 0.000000 0.000000 0.029146 0.000000 0.000000
# 5 0.000000 0.000000 0.000000 0.000000 0.036291 0.000000
# 6 0.000000 0.000000 0.000000 0.000000 0.000000 0.033691
#
#
# Mechanical properties :
#
#
# Convention : Reuss Voigt Hill
#
# Bulk Modulus (GPa) = 34.33776 39.81031 37.07404
# Shear Modulus (GPa) = 33.85835 37.40168 35.63002
#
# Velocity S-wave (km/s) = 3.77529 3.96792 3.87280
# Velocity P-wave (km/s) = 5.78432 6.14417 5.96696
#
# Compressibility (1/GPa) = 0.02912246
#
# Stress axis : x y z
#
# Youngs Moduli (GPa) = 55.41138 123.65108 127.45728
#
# Poissons Ratio (x) = 0.13595 0.09683
# Poissons Ratio (y) = 0.06092 0.07260
# Poissons Ratio (z) = 0.04210 0.07043
#
# Static dielectric constant tensor:
#      x y z
#    x 2.104930 0.000000 0.000000 
#    y 0.000000 1.867020 0.000000 
#    z 0.000000 0.000000 2.025020 
# 
# From -- ./inp_files/2735.got.cif
#   From: 2010.05.17/outbox.cif.g08.bks.cpg/sg62_2_cif.got.tgz:2735.got - 2010.06.03 15:25:27.
