data_PCOD9463916
_publ_section_title
;
Structure prediction by ZEFSAII (Michael W. Deem and Ramdas Pophale) SiO2 
 PCOD9463916
Probable space group: P N M A
;
_chemical_formula_sum "Si O2"
_cell_formula_units_Z 48
_cell_length_a 17.911672
_cell_length_b 8.830219
_cell_length_c 13.269626
_cell_angle_alpha 90.000000
_cell_angle_beta 90.000000
_cell_angle_gamma 90.000000
_cell_volume 2098.776946
_symmetry_space_group_name_H-M "P N M A"
_symmetry_group_IT_number 62
_symmetry_cell_setting 'orthorhombic'
loop_
_space_group_symop_operation_xyz
x,y,z
1/2-x,-y,1/2+z
1/2+x,1/2-y,1/2-z
-x,1/2+y,-z
-x,-y,-z
1/2+x,y,1/2-z
1/2-x,1/2+y,1/2+z
x,1/2-y,z
loop_
_atom_site_type_symbol
_atom_site_label
_atom_site_fract_x
_atom_site_fract_y
_atom_site_fract_z
Si Si1 0.387375 0.425496 0.591214
Si Si2 0.884860 0.925514 0.110401
Si Si3 0.926172 0.069415 0.322680
Si Si4 0.732470 0.079870 0.135635
Si Si5 0.419943 0.070028 0.824899
Si Si6 0.262940 0.079217 0.125974
O O1 0.402759 0.250000 0.571852
O O2 0.416099 0.524090 0.497835
O O3 0.415828 0.463144 0.703612
O O4 0.298437 0.458148 0.594206
O O5 0.898999 0.750000 0.129359
O O6 0.914040 0.019427 0.206139
O O7 0.796534 0.962812 0.104472
O O8 0.935255 0.250000 0.326610
O O9 0.849293 0.032676 0.381253
O O10 0.999975 0.987210 0.361302
O O11 0.741388 0.250000 0.093648
O O12 0.747139 0.093570 0.255011
O O13 0.649664 0.014732 0.124543
O O14 0.411759 0.250000 0.837091
O O15 0.251704 0.250000 0.083580
#
# Coordination Sequence:
#
# PCOD9463916 Si02
#       6
#     8   8   8   8   8   8
#     4  10  20  33  50  73 101 132 165 203 247 295
#     4  11  21  33  51  74 101 132 167 207 248 294
#     4  10  20  34  52  74 102 134 167 204 249 298
#     4   9  17  32  52  72  97 129 166 205 245 292
#     4  10  20  33  51  76 103 132 168 206 246 294
#     4   8  16  31  50  71  94 125 165 204 241 287
#
# _framework density 22.870463000000001
#
# number of rings (size 3 to 8) (size 9 to 14) (size 15 to 20)
#    0.000    2.333    0.000    4.500    0.000    7.333 
#    0.000    0.000    0.000    1.000    0.000    0.000 
#    0.000    0.000    0.000    0.000    0.000    0.000 
#
# Total GULP energy -268179.090952 kJ/mol
# GULP energy per Si atom -5587.064395 kJ/mol
# Density = 2.281841 g / cm^3
# Si number density = 22.870463 Si / 1000 Ang^3
#
#
#
# Elastic Constant Matrix: (Units=GPa)
#
#
# Indices 1 2 3 4 5 6 
#
# 1 150.5554 15.7925 -15.4198 0.0000 0.0000 0.0000
# 2 15.7925 43.6683 9.9502 0.0000 0.0000 0.0000
# 3 -15.4198 9.9502 48.3338 0.0000 0.0000 0.0000
# 4 0.0000 0.0000 0.0000 24.1198 0.0000 0.0000
# 5 0.0000 0.0000 0.0000 0.0000 -3.7470 0.0000
# 6 0.0000 0.0000 0.0000 0.0000 0.0000 28.0925
#
#
#
# Elastic Compliance Matrix: (Units=1/GPa)
#
#
# Indices 1 2 3 4 5 6 
#
# 1 0.007300 -0.003327 0.003014 0.000000 0.000000 0.000000
# 2 -0.003327 0.025543 -0.006320 0.000000 0.000000 0.000000
# 3 0.003014 -0.006320 0.022952 0.000000 0.000000 0.000000
# 4 0.000000 0.000000 0.000000 0.041460 0.000000 0.000000
# 5 0.000000 0.000000 0.000000 0.000000 -0.266882 0.000000
# 6 0.000000 0.000000 0.000000 0.000000 0.000000 0.035597
#
#
# Mechanical properties :
#
#
# Convention : Reuss Voigt Hill
#
# Bulk Modulus (GPa) = 23.51323 29.24482 26.37902
# Shear Modulus (GPa) = -46.90915 25.17537 -10.86689
#
# Velocity S-wave (km/s) = -4.53380 3.32140 -2.18216
# Velocity P-wave (km/s) = 4.13567 5.24632 2.28256
#
# Compressibility (1/GPa) = 0.04252926
#
# Stress axis : x y z
#
# Youngs Moduli (GPa) = 136.99259 39.14979 43.56949
#
# Poissons Ratio (x) = 0.13023 -0.13130
# Poissons Ratio (y) = 0.45572 0.27534
# Poissons Ratio (z) = -0.41284 0.24741
#
# Static dielectric constant tensor:
#      x y z
#    x 1.873120 0.000000 0.000000 
#    y 0.000000 1.784270 0.000000 
#    z 0.000000 0.000000 1.926730 
# 
# From -- ./inp_files/19524.got.cif
#   From: 2010.05.17/outbox.cif.g08.bks.cpg/sg62_10_cif.got.tgz:19524.got - 2010.06.03 15:25:27.
