data_PCOD9463016
_publ_section_title
;
Structure prediction by ZEFSAII (Michael W. Deem and Ramdas Pophale) SiO2 
 PCOD9463016
Probable space group: P N M A
;
_chemical_formula_sum "Si O2"
_cell_formula_units_Z 48
_cell_length_a 28.987510
_cell_length_b 8.806762
_cell_length_c 10.560253
_cell_angle_alpha 90.000000
_cell_angle_beta 90.000000
_cell_angle_gamma 90.000000
_cell_volume 2695.885820
_symmetry_space_group_name_H-M "P N M A"
_symmetry_group_IT_number 62
_symmetry_cell_setting 'orthorhombic'
loop_
_space_group_symop_operation_xyz
x,y,z
1/2-x,-y,1/2+z
1/2+x,1/2-y,1/2-z
-x,1/2+y,-z
-x,-y,-z
1/2+x,y,1/2-z
1/2-x,1/2+y,1/2+z
x,1/2-y,z
loop_
_atom_site_type_symbol
_atom_site_label
_atom_site_fract_x
_atom_site_fract_y
_atom_site_fract_z
Si Si1 0.453185 0.567805 0.850737
Si Si2 0.051052 0.069133 0.649232
Si Si3 0.145589 0.433378 0.254216
Si Si4 0.855534 0.431949 0.256887
Si Si5 0.192219 0.433495 0.990638
Si Si6 0.799583 0.433154 0.508513
O O1 0.458989 0.750000 0.842282
O O2 0.500561 0.488525 0.811089
O O3 0.407804 0.522123 0.773429
O O4 0.444459 0.530921 0.999198
O O5 0.054139 0.250000 0.662021
O O6 0.092702 0.991448 0.723094
O O7 0.147494 0.250000 0.261660
O O8 0.175126 0.498909 0.369800
O O9 0.166813 0.480332 0.120085
O O10 0.855366 0.250000 0.251740
O O11 0.832445 0.497918 0.131379
O O12 0.825923 0.480150 0.380383
O O13 0.190320 0.250000 0.983253
O O14 0.245979 0.478526 0.995101
O O15 0.801579 0.250000 0.515450
#
# Coordination Sequence:
#
# PCOD9463016 Si02
#       6
#     8   8   8   8   8   8
#     4   9  18  33  55  83 110 141 180 228 279 327
#     4  10  19  33  56  84 111 142 181 228 278 328
#     4  10  20  37  59  82 111 146 185 228 276 328
#     4  11  22  37  57  83 114 147 185 228 274 328
#     4  10  22  38  55  79 113 148 183 225 274 327
#     4  10  21  36  56  82 110 144 186 229 271 320
#
# _framework density 17.804907
#
# number of rings (size 3 to 8) (size 9 to 14) (size 15 to 20)
#    0.000    2.000    1.667    2.000    0.000    4.667 
#    0.000    0.833    0.000    0.000    0.000    0.000 
#    0.000    0.000    0.000    0.000    0.000    0.000 
#
# Total GULP energy -268049.266240 kJ/mol
# GULP energy per Si atom -5584.359713 kJ/mol
# Density = 1.776438 g / cm^3
# Si number density = 17.804907 Si / 1000 Ang^3
#
#
#
# Elastic Constant Matrix: (Units=GPa)
#
#
# Indices 1 2 3 4 5 6 
#
# 1 190.7055 43.6074 100.4185 0.0000 0.0000 0.0000
# 2 43.6074 19.0726 37.5488 0.0000 0.0000 0.0000
# 3 100.4185 37.5488 148.5076 0.0000 0.0000 0.0000
# 4 0.0000 0.0000 0.0000 23.3200 0.0000 0.0000
# 5 0.0000 0.0000 0.0000 0.0000 -0.5042 0.0000
# 6 0.0000 0.0000 0.0000 0.0000 0.0000 28.3596
#
#
#
# Elastic Compliance Matrix: (Units=1/GPa)
#
#
# Indices 1 2 3 4 5 6 
#
# 1 0.011343 -0.021574 -0.002216 0.000000 0.000000 0.000000
# 2 -0.021574 0.145428 -0.022182 0.000000 0.000000 0.000000
# 3 -0.002216 -0.022182 0.013840 0.000000 0.000000 0.000000
# 4 0.000000 0.000000 0.000000 0.042882 0.000000 0.000000
# 5 0.000000 0.000000 0.000000 0.000000 -1.983280 0.000000
# 6 0.000000 0.000000 0.000000 0.000000 0.000000 0.035261
#
#
# Mechanical properties :
#
#
# Convention : Reuss Voigt Hill
#
# Bulk Modulus (GPa) = 12.71153 80.15945 46.43549
# Shear Modulus (GPa) = -3.09337 22.01581 9.46122
#
# Velocity S-wave (km/s) = -1.31952 3.52021 2.30767
# Velocity P-wave (km/s) = 2.19848 7.85119 5.76518
#
# Compressibility (1/GPa) = 0.07866874
#
# Stress axis : x y z
#
# Youngs Moduli (GPa) = 88.15703 6.87625 72.25214
#
# Poissons Ratio (x) = 0.14835 0.16008
# Poissons Ratio (y) = 1.90186 1.60273
# Poissons Ratio (z) = 0.19531 0.15253
#
# Static dielectric constant tensor:
#      x y z
#    x 1.596510 0.000000 0.000000 
#    y 0.000000 1.595380 0.000000 
#    z 0.000000 0.000000 1.575720 
# 
# From -- ./inp_files/10204.got.cif
#   From: 2010.05.17/outbox.cif.g08.bks.cpg/sg62_6_cif.got.tgz:10204.got - 2010.06.03 15:25:27.
