data_PCOD9463354
_publ_section_title
;
Structure prediction by ZEFSAII (Michael W. Deem and Ramdas Pophale) SiO2 
 PCOD9463354
Probable space group: P N M A
;
_chemical_formula_sum "Si O2"
_cell_formula_units_Z 64
_cell_length_a 18.178220
_cell_length_b 14.370112
_cell_length_c 10.362430
_cell_angle_alpha 90.000000
_cell_angle_beta 90.000000
_cell_angle_gamma 90.000000
_cell_volume 2706.905646
_symmetry_space_group_name_H-M "P N M A"
_symmetry_group_IT_number 62
_symmetry_cell_setting 'orthorhombic'
loop_
_space_group_symop_operation_xyz
x,y,z
1/2-x,-y,1/2+z
1/2+x,1/2-y,1/2-z
-x,1/2+y,-z
-x,-y,-z
1/2+x,y,1/2-z
1/2-x,1/2+y,1/2+z
x,1/2-y,z
loop_
_atom_site_type_symbol
_atom_site_label
_atom_site_fract_x
_atom_site_fract_y
_atom_site_fract_z
Si Si1 0.319734 0.636095 0.725377
Si Si2 0.907619 0.135726 0.999995
Si Si3 0.963187 0.400165 0.500017
Si Si4 0.016717 0.142888 0.783168
Si Si5 0.259846 0.636411 0.999908
Si Si6 0.016695 0.357115 0.216850
Si Si7 0.319731 0.636097 0.274401
Si Si8 0.791790 0.136809 0.500125
O O1 0.321174 0.750000 0.723966
O O2 0.299507 0.606778 0.869629
O O3 0.402105 0.602123 0.696508
O O4 0.256879 0.609851 0.624005
O O5 0.902368 0.250000 0.999984
O O6 0.824040 0.103546 0.999994
O O7 0.953084 0.104746 0.125311
O O8 0.953109 0.104744 0.874708
O O9 0.874817 0.399683 0.500053
O O10 0.000000 0.500000 0.500000
O O11 0.992281 0.357473 0.634146
O O12 0.992266 0.357478 0.365875
O O13 0.023988 0.250000 0.823976
O O14 0.097921 0.102121 0.803450
O O15 0.260179 0.750000 0.999905
O O16 0.299590 0.606777 0.130113
O O17 0.023960 0.250000 0.176057
O O18 0.321174 0.750000 0.275808
O O19 0.256819 0.609859 0.375669
O O20 0.798501 0.250000 0.500116
#
# Coordination Sequence:
#
# PCOD9463354 Si02
#       8
#     8   8   8   8   8   8   8   8
#     4   9  17  29  52  82 106 129 168 220 278 333
#     4   9  17  29  52  82 106 129 168 220 278 333
#     4  12  25  38  52  78 115 158 199 228 262 326
#     4  10  19  35  58  83 108 138 178 232 288 334
#     4   9  15  24  39  69 105 129 153 198 256 317
#     4  10  19  35  58  83 108 138 178 232 288 334
#     4   9  17  29  52  82 106 129 168 220 278 333
#     4  10  19  35  58  83 108 138 178 232 288 334
#
# _framework density 23.643234
#
# number of rings (size 3 to 8) (size 9 to 14) (size 15 to 20)
#    0.000    2.250    0.000    4.125    0.000    9.000 
#    0.000    1.875    0.000    0.000    0.000    0.000 
#    0.000    0.000    0.000    0.000    0.000    0.000 
#
# Total GULP energy -358035.416205 kJ/mol
# GULP energy per Si atom -5594.303378 kJ/mol
# Density = 2.358942 g / cm^3
# Si number density = 23.643234 Si / 1000 Ang^3
#
#
#
# Elastic Constant Matrix: (Units=GPa)
#
#
# Indices 1 2 3 4 5 6 
#
# 1 111.5052 28.6002 -5.7949 0.0000 0.0000 0.0000
# 2 28.6002 71.8708 16.8407 0.0000 0.0000 0.0000
# 3 -5.7949 16.8407 58.5563 0.0000 0.0000 0.0000
# 4 0.0000 0.0000 0.0000 18.7492 0.0000 0.0000
# 5 0.0000 0.0000 0.0000 0.0000 31.8649 0.0000
# 6 0.0000 0.0000 0.0000 0.0000 0.0000 10.4859
#
#
#
# Elastic Compliance Matrix: (Units=1/GPa)
#
#
# Indices 1 2 3 4 5 6 
#
# 1 0.010281 -0.004643 0.002353 0.000000 0.000000 0.000000
# 2 -0.004643 0.017016 -0.005353 0.000000 0.000000 0.000000
# 3 0.002353 -0.005353 0.018850 0.000000 0.000000 0.000000
# 4 0.000000 0.000000 0.000000 0.053336 0.000000 0.000000
# 5 0.000000 0.000000 0.000000 0.000000 0.031383 0.000000
# 6 0.000000 0.000000 0.000000 0.000000 0.000000 0.095366
#
#
# Mechanical properties :
#
#
# Convention : Reuss Voigt Hill
#
# Bulk Modulus (GPa) = 32.40359 35.69158 34.04759
# Shear Modulus (GPa) = 19.85667 25.70573 22.78120
#
# Velocity S-wave (km/s) = 2.90115 3.30090 3.10746
# Velocity P-wave (km/s) = 4.99572 5.44579 5.22560
#
# Compressibility (1/GPa) = 0.03086078
#
# Stress axis : x y z
#
# Youngs Moduli (GPa) = 97.26451 58.76941 53.05053
#
# Poissons Ratio (x) = 0.27284 -0.12481
# Poissons Ratio (y) = 0.45156 0.28399
# Poissons Ratio (z) = -0.22883 0.31460
#
# Static dielectric constant tensor:
#      x y z
#    x 1.832740 0.000000 0.000000 
#    y 0.000000 1.944030 0.000000 
#    z 0.000000 0.000000 1.858170 
# 
# From -- ./inp_files/8133.got.cif
#   From: 2010.05.17/outbox.cif.g08.bks.cpg/sg62_5_cif.got.tgz:8133.got - 2010.06.03 15:25:27.
