data_PCOD9463225
_publ_section_title
;
Structure prediction by ZEFSAII (Michael W. Deem and Ramdas Pophale) SiO2 
 PCOD9463225
Probable space group: P N M A
;
_chemical_formula_sum "Si O2"
_cell_formula_units_Z 56
_cell_length_a 14.815983
_cell_length_b 8.854768
_cell_length_c 21.342410
_cell_angle_alpha 90.000000
_cell_angle_beta 90.000000
_cell_angle_gamma 90.000000
_cell_volume 2799.955420
_symmetry_space_group_name_H-M "P N M A"
_symmetry_group_IT_number 62
_symmetry_cell_setting 'orthorhombic'
loop_
_space_group_symop_operation_xyz
x,y,z
1/2-x,-y,1/2+z
1/2+x,1/2-y,1/2-z
-x,1/2+y,-z
-x,-y,-z
1/2+x,y,1/2-z
1/2-x,1/2+y,1/2+z
x,1/2-y,z
loop_
_atom_site_type_symbol
_atom_site_label
_atom_site_fract_x
_atom_site_fract_y
_atom_site_fract_z
Si Si1 0.230129 0.070544 0.971275
Si Si2 0.511029 0.076330 0.728486
Si Si3 0.199208 0.568016 0.241605
Si Si4 0.664811 0.928594 0.655287
Si Si5 0.925586 0.573013 0.545611
Si Si6 0.952936 0.921491 0.368085
Si Si7 0.749660 0.571155 0.399507
O O1 0.225528 0.250000 0.969694
O O2 0.175853 0.000880 0.913274
O O3 0.332183 0.013707 0.959280
O O4 0.206561 0.011313 0.041009
O O5 0.511299 0.250000 0.705043
O O6 0.407967 0.037705 0.745345
O O7 0.563878 0.073624 0.794314
O O8 0.566435 0.971706 0.682058
O O9 0.212405 0.750000 0.246284
O O10 0.260228 0.494173 0.295814
O O11 0.223765 0.520195 0.170433
O O12 0.677073 0.750000 0.651317
O O13 0.912974 0.750000 0.534106
O O14 0.000000 0.500000 0.500000
O O15 0.972064 0.540535 0.612278
O O16 0.984745 0.750000 0.382565
O O17 0.858197 0.947314 0.402345
O O18 0.730326 0.750000 0.403814
#
# Coordination Sequence:
#
# PCOD9463225 Si02
#       7
#     8   8   8   8   8   8   8
#     4  12  25  41  61  85 120 166 212 259 315 376
#     4  10  21  40  66  93 122 161 208 253 307 371
#     4  10  21  41  69  96 126 167 212 257 308 374
#     4  12  25  41  64  94 130 165 205 262 317 373
#     4  12  23  35  54  84 121 157 199 248 307 374
#     4  10  19  34  58  86 122 162 200 250 303 366
#     4  10  20  37  61  90 124 160 204 255 308 364
#
# _framework density 20.000318
#
# number of rings (size 3 to 8) (size 9 to 14) (size 15 to 20)
#    0.000    1.143    2.857    4.714    0.000    2.857 
#    0.000    0.714    0.000    0.000    0.000    0.000 
#    0.000    0.000    0.000    0.000    0.000    0.000 
#
# Total GULP energy -312840.434361 kJ/mol
# GULP energy per Si atom -5586.436328 kJ/mol
# Density = 1.995480 g / cm^3
# Si number density = 20.000318 Si / 1000 Ang^3
#
#
#
# Elastic Constant Matrix: (Units=GPa)
#
#
# Indices 1 2 3 4 5 6 
#
# 1 30.5585 16.3333 4.9080 0.0000 0.0000 0.0000
# 2 16.3333 95.0530 43.4777 0.0000 0.0000 0.0000
# 3 4.9080 43.4777 105.0629 0.0000 0.0000 0.0000
# 4 0.0000 0.0000 0.0000 31.7827 0.0000 0.0000
# 5 0.0000 0.0000 0.0000 0.0000 31.0991 0.0000
# 6 0.0000 0.0000 0.0000 0.0000 0.0000 23.8765
#
#
#
# Elastic Compliance Matrix: (Units=1/GPa)
#
#
# Indices 1 2 3 4 5 6 
#
# 1 0.036134 -0.006706 0.001087 0.000000 0.000000 0.000000
# 2 -0.006706 0.014221 -0.005572 0.000000 0.000000 0.000000
# 3 0.001087 -0.005572 0.011773 0.000000 0.000000 0.000000
# 4 0.000000 0.000000 0.000000 0.031464 0.000000 0.000000
# 5 0.000000 0.000000 0.000000 0.000000 0.032155 0.000000
# 6 0.000000 0.000000 0.000000 0.000000 0.000000 0.041882
#
#
# Mechanical properties :
#
#
# Convention : Reuss Voigt Hill
#
# Bulk Modulus (GPa) = 25.15941 40.01248 32.58595
# Shear Modulus (GPa) = 24.59897 28.41535 26.50716
#
# Velocity S-wave (km/s) = 3.51084 3.77337 3.64447
# Velocity P-wave (km/s) = 5.38901 6.24770 5.83418
#
# Compressibility (1/GPa) = 0.03974655
#
# Stress axis : x y z
#
# Youngs Moduli (GPa) = 27.67477 70.31636 84.93930
#
# Poissons Ratio (x) = 0.47157 -0.09235
# Poissons Ratio (y) = 0.18560 0.47327
# Poissons Ratio (z) = -0.03009 0.39180
#
# Static dielectric constant tensor:
#      x y z
#    x 1.710870 0.000000 0.000000 
#    y 0.000000 1.682460 0.000000 
#    z 0.000000 0.000000 1.791960 
# 
# From -- ./inp_files/27137.got.cif
#   From: 2010.05.17/outbox.cif.g08.bks.cpg/sg62_14_cif.got.tgz:27137.got - 2010.06.03 15:25:27.
