data_PCOD9463465
_publ_section_title
;
Structure prediction by ZEFSAII (Michael W. Deem and Ramdas Pophale) SiO2 
 PCOD9463465
Probable space group: P N M A
;
_chemical_formula_sum "Si O2"
_cell_formula_units_Z 64
_cell_length_a 23.277148
_cell_length_b 14.128637
_cell_length_c 9.609065
_cell_angle_alpha 90.000000
_cell_angle_beta 90.000000
_cell_angle_gamma 90.000000
_cell_volume 3160.175241
_symmetry_space_group_name_H-M "P N M A"
_symmetry_group_IT_number 62
_symmetry_cell_setting 'orthorhombic'
loop_
_space_group_symop_operation_xyz
x,y,z
1/2-x,-y,1/2+z
1/2+x,1/2-y,1/2-z
-x,1/2+y,-z
-x,-y,-z
1/2+x,y,1/2-z
1/2-x,1/2+y,1/2+z
x,1/2-y,z
loop_
_atom_site_type_symbol
_atom_site_label
_atom_site_fract_x
_atom_site_fract_y
_atom_site_fract_z
Si Si1 0.431026 0.009641 0.994538
Si Si2 0.386975 0.638174 0.530881
Si Si3 0.060029 0.852840 0.253302
Si Si4 0.166550 0.056772 0.305283
Si Si5 0.519549 0.637192 0.526967
Si Si6 0.691046 0.644535 0.281427
Si Si7 0.385592 0.018213 0.307370
Si Si8 0.780434 0.142173 0.094908
O O1 0.403969 0.010814 0.146995
O O2 0.390856 0.940807 0.900457
O O3 0.500000 0.000000 0.000000
O O4 0.427805 0.104292 0.902475
O O5 0.372819 0.750000 0.522294
O O6 0.351385 0.583072 0.648588
O O7 0.454013 0.630310 0.573932
O O8 0.380670 0.582445 0.385789
O O9 0.034304 0.750000 0.274845
O O10 0.123001 0.849363 0.184977
O O11 0.022451 0.900631 0.133416
O O12 0.216428 0.126058 0.351695
O O13 0.193715 0.950131 0.310748
O O14 0.533988 0.750000 0.524647
O O15 0.565148 0.580041 0.616230
O O16 0.707152 0.750000 0.226230
O O17 0.720896 0.627130 0.428505
O O18 0.325709 0.072740 0.332091
O O19 0.799421 0.250000 0.118659
#
# Coordination Sequence:
#
# PCOD9463465 Si02
#       8
#     8   8   8   8   8   8   8   8
#     4  11  24  39  60  94 131 170 209 259 332 397
#     4  11  23  40  62  90 122 165 216 264 321 392
#     4   9  17  35  60  90 123 160 206 260 309 372
#     4  11  23  43  65  89 129 170 210 268 329 385
#     4  10  19  35  64  93 122 165 215 263 319 385
#     4   9  18  38  66  90 117 157 208 255 309 376
#     4  12  22  38  64  91 129 163 213 274 320 388
#     4  11  23  40  66  95 123 164 217 270 321 382
#
# _framework density 20.252043
#
# number of rings (size 3 to 8) (size 9 to 14) (size 15 to 20)
#    0.000    1.500    2.500    3.375    1.750    1.000 
#    0.000    3.125    0.000    0.000    0.000    0.000 
#    0.000    0.000    0.000    0.000    0.000    0.000 
#
# Total GULP energy -356823.416188 kJ/mol
# GULP energy per Si atom -5575.365878 kJ/mol
# Density = 2.020595 g / cm^3
# Si number density = 20.252043 Si / 1000 Ang^3
#
#
#
# Elastic Constant Matrix: (Units=GPa)
#
#
# Indices 1 2 3 4 5 6 
#
# 1 58.6113 8.3911 19.4207 0.0000 0.0000 0.0000
# 2 8.3911 80.9312 26.8643 0.0000 0.0000 0.0000
# 3 19.4207 26.8643 114.6079 0.0000 0.0000 0.0000
# 4 0.0000 0.0000 0.0000 13.5186 0.0000 0.0000
# 5 0.0000 0.0000 0.0000 0.0000 21.9914 0.0000
# 6 0.0000 0.0000 0.0000 0.0000 0.0000 19.1922
#
#
#
# Elastic Compliance Matrix: (Units=1/GPa)
#
#
# Indices 1 2 3 4 5 6 
#
# 1 0.018141 -0.000933 -0.002855 0.000000 0.000000 0.000000
# 2 -0.000933 0.013447 -0.002994 0.000000 0.000000 0.000000
# 3 -0.002855 -0.002994 0.009911 0.000000 0.000000 0.000000
# 4 0.000000 0.000000 0.000000 0.073972 0.000000 0.000000
# 5 0.000000 0.000000 0.000000 0.000000 0.045472 0.000000
# 6 0.000000 0.000000 0.000000 0.000000 0.000000 0.052105
#
#
# Mechanical properties :
#
#
# Convention : Reuss Voigt Hill
#
# Bulk Modulus (GPa) = 35.79820 40.38918 38.09369
# Shear Modulus (GPa) = 21.19326 24.23872 22.71599
#
# Velocity S-wave (km/s) = 3.23844 3.46331 3.35276
# Velocity P-wave (km/s) = 5.63010 5.99827 5.81710
#
# Compressibility (1/GPa) = 0.02793437
#
# Stress axis : x y z
#
# Youngs Moduli (GPa) = 55.12295 74.36774 100.89785
#
# Poissons Ratio (x) = 0.06939 0.28810
# Poissons Ratio (y) = 0.05144 0.30207
# Poissons Ratio (z) = 0.15740 0.22264
#
# Static dielectric constant tensor:
#      x y z
#    x 1.742970 0.000000 0.000000 
#    y 0.000000 1.798030 0.000000 
#    z 0.000000 0.000000 1.742010 
# 
# From -- ./inp_files/9503.got.cif
#   From: 2010.05.17/outbox.cif.g08.bks.cpg/sg62_5_cif.got.tgz:9503.got - 2010.06.03 15:25:27.
