data_PCOD9463251
_publ_section_title
;
Structure prediction by ZEFSAII (Michael W. Deem and Ramdas Pophale) SiO2 
 PCOD9463251
Probable space group: P N M A
;
_chemical_formula_sum "Si O2"
_cell_formula_units_Z 56
_cell_length_a 14.821562
_cell_length_b 7.573840
_cell_length_c 21.325233
_cell_angle_alpha 90.000000
_cell_angle_beta 90.000000
_cell_angle_gamma 90.000000
_cell_volume 2393.888323
_symmetry_space_group_name_H-M "P N M A"
_symmetry_group_IT_number 62
_symmetry_cell_setting 'orthorhombic'
loop_
_space_group_symop_operation_xyz
x,y,z
1/2-x,-y,1/2+z
1/2+x,1/2-y,1/2-z
-x,1/2+y,-z
-x,-y,-z
1/2+x,y,1/2-z
1/2-x,1/2+y,1/2+z
x,1/2-y,z
loop_
_atom_site_type_symbol
_atom_site_label
_atom_site_fract_x
_atom_site_fract_y
_atom_site_fract_z
Si Si1 0.601048 0.452961 0.723266
Si Si2 0.709157 0.958638 0.985274
Si Si3 0.203928 0.534077 0.288677
Si Si4 0.882017 0.046448 0.365656
Si Si5 0.420812 0.035335 0.904836
Si Si6 0.910201 0.466603 0.827480
Si Si7 0.904003 0.040931 0.969385
O O1 0.599698 0.250000 0.701657
O O2 0.695018 0.531635 0.699402
O O3 0.607165 0.454649 0.798754
O O4 0.506545 0.528177 0.700042
O O5 0.691485 0.750000 0.980531
O O6 0.689239 0.030817 0.915479
O O7 0.813270 0.979584 0.003998
O O8 0.638472 0.026954 0.036309
O O9 0.206948 0.750000 0.288486
O O10 0.133301 0.483984 0.342079
O O11 0.167258 0.478140 0.220839
O O12 0.860597 0.250000 0.351486
O O13 0.978333 0.035652 0.400770
O O14 0.426089 0.250000 0.905979
O O15 0.909523 0.250000 0.827295
O O16 0.900548 0.529806 0.898332
O O17 0.897125 0.250000 0.965979
O O18 0.000000 0.000000 0.000000
#
# Coordination Sequence:
#
# PCOD9463251 Si02
#       7
#     8   8   8   8   8   8   8
#     4  10  19  34  60  85 109 147 197 245 283 340
#     4  10  23  40  60  86 119 158 198 242 293 352
#     4   9  17  31  57  88 108 136 194 251 283 320
#     4  11  22  37  56  88 127 156 186 238 307 365
#     4  10  20  37  62  86 112 154 204 248 288 344
#     4   9  18  34  57  86 112 143 194 242 279 334
#     4  11  24  41  63  89 120 157 199 247 295 348
#
# _framework density 23.392906
#
# number of rings (size 3 to 8) (size 9 to 14) (size 15 to 20)
#    0.000    2.000    1.429    2.143    2.000    2.857 
#    0.000    2.143    0.000    0.000    0.000    0.000 
#    0.000    0.000    0.000    0.000    0.000    0.000 
#
# Total GULP energy -313088.246534 kJ/mol
# GULP energy per Si atom -5590.861545 kJ/mol
# Density = 2.333966 g / cm^3
# Si number density = 23.392906 Si / 1000 Ang^3
#
#
#
# Elastic Constant Matrix: (Units=GPa)
#
#
# Indices 1 2 3 4 5 6 
#
# 1 118.9626 -11.0553 -2.2439 0.0000 0.0000 0.0000
# 2 -11.0553 58.4979 -4.8153 0.0000 0.0000 0.0000
# 3 -2.2439 -4.8153 52.5980 0.0000 0.0000 0.0000
# 4 0.0000 0.0000 0.0000 7.9111 0.0000 0.0000
# 5 0.0000 0.0000 0.0000 0.0000 31.0995 0.0000
# 6 0.0000 0.0000 0.0000 0.0000 0.0000 14.9278
#
#
#
# Elastic Compliance Matrix: (Units=1/GPa)
#
#
# Indices 1 2 3 4 5 6 
#
# 1 0.008570 0.001662 0.000518 0.000000 0.000000 0.000000
# 2 0.001662 0.017547 0.001677 0.000000 0.000000 0.000000
# 3 0.000518 0.001677 0.019188 0.000000 0.000000 0.000000
# 4 0.000000 0.000000 0.000000 0.126405 0.000000 0.000000
# 5 0.000000 0.000000 0.000000 0.000000 0.032155 0.000000
# 6 0.000000 0.000000 0.000000 0.000000 0.000000 0.066989
#
#
# Mechanical properties :
#
#
# Convention : Reuss Voigt Hill
#
# Bulk Modulus (GPa) = 18.86093 21.53661 20.19877
# Shear Modulus (GPa) = 17.80549 27.33256 22.56902
#
# Velocity S-wave (km/s) = 2.76189 3.42191 3.10946
# Velocity P-wave (km/s) = 4.27210 4.98388 4.64166
#
# Compressibility (1/GPa) = 0.05301965
#
# Stress axis : x y z
#
# Youngs Moduli (GPa) = 116.68278 56.99027 52.11656
#
# Poissons Ratio (x) = -0.09473 -0.02699
# Poissons Ratio (y) = -0.19396 -0.08742
# Poissons Ratio (z) = -0.06042 -0.09559
#
# Static dielectric constant tensor:
#      x y z
#    x 2.055020 0.000000 0.000000 
#    y 0.000000 1.888560 0.000000 
#    z 0.000000 0.000000 1.884310 
# 
# From -- ./inp_files/27086.got.cif
#   From: 2010.05.17/outbox.cif.g08.bks.cpg/sg62_14_cif.got.tgz:27086.got - 2010.06.03 15:25:27.
