data_PCOD9463983
_publ_section_title
;
Structure prediction by ZEFSAII (Michael W. Deem and Ramdas Pophale) SiO2 
 PCOD9463983
Probable space group: P N M A
;
_chemical_formula_sum "Si O2"
_cell_formula_units_Z 40
_cell_length_a 20.599128
_cell_length_b 11.407486
_cell_length_c 7.757819
_cell_angle_alpha 90.000000
_cell_angle_beta 90.000000
_cell_angle_gamma 90.000000
_cell_volume 1822.965390
_symmetry_space_group_name_H-M "P N M A"
_symmetry_group_IT_number 62
_symmetry_cell_setting 'orthorhombic'
loop_
_space_group_symop_operation_xyz
x,y,z
1/2-x,-y,1/2+z
1/2+x,1/2-y,1/2-z
-x,1/2+y,-z
-x,-y,-z
1/2+x,y,1/2-z
1/2-x,1/2+y,1/2+z
x,1/2-y,z
loop_
_atom_site_type_symbol
_atom_site_label
_atom_site_fract_x
_atom_site_fract_y
_atom_site_fract_z
Si Si1 0.930312 0.955038 0.705224
Si Si2 0.104962 0.883985 0.002758
Si Si3 0.073622 0.617099 0.625839
Si Si4 0.793340 0.876793 0.641941
Si Si5 0.758638 0.378140 0.790464
O O1 0.915590 0.039785 0.542556
O O2 0.864897 0.880854 0.722832
O O3 0.937520 0.033378 0.875754
O O4 0.996439 0.888633 0.664673
O O5 0.080099 0.750000 0.000929
O O6 0.106785 0.922842 0.804170
O O7 0.175041 0.881146 0.095506
O O8 0.094008 0.750000 0.589212
O O9 0.762265 0.750000 0.689640
O O10 0.796919 0.877444 0.434727
O O11 0.759391 0.999772 0.689849
O O12 0.757481 0.250000 0.698997
#
# Coordination Sequence:
#
# PCOD9463983 Si02
#       5
#     8   8   8   8   8
#     4  10  20  34  53  78 111 142 181 229 279 328
#     4   9  18  34  53  76 105 138 185 231 272 332
#     4  10  20  33  54  79 106 145 185 225 279 333
#     4  10  21  37  57  81 114 147 183 233 284 330
#     4   9  20  36  55  80 109 143 186 230 277 335
#
# _framework density 21.942270000000001
#
# number of rings (size 3 to 8) (size 9 to 14) (size 15 to 20)
#    0.000    2.400    0.000    1.800    2.800    1.600 
#    0.000    0.000    0.000    6.000    0.000    0.000 
#    0.000    0.000    0.000    0.000    0.000    0.000 
#
# Total GULP energy -223093.039786 kJ/mol
# GULP energy per Si atom -5577.325995 kJ/mol
# Density = 2.189233 g / cm^3
# Si number density = 21.942270 Si / 1000 Ang^3
#
#
#
# Elastic Constant Matrix: (Units=GPa)
#
#
# Indices 1 2 3 4 5 6 
#
# 1 35.1429 11.0958 -8.4746 0.0000 0.0000 0.0000
# 2 11.0958 169.8733 60.6644 0.0000 0.0000 0.0000
# 3 -8.4746 60.6644 78.6757 0.0000 0.0000 0.0000
# 4 0.0000 0.0000 0.0000 177.6184 0.0000 0.0000
# 5 0.0000 0.0000 0.0000 0.0000 29.0398 0.0000
# 6 0.0000 0.0000 0.0000 0.0000 0.0000 -1.0123
#
#
#
# Elastic Compliance Matrix: (Units=1/GPa)
#
#
# Indices 1 2 3 4 5 6 
#
# 1 0.031541 -0.004517 0.006881 0.000000 0.000000 0.000000
# 2 -0.004517 0.008771 -0.007249 0.000000 0.000000 0.000000
# 3 0.006881 -0.007249 0.019041 0.000000 0.000000 0.000000
# 4 0.000000 0.000000 0.000000 0.005630 0.000000 0.000000
# 5 0.000000 0.000000 0.000000 0.000000 0.034436 0.000000
# 6 0.000000 0.000000 0.000000 0.000000 0.000000 -0.987875
#
#
# Mechanical properties :
#
#
# Convention : Reuss Voigt Hill
#
# Bulk Modulus (GPa) = 20.16920 45.58479 32.87699
# Shear Modulus (GPa) = -5.79941 55.82294 25.01177
#
# Velocity S-wave (km/s) = -1.62750 5.04936 3.37989
# Velocity P-wave (km/s) = 2.38332 7.40370 5.49977
#
# Compressibility (1/GPa) = 0.04958056
#
# Stress axis : x y z
#
# Youngs Moduli (GPa) = 31.70500 114.01625 52.51730
#
# Poissons Ratio (x) = 0.51505 -0.36135
# Poissons Ratio (y) = 0.14322 0.38072
# Poissons Ratio (z) = -0.21815 0.82655
#
# Static dielectric constant tensor:
#      x y z
#    x 1.834780 0.000000 0.000000 
#    y 0.000000 1.818760 0.000000 
#    z 0.000000 0.000000 1.796160 
# 
# From -- ./inp_files/3034.got.cif
#   From: 2010.05.17/outbox.cif.g08.bks.cpg/sg62_2_cif.got.tgz:3034.got - 2010.06.03 15:25:27.
