data_PCOD9463611
_publ_section_title
;
Structure prediction by ZEFSAII (Michael W. Deem and Ramdas Pophale) SiO2 
 PCOD9463611
Probable space group: P N M A
;
_chemical_formula_sum "Si O2"
_cell_formula_units_Z 64
_cell_length_a 5.440392
_cell_length_b 22.842830
_cell_length_c 25.766696
_cell_angle_alpha 90.000000
_cell_angle_beta 90.000000
_cell_angle_gamma 90.000000
_cell_volume 3202.129080
_symmetry_space_group_name_H-M "P N M A"
_symmetry_group_IT_number 62
_symmetry_cell_setting 'orthorhombic'
loop_
_space_group_symop_operation_xyz
x,y,z
1/2-x,-y,1/2+z
1/2+x,1/2-y,1/2-z
-x,1/2+y,-z
-x,-y,-z
1/2+x,y,1/2-z
1/2-x,1/2+y,1/2+z
x,1/2-y,z
loop_
_atom_site_type_symbol
_atom_site_label
_atom_site_fract_x
_atom_site_fract_y
_atom_site_fract_z
Si Si1 0.290415 0.525413 0.202075
Si Si2 0.187620 0.681647 0.101071
Si Si3 0.748275 0.858083 0.624929
Si Si4 0.140941 0.684003 0.767471
Si Si5 0.752596 0.679706 0.930130
Si Si6 0.709408 0.981576 0.683202
Si Si7 0.187876 0.820646 0.447285
Si Si8 0.250654 0.161630 0.722252
O O1 0.303949 0.483905 0.253393
O O2 0.546715 0.519165 0.172437
O O3 0.254891 0.590862 0.222660
O O4 0.053598 0.508497 0.168728
O O5 0.178620 0.750000 0.085217
O O6 0.429298 0.655530 0.073925
O O7 0.220479 0.678920 0.162591
O O8 0.926798 0.656098 0.083062
O O9 0.710859 0.814199 0.672868
O O10 0.509541 0.848407 0.588891
O O11 0.742023 0.920310 0.654506
O O12 0.009754 0.845734 0.598110
O O13 0.373525 0.655362 0.738926
O O14 0.110207 0.750000 0.745818
O O15 0.762933 0.750000 0.920613
O O16 0.720501 0.670309 0.991580
O O17 0.179154 0.750000 0.438652
O O18 0.491115 0.181284 0.753888
#
# Coordination Sequence:
#
# PCOD9463611 Si02
#       8
#     8   8   8   8   8   8   8   8
#     4  10  19  37  53  76 106 147 190 229 270 326
#     4  10  21  36  58  90 123 156 190 219 268 337
#     4  12  23  33  55  83 103 143 192 245 296 333
#     4  10  21  33  43  61  98 139 169 204 264 348
#     4  11  22  38  58  81 113 145 189 247 293 343
#     4  10  20  33  54  75 107 140 184 248 269 324
#     4   9  19  38  59  81 113 154 193 233 277 330
#     4  12  21  36  58  89 125 154 191 223 266 333
#
# _framework density 19.986702000000001
#
# number of rings (size 3 to 8) (size 9 to 14) (size 15 to 20)
#    0.000    1.500    2.500    4.125    3.500    3.500 
#    0.000    0.000    0.000    0.000    0.000   17.500 
#    0.000    0.000    0.000    0.000    0.000    0.000 
#
# Total GULP energy -356988.931376 kJ/mol
# GULP energy per Si atom -5577.952053 kJ/mol
# Density = 1.994121 g / cm^3
# Si number density = 19.986702 Si / 1000 Ang^3
#
#
#
# Elastic Constant Matrix: (Units=GPa)
#
#
# Indices 1 2 3 4 5 6 
#
# 1 93.4250 8.4594 -3.7174 0.0000 0.0000 0.0000
# 2 8.4594 45.9631 -6.8332 0.0000 0.0000 0.0000
# 3 -3.7174 -6.8332 21.7575 0.0000 0.0000 0.0000
# 4 0.0000 0.0000 0.0000 14.2514 0.0000 0.0000
# 5 0.0000 0.0000 0.0000 0.0000 39.6213 0.0000
# 6 0.0000 0.0000 0.0000 0.0000 0.0000 -31.1069
#
#
#
# Elastic Compliance Matrix: (Units=1/GPa)
#
#
# Indices 1 2 3 4 5 6 
#
# 1 0.010920 -0.001817 0.001295 0.000000 0.000000 0.000000
# 2 -0.001817 0.023125 0.006952 0.000000 0.000000 0.000000
# 3 0.001295 0.006952 0.048366 0.000000 0.000000 0.000000
# 4 0.000000 0.000000 0.000000 0.070169 0.000000 0.000000
# 5 0.000000 0.000000 0.000000 0.000000 0.025239 0.000000
# 6 0.000000 0.000000 0.000000 0.000000 0.000000 -0.032147
#
#
# Mechanical properties :
#
#
# Convention : Reuss Voigt Hill
#
# Bulk Modulus (GPa) = 10.49647 17.44032 13.96840
# Shear Modulus (GPa) = 30.38266 15.43562 22.90914
#
# Velocity S-wave (km/s) = 3.90313 2.78203 3.38926
# Velocity P-wave (km/s) = 5.05724 4.36629 4.72442
#
# Compressibility (1/GPa) = 0.09527013
#
# Stress axis : x y z
#
# Youngs Moduli (GPa) = 91.57633 43.24396 20.67573
#
# Poissons Ratio (x) = 0.07858 -0.02678
# Poissons Ratio (y) = 0.16642 -0.14374
# Poissons Ratio (z) = -0.11859 -0.30064
#
# Static dielectric constant tensor:
#      x y z
#    x 1.801830 0.000000 0.000000 
#    y 0.000000 1.733820 0.000000 
#    z 0.000000 0.000000 1.665100 
# 
# From -- ./inp_files/25460.got.cif
#   From: 2010.05.17/outbox.cif.g08.bks.cpg/sg62_13_cif.got.tgz:25460.got - 2010.06.03 15:25:27.
