data_PCOD9463995
_publ_section_title
;
Structure prediction by ZEFSAII (Michael W. Deem and Ramdas Pophale) SiO2 
 PCOD9463995
Probable space group: P N M A
;
_chemical_formula_sum "Si O2"
_cell_formula_units_Z 48
_cell_length_a 11.283969
_cell_length_b 22.176465
_cell_length_c 8.826794
_cell_angle_alpha 90.000000
_cell_angle_beta 90.000000
_cell_angle_gamma 90.000000
_cell_volume 2208.804075
_symmetry_space_group_name_H-M "P N M A"
_symmetry_group_IT_number 62
_symmetry_cell_setting 'orthorhombic'
loop_
_space_group_symop_operation_xyz
x,y,z
1/2-x,-y,1/2+z
1/2+x,1/2-y,1/2-z
-x,1/2+y,-z
-x,-y,-z
1/2+x,y,1/2-z
1/2-x,1/2+y,1/2+z
x,1/2-y,z
loop_
_atom_site_type_symbol
_atom_site_label
_atom_site_fract_x
_atom_site_fract_y
_atom_site_fract_z
Si Si1 0.385176 0.081928 0.708448
Si Si2 0.023162 0.129059 0.060560
Si Si3 0.440384 0.564021 0.037604
Si Si4 0.102941 0.857410 0.660791
Si Si5 0.242142 0.317052 0.897078
Si Si6 0.204331 0.450107 0.262381
O O1 0.424314 0.096952 0.539985
O O2 0.308209 0.134704 0.788906
O O3 0.309905 0.020874 0.731295
O O4 0.513977 0.073380 0.792268
O O5 0.102646 0.082110 0.159005
O O6 0.956564 0.168237 0.188618
O O7 0.110408 0.163795 0.946931
O O8 0.502851 0.619499 0.952519
O O9 0.319622 0.560044 0.941641
O O10 0.500000 0.500000 0.000000
O O11 0.189217 0.818297 0.558516
O O12 0.176296 0.917571 0.709658
O O13 0.244910 0.250000 0.831396
#
# Coordination Sequence:
#
# PCOD9463995 Si02
#       6
#     8   8   8   8   8   8
#     4  10  20  33  55  83 114 149 181 229 290 344
#     4  10  21  36  58  86 114 146 189 240 291 340
#     4   8  16  30  47  73 111 145 172 212 271 336
#     4   9  19  35  56  80 106 144 188 233 284 340
#     4  10  23  41  56  77 112 153 196 237 280 336
#     4   9  18  33  54  83 116 145 183 229 283 350
#
# _framework density 21.731216
#
# number of rings (size 3 to 8) (size 9 to 14) (size 15 to 20)
#    0.000    2.667    0.000    0.500    0.000   12.000 
#    0.000    0.000    0.000    0.000    0.000    0.000 
#    0.000    0.000    0.000    0.000    0.000    0.000 
#
# Total GULP energy -267459.958217 kJ/mol
# GULP energy per Si atom -5572.082463 kJ/mol
# Density = 2.168176 g / cm^3
# Si number density = 21.731216 Si / 1000 Ang^3
#
#
#
# Elastic Constant Matrix: (Units=GPa)
#
#
# Indices 1 2 3 4 5 6 
#
# 1 62.9308 18.1071 12.2415 0.0000 0.0000 0.0000
# 2 18.1071 98.7599 0.0698 0.0000 0.0000 0.0000
# 3 12.2415 0.0698 62.9642 0.0000 0.0000 0.0000
# 4 0.0000 0.0000 0.0000 14.1357 0.0000 0.0000
# 5 0.0000 0.0000 0.0000 0.0000 31.3169 0.0000
# 6 0.0000 0.0000 0.0000 0.0000 0.0000 0.9293
#
#
#
# Elastic Compliance Matrix: (Units=1/GPa)
#
#
# Indices 1 2 3 4 5 6 
#
# 1 0.017472 -0.003201 -0.003393 0.000000 0.000000 0.000000
# 2 -0.003201 0.010712 0.000610 0.000000 0.000000 0.000000
# 3 -0.003393 0.000610 0.016541 0.000000 0.000000 0.000000
# 4 0.000000 0.000000 0.000000 0.070743 0.000000 0.000000
# 5 0.000000 0.000000 0.000000 0.000000 0.031932 0.000000
# 6 0.000000 0.000000 0.000000 0.000000 0.000000 1.076027
#
#
# Mechanical properties :
#
#
# Convention : Reuss Voigt Hill
#
# Bulk Modulus (GPa) = 30.52766 31.72128 31.12447
# Shear Modulus (GPa) = 4.01183 22.22550 13.11866
#
# Velocity S-wave (km/s) = 1.36019 3.20151 2.45965
# Velocity P-wave (km/s) = 4.06757 5.31930 4.73498
#
# Compressibility (1/GPa) = 0.03275718
#
# Stress axis : x y z
#
# Youngs Moduli (GPa) = 57.23600 93.35318 60.45551
#
# Poissons Ratio (x) = 0.29882 0.20514
# Poissons Ratio (y) = 0.18321 -0.03691
# Poissons Ratio (z) = 0.19422 -0.05699
#
# Static dielectric constant tensor:
#      x y z
#    x 1.859960 0.000000 0.000000 
#    y 0.000000 1.762570 0.000000 
#    z 0.000000 0.000000 1.835250 
# 
# From -- ./inp_files/5306.got.cif
#   From: 2010.05.17/outbox.cif.g08.bks.cpg/sg62_3_cif.got.tgz:5306.got - 2010.06.03 15:25:27.
