data_PCOD9463522
_publ_section_title
;
Structure prediction by ZEFSAII (Michael W. Deem and Ramdas Pophale) SiO2 
 PCOD9463522
Probable space group: P N M A
;
_chemical_formula_sum "Si O2"
_cell_formula_units_Z 64
_cell_length_a 21.079894
_cell_length_b 29.751155
_cell_length_c 5.229169
_cell_angle_alpha 90.000000
_cell_angle_beta 90.000000
_cell_angle_gamma 90.000000
_cell_volume 3279.479581
_symmetry_space_group_name_H-M "P N M A"
_symmetry_group_IT_number 62
_symmetry_cell_setting 'orthorhombic'
loop_
_space_group_symop_operation_xyz
x,y,z
1/2-x,-y,1/2+z
1/2+x,1/2-y,1/2-z
-x,1/2+y,-z
-x,-y,-z
1/2+x,y,1/2-z
1/2-x,1/2+y,1/2+z
x,1/2-y,z
loop_
_atom_site_type_symbol
_atom_site_label
_atom_site_fract_x
_atom_site_fract_y
_atom_site_fract_z
Si Si1 0.278478 0.134262 0.461944
Si Si2 0.007074 0.301791 0.923752
Si Si3 0.610892 0.614523 0.934764
Si Si4 0.528031 0.142119 0.095882
Si Si5 0.134507 0.699337 0.198365
Si Si6 0.313074 0.972481 0.402272
Si Si7 0.179622 0.551151 0.248686
Si Si8 0.846680 0.915109 0.601086
O O1 0.331989 0.116886 0.266231
O O2 0.303268 0.182957 0.546166
O O3 0.287558 0.098960 0.691115
O O4 0.206531 0.124626 0.387754
O O5 0.025408 0.250000 0.882985
O O6 0.021123 0.331075 0.671433
O O7 0.930346 0.301754 0.966536
O O8 0.038754 0.323327 0.171817
O O9 0.538912 0.617895 0.841027
O O10 0.621417 0.660565 0.095603
O O11 0.619555 0.568432 0.094973
O O12 0.584949 0.107135 0.078562
O O13 0.141001 0.750000 0.299281
O O14 0.235914 0.973902 0.399129
O O15 0.336836 0.941680 0.635627
O O16 0.334113 0.022107 0.495645
O O17 0.335422 0.949378 0.137977
#
# Coordination Sequence:
#
# PCOD9463522 Si02
#       8
#     8   8   8   8   8   8   8   8
#     4  10  19  36  59  84 116 153 195 247 302 353
#     4  10  20  37  63  88 112 156 211 250 286 350
#     4  10  20  36  60  87 116 159 203 247 300 357
#     4  11  22  40  60  86 123 163 197 248 305 367
#     4   9  19  34  56  88 118 147 194 251 298 349
#     4  11  22  38  61  90 117 156 202 252 296 355
#     4  10  21  36  61  90 116 149 207 252 293 355
#     4  11  24  39  60  86 124 160 199 242 311 362
#
# _framework density 19.515293
#
# number of rings (size 3 to 8) (size 9 to 14) (size 15 to 20)
#    0.000    1.750    2.500    2.625    1.750    1.000 
#    0.000    2.500    0.000    0.000    0.000    0.000 
#    0.000    0.000    0.000    0.000    0.000    0.000 
#
# Total GULP energy -356585.119695 kJ/mol
# GULP energy per Si atom -5571.642495 kJ/mol
# Density = 1.947088 g / cm^3
# Si number density = 19.515293 Si / 1000 Ang^3
#
#
#
# Elastic Constant Matrix: (Units=GPa)
#
#
# Indices 1 2 3 4 5 6 
#
# 1 81.6676 37.3208 30.7797 0.0000 0.0000 0.0000
# 2 37.3208 92.9607 35.0783 0.0000 0.0000 0.0000
# 3 30.7797 35.0783 79.6403 0.0000 0.0000 0.0000
# 4 0.0000 0.0000 0.0000 25.9626 0.0000 0.0000
# 5 0.0000 0.0000 0.0000 0.0000 18.1210 0.0000
# 6 0.0000 0.0000 0.0000 0.0000 0.0000 29.6463
#
#
#
# Elastic Compliance Matrix: (Units=1/GPa)
#
#
# Indices 1 2 3 4 5 6 
#
# 1 0.016004 -0.004906 -0.004024 0.000000 0.000000 0.000000
# 2 -0.004906 0.014406 -0.004449 0.000000 0.000000 0.000000
# 3 -0.004024 -0.004449 0.016071 0.000000 0.000000 0.000000
# 4 0.000000 0.000000 0.000000 0.038517 0.000000 0.000000
# 5 0.000000 0.000000 0.000000 0.000000 0.055185 0.000000
# 6 0.000000 0.000000 0.000000 0.000000 0.000000 0.033731
#
#
# Mechanical properties :
#
#
# Convention : Reuss Voigt Hill
#
# Bulk Modulus (GPa) = 50.70528 51.18069 50.94299
# Shear Modulus (GPa) = 24.12592 24.81862 24.47227
#
# Velocity S-wave (km/s) = 3.51986 3.57003 3.54503
# Velocity P-wave (km/s) = 6.52365 6.57848 6.55112
#
# Compressibility (1/GPa) = 0.01972181
#
# Stress axis : x y z
#
# Youngs Moduli (GPa) = 62.48612 69.41649 62.22302
#
# Poissons Ratio (x) = 0.34059 0.25039
# Poissons Ratio (y) = 0.30659 0.27682
# Poissons Ratio (z) = 0.25145 0.30883
#
# Static dielectric constant tensor:
#      x y z
#    x 1.709490 0.000000 0.000000 
#    y 0.000000 1.718340 0.000000 
#    z 0.000000 0.000000 1.776510 
# 
# From -- ./inp_files/2887.got.cif
#   From: 2010.05.17/outbox.cif.g08.bks.cpg/sg62_2_cif.got.tgz:2887.got - 2010.06.03 15:25:27.
