data_PCOD9463829
_publ_section_title
;
Structure prediction by ZEFSAII (Michael W. Deem and Ramdas Pophale) SiO2 
 PCOD9463829
Probable space group: P N M A
;
_chemical_formula_sum "Si O2"
_cell_formula_units_Z 40
_cell_length_a 26.195428
_cell_length_b 9.271205
_cell_length_c 6.895146
_cell_angle_alpha 90.000000
_cell_angle_beta 90.000000
_cell_angle_gamma 90.000000
_cell_volume 1674.577105
_symmetry_space_group_name_H-M "P N M A"
_symmetry_group_IT_number 62
_symmetry_cell_setting 'orthorhombic'
loop_
_space_group_symop_operation_xyz
x,y,z
1/2-x,-y,1/2+z
1/2+x,1/2-y,1/2-z
-x,1/2+y,-z
-x,-y,-z
1/2+x,y,1/2-z
1/2-x,1/2+y,1/2+z
x,1/2-y,z
loop_
_atom_site_type_symbol
_atom_site_label
_atom_site_fract_x
_atom_site_fract_y
_atom_site_fract_z
Si Si1 0.214565 0.910570 0.531077
Si Si2 0.184484 0.912373 0.082939
Si Si3 0.991882 0.577435 0.293611
Si Si4 0.879002 0.914152 0.361242
Si Si5 0.088315 0.415727 0.179423
O O1 0.229758 0.750000 0.596824
O O2 0.192728 0.899290 0.314993
O O3 0.263018 0.014647 0.517004
O O4 0.168747 0.979055 0.656524
O O5 0.176288 0.750000 0.009201
O O6 0.135798 0.015644 0.066420
O O7 0.998685 0.750000 0.308836
O O8 0.932043 0.551606 0.252612
O O9 0.000000 0.500000 0.500000
O O10 0.036847 0.509137 0.166459
O O11 0.862933 0.750000 0.315772
O O12 0.894964 0.914749 0.591260
O O13 0.078392 0.250000 0.125945
#
# Coordination Sequence:
#
# PCOD9463829 Si02
#       5
#     8   8   8   8   8
#     4  10  20  32  48  70  94 123 159 195 232 276
#     4  10  20  33  49  69  95 126 158 194 235 278
#     4   9  15  23  37  59  87 118 150 185 230 278
#     4   8  15  26  40  60  88 120 150 185 229 273
#     4   9  16  26  41  62  89 119 151 189 231 275
#
# _framework density 23.886628000000002
#
# number of rings (size 3 to 8) (size 9 to 14) (size 15 to 20)
#    0.000    2.800    0.000    3.600    0.000    8.000 
#    0.000    0.000    0.000    0.000    0.000    1.400 
#    0.000    0.000    0.000    0.000    0.000    0.000 
#
# Total GULP energy -223765.053355 kJ/mol
# GULP energy per Si atom -5594.126334 kJ/mol
# Density = 2.383226 g / cm^3
# Si number density = 23.886628 Si / 1000 Ang^3
#
#
#
# Elastic Constant Matrix: (Units=GPa)
#
#
# Indices 1 2 3 4 5 6 
#
# 1 167.2368 112.7465 13.6751 0.0000 0.0000 0.0000
# 2 112.7465 180.1269 8.4571 0.0000 0.0000 0.0000
# 3 13.6751 8.4571 63.8359 0.0000 0.0000 0.0000
# 4 0.0000 0.0000 0.0000 22.4723 0.0000 0.0000
# 5 0.0000 0.0000 0.0000 0.0000 48.3507 0.0000
# 6 0.0000 0.0000 0.0000 0.0000 0.0000 47.7417
#
#
#
# Elastic Compliance Matrix: (Units=1/GPa)
#
#
# Indices 1 2 3 4 5 6 
#
# 1 0.010465 -0.006485 -0.001383 0.000000 0.000000 0.000000
# 2 -0.006485 0.009606 0.000117 0.000000 0.000000 0.000000
# 3 -0.001383 0.000117 0.015946 0.000000 0.000000 0.000000
# 4 0.000000 0.000000 0.000000 0.044499 0.000000 0.000000
# 5 0.000000 0.000000 0.000000 0.000000 0.020682 0.000000
# 6 0.000000 0.000000 0.000000 0.000000 0.000000 0.020946
#
#
# Mechanical properties :
#
#
# Convention : Reuss Voigt Hill
#
# Bulk Modulus (GPa) = 48.74758 75.66188 62.20473
# Shear Modulus (GPa) = 34.60591 42.13435 38.37013
#
# Velocity S-wave (km/s) = 3.81038 4.20447 4.01227
# Velocity P-wave (km/s) = 6.30959 7.43736 6.89656
#
# Compressibility (1/GPa) = 0.02051384
#
# Stress axis : x y z
#
# Youngs Moduli (GPa) = 95.55822 104.10701 62.71213
#
# Poissons Ratio (x) = 0.67517 0.08671
# Poissons Ratio (y) = 0.61972 -0.00732
# Poissons Ratio (z) = 0.13212 -0.01215
#
# Static dielectric constant tensor:
#      x y z
#    x 1.845250 0.000000 0.000000 
#    y 0.000000 1.806890 0.000000 
#    z 0.000000 0.000000 2.047040 
# 
# From -- ./inp_files/9081.got.cif
#   From: 2010.05.17/outbox.cif.g08.bks.cpg/sg62_5_cif.got.tgz:9081.got - 2010.06.03 15:25:27.
