data_PCOD9463999
_publ_section_title
;
Structure prediction by ZEFSAII (Michael W. Deem and Ramdas Pophale) SiO2 
 PCOD9463999
Probable space group: P N M A
;
_chemical_formula_sum "Si O2"
_cell_formula_units_Z 52
_cell_length_a 5.146822
_cell_length_b 20.998344
_cell_length_c 22.881238
_cell_angle_alpha 90.000000
_cell_angle_beta 90.000000
_cell_angle_gamma 90.000000
_cell_volume 2472.883822
_symmetry_space_group_name_H-M "P N M A"
_symmetry_group_IT_number 62
_symmetry_cell_setting 'orthorhombic'
loop_
_space_group_symop_operation_xyz
x,y,z
1/2-x,-y,1/2+z
1/2+x,1/2-y,1/2-z
-x,1/2+y,-z
-x,-y,-z
1/2+x,y,1/2-z
1/2-x,1/2+y,1/2+z
x,1/2-y,z
loop_
_atom_site_type_symbol
_atom_site_label
_atom_site_fract_x
_atom_site_fract_y
_atom_site_fract_z
Si Si1 0.159899 0.362598 0.613120
Si Si2 0.675785 0.437362 0.573743
Si Si3 0.194404 0.820671 0.617804
Si Si4 0.147431 0.250000 0.708125
Si Si5 0.200768 0.173709 0.281467
Si Si6 0.853745 0.683569 0.511398
Si Si7 0.977727 0.577207 0.943234
O O1 0.442910 0.393077 0.599309
O O2 0.089820 0.320870 0.556290
O O3 0.938224 0.417489 0.607778
O O4 0.156221 0.314105 0.667640
O O5 0.699859 0.431603 0.502188
O O6 0.584450 0.510146 0.578931
O O7 0.295435 0.750000 0.636665
O O8 0.940930 0.835047 0.656829
O O9 0.366669 0.882809 0.611013
O O10 0.104805 0.813616 0.551200
O O11 0.889562 0.250000 0.747550
O O12 0.986417 0.149843 0.234545
O O13 0.221617 0.250000 0.275497
O O14 0.705568 0.750000 0.523728
O O15 0.701809 0.621738 0.530956
#
# Coordination Sequence:
#
# PCOD9463999 Si02
#       7
#     8   8   8   4   8   8   8
#     4  11  22  43  64  96 126 165 206 270 330 400
#     4  10  23  37  63  89 131 170 207 251 323 398
#     4  10  20  33  55  86 120 160 208 266 314 372
#     4  12  26  46  76 104 130 170 226 280 342 410
#     4   9  19  34  51  71 104 148 194 238 286 335
#     4  10  20  34  57  93 132 168 200 267 333 387
#     4  10  21  34  56  89 130 169 212 251 318 405
#
# _framework density 21.028082000000001
#
# number of rings (size 3 to 8) (size 9 to 14) (size 15 to 20)
#    0.000    1.846    2.308    1.385    4.308    1.846 
#    1.385    0.000    0.000    5.538    0.000    0.000 
#    0.000    0.000    0.000    0.000    0.000    0.000 
#
# Total GULP energy -289792.541067 kJ/mol
# GULP energy per Si atom -5572.933482 kJ/mol
# Density = 2.098022 g / cm^3
# Si number density = 21.028082 Si / 1000 Ang^3
#
#
#
# Elastic Constant Matrix: (Units=GPa)
#
#
# Indices 1 2 3 4 5 6 
#
# 1 55.0536 -14.0550 18.4372 0.0000 0.0000 0.0000
# 2 -14.0550 83.9247 28.3117 0.0000 0.0000 0.0000
# 3 18.4372 28.3117 95.2959 0.0000 0.0000 0.0000
# 4 0.0000 0.0000 0.0000 -13.7116 0.0000 0.0000
# 5 0.0000 0.0000 0.0000 0.0000 38.7938 0.0000
# 6 0.0000 0.0000 0.0000 0.0000 0.0000 19.3995
#
#
#
# Elastic Compliance Matrix: (Units=1/GPa)
#
#
# Indices 1 2 3 4 5 6 
#
# 1 0.021536 0.005571 -0.005822 0.000000 0.000000 0.000000
# 2 0.005571 0.014684 -0.005440 0.000000 0.000000 0.000000
# 3 -0.005822 -0.005440 0.013236 0.000000 0.000000 0.000000
# 4 0.000000 0.000000 0.000000 -0.072931 0.000000 0.000000
# 5 0.000000 0.000000 0.000000 0.000000 0.025777 0.000000
# 6 0.000000 0.000000 0.000000 0.000000 0.000000 0.051548
#
#
# Mechanical properties :
#
#
# Convention : Reuss Voigt Hill
#
# Bulk Modulus (GPa) = 26.26515 33.29577 29.78046
# Shear Modulus (GPa) = 64.16570 22.33502 43.25036
#
# Velocity S-wave (km/s) = 5.52997 3.26260 4.54011
# Velocity P-wave (km/s) = 7.30011 5.48280 6.45573
#
# Compressibility (1/GPa) = 0.03807327
#
# Stress axis : x y z
#
# Youngs Moduli (GPa) = 46.43419 68.10338 75.55058
#
# Poissons Ratio (x) = -0.37937 0.43982
# Poissons Ratio (y) = -0.25866 0.41100
# Poissons Ratio (z) = 0.27032 0.37049
#
# Static dielectric constant tensor:
#      x y z
#    x 1.843030 0.000000 0.000000 
#    y 0.000000 2.015450 0.000000 
#    z 0.000000 0.000000 1.802030 
# 
# From -- ./inp_files/28375.got.cif
#   From: 2010.05.17/outbox.cif.g08.bks.cpg/sg62_15_cif.got.tgz:28375.got - 2010.06.03 15:25:27.
