data_PCOD9463281
_publ_section_title
;
Structure prediction by ZEFSAII (Michael W. Deem and Ramdas Pophale) SiO2 
 PCOD9463281
Probable space group: P N M A
;
_chemical_formula_sum "Si O2"
_cell_formula_units_Z 56
_cell_length_a 8.377368
_cell_length_b 19.230859
_cell_length_c 18.766042
_cell_angle_alpha 90.000000
_cell_angle_beta 90.000000
_cell_angle_gamma 90.000000
_cell_volume 3023.284108
_symmetry_space_group_name_H-M "P N M A"
_symmetry_group_IT_number 62
_symmetry_cell_setting 'orthorhombic'
loop_
_space_group_symop_operation_xyz
x,y,z
1/2-x,-y,1/2+z
1/2+x,1/2-y,1/2-z
-x,1/2+y,-z
-x,-y,-z
1/2+x,y,1/2-z
1/2-x,1/2+y,1/2+z
x,1/2-y,z
loop_
_atom_site_type_symbol
_atom_site_label
_atom_site_fract_x
_atom_site_fract_y
_atom_site_fract_z
Si Si1 0.615932 0.009381 0.226332
Si Si2 0.678139 0.565238 0.849337
Si Si3 0.812520 0.672127 0.954887
Si Si4 0.096716 0.054595 0.549875
Si Si5 0.563971 0.576308 0.480015
Si Si6 0.603375 0.078983 0.672774
Si Si7 0.641714 0.829058 0.109022
O O1 0.495920 0.057583 0.183631
O O2 0.691392 0.055015 0.288825
O O3 0.760823 0.981233 0.177698
O O4 0.515160 0.944841 0.262733
O O5 0.706126 0.630481 0.898962
O O6 0.688326 0.495694 0.896007
O O7 0.842696 0.750000 0.931279
O O8 0.726592 0.673362 0.031728
O O9 0.971866 0.629203 0.969048
O O10 0.247399 0.087433 0.509877
O O11 0.991732 0.111180 0.593022
O O12 0.000000 0.000000 0.500000
O O13 0.500000 0.500000 0.500000
O O14 0.502104 0.585362 0.398505
O O15 0.723667 0.145581 0.666163
O O16 0.585249 0.750000 0.125302
#
# Coordination Sequence:
#
# PCOD9463281 Si02
#       7
#     8   8   8   8   8   8   8
#     4  10  21  33  59  82 112 148 200 244 277 339
#     4  11  20  37  57  87 113 151 196 243 282 347
#     4  10  21  38  59  84 119 152 186 246 307 347
#     4  12  20  34  60  89 116 150 197 244 295 350
#     4  11  20  33  58  85 114 145 192 241 301 351
#     4  10  19  35  53  80 111 147 190 240 289 341
#     4  10  21  36  56  84 119 150 188 245 304 355
#
# _framework density 18.522901999999998
#
# number of rings (size 3 to 8) (size 9 to 14) (size 15 to 20)
#    0.000    1.429    5.714    0.857    0.000    0.571 
#    0.000    1.429    0.000    0.000    0.000    0.000 
#    0.000    0.000    0.000    0.000    0.000    0.000 
#
# Total GULP energy -311753.600067 kJ/mol
# GULP energy per Si atom -5567.028573 kJ/mol
# Density = 1.848074 g / cm^3
# Si number density = 18.522902 Si / 1000 Ang^3
#
#
#
# Elastic Constant Matrix: (Units=GPa)
#
#
# Indices 1 2 3 4 5 6 
#
# 1 69.2338 24.7996 12.8170 0.0000 0.0000 0.0000
# 2 24.7996 95.8468 -1.7852 0.0000 0.0000 0.0000
# 3 12.8170 -1.7852 29.3713 0.0000 0.0000 0.0000
# 4 0.0000 0.0000 0.0000 11.5942 0.0000 0.0000
# 5 0.0000 0.0000 0.0000 0.0000 32.6211 0.0000
# 6 0.0000 0.0000 0.0000 0.0000 0.0000 18.0801
#
#
#
# Elastic Compliance Matrix: (Units=1/GPa)
#
#
# Indices 1 2 3 4 5 6 
#
# 1 0.017603 -0.004703 -0.007968 0.000000 0.000000 0.000000
# 2 -0.004703 0.011702 0.002764 0.000000 0.000000 0.000000
# 3 -0.007968 0.002764 0.037692 0.000000 0.000000 0.000000
# 4 0.000000 0.000000 0.000000 0.086250 0.000000 0.000000
# 5 0.000000 0.000000 0.000000 0.000000 0.030655 0.000000
# 6 0.000000 0.000000 0.000000 0.000000 0.000000 0.055309
#
#
# Mechanical properties :
#
#
# Convention : Reuss Voigt Hill
#
# Bulk Modulus (GPa) = 21.19432 29.56829 25.38131
# Shear Modulus (GPa) = 18.19815 23.03378 20.61596
#
# Velocity S-wave (km/s) = 3.13783 3.53020 3.33978
# Velocity P-wave (km/s) = 4.95934 5.71088 5.34833
#
# Compressibility (1/GPa) = 0.04718245
#
# Stress axis : x y z
#
# Youngs Moduli (GPa) = 56.80695 85.45772 26.53108
#
# Poissons Ratio (x) = 0.40192 0.21139
# Poissons Ratio (y) = 0.26717 -0.07332
# Poissons Ratio (z) = 0.45261 -0.23617
#
# Static dielectric constant tensor:
#      x y z
#    x 1.717190 0.000000 0.000000 
#    y 0.000000 1.637700 0.000000 
#    z 0.000000 0.000000 1.643550 
# 
# From -- ./inp_files/26095.got.cif
#   From: 2010.05.17/outbox.cif.g08.bks.cpg/sg62_14_cif.got.tgz:26095.got - 2010.06.03 15:25:27.
