data_PCOD9463096
_publ_section_title
;
Structure prediction by ZEFSAII (Michael W. Deem and Ramdas Pophale) SiO2 
 PCOD9463096
Probable space group: P N M A
;
_chemical_formula_sum "Si O2"
_cell_formula_units_Z 56
_cell_length_a 26.177414
_cell_length_b 10.904124
_cell_length_c 10.905928
_cell_angle_alpha 90.000000
_cell_angle_beta 90.000000
_cell_angle_gamma 90.000000
_cell_volume 3113.007373
_symmetry_space_group_name_H-M "P N M A"
_symmetry_group_IT_number 62
_symmetry_cell_setting 'orthorhombic'
loop_
_space_group_symop_operation_xyz
x,y,z
1/2-x,-y,1/2+z
1/2+x,1/2-y,1/2-z
-x,1/2+y,-z
-x,-y,-z
1/2+x,y,1/2-z
1/2-x,1/2+y,1/2+z
x,1/2-y,z
loop_
_atom_site_type_symbol
_atom_site_label
_atom_site_fract_x
_atom_site_fract_y
_atom_site_fract_z
Si Si1 0.301430 0.109878 0.801319
Si Si2 0.684425 0.111522 0.756157
Si Si3 0.379596 0.110810 0.354551
Si Si4 0.556765 0.111299 0.204870
Si Si5 0.401722 0.109682 0.639520
Si Si6 0.552519 0.610690 0.880541
Si Si7 0.861800 0.547866 0.513881
O O1 0.303136 0.250000 0.846111
O O2 0.245061 0.088229 0.749423
O O3 0.344959 0.098523 0.697591
O O4 0.317956 0.023804 0.912783
O O5 0.674874 0.250000 0.706801
O O6 0.657297 0.000933 0.683132
O O7 0.663056 0.109415 0.895067
O O8 0.357192 0.250000 0.341575
O O9 0.397922 0.097907 0.493661
O O10 0.426159 0.105256 0.258535
O O11 0.547593 0.250000 0.254738
O O12 0.506537 0.074440 0.127275
O O13 0.566860 0.001836 0.300708
O O14 0.606065 0.119088 0.116638
O O15 0.419635 0.250000 0.668700
O O16 0.553523 0.750000 0.924981
O O17 0.593831 0.539259 0.959628
#
# Coordination Sequence:
#
# PCOD9463096 Si02
#       7
#     8   8   8   8   8   8   8
#     4   9  19  34  53  76 104 138 175 217 263 312
#     4  10  21  35  53  79 108 137 175 223 270 308
#     4   9  19  36  56  77 105 143 183 217 259 319
#     4  10  20  34  53  80 110 139 174 222 274 314
#     4   9  19  36  55  75 105 142 181 217 257 317
#     4   9  18  33  54  79 107 139 176 220 267 320
#     4  10  19  34  54  76 107 140 179 215 266 322
#
# _framework density 17.989035000000001
#
# number of rings (size 3 to 8) (size 9 to 14) (size 15 to 20)
#    0.000    2.571    0.000    1.286    2.000    2.286 
#    0.000    6.429    0.000    0.000    0.000    0.000 
#    0.000    0.000    0.000    0.000    0.000    0.000 
#
# Total GULP energy -311772.070729 kJ/mol
# GULP energy per Si atom -5567.358406 kJ/mol
# Density = 1.794809 g / cm^3
# Si number density = 17.989035 Si / 1000 Ang^3
#
#
#
# Elastic Constant Matrix: (Units=GPa)
#
#
# Indices 1 2 3 4 5 6 
#
# 1 63.7709 30.9723 -3.7001 0.0000 0.0000 0.0000
# 2 30.9723 85.3297 35.9677 0.0000 0.0000 0.0000
# 3 -3.7001 35.9677 58.8896 0.0000 0.0000 0.0000
# 4 0.0000 0.0000 0.0000 -35.5510 0.0000 0.0000
# 5 0.0000 0.0000 0.0000 0.0000 14.8663 0.0000
# 6 0.0000 0.0000 0.0000 0.0000 0.0000 20.4304
#
#
#
# Elastic Compliance Matrix: (Units=1/GPa)
#
#
# Indices 1 2 3 4 5 6 
#
# 1 0.021688 -0.011375 0.008310 0.000000 0.000000 0.000000
# 2 -0.011375 0.021748 -0.013998 0.000000 0.000000 0.000000
# 3 0.008310 -0.013998 0.026052 0.000000 0.000000 0.000000
# 4 0.000000 0.000000 0.000000 -0.028129 0.000000 0.000000
# 5 0.000000 0.000000 0.000000 0.000000 0.067266 0.000000
# 6 0.000000 0.000000 0.000000 0.000000 0.000000 0.048947
#
#
# Mechanical properties :
#
#
# Convention : Reuss Voigt Hill
#
# Bulk Modulus (GPa) = 28.27788 37.16332 32.72060
# Shear Modulus (GPa) = 24.57174 9.59917 17.08546
#
# Velocity S-wave (km/s) = 3.69986 2.31251 3.08518
# Velocity P-wave (km/s) = 5.83143 5.27579 5.56056
#
# Compressibility (1/GPa) = 0.03536333
#
# Stress axis : x y z
#
# Youngs Moduli (GPa) = 46.10875 45.98069 38.38420
#
# Poissons Ratio (x) = 0.52303 -0.31897
# Poissons Ratio (y) = 0.52448 0.53729
# Poissons Ratio (z) = -0.38317 0.64363
#
# Static dielectric constant tensor:
#      x y z
#    x 1.596560 0.000000 0.000000 
#    y 0.000000 1.649480 0.000000 
#    z 0.000000 0.000000 1.608550 
# 
# From -- ./inp_files/15269.got.cif
#   From: 2010.05.17/outbox.cif.g08.bks.cpg/sg62_8_cif.got.tgz:15269.got - 2010.06.03 15:25:27.
