data_PCOD9463263
_publ_section_title
;
Structure prediction by ZEFSAII (Michael W. Deem and Ramdas Pophale) SiO2 
 PCOD9463263
Probable space group: P N M A
;
_chemical_formula_sum "Si O2"
_cell_formula_units_Z 36
_cell_length_a 5.716831
_cell_length_b 23.863082
_cell_length_c 10.753340
_cell_angle_alpha 90.000000
_cell_angle_beta 90.000000
_cell_angle_gamma 90.000000
_cell_volume 1466.983621
_symmetry_space_group_name_H-M "P N M A"
_symmetry_group_IT_number 62
_symmetry_cell_setting 'orthorhombic'
loop_
_space_group_symop_operation_xyz
x,y,z
1/2-x,-y,1/2+z
1/2+x,1/2-y,1/2-z
-x,1/2+y,-z
-x,-y,-z
1/2+x,y,1/2-z
1/2-x,1/2+y,1/2+z
x,1/2-y,z
loop_
_atom_site_type_symbol
_atom_site_label
_atom_site_fract_x
_atom_site_fract_y
_atom_site_fract_z
Si Si1 0.420742 0.141077 0.451681
Si Si2 0.316215 0.538831 0.572099
Si Si3 0.756562 0.750000 0.682335
Si Si4 0.083093 0.066332 0.624716
Si Si5 0.071754 0.168870 0.796827
O O1 0.568377 0.095280 0.373574
O O2 0.283650 0.191350 0.388831
O O3 0.248918 0.102797 0.533936
O O4 0.589582 0.169207 0.554893
O O5 0.500000 0.500000 0.500000
O O6 0.184417 0.494616 0.660324
O O7 0.138692 0.556440 0.462960
O O8 0.524182 0.750000 0.770607
O O9 0.046062 0.105667 0.742455
O O10 0.314487 0.191770 0.740825
#
# Coordination Sequence:
#
# PCOD9463263 Si02
#       5
#     8   8   4   8   8
#     4  10  22  43  69  95 138 185 234 303 349 418
#     4   9  17  34  63  99 145 185 221 263 344 415
#     4  12  32  54  76  96 128 188 258 314 362 416
#     4   9  18  34  65 103 147 181 219 274 349 435
#     4  10  19  34  62 101 137 174 210 268 346 411
#
# _framework density 24.540153
#
# number of rings (size 3 to 8) (size 9 to 14) (size 15 to 20)
#    0.000    2.222    2.222    0.000    3.111    0.000 
#    0.000   13.333    0.000    0.000    0.000    0.000 
#    0.000    0.000    0.000    0.000    0.000    0.000 
#
# Total GULP energy -200923.705978 kJ/mol
# GULP energy per Si atom -5581.214055 kJ/mol
# Density = 2.448430 g / cm^3
# Si number density = 24.540153 Si / 1000 Ang^3
#
#
#
# Elastic Constant Matrix: (Units=GPa)
#
#
# Indices 1 2 3 4 5 6 
#
# 1 106.3902 26.1039 2.3263 0.0000 0.0000 0.0000
# 2 26.1039 117.2781 24.3505 0.0000 0.0000 0.0000
# 3 2.3263 24.3505 26.8790 0.0000 0.0000 0.0000
# 4 0.0000 0.0000 0.0000 10.8348 0.0000 0.0000
# 5 0.0000 0.0000 0.0000 0.0000 31.4292 0.0000
# 6 0.0000 0.0000 0.0000 0.0000 0.0000 -212.9880
#
#
#
# Elastic Compliance Matrix: (Units=1/GPa)
#
#
# Indices 1 2 3 4 5 6 
#
# 1 0.009986 -0.002517 0.001416 0.000000 0.000000 0.000000
# 2 -0.002517 0.011136 -0.009871 0.000000 0.000000 0.000000
# 3 0.001416 -0.009871 0.046024 0.000000 0.000000 0.000000
# 4 0.000000 0.000000 0.000000 0.092295 0.000000 0.000000
# 5 0.000000 0.000000 0.000000 0.000000 0.031818 0.000000
# 6 0.000000 0.000000 0.000000 0.000000 0.000000 -0.004695
#
#
# Mechanical properties :
#
#
# Convention : Reuss Voigt Hill
#
# Bulk Modulus (GPa) = 22.12292 39.56763 30.84528
# Shear Modulus (GPa) = 22.36389 -20.96035 0.70177
#
# Velocity S-wave (km/s) = 3.02208 -2.92571 0.53534
# Velocity P-wave (km/s) = 4.60563 2.17844 3.60260
#
# Compressibility (1/GPa) = 0.04520198
#
# Stress axis : x y z
#
# Youngs Moduli (GPa) = 100.14142 89.79553 21.72794
#
# Poissons Ratio (x) = 0.22598 -0.03076
# Poissons Ratio (y) = 0.25201 0.21448
# Poissons Ratio (z) = -0.14176 0.88637
#
# Static dielectric constant tensor:
#      x y z
#    x 2.058440 0.000000 0.000000 
#    y 0.000000 1.975560 0.000000 
#    z 0.000000 0.000000 1.932820 
# 
# From -- ./inp_files/10684.got.cif
#   From: 2010.05.17/outbox.cif.g08.bks.cpg/sg62_6_cif.got.tgz:10684.got - 2010.06.03 15:25:27.
