data_PCOD9463867
_publ_section_title
;
Structure prediction by ZEFSAII (Michael W. Deem and Ramdas Pophale) SiO2 
 PCOD9463867
Probable space group: P N M A
;
_chemical_formula_sum "Si O2"
_cell_formula_units_Z 40
_cell_length_a 25.773028
_cell_length_b 7.483820
_cell_length_c 7.614787
_cell_angle_alpha 90.000000
_cell_angle_beta 90.000000
_cell_angle_gamma 90.000000
_cell_volume 1468.745465
_symmetry_space_group_name_H-M "P N M A"
_symmetry_group_IT_number 62
_symmetry_cell_setting 'orthorhombic'
loop_
_space_group_symop_operation_xyz
x,y,z
1/2-x,-y,1/2+z
1/2+x,1/2-y,1/2-z
-x,1/2+y,-z
-x,-y,-z
1/2+x,y,1/2-z
1/2-x,1/2+y,1/2+z
x,1/2-y,z
loop_
_atom_site_type_symbol
_atom_site_label
_atom_site_fract_x
_atom_site_fract_y
_atom_site_fract_z
Si Si1 0.933452 0.951607 0.994768
Si Si2 0.728141 0.468499 0.319215
Si Si3 0.829173 0.453465 0.170187
Si Si4 0.877390 0.968012 0.645938
Si Si5 0.455478 0.536967 0.141853
O O1 0.949427 0.750000 0.960506
O O2 0.966934 0.030715 0.158593
O O3 0.879446 0.944866 0.106134
O O4 0.914083 0.032820 0.809725
O O5 0.729571 0.250000 0.323593
O O6 0.787152 0.533229 0.300955
O O7 0.707128 0.545115 0.498811
O O8 0.681863 0.521505 0.184435
O O9 0.843273 0.250000 0.209927
O O10 0.878888 0.750000 0.652684
O O11 0.903376 0.023566 0.462302
O O12 0.453300 0.750000 0.159421
O O13 0.500000 0.500000 0.000000
#
# Coordination Sequence:
#
# PCOD9463867 Si02
#       5
#     8   8   8   8   8
#     4   9  19  36  56  75 105 146 180 215 272 332
#     4   9  19  34  51  75 108 144 180 216 263 325
#     4  10  20  32  52  81 109 141 181 224 269 313
#     4   8  16  34  54  73 102 140 179 214 257 324
#     4  10  21  36  57  80 103 139 181 225 277 326
#
# _framework density 27.234127999999998
#
# number of rings (size 3 to 8) (size 9 to 14) (size 15 to 20)
#    0.000    2.800    0.000    1.800    2.800    3.200 
#    0.000    4.000    0.000    0.000    0.000    0.000 
#    0.000    0.000    0.000    0.000    0.000    0.000 
#
# Total GULP energy -223389.878759 kJ/mol
# GULP energy per Si atom -5584.746969 kJ/mol
# Density = 2.717214 g / cm^3
# Si number density = 27.234128 Si / 1000 Ang^3
#
#
#
# Elastic Constant Matrix: (Units=GPa)
#
#
# Indices 1 2 3 4 5 6 
#
# 1 51.0181 47.2802 -30.9899 0.0000 0.0000 0.0000
# 2 47.2802 110.7431 17.4434 0.0000 0.0000 0.0000
# 3 -30.9899 17.4434 156.6876 0.0000 0.0000 0.0000
# 4 0.0000 0.0000 0.0000 25.5831 0.0000 0.0000
# 5 0.0000 0.0000 0.0000 0.0000 53.9850 0.0000
# 6 0.0000 0.0000 0.0000 0.0000 0.0000 35.4922
#
#
#
# Elastic Compliance Matrix: (Units=1/GPa)
#
#
# Indices 1 2 3 4 5 6 
#
# 1 0.047092 -0.021957 0.011758 0.000000 0.000000 0.000000
# 2 -0.021957 0.019429 -0.006506 0.000000 0.000000 0.000000
# 3 0.011758 -0.006506 0.009432 0.000000 0.000000 0.000000
# 4 0.000000 0.000000 0.000000 0.039088 0.000000 0.000000
# 5 0.000000 0.000000 0.000000 0.000000 0.018524 0.000000
# 6 0.000000 0.000000 0.000000 0.000000 0.000000 0.028175
#
#
# Mechanical properties :
#
#
# Convention : Reuss Voigt Hill
#
# Bulk Modulus (GPa) = 23.50545 42.87959 33.19252
# Shear Modulus (GPa) = 23.88574 41.99307 32.93941
#
# Velocity S-wave (km/s) = 2.96472 3.93100 3.48155
# Velocity P-wave (km/s) = 4.51321 6.03180 5.32690
#
# Compressibility (1/GPa) = 0.04254332
#
# Stress axis : x y z
#
# Youngs Moduli (GPa) = 21.23520 51.46965 106.02280
#
# Poissons Ratio (x) = 1.13013 -1.24664
# Poissons Ratio (y) = 0.46626 0.68975
# Poissons Ratio (z) = -0.24969 0.33484
#
# Static dielectric constant tensor:
#      x y z
#    x 2.534940 0.000000 0.000000 
#    y 0.000000 1.973920 0.000000 
#    z 0.000000 0.000000 2.312110 
# 
# From -- ./inp_files/9080.got.cif
#   From: 2010.05.17/outbox.cif.g08.bks.cpg/sg62_5_cif.got.tgz:9080.got - 2010.06.03 15:25:27.
