data_PCOD9463956
_publ_section_title
;
Structure prediction by ZEFSAII (Michael W. Deem and Ramdas Pophale) SiO2 
 PCOD9463956
Probable space group: P N M A
;
_chemical_formula_sum "Si O2"
_cell_formula_units_Z 48
_cell_length_a 32.780670
_cell_length_b 9.189525
_cell_length_c 7.638638
_cell_angle_alpha 90.000000
_cell_angle_beta 90.000000
_cell_angle_gamma 90.000000
_cell_volume 2301.054041
_symmetry_space_group_name_H-M "P N M A"
_symmetry_group_IT_number 62
_symmetry_cell_setting 'orthorhombic'
loop_
_space_group_symop_operation_xyz
x,y,z
1/2-x,-y,1/2+z
1/2+x,1/2-y,1/2-z
-x,1/2+y,-z
-x,-y,-z
1/2+x,y,1/2-z
1/2-x,1/2+y,1/2+z
x,1/2-y,z
loop_
_atom_site_type_symbol
_atom_site_label
_atom_site_fract_x
_atom_site_fract_y
_atom_site_fract_z
Si Si1 0.708174 0.086113 0.053759
Si Si2 0.877955 0.574651 0.951181
Si Si3 0.958324 0.083856 0.962382
Si Si4 0.540700 0.586328 0.040677
Si Si5 0.210947 0.086543 0.025050
Si Si6 0.871607 0.425969 0.568254
O O1 0.703743 0.250000 0.986034
O O2 0.706674 0.092358 0.264790
O O3 0.670454 0.987173 0.990605
O O4 0.752183 0.020315 0.012646
O O5 0.882011 0.750000 0.934705
O O6 0.918714 0.503570 0.029341
O O7 0.834264 0.545421 0.042142
O O8 0.874128 0.499678 0.760211
O O9 0.958846 0.250000 0.027503
O O10 0.955728 0.090442 0.751294
O O11 0.000000 0.000000 0.000000
O O12 0.535385 0.750000 0.974492
O O13 0.585274 0.532320 0.978199
O O14 0.500000 0.500000 0.000000
O O15 0.221041 0.250000 0.962888
O O16 0.870543 0.250000 0.582067
#
# Coordination Sequence:
#
# PCOD9463956 Si02
#       6
#     8   8   8   8   8   8
#     4  10  20  33  52  77 100 129 169 206 246 296
#     4   9  17  31  51  74  99 130 168 205 244 297
#     4  10  20  34  52  76 102 131 168 208 250 296
#     4   9  19  33  51  75 100 128 164 203 245 294
#     4   9  19  34  51  74 102 129 162 205 247 292
#     4   9  17  31  50  72  99 131 166 203 244 293
#
# _framework density 20.860007
#
# number of rings (size 3 to 8) (size 9 to 14) (size 15 to 20)
#    0.000    2.667    0.000    4.000    0.000    8.000 
#    0.000    1.667    0.000    0.000    0.000    0.000 
#    0.000    0.000    0.000    0.000    0.000    0.000 
#
# Total GULP energy -267567.022006 kJ/mol
# GULP energy per Si atom -5574.312958 kJ/mol
# Density = 2.081253 g / cm^3
# Si number density = 20.860007 Si / 1000 Ang^3
#
#
#
# Elastic Constant Matrix: (Units=GPa)
#
#
# Indices 1 2 3 4 5 6 
#
# 1 240.3795 120.8324 5.5071 0.0000 0.0000 0.0000
# 2 120.8324 134.1747 5.8221 0.0000 0.0000 0.0000
# 3 5.5071 5.8221 31.9958 0.0000 0.0000 0.0000
# 4 0.0000 0.0000 0.0000 16.5805 0.0000 0.0000
# 5 0.0000 0.0000 0.0000 0.0000 24.2591 0.0000
# 6 0.0000 0.0000 0.0000 0.0000 0.0000 45.9767
#
#
#
# Elastic Compliance Matrix: (Units=1/GPa)
#
#
# Indices 1 2 3 4 5 6 
#
# 1 0.007601 -0.006842 -0.000063 0.000000 0.000000 0.000000
# 2 -0.006842 0.013672 -0.001310 0.000000 0.000000 0.000000
# 3 -0.000063 -0.001310 0.031503 0.000000 0.000000 0.000000
# 4 0.000000 0.000000 0.000000 0.060312 0.000000 0.000000
# 5 0.000000 0.000000 0.000000 0.000000 0.041222 0.000000
# 6 0.000000 0.000000 0.000000 0.000000 0.000000 0.021750
#
#
# Mechanical properties :
#
#
# Convention : Reuss Voigt Hill
#
# Bulk Modulus (GPa) = 27.51422 74.54148 51.02785
# Shear Modulus (GPa) = 24.43714 35.65581 30.04647
#
# Velocity S-wave (km/s) = 3.42641 4.13884 3.79936
# Velocity P-wave (km/s) = 5.37329 7.65844 6.61529
#
# Compressibility (1/GPa) = 0.03634484
#
# Stress axis : x y z
#
# Youngs Moduli (GPa) = 131.56041 73.14285 31.74260
#
# Poissons Ratio (x) = 0.50048 0.00201
# Poissons Ratio (y) = 0.90020 0.04158
# Poissons Ratio (z) = 0.00832 0.09582
#
# Static dielectric constant tensor:
#      x y z
#    x 1.812480 0.000000 0.000000 
#    y 0.000000 1.708700 0.000000 
#    z 0.000000 0.000000 1.801850 
# 
# From -- ./inp_files/15152.got.cif
#   From: 2010.05.17/outbox.cif.g08.bks.cpg/sg62_8_cif.got.tgz:15152.got - 2010.06.03 15:25:27.
