data_PCOD9463294
_publ_section_title
;
Structure prediction by ZEFSAII (Michael W. Deem and Ramdas Pophale) SiO2 
 PCOD9463294
Probable space group: P N M A
;
_chemical_formula_sum "Si O2"
_cell_formula_units_Z 64
_cell_length_a 5.326443
_cell_length_b 27.092846
_cell_length_c 18.439389
_cell_angle_alpha 90.000000
_cell_angle_beta 90.000000
_cell_angle_gamma 90.000000
_cell_volume 2660.960566
_symmetry_space_group_name_H-M "P N M A"
_symmetry_group_IT_number 62
_symmetry_cell_setting 'orthorhombic'
loop_
_space_group_symop_operation_xyz
x,y,z
1/2-x,-y,1/2+z
1/2+x,1/2-y,1/2-z
-x,1/2+y,-z
-x,-y,-z
1/2+x,y,1/2-z
1/2-x,1/2+y,1/2+z
x,1/2-y,z
loop_
_atom_site_type_symbol
_atom_site_label
_atom_site_fract_x
_atom_site_fract_y
_atom_site_fract_z
Si Si1 0.265058 0.637563 0.796460
Si Si2 0.934184 0.533954 0.402460
Si Si3 0.622838 0.887916 0.442344
Si Si4 0.750397 0.521729 0.703776
Si Si5 0.012324 0.341101 0.439852
Si Si6 0.227896 0.804198 0.425725
Si Si7 0.089223 0.191031 0.712915
Si Si8 0.247348 0.938880 0.540691
O O1 0.992908 0.645473 0.760600
O O2 0.263767 0.579381 0.820129
O O3 0.339200 0.669925 0.866569
O O4 0.777724 0.582295 0.381676
O O5 0.176312 0.516962 0.358087
O O6 0.761393 0.485202 0.406764
O O7 0.032926 0.549492 0.481655
O O8 0.412889 0.850070 0.415284
O O9 0.490146 0.929609 0.492708
O O10 0.787641 0.858550 0.500457
O O11 0.983901 0.514719 0.758825
O O12 0.849980 0.304691 0.489623
O O13 0.827373 0.387354 0.422306
O O14 0.335658 0.750000 0.407385
O O15 0.995252 0.812626 0.370853
O O16 0.855434 0.171177 0.760093
O O17 0.107455 0.250000 0.726288
#
# Coordination Sequence:
#
# PCOD9463294 Si02
#       8
#     8   8   8   8   8   8   8   8
#     4  10  22  38  61  91 127 169 217 269 325 386
#     4  10  19  35  55  83 119 160 204 249 309 372
#     4  10  22  35  60  89 122 158 211 262 320 381
#     4  10  22  36  56  85 122 171 213 256 311 382
#     4  10  21  38  61  91 124 162 216 274 323 387
#     4  10  23  41  64  93 125 163 216 274 331 389
#     4   9  19  37  63  92 122 157 202 255 315 387
#     4   9  19  34  56  85 115 157 199 254 306 367
#
# _framework density 24.051463999999999
#
# number of rings (size 3 to 8) (size 9 to 14) (size 15 to 20)
#    0.000    2.250    1.250    0.375    7.000    1.500 
#    0.000    1.250    0.000    0.750    0.000    0.000 
#    0.000    0.000    0.000    0.000    0.000    0.000 
#
# Total GULP energy -357525.008141 kJ/mol
# GULP energy per Si atom -5586.328252 kJ/mol
# Density = 2.399672 g / cm^3
# Si number density = 24.051464 Si / 1000 Ang^3
#
#
#
# Elastic Constant Matrix: (Units=GPa)
#
#
# Indices 1 2 3 4 5 6 
#
# 1 87.3516 14.6800 13.2650 0.0000 0.0000 0.0000
# 2 14.6800 54.7565 15.1856 0.0000 0.0000 0.0000
# 3 13.2650 15.1856 85.0586 0.0000 0.0000 0.0000
# 4 0.0000 0.0000 0.0000 19.1584 0.0000 0.0000
# 5 0.0000 0.0000 0.0000 0.0000 37.5192 0.0000
# 6 0.0000 0.0000 0.0000 0.0000 0.0000 12.5073
#
#
#
# Elastic Compliance Matrix: (Units=1/GPa)
#
#
# Indices 1 2 3 4 5 6 
#
# 1 0.012140 -0.002872 -0.001381 0.000000 0.000000 0.000000
# 2 -0.002872 0.019893 -0.003104 0.000000 0.000000 0.000000
# 3 -0.001381 -0.003104 0.012526 0.000000 0.000000 0.000000
# 4 0.000000 0.000000 0.000000 0.052196 0.000000 0.000000
# 5 0.000000 0.000000 0.000000 0.000000 0.026653 0.000000
# 6 0.000000 0.000000 0.000000 0.000000 0.000000 0.079953
#
#
# Mechanical properties :
#
#
# Convention : Reuss Voigt Hill
#
# Bulk Modulus (GPa) = 33.50383 34.82531 34.16457
# Shear Modulus (GPa) = 21.92755 26.10605 24.01680
#
# Velocity S-wave (km/s) = 3.02270 3.29815 3.16343
# Velocity P-wave (km/s) = 5.11298 5.38653 5.25154
#
# Compressibility (1/GPa) = 0.02984733
#
# Stress axis : x y z
#
# Youngs Moduli (GPa) = 82.37049 50.26798 79.83389
#
# Poissons Ratio (x) = 0.14436 0.11022
# Poissons Ratio (y) = 0.23656 0.24778
# Poissons Ratio (z) = 0.11372 0.15602
#
# Static dielectric constant tensor:
#      x y z
#    x 1.973250 0.000000 0.000000 
#    y 0.000000 1.950090 0.000000 
#    z 0.000000 0.000000 1.947740 
# 
# From -- ./inp_files/25471.got.cif
#   From: 2010.05.17/outbox.cif.g08.bks.cpg/sg62_13_cif.got.tgz:25471.got - 2010.06.03 15:25:27.
