data_PCOD9463923
_publ_section_title
;
Structure prediction by ZEFSAII (Michael W. Deem and Ramdas Pophale) SiO2 
 PCOD9463923
Probable space group: P N M A
;
_chemical_formula_sum "Si O2"
_cell_formula_units_Z 28
_cell_length_a 7.781343
_cell_length_b 7.491996
_cell_length_c 18.224724
_cell_angle_alpha 90.000000
_cell_angle_beta 90.000000
_cell_angle_gamma 90.000000
_cell_volume 1062.461144
_symmetry_space_group_name_H-M "P N M A"
_symmetry_group_IT_number 62
_symmetry_cell_setting 'orthorhombic'
loop_
_space_group_symop_operation_xyz
x,y,z
1/2-x,-y,1/2+z
1/2+x,1/2-y,1/2-z
-x,1/2+y,-z
-x,-y,-z
1/2+x,y,1/2-z
1/2-x,1/2+y,1/2+z
x,1/2-y,z
loop_
_atom_site_type_symbol
_atom_site_label
_atom_site_fract_x
_atom_site_fract_y
_atom_site_fract_z
Si Si1 0.958731 0.750000 0.816366
Si Si2 0.169939 0.461594 0.548013
Si Si3 0.471966 0.458894 0.814336
Si Si4 0.379263 0.551884 0.410111
O O1 0.951781 0.592893 0.752295
O O2 0.998431 0.595939 0.877997
O O3 0.183425 0.250000 0.554576
O O4 0.122462 0.526857 0.630061
O O5 0.316726 0.527727 0.493504
O O6 0.000000 0.500000 0.500000
O O7 0.504385 0.250000 0.794087
O O8 0.295282 0.462555 0.860781
O O9 0.449421 0.750000 0.400279
#
# Coordination Sequence:
#
# PCOD9463923 Si02
#       4
#     4   8   8   8
#     4  12  20  30  50  78 110 138 168 204 268 306
#     4   9  16  29  49  74 102 133 166 204 255 310
#     4   9  20  33  49  75 107 137 169 208 255 310
#     4  10  20  33  50  76 107 138 171 210 256 311
#
# _framework density 26.353905999999998
#
# number of rings (size 3 to 8) (size 9 to 14) (size 15 to 20)
#    0.000    2.286    1.429    4.286    8.000    0.000 
#    0.000    0.000    0.000    0.000    0.000    8.000 
#    0.000    0.000    0.000    0.000    0.000    0.000 
#
# Total GULP energy -155954.987905 kJ/mol
# GULP energy per Si atom -5569.820997 kJ/mol
# Density = 2.629392 g / cm^3
# Si number density = 26.353906 Si / 1000 Ang^3
#
#
#
# Elastic Constant Matrix: (Units=GPa)
#
#
# Indices 1 2 3 4 5 6 
#
# 1 115.2172 6.8155 36.1844 0.0000 0.0000 0.0000
# 2 6.8155 178.6282 87.5586 0.0000 0.0000 0.0000
# 3 36.1844 87.5586 215.2104 0.0000 0.0000 0.0000
# 4 0.0000 0.0000 0.0000 43.1041 0.0000 0.0000
# 5 0.0000 0.0000 0.0000 0.0000 15.0281 0.0000
# 6 0.0000 0.0000 0.0000 0.0000 0.0000 -13.8129
#
#
#
# Elastic Compliance Matrix: (Units=1/GPa)
#
#
# Indices 1 2 3 4 5 6 
#
# 1 0.009200 0.000509 -0.001754 0.000000 0.000000 0.000000
# 2 0.000509 0.007021 -0.002942 0.000000 0.000000 0.000000
# 3 -0.001754 -0.002942 0.006138 0.000000 0.000000 0.000000
# 4 0.000000 0.000000 0.000000 0.023200 0.000000 0.000000
# 5 0.000000 0.000000 0.000000 0.000000 0.066542 0.000000
# 6 0.000000 0.000000 0.000000 0.000000 0.000000 -0.072396
#
#
# Mechanical properties :
#
#
# Convention : Reuss Voigt Hill
#
# Bulk Modulus (GPa) = 71.50499 85.57475 78.53987
# Shear Modulus (GPa) = 94.80355 34.09701 64.45028
#
# Velocity S-wave (km/s) = 6.00428 3.60086 4.95063
# Velocity P-wave (km/s) = 8.67525 7.05905 7.90854
#
# Compressibility (1/GPa) = 0.01398504
#
# Stress axis : x y z
#
# Youngs Moduli (GPa) = 108.69622 142.43212 162.90803
#
# Poissons Ratio (x) = -0.07245 0.28570
# Poissons Ratio (y) = -0.05529 0.47927
# Poissons Ratio (z) = 0.19063 0.41903
#
# Static dielectric constant tensor:
#      x y z
#    x 2.228610 0.000000 0.000000 
#    y 0.000000 1.959320 0.000000 
#    z 0.000000 0.000000 2.108150 
# 
# From -- ./inp_files/12702.got.cif
#   From: 2010.05.17/outbox.cif.g08.bks.cpg/sg62_7_cif.got.tgz:12702.got - 2010.06.03 15:25:27.
