data_PCOD9463510
_publ_section_title
;
Structure prediction by ZEFSAII (Michael W. Deem and Ramdas Pophale) SiO2 
 PCOD9463510
Probable space group: P N M A
;
_chemical_formula_sum "Si O2"
_cell_formula_units_Z 48
_cell_length_a 9.006524
_cell_length_b 32.809425
_cell_length_c 9.261858
_cell_angle_alpha 90.000000
_cell_angle_beta 90.000000
_cell_angle_gamma 90.000000
_cell_volume 2736.868607
_symmetry_space_group_name_H-M "P N M A"
_symmetry_group_IT_number 62
_symmetry_cell_setting 'orthorhombic'
loop_
_space_group_symop_operation_xyz
x,y,z
1/2-x,-y,1/2+z
1/2+x,1/2-y,1/2-z
-x,1/2+y,-z
-x,-y,-z
1/2+x,y,1/2-z
1/2-x,1/2+y,1/2+z
x,1/2-y,z
loop_
_atom_site_type_symbol
_atom_site_label
_atom_site_fract_x
_atom_site_fract_y
_atom_site_fract_z
Si Si1 0.970940 0.456979 0.574413
Si Si2 0.812440 0.838910 0.355710
Si Si3 0.831957 0.920793 0.177182
Si Si4 0.857980 0.634746 0.914017
Si Si5 0.494813 0.798294 0.399181
Si Si6 0.504493 0.623089 0.894501
O O1 0.801680 0.448369 0.619902
O O2 0.000000 0.500000 0.500000
O O3 0.063944 0.447173 0.719180
O O4 0.011280 0.422160 0.458805
O O5 0.777813 0.881799 0.273032
O O6 0.660470 0.816366 0.392188
O O7 0.910985 0.848889 0.495545
O O8 0.909456 0.812021 0.245927
O O9 0.902117 0.898548 0.037061
O O10 0.679623 0.633284 0.898862
O O11 0.937779 0.625825 0.764215
O O12 0.909375 0.678388 0.973228
O O13 0.495746 0.750000 0.414590
#
# Coordination Sequence:
#
# PCOD9463510 Si02
#       6
#     8   8   8   8   8   8
#     4  10  21  36  56  84 111 139 182 230 270 315
#     4  10  19  36  59  80 108 144 183 221 270 334
#     4   9  19  37  57  78 108 146 179 215 268 331
#     4  10  20  37  57  79 109 147 185 220 271 335
#     4  11  21  35  56  84 110 141 183 231 274 319
#     4  10  21  37  58  81 108 147 186 221 272 334
#
# _framework density 17.538291000000001
#
# number of rings (size 3 to 8) (size 9 to 14) (size 15 to 20)
#    0.000    2.000    0.000    6.500    0.000    4.000 
#    0.000    6.667    0.000    0.000    0.000    0.000 
#    0.000    0.000    0.000    0.000    0.000    0.000 
#
# Total GULP energy -267901.181129 kJ/mol
# GULP energy per Si atom -5581.274607 kJ/mol
# Density = 1.749837 g / cm^3
# Si number density = 17.538291 Si / 1000 Ang^3
#
#
#
# Elastic Constant Matrix: (Units=GPa)
#
#
# Indices 1 2 3 4 5 6 
#
# 1 95.9775 59.1271 58.5451 0.0000 0.0000 0.0000
# 2 59.1271 81.6925 53.1852 0.0000 0.0000 0.0000
# 3 58.5451 53.1852 148.5771 0.0000 0.0000 0.0000
# 4 0.0000 0.0000 0.0000 14.5599 0.0000 0.0000
# 5 0.0000 0.0000 0.0000 0.0000 33.8500 0.0000
# 6 0.0000 0.0000 0.0000 0.0000 0.0000 13.7049
#
#
#
# Elastic Compliance Matrix: (Units=1/GPa)
#
#
# Indices 1 2 3 4 5 6 
#
# 1 0.020139 -0.012269 -0.003544 0.000000 0.000000 0.000000
# 2 -0.012269 0.023435 -0.003554 0.000000 0.000000 0.000000
# 3 -0.003544 -0.003554 0.009399 0.000000 0.000000 0.000000
# 4 0.000000 0.000000 0.000000 0.068682 0.000000 0.000000
# 5 0.000000 0.000000 0.000000 0.000000 0.029542 0.000000
# 6 0.000000 0.000000 0.000000 0.000000 0.000000 0.072967
#
#
# Mechanical properties :
#
#
# Convention : Reuss Voigt Hill
#
# Bulk Modulus (GPa) = 70.22944 74.21798 72.22371
# Shear Modulus (GPa) = 18.68148 22.78229 20.73188
#
# Velocity S-wave (km/s) = 3.26725 3.60808 3.44189
# Velocity P-wave (km/s) = 7.37317 7.73092 7.55417
#
# Compressibility (1/GPa) = 0.01423904
#
# Stress axis : x y z
#
# Youngs Moduli (GPa) = 49.65455 42.67083 106.39179
#
# Poissons Ratio (x) = 0.52353 0.37702
# Poissons Ratio (y) = 0.60922 0.37816
# Poissons Ratio (z) = 0.17596 0.15167
#
# Static dielectric constant tensor:
#      x y z
#    x 1.597590 0.000000 0.000000 
#    y 0.000000 1.573750 0.000000 
#    z 0.000000 0.000000 1.591690 
# 
# From -- ./inp_files/4491.got.cif
#   From: 2010.05.17/outbox.cif.g08.bks.cpg/sg62_3_cif.got.tgz:4491.got - 2010.06.03 15:25:27.
