data_PCOD9463973
_publ_section_title
;
Structure prediction by ZEFSAII (Michael W. Deem and Ramdas Pophale) SiO2 
 PCOD9463973
Probable space group: P N M A
;
_chemical_formula_sum "Si O2"
_cell_formula_units_Z 48
_cell_length_a 32.006609
_cell_length_b 7.665324
_cell_length_c 9.611260
_cell_angle_alpha 90.000000
_cell_angle_beta 90.000000
_cell_angle_gamma 90.000000
_cell_volume 2358.036410
_symmetry_space_group_name_H-M "P N M A"
_symmetry_group_IT_number 62
_symmetry_cell_setting 'orthorhombic'
loop_
_space_group_symop_operation_xyz
x,y,z
1/2-x,-y,1/2+z
1/2+x,1/2-y,1/2-z
-x,1/2+y,-z
-x,-y,-z
1/2+x,y,1/2-z
1/2-x,1/2+y,1/2+z
x,1/2-y,z
loop_
_atom_site_type_symbol
_atom_site_label
_atom_site_fract_x
_atom_site_fract_y
_atom_site_fract_z
Si Si1 0.881121 0.464256 0.087359
Si Si2 0.040389 0.959698 0.092243
Si Si3 0.459473 0.460090 0.908280
Si Si4 0.710745 0.458886 0.904545
Si Si5 0.616533 0.957853 0.906252
Si Si6 0.211650 0.543121 0.919224
O O1 0.880878 0.250000 0.088575
O O2 0.888281 0.522541 0.247160
O O3 0.834700 0.523412 0.043507
O O4 0.918045 0.522790 0.986770
O O5 0.043632 0.750000 0.099182
O O6 0.036780 0.026268 0.250213
O O7 0.000000 0.000000 0.000000
O O8 0.456101 0.250000 0.899722
O O9 0.500000 0.500000 0.000000
O O10 0.418377 0.527093 0.988842
O O11 0.711657 0.250000 0.906666
O O12 0.748683 0.528802 0.998042
O O13 0.664268 0.511687 0.951225
O O14 0.716369 0.517728 0.745612
O O15 0.610562 0.750000 0.898657
O O16 0.210762 0.750000 0.946608
#
# Coordination Sequence:
#
# PCOD9463973 Si02
#       6
#     8   8   8   8   8   8
#     4   8  15  31  52  69  93 132 171 205 245 299
#     4  10  20  34  53  77 102 131 170 211 253 304
#     4  10  21  35  54  79 105 137 175 214 259 311
#     4  10  20  33  53  80 106 136 174 216 260 306
#     4   9  18  34  53  72 101 141 176 211 260 311
#     4   9  19  35  53  75 104 137 172 211 258 309
#
# _framework density 20.355920000000001
#
# number of rings (size 3 to 8) (size 9 to 14) (size 15 to 20)
#    0.000    2.667    0.000    2.500    0.000    5.333 
#    0.000    8.333    0.000    0.000    0.000    0.000 
#    0.000    0.000    0.000    0.000    0.000    0.000 
#
# Total GULP energy -267856.628950 kJ/mol
# GULP energy per Si atom -5580.346436 kJ/mol
# Density = 2.030959 g / cm^3
# Si number density = 20.355920 Si / 1000 Ang^3
#
#
#
# Elastic Constant Matrix: (Units=GPa)
#
#
# Indices 1 2 3 4 5 6 
#
# 1 227.8273 -4.3153 143.2563 0.0000 0.0000 0.0000
# 2 -4.3153 32.9083 2.9299 0.0000 0.0000 0.0000
# 3 143.2563 2.9299 142.7427 0.0000 0.0000 0.0000
# 4 0.0000 0.0000 0.0000 16.3593 0.0000 0.0000
# 5 0.0000 0.0000 0.0000 0.0000 46.1293 0.0000
# 6 0.0000 0.0000 0.0000 0.0000 0.0000 23.7156
#
#
#
# Elastic Compliance Matrix: (Units=1/GPa)
#
#
# Indices 1 2 3 4 5 6 
#
# 1 0.012128 0.002679 -0.012227 0.000000 0.000000 0.000000
# 2 0.002679 0.031035 -0.003326 0.000000 0.000000 0.000000
# 3 -0.012227 -0.003326 0.019345 0.000000 0.000000 0.000000
# 4 0.000000 0.000000 0.000000 0.061127 0.000000 0.000000
# 5 0.000000 0.000000 0.000000 0.000000 0.021678 0.000000
# 6 0.000000 0.000000 0.000000 0.000000 0.000000 0.042166
#
#
# Mechanical properties :
#
#
# Convention : Reuss Voigt Hill
#
# Bulk Modulus (GPa) = 27.20286 76.35777 51.78032
# Shear Modulus (GPa) = 22.17494 34.68134 28.42814
#
# Velocity S-wave (km/s) = 3.30413 4.13213 3.74110
# Velocity P-wave (km/s) = 5.28668 7.76909 6.64484
#
# Compressibility (1/GPa) = 0.03676083
#
# Stress axis : x y z
#
# Youngs Moduli (GPa) = 82.45291 32.22181 51.69394
#
# Poissons Ratio (x) = -0.08632 0.63205
# Poissons Ratio (y) = -0.22088 0.17191
# Poissons Ratio (z) = 1.00813 0.10716
#
# Static dielectric constant tensor:
#      x y z
#    x 1.715180 0.000000 0.000000 
#    y 0.000000 1.769030 0.000000 
#    z 0.000000 0.000000 1.704300 
# 
# From -- ./inp_files/10190.got.cif
#   From: 2010.05.17/outbox.cif.g08.bks.cpg/sg62_6_cif.got.tgz:10190.got - 2010.06.03 15:25:27.
