data_PCOD9463902
_publ_section_title
;
Structure prediction by ZEFSAII (Michael W. Deem and Ramdas Pophale) SiO2 
 PCOD9463902
Probable space group: P N M A
;
_chemical_formula_sum "Si O2"
_cell_formula_units_Z 56
_cell_length_a 18.088260
_cell_length_b 7.427258
_cell_length_c 19.976476
_cell_angle_alpha 90.000000
_cell_angle_beta 90.000000
_cell_angle_gamma 90.000000
_cell_volume 2683.763116
_symmetry_space_group_name_H-M "P N M A"
_symmetry_group_IT_number 62
_symmetry_cell_setting 'orthorhombic'
loop_
_space_group_symop_operation_xyz
x,y,z
1/2-x,-y,1/2+z
1/2+x,1/2-y,1/2-z
-x,1/2+y,-z
-x,-y,-z
1/2+x,y,1/2-z
1/2-x,1/2+y,1/2+z
x,1/2-y,z
loop_
_atom_site_type_symbol
_atom_site_label
_atom_site_fract_x
_atom_site_fract_y
_atom_site_fract_z
Si Si1 0.190563 0.969206 0.957323
Si Si2 0.284569 0.469648 0.610339
Si Si3 0.119667 0.469725 0.588280
Si Si4 0.580330 0.542333 0.307455
Si Si5 0.480037 0.041320 0.829756
Si Si6 0.469768 0.464030 0.425401
Si Si7 0.855374 0.967924 0.564019
O O1 0.189824 0.750000 0.956666
O O2 0.115048 0.029906 0.922870
O O3 0.269804 0.025002 0.928012
O O4 0.190287 0.023100 0.035539
O O5 0.286476 0.250000 0.610831
O O6 0.199329 0.523069 0.617808
O O7 0.343068 0.536321 0.664585
O O8 0.118115 0.250000 0.586903
O O9 0.118397 0.525052 0.510292
O O10 0.050657 0.536121 0.631226
O O11 0.597262 0.750000 0.290082
O O12 0.543846 0.460408 0.241307
O O13 0.523194 0.541149 0.369019
O O14 0.499904 0.250000 0.816945
O O15 0.410572 0.033914 0.879548
O O16 0.500000 0.500000 0.500000
O O17 0.469650 0.250000 0.415493
O O18 0.856585 0.750000 0.565336
#
# Coordination Sequence:
#
# PCOD9463902 Si02
#       7
#     8   8   8   8   8   8   8
#     4   8  15  29  51  75  95 123 169 209 242 301
#     4   8  13  27  50  69  91 130 172 199 239 305
#     4   8  15  29  52  75  95 130 175 210 246 305
#     4  10  20  34  50  72 105 142 173 206 252 309
#     4  10  20  33  48  76 109 132 166 217 263 298
#     4  11  20  33  55  78 102 133 171 216 258 300
#     4   9  17  32  55  75  94 133 177 209 251 309
#
# _framework density 20.866223999999999
#
# number of rings (size 3 to 8) (size 9 to 14) (size 15 to 20)
#    0.000    2.857    1.429    2.571    0.000    0.571 
#    2.571    1.429    0.000    0.857    0.000    0.000 
#    0.000    0.000    0.000    0.000    0.000    0.000 
#
# Total GULP energy -312482.357026 kJ/mol
# GULP energy per Si atom -5580.042090 kJ/mol
# Density = 2.081873 g / cm^3
# Si number density = 20.866224 Si / 1000 Ang^3
#
#
#
# Elastic Constant Matrix: (Units=GPa)
#
#
# Indices 1 2 3 4 5 6 
#
# 1 138.9480 -12.8628 79.6145 0.0000 0.0000 0.0000
# 2 -12.8628 65.7568 -8.9152 0.0000 0.0000 0.0000
# 3 79.6145 -8.9152 117.4304 0.0000 0.0000 0.0000
# 4 0.0000 0.0000 0.0000 1.6478 0.0000 0.0000
# 5 0.0000 0.0000 0.0000 0.0000 17.1040 0.0000
# 6 0.0000 0.0000 0.0000 0.0000 0.0000 12.0452
#
#
#
# Elastic Compliance Matrix: (Units=1/GPa)
#
#
# Indices 1 2 3 4 5 6 
#
# 1 0.011868 0.001243 -0.007952 0.000000 0.000000 0.000000
# 2 0.001243 0.015496 0.000333 0.000000 0.000000 0.000000
# 3 -0.007952 0.000333 0.013932 0.000000 0.000000 0.000000
# 4 0.000000 0.000000 0.000000 0.606874 0.000000 0.000000
# 5 0.000000 0.000000 0.000000 0.000000 0.058466 0.000000
# 6 0.000000 0.000000 0.000000 0.000000 0.000000 0.083021
#
#
# Mechanical properties :
#
#
# Convention : Reuss Voigt Hill
#
# Bulk Modulus (GPa) = 35.03080 48.64537 41.83808
# Shear Modulus (GPa) = 6.15822 23.77931 14.96876
#
# Velocity S-wave (km/s) = 1.71979 3.37947 2.68128
# Velocity P-wave (km/s) = 4.55723 6.21219 5.44792
#
# Compressibility (1/GPa) = 0.02854631
#
# Stress axis : x y z
#
# Youngs Moduli (GPa) = 84.25720 64.53284 71.77583
#
# Poissons Ratio (x) = -0.08025 0.57077
# Poissons Ratio (y) = -0.10477 -0.02393
# Poissons Ratio (z) = 0.67002 -0.02151
#
# Static dielectric constant tensor:
#      x y z
#    x 1.752930 0.000000 0.000000 
#    y 0.000000 1.817420 0.000000 
#    z 0.000000 0.000000 1.721670 
# 
# From -- ./inp_files/27571.got.cif
#   From: 2010.05.17/outbox.cif.g08.bks.cpg/sg62_14_cif.got.tgz:27571.got - 2010.06.03 15:25:27.
