data_PCOD9463805
_publ_section_title
;
Structure prediction by ZEFSAII (Michael W. Deem and Ramdas Pophale) SiO2 
 PCOD9463805
Probable space group: P N M A
;
_chemical_formula_sum "Si O2"
_cell_formula_units_Z 48
_cell_length_a 14.959217
_cell_length_b 19.321805
_cell_length_c 7.086338
_cell_angle_alpha 90.000000
_cell_angle_beta 90.000000
_cell_angle_gamma 90.000000
_cell_volume 2048.228572
_symmetry_space_group_name_H-M "P N M A"
_symmetry_group_IT_number 62
_symmetry_cell_setting 'orthorhombic'
loop_
_space_group_symop_operation_xyz
x,y,z
1/2-x,-y,1/2+z
1/2+x,1/2-y,1/2-z
-x,1/2+y,-z
-x,-y,-z
1/2+x,y,1/2-z
1/2-x,1/2+y,1/2+z
x,1/2-y,z
loop_
_atom_site_type_symbol
_atom_site_label
_atom_site_fract_x
_atom_site_fract_y
_atom_site_fract_z
Si Si1 0.903156 0.058239 0.487865
Si Si2 0.720536 0.666658 0.460549
Si Si3 0.424853 0.673231 0.612763
Si Si4 0.937597 0.067444 0.035089
Si Si5 0.222380 0.675881 0.581567
Si Si6 0.900606 0.596228 0.493832
O O1 0.914774 0.058612 0.258757
O O2 0.830237 0.116138 0.519379
O O3 0.998573 0.079354 0.579462
O O4 0.871108 0.982092 0.545972
O O5 0.707011 0.750000 0.404683
O O6 0.650496 0.601396 0.435385
O O7 0.720585 0.670618 0.690855
O O8 0.818793 0.637798 0.399316
O O9 0.459872 0.750000 0.632061
O O10 0.493076 0.628733 0.498852
O O11 0.326044 0.673804 0.531312
O O12 0.418676 0.639710 0.818274
O O13 0.000000 0.000000 0.000000
O O14 0.182120 0.750000 0.532629
#
# Coordination Sequence:
#
# PCOD9463805 Si02
#       6
#     8   8   8   8   8   8
#     4   9  18  30  45  72 105 127 159 204 248 298
#     4   9  17  30  48  70  94 126 170 206 239 290
#     4   9  17  31  51  73  97 126 167 209 244 288
#     4  10  20  31  48  75 101 134 166 199 252 296
#     4   8  15  27  46  71  97 125 158 198 243 285
#     4   9  17  29  48  72  97 125 158 206 255 284
#
# _framework density 23.434884
#
# number of rings (size 3 to 8) (size 9 to 14) (size 15 to 20)
#    0.000    3.000    0.000    2.000    2.333    4.667 
#    0.000    0.000    0.000    4.000    0.000   14.000 
#    0.000    0.000    0.000    0.000    0.000    0.000 
#
# Total GULP energy -267229.078133 kJ/mol
# GULP energy per Si atom -5567.272461 kJ/mol
# Density = 2.338155 g / cm^3
# Si number density = 23.434884 Si / 1000 Ang^3
#
#
#
# Elastic Constant Matrix: (Units=GPa)
#
#
# Indices 1 2 3 4 5 6 
#
# 1 61.5136 49.9926 -9.9007 0.0000 0.0000 0.0000
# 2 49.9926 199.4842 17.2094 0.0000 0.0000 0.0000
# 3 -9.9007 17.2094 80.5398 0.0000 0.0000 0.0000
# 4 0.0000 0.0000 0.0000 14.7037 0.0000 0.0000
# 5 0.0000 0.0000 0.0000 0.0000 0.6821 0.0000
# 6 0.0000 0.0000 0.0000 0.0000 0.0000 47.8356
#
#
#
# Elastic Compliance Matrix: (Units=1/GPa)
#
#
# Indices 1 2 3 4 5 6 
#
# 1 0.021538 -0.005732 0.003872 0.000000 0.000000 0.000000
# 2 -0.005732 0.006632 -0.002122 0.000000 0.000000 0.000000
# 3 0.003872 -0.002122 0.013346 0.000000 0.000000 0.000000
# 4 0.000000 0.000000 0.000000 0.068010 0.000000 0.000000
# 5 0.000000 0.000000 0.000000 0.000000 1.466033 0.000000
# 6 0.000000 0.000000 0.000000 0.000000 0.000000 0.020905
#
#
# Mechanical properties :
#
#
# Convention : Reuss Voigt Hill
#
# Bulk Modulus (GPa) = 29.80286 50.68225 40.24255
# Shear Modulus (GPa) = 3.09480 31.59337 17.34409
#
# Velocity S-wave (km/s) = 1.15042 3.67568 2.72342
# Velocity P-wave (km/s) = 3.80914 6.29984 5.20564
#
# Compressibility (1/GPa) = 0.03355383
#
# Stress axis : x y z
#
# Youngs Moduli (GPa) = 46.42953 150.77533 74.93100
#
# Poissons Ratio (x) = 0.86420 -0.29016
# Poissons Ratio (y) = 0.26612 0.15899
# Poissons Ratio (z) = -0.17979 0.31991
#
# Static dielectric constant tensor:
#      x y z
#    x 1.738890 0.000000 0.000000 
#    y 0.000000 1.925300 0.000000 
#    z 0.000000 0.000000 1.927200 
# 
# From -- ./inp_files/13448.got.cif
#   From: 2010.05.17/outbox.cif.g08.bks.cpg/sg62_7_cif.got.tgz:13448.got - 2010.06.03 15:25:27.
