data_PCOD9463797
_publ_section_title
;
Structure prediction by ZEFSAII (Michael W. Deem and Ramdas Pophale) SiO2 
 PCOD9463797
Probable space group: P N M A
;
_chemical_formula_sum "Si O2"
_cell_formula_units_Z 40
_cell_length_a 12.944785
_cell_length_b 9.184251
_cell_length_c 20.952844
_cell_angle_alpha 90.000000
_cell_angle_beta 90.000000
_cell_angle_gamma 90.000000
_cell_volume 2491.044956
_symmetry_space_group_name_H-M "P N M A"
_symmetry_group_IT_number 62
_symmetry_cell_setting 'orthorhombic'
loop_
_space_group_symop_operation_xyz
x,y,z
1/2-x,-y,1/2+z
1/2+x,1/2-y,1/2-z
-x,1/2+y,-z
-x,-y,-z
1/2+x,y,1/2-z
1/2-x,1/2+y,1/2+z
x,1/2-y,z
loop_
_atom_site_type_symbol
_atom_site_label
_atom_site_fract_x
_atom_site_fract_y
_atom_site_fract_z
Si Si1 0.319714 0.923534 0.165813
Si Si2 0.884465 0.424766 0.202890
Si Si3 0.663212 0.421584 0.158041
Si Si4 0.500923 0.923713 0.068246
Si Si5 0.385541 0.922070 0.691916
O O1 0.315285 0.750000 0.173844
O O2 0.396244 0.957333 0.107643
O O3 0.365975 0.995569 0.229956
O O4 0.204974 0.988067 0.158710
O O5 0.883704 0.250000 0.214958
O O6 0.996831 0.462422 0.175658
O O7 0.785377 0.456395 0.158949
O O8 0.649695 0.250000 0.143445
O O9 0.595245 0.516228 0.110745
O O10 0.627178 0.443487 0.231492
O O11 0.508360 0.750000 0.061449
O O12 0.500000 0.000000 0.000000
O O13 0.370052 0.750000 0.680007
#
# Coordination Sequence:
#
# PCOD9463797 Si02
#       5
#     8   8   8   8   8
#     4  10  20  31  46  73 104 130 163 207 254 295
#     4   9  17  31  51  75 102 133 164 199 245 300
#     4   9  17  30  50  74 101 130 164 204 245 294
#     4  11  23  36  51  71  99 135 172 210 249 293
#     4   9  17  30  51  75 102 134 164 198 245 302
#
# _framework density 16.057518999999999
#
# number of rings (size 3 to 8) (size 9 to 14) (size 15 to 20)
#    0.000    2.400    2.000    2.400    0.000    6.400 
#    0.000    0.000    0.000    1.200    0.000    0.000 
#    0.000    0.000    0.000    0.000    0.000    0.000 
#
# Total GULP energy -223019.371132 kJ/mol
# GULP energy per Si atom -5575.484278 kJ/mol
# Density = 1.602097 g / cm^3
# Si number density = 16.057519 Si / 1000 Ang^3
#
#
#
# Elastic Constant Matrix: (Units=GPa)
#
#
# Indices 1 2 3 4 5 6 
#
# 1 169.7401 64.1025 53.8845 0.0000 0.0000 0.0000
# 2 64.1025 54.1786 49.2996 0.0000 0.0000 0.0000
# 3 53.8845 49.2996 69.7458 0.0000 0.0000 0.0000
# 4 0.0000 0.0000 0.0000 22.4091 0.0000 0.0000
# 5 0.0000 0.0000 0.0000 0.0000 14.3476 0.0000
# 6 0.0000 0.0000 0.0000 0.0000 0.0000 28.6441
#
#
#
# Elastic Compliance Matrix: (Units=1/GPa)
#
#
# Indices 1 2 3 4 5 6 
#
# 1 0.010741 -0.014454 0.001919 0.000000 0.000000 0.000000
# 2 -0.014454 0.071181 -0.039147 0.000000 0.000000 0.000000
# 3 0.001919 -0.039147 0.040526 0.000000 0.000000 0.000000
# 4 0.000000 0.000000 0.000000 0.044625 0.000000 0.000000
# 5 0.000000 0.000000 0.000000 0.000000 0.069698 0.000000
# 6 0.000000 0.000000 0.000000 0.000000 0.000000 0.034911
#
#
# Mechanical properties :
#
#
# Convention : Reuss Voigt Hill
#
# Bulk Modulus (GPa) = 52.40213 69.80420 61.10316
# Shear Modulus (GPa) = 13.10933 21.50535 17.30734
#
# Velocity S-wave (km/s) = 2.86037 3.66357 3.28660
# Velocity P-wave (km/s) = 6.60407 7.83973 7.24828
#
# Compressibility (1/GPa) = 0.01908319
#
# Stress axis : x y z
#
# Youngs Moduli (GPa) = 93.10197 14.04874 24.67530
#
# Poissons Ratio (x) = 0.20306 -0.04734
# Poissons Ratio (y) = 1.34571 0.96596
# Poissons Ratio (z) = -0.17863 0.54996
#
# Static dielectric constant tensor:
#      x y z
#    x 1.570490 0.000000 0.000000 
#    y 0.000000 1.531510 0.000000 
#    z 0.000000 0.000000 1.495360 
# 
# From -- ./inp_files/22760.got.cif
#   From: 2010.05.17/outbox.cif.g08.bks.cpg/sg62_12_cif.got.tgz:22760.got - 2010.06.03 15:25:27.
