data_PCOD9463608
_publ_section_title
;
Structure prediction by ZEFSAII (Michael W. Deem and Ramdas Pophale) SiO2 
 PCOD9463608
Probable space group: P N M A
;
_chemical_formula_sum "Si O2"
_cell_formula_units_Z 48
_cell_length_a 11.844089
_cell_length_b 14.887850
_cell_length_c 13.637838
_cell_angle_alpha 90.000000
_cell_angle_beta 90.000000
_cell_angle_gamma 90.000000
_cell_volume 2404.801167
_symmetry_space_group_name_H-M "P N M A"
_symmetry_group_IT_number 62
_symmetry_cell_setting 'orthorhombic'
loop_
_space_group_symop_operation_xyz
x,y,z
1/2-x,-y,1/2+z
1/2+x,1/2-y,1/2-z
-x,1/2+y,-z
-x,-y,-z
1/2+x,y,1/2-z
1/2-x,1/2+y,1/2+z
x,1/2-y,z
loop_
_atom_site_type_symbol
_atom_site_label
_atom_site_fract_x
_atom_site_fract_y
_atom_site_fract_z
Si Si1 0.507761 0.250000 0.393670
Si Si2 0.401139 0.750000 0.939498
Si Si3 0.240799 0.416673 0.684813
Si Si4 0.205504 0.393215 0.114681
Si Si5 0.113138 0.750000 0.695822
Si Si6 0.676699 0.750000 0.448989
Si Si7 0.727355 0.856533 0.100653
Si Si8 0.018542 0.084869 0.567323
O O1 0.591371 0.165114 0.379736
O O2 0.411450 0.250000 0.310748
O O3 0.445663 0.250000 0.499458
O O4 0.267022 0.750000 0.960204
O O5 0.440287 0.836921 0.997171
O O6 0.483907 0.750000 0.845773
O O7 0.303662 0.511566 0.669115
O O8 0.298209 0.336956 0.620037
O O9 0.222777 0.386493 0.796346
O O10 0.116530 0.433687 0.643000
O O11 0.310716 0.334447 0.158515
O O12 0.231054 0.404811 0.998451
O O13 0.741965 0.750000 0.084034
O O14 0.596319 0.880636 0.113685
O O15 0.000000 0.000000 0.500000
#
# Coordination Sequence:
#
# PCOD9463608 Si02
#       8
#     4   4   8   8   4   4   8   8
#     4  11  27  43  69  93 146 188 224 293 349 417
#     4  10  19  36  66  88 126 165 230 285 317 396
#     4  11  25  41  70 106 134 179 238 283 351 423
#     4  11  24  46  68 102 139 180 235 287 349 418
#     4  11  21  43  69  97 126 185 238 273 343 412
#     4  10  25  42  60 102 138 178 226 283 349 405
#     4  12  22  43  71  99 137 184 225 284 354 411
#     4  11  20  40  67  96 132 176 226 290 336 402
#
# _framework density 19.960070999999999
#
# number of rings (size 3 to 8) (size 9 to 14) (size 15 to 20)
#    0.000    1.000    6.667    0.000    2.333    6.000 
#    0.000    0.000    0.000    0.000    0.000    0.000 
#    0.000    0.000    0.000    0.000    0.000    0.000 
#
# Total GULP energy -267855.245427 kJ/mol
# GULP energy per Si atom -5580.317613 kJ/mol
# Density = 1.991464 g / cm^3
# Si number density = 19.960071 Si / 1000 Ang^3
#
#
#
# Elastic Constant Matrix: (Units=GPa)
#
#
# Indices 1 2 3 4 5 6 
#
# 1 46.7960 12.7455 22.4542 0.0000 0.0000 0.0000
# 2 12.7455 98.8005 1.2908 0.0000 0.0000 0.0000
# 3 22.4542 1.2908 87.6820 0.0000 0.0000 0.0000
# 4 0.0000 0.0000 0.0000 33.4384 0.0000 0.0000
# 5 0.0000 0.0000 0.0000 0.0000 51.0562 0.0000
# 6 0.0000 0.0000 0.0000 0.0000 0.0000 18.7511
#
#
#
# Elastic Compliance Matrix: (Units=1/GPa)
#
#
# Indices 1 2 3 4 5 6 
#
# 1 0.025326 -0.003183 -0.006439 0.000000 0.000000 0.000000
# 2 -0.003183 0.010523 0.000660 0.000000 0.000000 0.000000
# 3 -0.006439 0.000660 0.013044 0.000000 0.000000 0.000000
# 4 0.000000 0.000000 0.000000 0.029906 0.000000 0.000000
# 5 0.000000 0.000000 0.000000 0.000000 0.019586 0.000000
# 6 0.000000 0.000000 0.000000 0.000000 0.000000 0.053330
#
#
# Mechanical properties :
#
#
# Convention : Reuss Voigt Hill
#
# Bulk Modulus (GPa) = 32.28917 34.02885 33.15901
# Shear Modulus (GPa) = 27.78370 33.76836 30.77603
#
# Velocity S-wave (km/s) = 3.73495 4.11761 3.93094
# Velocity P-wave (km/s) = 5.90015 6.30014 6.10342
#
# Compressibility (1/GPa) = 0.03097014
#
# Stress axis : x y z
#
# Youngs Moduli (GPa) = 39.48548 95.02642 76.66351
#
# Poissons Ratio (x) = 0.30247 0.49362
# Poissons Ratio (y) = 0.12568 -0.05061
# Poissons Ratio (z) = 0.25424 -0.06274
#
# Static dielectric constant tensor:
#      x y z
#    x 1.775460 0.000000 0.000000 
#    y 0.000000 1.685110 0.000000 
#    z 0.000000 0.000000 1.709660 
# 
# From -- ./inp_files/12298.got.cif
#   From: 2010.05.17/outbox.cif.g08.bks.cpg/sg62_7_cif.got.tgz:12298.got - 2010.06.03 15:25:27.
