data_PCOD9463063
_publ_section_title
;
Structure prediction by ZEFSAII (Michael W. Deem and Ramdas Pophale) SiO2 
 PCOD9463063
Probable space group: P N M A
;
_chemical_formula_sum "Si O2"
_cell_formula_units_Z 56
_cell_length_a 24.531634
_cell_length_b 21.645507
_cell_length_c 5.244514
_cell_angle_alpha 90.000000
_cell_angle_beta 90.000000
_cell_angle_gamma 90.000000
_cell_volume 2784.835127
_symmetry_space_group_name_H-M "P N M A"
_symmetry_group_IT_number 62
_symmetry_cell_setting 'orthorhombic'
loop_
_space_group_symop_operation_xyz
x,y,z
1/2-x,-y,1/2+z
1/2+x,1/2-y,1/2-z
-x,1/2+y,-z
-x,-y,-z
1/2+x,y,1/2-z
1/2-x,1/2+y,1/2+z
x,1/2-y,z
loop_
_atom_site_type_symbol
_atom_site_label
_atom_site_fract_x
_atom_site_fract_y
_atom_site_fract_z
Si Si1 0.545913 0.321276 0.169476
Si Si2 0.847308 0.098408 0.212161
Si Si3 0.372906 0.519165 0.002103
Si Si4 0.940743 0.436894 0.817796
Si Si5 0.241277 0.460154 0.439994
Si Si6 0.074987 0.818927 0.547336
Si Si7 0.561411 0.101500 0.650688
O O1 0.563166 0.250000 0.167505
O O2 0.480145 0.321668 0.216142
O O3 0.572564 0.360152 0.396178
O O4 0.555178 0.352555 0.894570
O O5 0.896038 0.072463 0.035807
O O6 0.787877 0.091747 0.090730
O O7 0.869956 0.164085 0.302465
O O8 0.847897 0.048642 0.441323
O O9 0.321892 0.557087 0.892971
O O10 0.393611 0.553511 0.253249
O O11 0.424445 0.499854 0.830417
O O12 0.932922 0.375067 0.647248
O O13 0.004085 0.434074 0.887086
O O14 0.254065 0.511702 0.223987
O O15 0.076801 0.750000 0.435576
#
# Coordination Sequence:
#
# PCOD9463063 Si02
#       7
#     8   8   8   8   8   8   8
#     4  10  21  37  55  79 108 143 187 227 268 325
#     4  10  19  34  55  78 110 142 182 230 273 321
#     4  10  22  34  52  82 114 146 181 218 276 336
#     4  10  19  34  50  82 114 145 176 226 278 326
#     4  10  20  35  55  77 106 142 180 217 261 322
#     4   9  19  34  53  79 108 142 183 227 276 326
#     4  11  22  34  56  82 112 146 179 224 281 330
#
# _framework density 20.108909000000001
#
# number of rings (size 3 to 8) (size 9 to 14) (size 15 to 20)
#    0.000    2.000    2.857    0.857    2.000    1.714 
#    0.000    0.000    0.000    1.714    0.000    0.000 
#    0.000    0.000    0.000    0.000    0.000    0.000 
#
# Total GULP energy -312156.033837 kJ/mol
# GULP energy per Si atom -5574.214890 kJ/mol
# Density = 2.006314 g / cm^3
# Si number density = 20.108909 Si / 1000 Ang^3
#
#
#
# Elastic Constant Matrix: (Units=GPa)
#
#
# Indices 1 2 3 4 5 6 
#
# 1 70.3243 20.4622 -1.8484 0.0000 0.0000 0.0000
# 2 20.4622 85.8354 15.2111 0.0000 0.0000 0.0000
# 3 -1.8484 15.2111 56.4254 0.0000 0.0000 0.0000
# 4 0.0000 0.0000 0.0000 21.2640 0.0000 0.0000
# 5 0.0000 0.0000 0.0000 0.0000 26.7616 0.0000
# 6 0.0000 0.0000 0.0000 0.0000 0.0000 22.6390
#
#
#
# Elastic Compliance Matrix: (Units=1/GPa)
#
#
# Indices 1 2 3 4 5 6 
#
# 1 0.015411 -0.003952 0.001570 0.000000 0.000000 0.000000
# 2 -0.003952 0.013248 -0.003701 0.000000 0.000000 0.000000
# 3 0.001570 -0.003701 0.018772 0.000000 0.000000 0.000000
# 4 0.000000 0.000000 0.000000 0.047028 0.000000 0.000000
# 5 0.000000 0.000000 0.000000 0.000000 0.037367 0.000000
# 6 0.000000 0.000000 0.000000 0.000000 0.000000 0.044172
#
#
# Mechanical properties :
#
#
# Convention : Reuss Voigt Hill
#
# Bulk Modulus (GPa) = 28.35642 31.13720 29.74681
# Shear Modulus (GPa) = 25.01030 26.05029 25.53030
#
# Velocity S-wave (km/s) = 3.53050 3.60316 3.56701
# Velocity P-wave (km/s) = 5.54538 5.72959 5.63824
#
# Compressibility (1/GPa) = 0.03526538
#
# Stress axis : x y z
#
# Youngs Moduli (GPa) = 64.88859 75.48209 53.27190
#
# Poissons Ratio (x) = 0.29831 -0.08365
# Poissons Ratio (y) = 0.25644 0.19715
# Poissons Ratio (z) = -0.10189 0.27935
#
# Static dielectric constant tensor:
#      x y z
#    x 1.775630 0.000000 0.000000 
#    y 0.000000 1.720910 0.000000 
#    z 0.000000 0.000000 1.807950 
# 
# From -- ./inp_files/2280.got.cif
#   From: 2010.05.17/outbox.cif.g08.bks.cpg/sg62_2_cif.got.tgz:2280.got - 2010.06.03 15:25:27.
