data_PCOD9463787
_publ_section_title
;
Structure prediction by ZEFSAII (Michael W. Deem and Ramdas Pophale) SiO2 
 PCOD9463787
Probable space group: P N M A
;
_chemical_formula_sum "Si O2"
_cell_formula_units_Z 52
_cell_length_a 8.190555
_cell_length_b 15.680993
_cell_length_c 20.841219
_cell_angle_alpha 90.000000
_cell_angle_beta 90.000000
_cell_angle_gamma 90.000000
_cell_volume 2676.763546
_symmetry_space_group_name_H-M "P N M A"
_symmetry_group_IT_number 62
_symmetry_cell_setting 'orthorhombic'
loop_
_space_group_symop_operation_xyz
x,y,z
1/2-x,-y,1/2+z
1/2+x,1/2-y,1/2-z
-x,1/2+y,-z
-x,-y,-z
1/2+x,y,1/2-z
1/2-x,1/2+y,1/2+z
x,1/2-y,z
loop_
_atom_site_type_symbol
_atom_site_label
_atom_site_fract_x
_atom_site_fract_y
_atom_site_fract_z
Si Si1 0.833850 0.250000 0.314777
Si Si2 0.511450 0.099501 0.977368
Si Si3 0.652456 0.444098 0.189359
Si Si4 0.592528 0.250000 0.072201
Si Si5 0.737146 0.936190 0.827798
Si Si6 0.689589 0.451620 0.573659
Si Si7 0.786771 0.250000 0.177090
Si Si8 0.837276 0.052868 0.940971
O O1 0.978353 0.250000 0.365439
O O2 0.732764 0.164911 0.326814
O O3 0.900268 0.250000 0.241281
O O4 0.336870 0.111491 0.944633
O O5 0.672049 0.107011 0.933530
O O6 0.544568 0.165702 0.033716
O O7 0.500000 0.000000 0.000000
O O8 0.459426 0.448208 0.174241
O O9 0.687112 0.473033 0.262289
O O10 0.753199 0.497890 0.136933
O O11 0.713191 0.346053 0.186500
O O12 0.778865 0.250000 0.098795
O O13 0.812022 0.975203 0.891674
O O14 0.512121 0.408730 0.576305
O O15 0.667122 0.519333 0.514591
#
# Coordination Sequence:
#
# PCOD9463787 Si02
#       8
#     4   8   8   4   8   8   4   8
#     4  10  20  30  48  75 119 163 204 241 280 363
#     4  10  20  36  62  82 118 156 198 263 296 355
#     4  11  20  33  52  80 120 162 205 247 302 368
#     4  12  20  36  62  88 114 178 214 236 324 360
#     4  11  20  33  52  80 120 162 205 247 302 368
#     4  10  20  35  55  80 110 149 198 254 303 346
#     4  10  20  30  48  75 119 163 204 241 280 363
#     4  10  20  35  55  80 110 149 198 254 303 346
#
# _framework density 19.426444
#
# number of rings (size 3 to 8) (size 9 to 14) (size 15 to 20)
#    0.000    1.538    3.077    4.615    0.000    0.000 
#    0.000    0.769    3.385    0.000    0.000    1.077 
#    0.000    0.000    0.000    0.000    0.000    0.000 
#
# Total GULP energy -289481.584841 kJ/mol
# GULP energy per Si atom -5566.953555 kJ/mol
# Density = 1.938223 g / cm^3
# Si number density = 19.426444 Si / 1000 Ang^3
#
#
#
# Elastic Constant Matrix: (Units=GPa)
#
#
# Indices 1 2 3 4 5 6 
#
# 1 126.4169 19.0738 18.4105 0.0000 0.0000 0.0000
# 2 19.0738 43.8270 46.4089 0.0000 0.0000 0.0000
# 3 18.4105 46.4089 110.9477 0.0000 0.0000 0.0000
# 4 0.0000 0.0000 0.0000 33.5867 0.0000 0.0000
# 5 0.0000 0.0000 0.0000 0.0000 36.5328 0.0000
# 6 0.0000 0.0000 0.0000 0.0000 0.0000 10.4932
#
#
#
# Elastic Compliance Matrix: (Units=1/GPa)
#
#
# Indices 1 2 3 4 5 6 
#
# 1 0.008470 -0.003946 0.000245 0.000000 0.000000 0.000000
# 2 -0.003946 0.042797 -0.017247 0.000000 0.000000 0.000000
# 3 0.000245 -0.017247 0.016187 0.000000 0.000000 0.000000
# 4 0.000000 0.000000 0.000000 0.029774 0.000000 0.000000
# 5 0.000000 0.000000 0.000000 0.000000 0.027373 0.000000
# 6 0.000000 0.000000 0.000000 0.000000 0.000000 0.095300
#
#
# Mechanical properties :
#
#
# Convention : Reuss Voigt Hill
#
# Bulk Modulus (GPa) = 39.12559 49.88644 44.50602
# Shear Modulus (GPa) = 18.49687 29.27577 23.88632
#
# Velocity S-wave (km/s) = 3.08904 3.88623 3.51034
# Velocity P-wave (km/s) = 5.73646 6.77292 6.27612
#
# Compressibility (1/GPa) = 0.02555872
#
# Stress axis : x y z
#
# Youngs Moduli (GPa) = 118.06422 23.36587 61.77765
#
# Poissons Ratio (x) = 0.09219 -0.01513
# Poissons Ratio (y) = 0.46582 1.06550
# Poissons Ratio (z) = -0.02891 0.40300
#
# Static dielectric constant tensor:
#      x y z
#    x 1.884280 0.000000 0.000000 
#    y 0.000000 1.701050 0.000000 
#    z 0.000000 0.000000 1.732480 
# 
# From -- ./inp_files/22422.got.cif
#   From: 2010.05.17/outbox.cif.g08.bks.cpg/sg62_12_cif.got.tgz:22422.got - 2010.06.03 15:25:27.
