data_PCOD9463587
_publ_section_title
;
Structure prediction by ZEFSAII (Michael W. Deem and Ramdas Pophale) SiO2 
 PCOD9463587
Probable space group: P N M A
;
_chemical_formula_sum "Si O2"
_cell_formula_units_Z 64
_cell_length_a 16.872723
_cell_length_b 7.853478
_cell_length_c 19.895522
_cell_angle_alpha 90.000000
_cell_angle_beta 90.000000
_cell_angle_gamma 90.000000
_cell_volume 2636.346844
_symmetry_space_group_name_H-M "P N M A"
_symmetry_group_IT_number 62
_symmetry_cell_setting 'orthorhombic'
loop_
_space_group_symop_operation_xyz
x,y,z
1/2-x,-y,1/2+z
1/2+x,1/2-y,1/2-z
-x,1/2+y,-z
-x,-y,-z
1/2+x,y,1/2-z
1/2-x,1/2+y,1/2+z
x,1/2-y,z
loop_
_atom_site_type_symbol
_atom_site_label
_atom_site_fract_x
_atom_site_fract_y
_atom_site_fract_z
Si Si1 0.826641 0.041945 0.699280
Si Si2 0.835858 0.058185 0.549515
Si Si3 0.496399 0.957587 0.207821
Si Si4 0.166692 0.944025 0.967110
Si Si5 0.919920 0.554951 0.160198
Si Si6 0.256982 0.043244 0.666983
Si Si7 0.398319 0.546815 0.087364
Si Si8 0.579378 0.051304 0.406388
O O1 0.820754 0.250000 0.696690
O O2 0.826083 0.975847 0.622983
O O3 0.763734 0.986880 0.755185
O O4 0.914293 0.993909 0.724915
O O5 0.862673 0.250000 0.561700
O O6 0.746153 0.050697 0.521844
O O7 0.892248 0.991269 0.491116
O O8 0.494827 0.750000 0.210145
O O9 0.435414 0.014308 0.265213
O O10 0.471140 0.013770 0.133363
O O11 0.186368 0.750000 0.984244
O O12 0.137606 0.960365 0.890794
O O13 0.097462 0.005446 0.016347
O O14 0.891151 0.750000 0.164774
O O15 0.006868 0.550526 0.125783
O O16 0.254847 0.250000 0.666553
O O17 0.180692 0.982916 0.625833
O O18 0.337954 0.988553 0.630754
O O19 0.398091 0.750000 0.092690
O O20 0.559651 0.250000 0.400595
#
# Coordination Sequence:
#
# PCOD9463587 Si02
#       8
#     8   8   8   8   8   8   8   8
#     4   9  19  37  62  90 120 157 205 250 297 364
#     4  11  23  39  62  90 120 157 204 254 306 358
#     4   9  19  37  63  91 117 159 209 249 293 360
#     4  12  25  41  59  86 125 162 202 248 300 361
#     4  11  22  39  64  91 122 159 203 248 296 358
#     4  10  19  36  62  88 118 159 202 247 298 358
#     4  10  21  37  62  90 121 159 205 249 300 359
#     4  12  23  38  61  90 124 160 199 244 301 362
#
# _framework density 24.276015000000001
#
# number of rings (size 3 to 8) (size 9 to 14) (size 15 to 20)
#    0.000    1.500    2.500    3.375    1.750    0.500 
#    0.000    2.500    0.000    0.000    0.000    0.000 
#    0.000    0.000    0.000    0.000    0.000    0.000 
#
# Total GULP energy -357930.255961 kJ/mol
# GULP energy per Si atom -5592.660249 kJ/mol
# Density = 2.422076 g / cm^3
# Si number density = 24.276015 Si / 1000 Ang^3
#
#
#
# Elastic Constant Matrix: (Units=GPa)
#
#
# Indices 1 2 3 4 5 6 
#
# 1 37.4206 -8.3609 0.3437 0.0000 0.0000 0.0000
# 2 -8.3609 46.0164 2.6757 0.0000 0.0000 0.0000
# 3 0.3437 2.6757 137.2121 0.0000 0.0000 0.0000
# 4 0.0000 0.0000 0.0000 24.4735 0.0000 0.0000
# 5 0.0000 0.0000 0.0000 0.0000 39.2425 0.0000
# 6 0.0000 0.0000 0.0000 0.0000 0.0000 8.6900
#
#
#
# Elastic Compliance Matrix: (Units=1/GPa)
#
#
# Indices 1 2 3 4 5 6 
#
# 1 0.027858 0.005071 -0.000169 0.000000 0.000000 0.000000
# 2 0.005071 0.022679 -0.000455 0.000000 0.000000 0.000000
# 3 -0.000169 -0.000455 0.007297 0.000000 0.000000 0.000000
# 4 0.000000 0.000000 0.000000 0.040860 0.000000 0.000000
# 5 0.000000 0.000000 0.000000 0.000000 0.025483 0.000000
# 6 0.000000 0.000000 0.000000 0.000000 0.000000 0.115074
#
#
# Mechanical properties :
#
#
# Convention : Reuss Voigt Hill
#
# Bulk Modulus (GPa) = 14.98576 23.32956 19.15766
# Shear Modulus (GPa) = 19.79418 29.54725 24.67072
#
# Velocity S-wave (km/s) = 2.85858 3.49253 3.19134
# Velocity P-wave (km/s) = 4.13301 5.08869 4.63554
#
# Compressibility (1/GPa) = 0.06673003
#
# Stress axis : x y z
#
# Youngs Moduli (GPa) = 35.89643 44.09313 137.03738
#
# Poissons Ratio (x) = -0.22361 0.02311
# Poissons Ratio (y) = -0.18205 0.06235
# Poissons Ratio (z) = 0.00605 0.02006
#
# Static dielectric constant tensor:
#      x y z
#    x 1.909500 0.000000 0.000000 
#    y 0.000000 1.929990 0.000000 
#    z 0.000000 0.000000 1.989170 
# 
# From -- ./inp_files/27620.got.cif
#   From: 2010.05.17/outbox.cif.g08.bks.cpg/sg62_14_cif.got.tgz:27620.got - 2010.06.03 15:25:27.
