data_PCOD9463534
_publ_section_title
;
Structure prediction by ZEFSAII (Michael W. Deem and Ramdas Pophale) SiO2 
 PCOD9463534
Probable space group: P N M A
;
_chemical_formula_sum "Si O2"
_cell_formula_units_Z 40
_cell_length_a 14.399633
_cell_length_b 7.519522
_cell_length_c 14.523637
_cell_angle_alpha 90.000000
_cell_angle_beta 90.000000
_cell_angle_gamma 90.000000
_cell_volume 1572.595554
_symmetry_space_group_name_H-M "P N M A"
_symmetry_group_IT_number 62
_symmetry_cell_setting 'orthorhombic'
loop_
_space_group_symop_operation_xyz
x,y,z
1/2-x,-y,1/2+z
1/2+x,1/2-y,1/2-z
-x,1/2+y,-z
-x,-y,-z
1/2+x,y,1/2-z
1/2-x,1/2+y,1/2+z
x,1/2-y,z
loop_
_atom_site_type_symbol
_atom_site_label
_atom_site_fract_x
_atom_site_fract_y
_atom_site_fract_z
Si Si1 0.593247 0.039402 0.443804
Si Si2 0.291014 0.454313 0.281268
Si Si3 0.386202 0.532074 0.895054
Si Si4 0.706704 0.453572 0.927899
Si Si5 0.992480 0.467842 0.234981
O O1 0.607167 0.250000 0.444174
O O2 0.568772 0.980120 0.339993
O O3 0.500000 0.000000 0.500000
O O4 0.690753 0.957930 0.474317
O O5 0.295560 0.250000 0.311802
O O6 0.202155 0.528426 0.333531
O O7 0.282907 0.454538 0.170415
O O8 0.392474 0.535367 0.297133
O O9 0.386928 0.750000 0.897527
O O10 0.475998 0.476801 0.836741
O O11 0.366520 0.471126 0.998654
O O12 0.682934 0.250000 0.908267
O O13 0.989249 0.250000 0.234746
#
# Coordination Sequence:
#
# PCOD9463534 Si02
#       5
#     8   8   8   8   8
#     4  11  21  37  61  87 115 149 197 245 288 342
#     4  10  19  36  60  82 108 148 197 239 283 345
#     4   9  18  35  56  80 113 153 195 234 282 354
#     4  11  22  36  57  85 118 153 190 240 293 342
#     4   9  18  34  59  82 106 152 199 232 278 353
#
# _framework density 25.435654
#
# number of rings (size 3 to 8) (size 9 to 14) (size 15 to 20)
#    0.000    2.000    2.000    2.400    0.000    4.000 
#    0.000    6.000    0.000    0.000    0.000    0.000 
#    0.000    0.000    0.000    0.000    0.000    0.000 
#
# Total GULP energy -223681.122772 kJ/mol
# GULP energy per Si atom -5592.028069 kJ/mol
# Density = 2.537776 g / cm^3
# Si number density = 25.435654 Si / 1000 Ang^3
#
#
#
# Elastic Constant Matrix: (Units=GPa)
#
#
# Indices 1 2 3 4 5 6 
#
# 1 45.9395 -2.6958 -3.6011 0.0000 0.0000 0.0000
# 2 -2.6958 78.9431 -1.3314 0.0000 0.0000 0.0000
# 3 -3.6011 -1.3314 90.4201 0.0000 0.0000 0.0000
# 4 0.0000 0.0000 0.0000 14.6827 0.0000 0.0000
# 5 0.0000 0.0000 0.0000 0.0000 51.4476 0.0000
# 6 0.0000 0.0000 0.0000 0.0000 0.0000 7.6216
#
#
#
# Elastic Compliance Matrix: (Units=1/GPa)
#
#
# Indices 1 2 3 4 5 6 
#
# 1 0.021882 0.000762 0.000883 0.000000 0.000000 0.000000
# 2 0.000762 0.012697 0.000217 0.000000 0.000000 0.000000
# 3 0.000883 0.000217 0.011098 0.000000 0.000000 0.000000
# 4 0.000000 0.000000 0.000000 0.068108 0.000000 0.000000
# 5 0.000000 0.000000 0.000000 0.000000 0.019437 0.000000
# 6 0.000000 0.000000 0.000000 0.000000 0.000000 0.131206
#
#
# Mechanical properties :
#
#
# Convention : Reuss Voigt Hill
#
# Bulk Modulus (GPa) = 20.24258 22.22733 21.23495
# Shear Modulus (GPa) = 18.03945 29.61243 23.82594
#
# Velocity S-wave (km/s) = 2.66601 3.41575 3.06390
# Velocity P-wave (km/s) = 4.17761 4.93093 4.56982
#
# Compressibility (1/GPa) = 0.04940081
#
# Stress axis : x y z
#
# Youngs Moduli (GPa) = 45.70037 78.75850 90.10755
#
# Poissons Ratio (x) = -0.06002 -0.07954
# Poissons Ratio (y) = -0.03483 -0.01958
# Poissons Ratio (z) = -0.04034 -0.01712
#
# Static dielectric constant tensor:
#      x y z
#    x 2.029470 0.000000 0.000000 
#    y 0.000000 1.980080 0.000000 
#    z 0.000000 0.000000 2.041440 
# 
# From -- ./inp_files/18594.got.cif
#   From: 2010.05.17/outbox.cif.g08.bks.cpg/sg62_10_cif.got.tgz:18594.got - 2010.06.03 15:25:27.
