data_PCOD9463684
_publ_section_title
;
Structure prediction by ZEFSAII (Michael W. Deem and Ramdas Pophale) SiO2 
 PCOD9463684
Probable space group: P N M A
;
_chemical_formula_sum "Si O2"
_cell_formula_units_Z 48
_cell_length_a 15.375211
_cell_length_b 8.402544
_cell_length_c 19.231818
_cell_angle_alpha 90.000000
_cell_angle_beta 90.000000
_cell_angle_gamma 90.000000
_cell_volume 2484.575625
_symmetry_space_group_name_H-M "P N M A"
_symmetry_group_IT_number 62
_symmetry_cell_setting 'orthorhombic'
loop_
_space_group_symop_operation_xyz
x,y,z
1/2-x,-y,1/2+z
1/2+x,1/2-y,1/2-z
-x,1/2+y,-z
-x,-y,-z
1/2+x,y,1/2-z
1/2-x,1/2+y,1/2+z
x,1/2-y,z
loop_
_atom_site_type_symbol
_atom_site_label
_atom_site_fract_x
_atom_site_fract_y
_atom_site_fract_z
Si Si1 0.506037 0.057005 0.287888
Si Si2 0.361775 0.055988 0.175838
Si Si3 0.303517 0.555809 0.760903
Si Si4 0.904185 0.058713 0.480032
Si Si5 0.245993 0.440983 0.417056
Si Si6 0.940371 0.939110 0.063065
O O1 0.505188 0.250000 0.290634
O O2 0.435093 0.006595 0.230854
O O3 0.600932 0.004439 0.262266
O O4 0.480343 0.995842 0.363634
O O5 0.362228 0.250000 0.174982
O O6 0.268913 0.004758 0.205617
O O7 0.381657 0.002785 0.098033
O O8 0.304128 0.750000 0.762019
O O9 0.275585 0.504585 0.838200
O O10 0.904003 0.250000 0.480681
O O11 0.830673 0.998355 0.532684
O O12 0.000000 0.000000 0.500000
O O13 0.247523 0.250000 0.416588
O O14 0.340968 0.499845 0.440126
O O15 0.938829 0.750000 0.060892
O O16 0.000000 0.000000 0.000000
#
# Coordination Sequence:
#
# PCOD9463684 Si02
#       6
#     8   8   8   8   8   8
#     4  10  19  37  65  91 117 156 206 253 301 365
#     4   9  18  35  58  88 120 158 204 247 300 373
#     4   9  18  34  62  91 116 155 203 250 306 375
#     4  11  23  39  62  93 129 169 212 256 307 368
#     4  11  22  42  68  94 125 164 208 258 314 374
#     4  12  26  43  62  90 125 165 209 259 316 374
#
# _framework density 19.319192999999999
#
# number of rings (size 3 to 8) (size 9 to 14) (size 15 to 20)
#    0.000    1.667    1.667    3.500    2.333    2.667 
#    0.000    5.000    0.000    0.000    0.000    0.000 
#    0.000    0.000    0.000    0.000    0.000    0.000 
#
# Total GULP energy -268251.840801 kJ/mol
# GULP energy per Si atom -5588.580017 kJ/mol
# Density = 1.927522 g / cm^3
# Si number density = 19.319193 Si / 1000 Ang^3
#
#
#
# Elastic Constant Matrix: (Units=GPa)
#
#
# Indices 1 2 3 4 5 6 
#
# 1 174.3537 27.4430 65.6809 0.0000 0.0000 0.0000
# 2 27.4430 49.5769 22.6549 0.0000 0.0000 0.0000
# 3 65.6809 22.6549 135.7082 0.0000 0.0000 0.0000
# 4 0.0000 0.0000 0.0000 29.9430 0.0000 0.0000
# 5 0.0000 0.0000 0.0000 0.0000 42.2452 0.0000
# 6 0.0000 0.0000 0.0000 0.0000 0.0000 26.0042
#
#
#
# Elastic Compliance Matrix: (Units=1/GPa)
#
#
# Indices 1 2 3 4 5 6 
#
# 1 0.007319 -0.002633 -0.003103 0.000000 0.000000 0.000000
# 2 -0.002633 0.022784 -0.002529 0.000000 0.000000 0.000000
# 3 -0.003103 -0.002529 0.009293 0.000000 0.000000 0.000000
# 4 0.000000 0.000000 0.000000 0.033397 0.000000 0.000000
# 5 0.000000 0.000000 0.000000 0.000000 0.023671 0.000000
# 6 0.000000 0.000000 0.000000 0.000000 0.000000 0.038455
#
#
# Mechanical properties :
#
#
# Convention : Reuss Voigt Hill
#
# Bulk Modulus (GPa) = 43.73426 65.68847 54.71137
# Shear Modulus (GPa) = 31.43257 35.89580 33.66419
#
# Velocity S-wave (km/s) = 4.03800 4.31517 4.17889
# Velocity P-wave (km/s) = 6.66539 7.67484 7.18786
#
# Compressibility (1/GPa) = 0.02286537
#
# Stress axis : x y z
#
# Youngs Moduli (GPa) = 136.63566 43.89026 107.61345
#
# Poissons Ratio (x) = 0.11558 0.33387
# Poissons Ratio (y) = 0.35983 0.27215
# Poissons Ratio (z) = 0.42392 0.11100
#
# Static dielectric constant tensor:
#      x y z
#    x 1.608470 0.000000 0.000000 
#    y 0.000000 1.671820 0.000000 
#    z 0.000000 0.000000 1.648820 
# 
# From -- ./inp_files/23712.got.cif
#   From: 2010.05.17/outbox.cif.g08.bks.cpg/sg62_12_cif.got.tgz:23712.got - 2010.06.03 15:25:27.
