data_PCOD9463868
_publ_section_title
;
Structure prediction by ZEFSAII (Michael W. Deem and Ramdas Pophale) SiO2 
 PCOD9463868
Probable space group: P N M A
;
_chemical_formula_sum "Si O2"
_cell_formula_units_Z 64
_cell_length_a 23.529037
_cell_length_b 7.886942
_cell_length_c 16.523704
_cell_angle_alpha 90.000000
_cell_angle_beta 90.000000
_cell_angle_gamma 90.000000
_cell_volume 3066.339279
_symmetry_space_group_name_H-M "P N M A"
_symmetry_group_IT_number 62
_symmetry_cell_setting 'orthorhombic'
loop_
_space_group_symop_operation_xyz
x,y,z
1/2-x,-y,1/2+z
1/2+x,1/2-y,1/2-z
-x,1/2+y,-z
-x,-y,-z
1/2+x,y,1/2-z
1/2-x,1/2+y,1/2+z
x,1/2-y,z
loop_
_atom_site_type_symbol
_atom_site_label
_atom_site_fract_x
_atom_site_fract_y
_atom_site_fract_z
Si Si1 0.505272 0.446129 0.242905
Si Si2 0.330814 0.555733 0.077176
Si Si3 0.165696 0.545573 0.941865
Si Si4 0.715868 0.550772 0.090409
Si Si5 0.043443 0.053177 0.571186
Si Si6 0.133508 0.954184 0.261924
Si Si7 0.212903 0.957654 0.116557
Si Si8 0.536164 0.545187 0.580642
O O1 0.487031 0.250000 0.239746
O O2 0.480702 0.530814 0.161742
O O3 0.572843 0.460047 0.236043
O O4 0.488144 0.514495 0.332170
O O5 0.338044 0.750000 0.105848
O O6 0.303867 0.553723 0.987529
O O7 0.393030 0.473567 0.071658
O O8 0.277747 0.480007 0.126984
O O9 0.164617 0.750000 0.939706
O O10 0.218580 0.485989 0.887305
O O11 0.101772 0.486200 0.925502
O O12 0.185736 0.490264 0.031264
O O13 0.711208 0.750000 0.070625
O O14 0.671943 0.511444 0.160640
O O15 0.052014 0.250000 0.553986
O O16 0.000000 0.000000 0.500000
O O17 0.124527 0.750000 0.257139
O O18 0.170267 0.010606 0.185751
O O19 0.215154 0.750000 0.116969
O O20 0.500000 0.500000 0.500000
O O21 0.536061 0.750000 0.582820
#
# Coordination Sequence:
#
# PCOD9463868 Si02
#       8
#     8   8   8   8   8   8   8   8
#     4  11  24  39  56  84 119 151 191 239 284 340
#     4   9  19  36  56  77 104 142 184 223 273 336
#     4   9  18  35  56  76 105 145 183 221 276 338
#     4  10  20  32  52  82 109 135 175 229 280 331
#     4  11  23  39  61  86 115 154 195 236 285 340
#     4  10  20  35  55  78 105 139 181 228 280 334
#     4   8  15  31  55  77  98 131 176 222 267 325
#     4  10  22  39  60  86 117 155 195 238 286 338
#
# _framework density 20.871793
#
# number of rings (size 3 to 8) (size 9 to 14) (size 15 to 20)
#    0.000    2.250    0.000    3.375    0.000    7.500 
#    0.000    5.000    0.000    0.000    0.000    0.000 
#    0.000    0.000    0.000    0.000    0.000    0.000 
#
# Total GULP energy -356871.057247 kJ/mol
# GULP energy per Si atom -5576.110269 kJ/mol
# Density = 2.082429 g / cm^3
# Si number density = 20.871793 Si / 1000 Ang^3
#
#
#
# Elastic Constant Matrix: (Units=GPa)
#
#
# Indices 1 2 3 4 5 6 
#
# 1 172.0906 4.8452 37.7451 0.0000 0.0000 0.0000
# 2 4.8452 9.5212 -0.6143 0.0000 0.0000 0.0000
# 3 37.7451 -0.6143 60.6129 0.0000 0.0000 0.0000
# 4 0.0000 0.0000 0.0000 13.3547 0.0000 0.0000
# 5 0.0000 0.0000 0.0000 0.0000 33.7776 0.0000
# 6 0.0000 0.0000 0.0000 0.0000 0.0000 10.8423
#
#
#
# Elastic Compliance Matrix: (Units=1/GPa)
#
#
# Indices 1 2 3 4 5 6 
#
# 1 0.006863 -0.003771 -0.004312 0.000000 0.000000 0.000000
# 2 -0.003771 0.107169 0.003434 0.000000 0.000000 0.000000
# 3 -0.004312 0.003434 0.019218 0.000000 0.000000 0.000000
# 4 0.000000 0.000000 0.000000 0.074880 0.000000 0.000000
# 5 0.000000 0.000000 0.000000 0.000000 0.029605 0.000000
# 6 0.000000 0.000000 0.000000 0.000000 0.000000 0.092232
#
#
# Mechanical properties :
#
#
# Convention : Reuss Voigt Hill
#
# Bulk Modulus (GPa) = 8.06757 36.24186 22.15472
# Shear Modulus (GPa) = 13.13781 24.94483 19.04132
#
# Velocity S-wave (km/s) = 2.51161 3.46084 3.02371
# Velocity P-wave (km/s) = 3.50494 5.77682 4.77788
#
# Compressibility (1/GPa) = 0.12395306
#
# Stress axis : x y z
#
# Youngs Moduli (GPa) = 145.71363 9.33108 52.03453
#
# Poissons Ratio (x) = 0.03518 0.22436
# Poissons Ratio (y) = 0.54942 -0.17869
# Poissons Ratio (z) = 0.62829 -0.03204
#
# Static dielectric constant tensor:
#      x y z
#    x 1.711530 0.000000 0.000000 
#    y 0.000000 1.775090 0.000000 
#    z 0.000000 0.000000 1.741590 
# 
# From -- ./inp_files/20882.got.cif
#   From: 2010.05.17/outbox.cif.g08.bks.cpg/sg62_11_cif.got.tgz:20882.got - 2010.06.03 15:25:27.
