data_PCOD9463115
_publ_section_title
;
Structure prediction by ZEFSAII (Michael W. Deem and Ramdas Pophale) SiO2 
 PCOD9463115
Probable space group: P N M A
;
_chemical_formula_sum "Si O2"
_cell_formula_units_Z 64
_cell_length_a 22.550736
_cell_length_b 7.435804
_cell_length_c 17.309733
_cell_angle_alpha 90.000000
_cell_angle_beta 90.000000
_cell_angle_gamma 90.000000
_cell_volume 2902.545413
_symmetry_space_group_name_H-M "P N M A"
_symmetry_group_IT_number 62
_symmetry_cell_setting 'orthorhombic'
loop_
_space_group_symop_operation_xyz
x,y,z
1/2-x,-y,1/2+z
1/2+x,1/2-y,1/2-z
-x,1/2+y,-z
-x,-y,-z
1/2+x,y,1/2-z
1/2-x,1/2+y,1/2+z
x,1/2-y,z
loop_
_atom_site_type_symbol
_atom_site_label
_atom_site_fract_x
_atom_site_fract_y
_atom_site_fract_z
Si Si1 0.567216 0.970461 0.158080
Si Si2 0.026478 0.540167 0.176280
Si Si3 0.102961 0.470325 0.874443
Si Si4 0.246111 0.964147 0.587905
Si Si5 0.623750 0.467822 0.450479
Si Si6 0.842402 0.965009 0.278509
Si Si7 0.940078 0.967642 0.401905
Si Si8 0.349348 0.043800 0.967028
O O1 0.569852 0.750000 0.156896
O O2 0.557206 0.031691 0.245966
O O3 0.507331 0.023137 0.112496
O O4 0.625481 0.035008 0.112577
O O5 0.015504 0.750000 0.193678
O O6 0.070445 0.525698 0.104446
O O7 0.961988 0.467794 0.153622
O O8 0.102806 0.250000 0.876578
O O9 0.149961 0.528102 0.809134
O O10 0.115742 0.528632 0.961340
O O11 0.248242 0.750000 0.576346
O O12 0.312815 0.031493 0.581431
O O13 0.202953 0.037137 0.519800
O O14 0.214647 0.990838 0.670246
O O15 0.623343 0.250000 0.450091
O O16 0.845047 0.750000 0.275813
O O17 0.899507 0.023055 0.328887
O O18 0.938593 0.750000 0.406964
O O19 0.906475 0.042281 0.476236
O O20 0.332028 0.250000 0.950904
#
# Coordination Sequence:
#
# PCOD9463115 Si02
#       8
#     8   8   8   8   8   8   8   8
#     4   9  16  28  47  72 103 130 159 203 252 297
#     4  10  19  34  55  79 104 130 166 217 263 301
#     4   9  17  33  57  80 102 131 170 212 258 307
#     4   9  19  35  50  68 102 138 168 205 250 296
#     4  10  21  37  53  72 102 138 171 209 258 307
#     4   9  16  30  54  79 100 129 170 209 246 297
#     4   9  15  26  46  71 101 131 158 199 253 298
#     4   9  17  29  46  69  96 131 168 202 242 296
#
# _framework density 22.049612
#
# number of rings (size 3 to 8) (size 9 to 14) (size 15 to 20)
#    0.000    2.750    1.250    0.750    0.000    0.500 
#    2.250    2.500    0.000    0.000    0.000    0.000 
#    0.000    0.000    0.000    0.000    0.000    0.000 
#
# Total GULP energy -357175.511569 kJ/mol
# GULP energy per Si atom -5580.867368 kJ/mol
# Density = 2.199943 g / cm^3
# Si number density = 22.049612 Si / 1000 Ang^3
#
#
#
# Elastic Constant Matrix: (Units=GPa)
#
#
# Indices 1 2 3 4 5 6 
#
# 1 80.8038 -3.4974 54.3891 0.0000 0.0000 0.0000
# 2 -3.4974 62.9072 -12.8106 0.0000 0.0000 0.0000
# 3 54.3891 -12.8106 76.0233 0.0000 0.0000 0.0000
# 4 0.0000 0.0000 0.0000 -64.9619 0.0000 0.0000
# 5 0.0000 0.0000 0.0000 0.0000 14.3142 0.0000
# 6 0.0000 0.0000 0.0000 0.0000 0.0000 7.5332
#
#
#
# Elastic Compliance Matrix: (Units=1/GPa)
#
#
# Indices 1 2 3 4 5 6 
#
# 1 0.024176 -0.002256 -0.017676 0.000000 0.000000 0.000000
# 2 -0.002256 0.016672 0.004423 0.000000 0.000000 0.000000
# 3 -0.017676 0.004423 0.026545 0.000000 0.000000 0.000000
# 4 0.000000 0.000000 0.000000 -0.015394 0.000000 0.000000
# 5 0.000000 0.000000 0.000000 0.000000 0.069861 0.000000
# 6 0.000000 0.000000 0.000000 0.000000 0.000000 0.132745
#
#
# Mechanical properties :
#
#
# Convention : Reuss Voigt Hill
#
# Bulk Modulus (GPa) = 27.49108 32.87739 30.18424
# Shear Modulus (GPa) = 16.79275 3.48732 10.14004
#
# Velocity S-wave (km/s) = 2.76269 1.25897 2.14679
# Velocity P-wave (km/s) = 4.76146 4.12994 4.45690
#
# Compressibility (1/GPa) = 0.03637543
#
# Stress axis : x y z
#
# Youngs Moduli (GPa) = 41.36366 59.98174 37.67172
#
# Poissons Ratio (x) = 0.13529 0.66589
# Poissons Ratio (y) = 0.09330 -0.16662
# Poissons Ratio (z) = 0.73115 -0.26530
#
# Static dielectric constant tensor:
#      x y z
#    x 1.775840 0.000000 0.000000 
#    y 0.000000 1.866430 0.000000 
#    z 0.000000 0.000000 1.808480 
# 
# From -- ./inp_files/24846.got.cif
#   From: 2010.05.17/outbox.cif.g08.bks.cpg/sg62_13_cif.got.tgz:24846.got - 2010.06.03 15:25:27.
