data_PCOD9463934
_publ_section_title
;
Structure prediction by ZEFSAII (Michael W. Deem and Ramdas Pophale) SiO2 
 PCOD9463934
Probable space group: P N M A
;
_chemical_formula_sum "Si O2"
_cell_formula_units_Z 56
_cell_length_a 8.093662
_cell_length_b 16.020566
_cell_length_c 16.317811
_cell_angle_alpha 90.000000
_cell_angle_beta 90.000000
_cell_angle_gamma 90.000000
_cell_volume 2115.849718
_symmetry_space_group_name_H-M "P N M A"
_symmetry_group_IT_number 62
_symmetry_cell_setting 'orthorhombic'
loop_
_space_group_symop_operation_xyz
x,y,z
1/2-x,-y,1/2+z
1/2+x,1/2-y,1/2-z
-x,1/2+y,-z
-x,-y,-z
1/2+x,y,1/2-z
1/2-x,1/2+y,1/2+z
x,1/2-y,z
loop_
_atom_site_type_symbol
_atom_site_label
_atom_site_fract_x
_atom_site_fract_y
_atom_site_fract_z
Si Si1 0.692374 0.959779 0.376443
Si Si2 0.065341 0.344171 0.574468
Si Si3 0.234206 0.082997 0.898844
Si Si4 0.029423 0.157800 0.770828
Si Si5 0.366703 0.119452 0.166283
Si Si6 0.748866 0.113764 0.148022
Si Si7 0.563499 0.125067 0.442967
O O1 0.773856 0.898320 0.441785
O O2 0.587367 0.913723 0.307577
O O3 0.576243 0.027583 0.417831
O O4 0.839428 0.018962 0.343188
O O5 0.065988 0.250000 0.544424
O O6 0.062237 0.342953 0.674342
O O7 0.901634 0.394272 0.552907
O O8 0.200594 0.139412 0.818886
O O9 0.248748 0.986686 0.871170
O O10 0.098381 0.122285 0.961112
O O11 0.967339 0.250000 0.793658
O O12 0.556017 0.140330 0.144869
O O13 0.316724 0.133078 0.260551
O O14 0.223405 0.157634 0.108184
O O15 0.888520 0.154521 0.090361
#
# Coordination Sequence:
#
# PCOD9463934 Si02
#       7
#     8   8   8   8   8   8   8
#     4  10  20  33  51  75 112 146 199 244 291 349
#     4  11  22  35  55  81 112 160 209 242 282 351
#     4  12  22  37  53  80 121 154 201 258 301 356
#     4  11  22  35  55  79 113 162 207 240 285 350
#     4  10  20  34  57  81 109 157 197 240 302 357
#     4  12  19  34  57  78 114 157 196 243 294 368
#     4  10  24  36  54  88 114 158 201 248 314 361
#
# _framework density 26.466909000000001
#
# number of rings (size 3 to 8) (size 9 to 14) (size 15 to 20)
#    0.857    0.286    4.286    3.857    0.000    4.571 
#    0.000    0.000    0.000    0.000    0.000    0.000 
#    0.000    4.571    0.000    0.000    0.000    1.143 
#
# Total GULP energy -313114.073822 kJ/mol
# GULP energy per Si atom -5591.322747 kJ/mol
# Density = 2.640667 g / cm^3
# Si number density = 26.466909 Si / 1000 Ang^3
#
#
#
# Elastic Constant Matrix: (Units=GPa)
#
#
# Indices 1 2 3 4 5 6 
#
# 1 188.3936 6.2545 29.4728 0.0000 0.0000 0.0000
# 2 6.2545 107.0378 -1.1151 0.0000 0.0000 0.0000
# 3 29.4728 -1.1151 131.0729 0.0000 0.0000 0.0000
# 4 0.0000 0.0000 0.0000 -2.4018 0.0000 0.0000
# 5 0.0000 0.0000 0.0000 0.0000 44.9883 0.0000
# 6 0.0000 0.0000 0.0000 0.0000 0.0000 -17.2863
#
#
#
# Elastic Compliance Matrix: (Units=1/GPa)
#
#
# Indices 1 2 3 4 5 6 
#
# 1 0.005514 -0.000335 -0.001243 0.000000 0.000000 0.000000
# 2 -0.000335 0.009364 0.000155 0.000000 0.000000 0.000000
# 3 -0.001243 0.000155 0.007910 0.000000 0.000000 0.000000
# 4 0.000000 0.000000 0.000000 -0.416351 0.000000 0.000000
# 5 0.000000 0.000000 0.000000 0.000000 0.022228 0.000000
# 6 0.000000 0.000000 0.000000 0.000000 0.000000 -0.057849
#
#
# Mechanical properties :
#
#
# Convention : Reuss Voigt Hill
#
# Bulk Modulus (GPa) = 50.14574 55.08099 52.61337
# Shear Modulus (GPa) = -11.91350 31.18617 9.63634
#
# Velocity S-wave (km/s) = -2.12392 3.43637 1.91018
# Velocity P-wave (km/s) = 3.60180 6.04990 4.97867
#
# Compressibility (1/GPa) = 0.01994187
#
# Stress axis : x y z
#
# Youngs Moduli (GPa) = 181.37099 106.79552 126.42107
#
# Poissons Ratio (x) = 0.03579 0.15709
# Poissons Ratio (y) = 0.06078 -0.01960
# Poissons Ratio (z) = 0.22538 -0.01655
#
# Static dielectric constant tensor:
#      x y z
#    x 2.208610 0.000000 0.000000 
#    y 0.000000 2.028130 0.000000 
#    z 0.000000 0.000000 2.092880 
# 
# From -- ./inp_files/17203.got.cif
#   From: 2010.05.17/outbox.cif.g08.bks.cpg/sg62_9_cif.got.tgz:17203.got - 2010.06.03 15:25:27.
