data_PCOD9463718
_publ_section_title
;
Structure prediction by ZEFSAII (Michael W. Deem and Ramdas Pophale) SiO2 
 PCOD9463718
Probable space group: P N M A
;
_chemical_formula_sum "Si O2"
_cell_formula_units_Z 56
_cell_length_a 16.648054
_cell_length_b 18.596747
_cell_length_c 8.834256
_cell_angle_alpha 90.000000
_cell_angle_beta 90.000000
_cell_angle_gamma 90.000000
_cell_volume 2735.082550
_symmetry_space_group_name_H-M "P N M A"
_symmetry_group_IT_number 62
_symmetry_cell_setting 'orthorhombic'
loop_
_space_group_symop_operation_xyz
x,y,z
1/2-x,-y,1/2+z
1/2+x,1/2-y,1/2-z
-x,1/2+y,-z
-x,-y,-z
1/2+x,y,1/2-z
1/2-x,1/2+y,1/2+z
x,1/2-y,z
loop_
_atom_site_type_symbol
_atom_site_label
_atom_site_fract_x
_atom_site_fract_y
_atom_site_fract_z
Si Si1 0.456853 0.666419 0.632030
Si Si2 0.137325 0.831685 0.383586
Si Si3 0.270548 0.056294 0.353247
Si Si4 0.365612 0.516952 0.089457
Si Si5 0.998215 0.605516 0.545022
Si Si6 0.381112 0.336707 0.545237
Si Si7 0.280423 0.664555 0.598184
O O1 0.459163 0.750000 0.680659
O O2 0.468018 0.621330 0.785691
O O3 0.529656 0.654345 0.518833
O O4 0.372198 0.655757 0.548892
O O5 0.160279 0.750000 0.353321
O O6 0.054123 0.833082 0.474709
O O7 0.125175 0.863295 0.217970
O O8 0.211825 0.858875 0.481631
O O9 0.204747 0.021756 0.464153
O O10 0.326444 0.110108 0.448684
O O11 0.228044 0.111459 0.238530
O O12 0.323297 0.001468 0.249781
O O13 0.432583 0.455985 0.055182
O O14 0.422727 0.586550 0.062182
O O15 0.362098 0.250000 0.529952
O O16 0.267462 0.750000 0.634765
#
# Coordination Sequence:
#
# PCOD9463718 Si02
#       7
#     8   8   8   8   8   8   8
#     4  10  19  38  68  97 124 162 211 261 318 380
#     4  10  21  40  65  94 129 166 205 263 329 374
#     4  12  23  43  62  90 125 171 218 259 313 379
#     4  11  26  39  64  89 127 170 216 258 310 382
#     4  11  21  43  61  94 126 166 209 260 312 382
#     4  10  22  41  66  93 125 165 212 266 318 375
#     4  10  20  38  68  97 124 162 210 269 319 370
#
# _framework density 20.474701
#
# number of rings (size 3 to 8) (size 9 to 14) (size 15 to 20)
#    0.000    1.429    4.286    0.857    2.000    2.286 
#    5.143    0.714    0.000    0.000    0.000    0.000 
#    0.000    0.000    0.000    0.000    0.000    0.000 
#
# Total GULP energy -312162.820087 kJ/mol
# GULP energy per Si atom -5574.336073 kJ/mol
# Density = 2.042810 g / cm^3
# Si number density = 20.474701 Si / 1000 Ang^3
#
#
#
# Elastic Constant Matrix: (Units=GPa)
#
#
# Indices 1 2 3 4 5 6 
#
# 1 159.3388 44.1596 64.8519 0.0000 0.0000 0.0000
# 2 44.1596 48.0353 26.1374 0.0000 0.0000 0.0000
# 3 64.8519 26.1374 103.7109 0.0000 0.0000 0.0000
# 4 0.0000 0.0000 0.0000 25.5438 0.0000 0.0000
# 5 0.0000 0.0000 0.0000 0.0000 23.2075 0.0000
# 6 0.0000 0.0000 0.0000 0.0000 0.0000 48.5304
#
#
#
# Elastic Compliance Matrix: (Units=1/GPa)
#
#
# Indices 1 2 3 4 5 6 
#
# 1 0.009988 -0.006703 -0.004556 0.000000 0.000000 0.000000
# 2 -0.006703 0.028625 -0.003023 0.000000 0.000000 0.000000
# 3 -0.004556 -0.003023 0.013253 0.000000 0.000000 0.000000
# 4 0.000000 0.000000 0.000000 0.039148 0.000000 0.000000
# 5 0.000000 0.000000 0.000000 0.000000 0.043089 0.000000
# 6 0.000000 0.000000 0.000000 0.000000 0.000000 0.020606
#
#
# Mechanical properties :
#
#
# Convention : Reuss Voigt Hill
#
# Bulk Modulus (GPa) = 42.91461 64.59811 53.75636
# Shear Modulus (GPa) = 26.17240 31.18542 28.67891
#
# Velocity S-wave (km/s) = 3.57918 3.90695 3.74665
# Velocity P-wave (km/s) = 6.17139 7.20910 6.71033
#
# Compressibility (1/GPa) = 0.02330209
#
# Stress axis : x y z
#
# Youngs Moduli (GPa) = 100.11925 34.93469 75.45373
#
# Poissons Ratio (x) = 0.23416 0.34380
# Poissons Ratio (y) = 0.67109 0.22807
# Poissons Ratio (z) = 0.45618 0.10560
#
# Static dielectric constant tensor:
#      x y z
#    x 1.724740 0.000000 0.000000 
#    y 0.000000 1.804410 0.000000 
#    z 0.000000 0.000000 1.724880 
# 
# From -- ./inp_files/6748.got.cif
#   From: 2010.05.17/outbox.cif.g08.bks.cpg/sg62_4_cif.got.tgz:6748.got - 2010.06.03 15:25:27.
