data_PCOD9463423
_publ_section_title
;
Structure prediction by ZEFSAII (Michael W. Deem and Ramdas Pophale) SiO2 
 PCOD9463423
Probable space group: P N M A
;
_chemical_formula_sum "Si O2"
_cell_formula_units_Z 56
_cell_length_a 20.016269
_cell_length_b 8.900372
_cell_length_c 16.709922
_cell_angle_alpha 90.000000
_cell_angle_beta 90.000000
_cell_angle_gamma 90.000000
_cell_volume 2976.910037
_symmetry_space_group_name_H-M "P N M A"
_symmetry_group_IT_number 62
_symmetry_cell_setting 'orthorhombic'
loop_
_space_group_symop_operation_xyz
x,y,z
1/2-x,-y,1/2+z
1/2+x,1/2-y,1/2-z
-x,1/2+y,-z
-x,-y,-z
1/2+x,y,1/2-z
1/2-x,1/2+y,1/2+z
x,1/2-y,z
loop_
_atom_site_type_symbol
_atom_site_label
_atom_site_fract_x
_atom_site_fract_y
_atom_site_fract_z
Si Si1 0.473324 0.570387 0.261171
Si Si2 0.737220 0.429405 0.745449
Si Si3 0.883681 0.070899 0.690270
Si Si4 0.441828 0.569938 0.446179
Si Si5 0.696186 0.570336 0.576945
Si Si6 0.654088 0.428297 0.024106
Si Si7 0.366313 0.428358 0.142289
O O1 0.463299 0.750000 0.251097
O O2 0.549584 0.534791 0.238484
O O3 0.457576 0.534431 0.353125
O O4 0.424538 0.485918 0.200711
O O5 0.727270 0.250000 0.746218
O O6 0.815969 0.462134 0.739033
O O7 0.704604 0.497045 0.664827
O O8 0.701353 0.502271 0.820848
O O9 0.883292 0.250000 0.673807
O O10 0.878749 0.985121 0.606292
O O11 0.500000 0.500000 0.500000
O O12 0.440119 0.750000 0.455228
O O13 0.369123 0.499754 0.463584
O O14 0.688910 0.750000 0.584525
O O15 0.766294 0.539540 0.532385
O O16 0.645793 0.250000 0.016161
O O17 0.625053 0.510527 0.947074
O O18 0.363299 0.250000 0.142824
#
# Coordination Sequence:
#
# PCOD9463423 Si02
#       7
#     8   8   8   8   8   8   8
#     4  10  22  41  62  86 119 161 201 244 302 363
#     4  10  19  35  60  86 115 154 195 245 303 357
#     4   9  20  39  62  87 118 155 200 248 299 359
#     4  11  23  38  60  88 122 162 202 249 302 360
#     4  10  20  37  60  85 114 150 196 246 296 355
#     4  10  22  39  60  87 119 156 198 248 303 355
#     4  12  24  37  59  89 120 158 205 249 295 358
#
# _framework density 18.811451999999999
#
# number of rings (size 3 to 8) (size 9 to 14) (size 15 to 20)
#    0.000    1.714    1.429    3.000    0.000    5.143 
#    0.000    2.857    0.000    0.000    0.000    0.000 
#    0.000    0.000    0.000    0.000    0.000    0.000 
#
# Total GULP energy -312951.709092 kJ/mol
# GULP energy per Si atom -5588.423377 kJ/mol
# Density = 1.876864 g / cm^3
# Si number density = 18.811452 Si / 1000 Ang^3
#
#
#
# Elastic Constant Matrix: (Units=GPa)
#
#
# Indices 1 2 3 4 5 6 
#
# 1 82.7459 44.5739 33.3113 0.0000 0.0000 0.0000
# 2 44.5739 56.2942 20.6960 0.0000 0.0000 0.0000
# 3 33.3113 20.6960 30.3696 0.0000 0.0000 0.0000
# 4 0.0000 0.0000 0.0000 32.2424 0.0000 0.0000
# 5 0.0000 0.0000 0.0000 0.0000 28.2796 0.0000
# 6 0.0000 0.0000 0.0000 0.0000 0.0000 22.3242
#
#
#
# Elastic Compliance Matrix: (Units=1/GPa)
#
#
# Indices 1 2 3 4 5 6 
#
# 1 0.028680 -0.014869 -0.021325 0.000000 0.000000 0.000000
# 2 -0.014869 0.031411 -0.005096 0.000000 0.000000 0.000000
# 3 -0.021325 -0.005096 0.059792 0.000000 0.000000 0.000000
# 4 0.000000 0.000000 0.000000 0.031015 0.000000 0.000000
# 5 0.000000 0.000000 0.000000 0.000000 0.035361 0.000000
# 6 0.000000 0.000000 0.000000 0.000000 0.000000 0.044794
#
#
# Mechanical properties :
#
#
# Convention : Reuss Voigt Hill
#
# Bulk Modulus (GPa) = 26.80875 40.73022 33.76949
# Shear Modulus (GPa) = 15.33429 21.29114 18.31271
#
# Velocity S-wave (km/s) = 2.85819 3.36790 3.12346
# Velocity P-wave (km/s) = 5.01743 6.06815 5.56763
#
# Compressibility (1/GPa) = 0.03730126
#
# Stress axis : x y z
#
# Youngs Moduli (GPa) = 34.86791 31.83648 16.72477
#
# Poissons Ratio (x) = 0.47337 0.35666
# Poissons Ratio (y) = 0.51844 0.08524
# Poissons Ratio (z) = 0.74356 0.16225
#
# Static dielectric constant tensor:
#      x y z
#    x 1.657220 0.000000 0.000000 
#    y 0.000000 1.623740 0.000000 
#    z 0.000000 0.000000 1.618880 
# 
# From -- ./inp_files/20198.got.cif
#   From: 2010.05.17/outbox.cif.g08.bks.cpg/sg62_11_cif.got.tgz:20198.got - 2010.06.03 15:25:27.
