data_PCOD9463980
_publ_section_title
;
Structure prediction by ZEFSAII (Michael W. Deem and Ramdas Pophale) SiO2 
 PCOD9463980
Probable space group: P N M A
;
_chemical_formula_sum "Si O2"
_cell_formula_units_Z 56
_cell_length_a 14.263162
_cell_length_b 9.592172
_cell_length_c 20.521397
_cell_angle_alpha 90.000000
_cell_angle_beta 90.000000
_cell_angle_gamma 90.000000
_cell_volume 2807.628839
_symmetry_space_group_name_H-M "P N M A"
_symmetry_group_IT_number 62
_symmetry_cell_setting 'orthorhombic'
loop_
_space_group_symop_operation_xyz
x,y,z
1/2-x,-y,1/2+z
1/2+x,1/2-y,1/2-z
-x,1/2+y,-z
-x,-y,-z
1/2+x,y,1/2-z
1/2-x,1/2+y,1/2+z
x,1/2-y,z
loop_
_atom_site_type_symbol
_atom_site_label
_atom_site_fract_x
_atom_site_fract_y
_atom_site_fract_z
Si Si1 0.369377 0.588052 0.662831
Si Si2 0.852781 0.090289 0.500792
Si Si3 0.222358 0.911204 0.762702
Si Si4 0.496060 0.083927 0.567253
Si Si5 0.011349 0.904743 0.716933
Si Si6 0.209650 0.415098 0.889284
Si Si7 0.964897 0.908798 0.405340
O O1 0.366484 0.750000 0.639498
O O2 0.270628 0.546309 0.694670
O O3 0.414645 0.486331 0.610345
O O4 0.435602 0.583084 0.726546
O O5 0.835317 0.250000 0.479447
O O6 0.765777 0.042329 0.545353
O O7 0.943823 0.090465 0.547952
O O8 0.882513 0.994476 0.440807
O O9 0.250357 0.750000 0.774550
O O10 0.111852 0.915522 0.751160
O O11 0.244681 0.002754 0.825824
O O12 0.482126 0.250000 0.558209
O O13 0.598276 0.064934 0.600992
O O14 0.500000 0.000000 0.500000
O O15 0.003618 0.750000 0.686781
O O16 0.005506 0.018569 0.661332
O O17 0.227572 0.250000 0.880875
O O18 0.936361 0.750000 0.394795
#
# Coordination Sequence:
#
# PCOD9463980 Si02
#       7
#     8   8   8   8   8   8   8
#     4  10  21  39  61  86 117 152 195 241 291 353
#     4   9  19  36  55  77 110 147 184 230 283 338
#     4  10  21  36  59  87 113 149 191 234 289 348
#     4  11  24  41  62  86 116 156 199 246 299 351
#     4  10  20  35  55  80 113 148 179 225 283 335
#     4  10  21  38  60  85 112 150 197 242 291 348
#     4  10  20  33  53  82 112 145 185 230 280 335
#
# _framework density 19.945656
#
# number of rings (size 3 to 8) (size 9 to 14) (size 15 to 20)
#    0.000    2.000    1.429    1.714    0.000    4.571 
#    0.000    5.714    0.000    0.000    0.000    0.000 
#    0.000    0.000    0.000    0.000    0.000    0.000 
#
# Total GULP energy -312767.286100 kJ/mol
# GULP energy per Si atom -5585.130109 kJ/mol
# Density = 1.990026 g / cm^3
# Si number density = 19.945656 Si / 1000 Ang^3
#
#
#
# Elastic Constant Matrix: (Units=GPa)
#
#
# Indices 1 2 3 4 5 6 
#
# 1 28.5145 1.3086 -6.2741 0.0000 0.0000 0.0000
# 2 1.3086 96.3139 55.3195 0.0000 0.0000 0.0000
# 3 -6.2741 55.3195 70.1210 0.0000 0.0000 0.0000
# 4 0.0000 0.0000 0.0000 40.3442 0.0000 0.0000
# 5 0.0000 0.0000 0.0000 0.0000 28.4167 0.0000
# 6 0.0000 0.0000 0.0000 0.0000 0.0000 19.4665
#
#
#
# Elastic Compliance Matrix: (Units=1/GPa)
#
#
# Indices 1 2 3 4 5 6 
#
# 1 0.036752 -0.004367 0.006733 0.000000 0.000000 0.000000
# 2 -0.004367 0.019504 -0.015778 0.000000 0.000000 0.000000
# 3 0.006733 -0.015778 0.027311 0.000000 0.000000 0.000000
# 4 0.000000 0.000000 0.000000 0.024787 0.000000 0.000000
# 5 0.000000 0.000000 0.000000 0.000000 0.035191 0.000000
# 6 0.000000 0.000000 0.000000 0.000000 0.000000 0.051370
#
#
# Mechanical properties :
#
#
# Convention : Reuss Voigt Hill
#
# Bulk Modulus (GPa) = 17.62286 32.85082 25.23684
# Shear Modulus (GPa) = 20.77681 27.28517 24.03099
#
# Velocity S-wave (km/s) = 3.23099 3.70263 3.47482
# Velocity P-wave (km/s) = 4.77218 5.89790 5.36465
#
# Compressibility (1/GPa) = 0.05674447
#
# Stress axis : x y z
#
# Youngs Moduli (GPa) = 27.20953 51.27025 36.61508
#
# Poissons Ratio (x) = 0.22388 -0.24654
# Poissons Ratio (y) = 0.11882 0.57772
# Poissons Ratio (z) = -0.18321 0.80895
#
# Static dielectric constant tensor:
#      x y z
#    x 1.741930 0.000000 0.000000 
#    y 0.000000 1.682830 0.000000 
#    z 0.000000 0.000000 1.685630 
# 
# From -- ./inp_files/27303.got.cif
#   From: 2010.05.17/outbox.cif.g08.bks.cpg/sg62_14_cif.got.tgz:27303.got - 2010.06.03 15:25:27.
