data_PCOD9463994
_publ_section_title
;
Structure prediction by ZEFSAII (Michael W. Deem and Ramdas Pophale) SiO2 
 PCOD9463994
Probable space group: P N M A
;
_chemical_formula_sum "Si O2"
_cell_formula_units_Z 48
_cell_length_a 10.604675
_cell_length_b 23.065931
_cell_length_c 8.311785
_cell_angle_alpha 90.000000
_cell_angle_beta 90.000000
_cell_angle_gamma 90.000000
_cell_volume 2033.118315
_symmetry_space_group_name_H-M "P N M A"
_symmetry_group_IT_number 62
_symmetry_cell_setting 'orthorhombic'
loop_
_space_group_symop_operation_xyz
x,y,z
1/2-x,-y,1/2+z
1/2+x,1/2-y,1/2-z
-x,1/2+y,-z
-x,-y,-z
1/2+x,y,1/2-z
1/2-x,1/2+y,1/2+z
x,1/2-y,z
loop_
_atom_site_type_symbol
_atom_site_label
_atom_site_fract_x
_atom_site_fract_y
_atom_site_fract_z
Si Si1 0.412969 0.146057 0.616318
Si Si2 0.791650 0.921578 0.771169
Si Si3 0.504389 0.312059 0.934553
Si Si4 0.046208 0.847036 0.774570
Si Si5 0.168091 0.430243 0.577795
Si Si6 0.098752 0.457237 0.915193
O O1 0.414147 0.181755 0.780040
O O2 0.417134 0.180000 0.447205
O O3 0.302201 0.098706 0.618829
O O4 0.537006 0.106109 0.604384
O O5 0.653089 0.896435 0.742075
O O6 0.828558 0.954415 0.604835
O O7 0.903530 0.872604 0.779503
O O8 0.797925 0.951185 0.945006
O O9 0.574235 0.250000 0.917378
O O10 0.581620 0.372143 0.932466
O O11 0.441737 0.312033 0.109961
O O12 0.131071 0.470140 0.729441
O O13 0.000000 0.500000 0.000000
#
# Coordination Sequence:
#
# PCOD9463994 Si02
#       6
#     8   8   8   8   8   8
#     4   9  19  37  54  76 112 151 181 236 293 334
#     4   9  18  35  57  77 106 150 181 225 285 336
#     4  10  20  33  55  83 108 145 192 232 279 342
#     4   9  18  35  56  76 109 147 182 224 282 332
#     4   9  19  37  55  75 113 150 183 235 292 335
#     4  10  20  35  54  83 111 142 195 238 285 347
#
# _framework density 23.609052999999999
#
# number of rings (size 3 to 8) (size 9 to 14) (size 15 to 20)
#    0.000    2.667    0.000    1.000    0.000    2.000 
#    9.000    6.667    0.000    0.000    0.000    0.000 
#    0.000    0.000    0.000    0.000    0.000    0.000 
#
# Total GULP energy -267376.188432 kJ/mol
# GULP energy per Si atom -5570.337259 kJ/mol
# Density = 2.355532 g / cm^3
# Si number density = 23.609053 Si / 1000 Ang^3
#
#
#
# Elastic Constant Matrix: (Units=GPa)
#
#
# Indices 1 2 3 4 5 6 
#
# 1 31.0124 6.1328 1.8837 0.0000 0.0000 0.0000
# 2 6.1328 64.2267 43.2507 0.0000 0.0000 0.0000
# 3 1.8837 43.2507 194.0799 0.0000 0.0000 0.0000
# 4 0.0000 0.0000 0.0000 -49.4939 0.0000 0.0000
# 5 0.0000 0.0000 0.0000 0.0000 34.8260 0.0000
# 6 0.0000 0.0000 0.0000 0.0000 0.0000 -0.8557
#
#
#
# Elastic Compliance Matrix: (Units=1/GPa)
#
#
# Indices 1 2 3 4 5 6 
#
# 1 0.032899 -0.003443 0.000448 0.000000 0.000000 0.000000
# 2 -0.003443 0.018679 -0.004129 0.000000 0.000000 0.000000
# 3 0.000448 -0.004129 0.006068 0.000000 0.000000 0.000000
# 4 0.000000 0.000000 0.000000 -0.020205 0.000000 0.000000
# 5 0.000000 0.000000 0.000000 0.000000 0.028714 0.000000
# 6 0.000000 0.000000 0.000000 0.000000 0.000000 -1.168668
#
#
# Mechanical properties :
#
#
# Convention : Reuss Voigt Hill
#
# Bulk Modulus (GPa) = 23.04265 43.53928 33.29096
# Shear Modulus (GPa) = -4.65637 12.76541 4.05452
#
# Velocity S-wave (km/s) = -1.40590 2.32782 1.31190
# Velocity P-wave (km/s) = 2.67317 5.07019 4.05294
#
# Compressibility (1/GPa) = 0.04339778
#
# Stress axis : x y z
#
# Youngs Moduli (GPa) = 30.39620 53.53525 164.78879
#
# Poissons Ratio (x) = 0.18433 -0.07382
# Poissons Ratio (y) = 0.10466 0.68046
# Poissons Ratio (z) = -0.01362 0.22106
#
# Static dielectric constant tensor:
#      x y z
#    x 1.976110 0.000000 0.000000 
#    y 0.000000 2.038040 0.000000 
#    z 0.000000 0.000000 1.986870 
# 
# From -- ./inp_files/5283.got.cif
#   From: 2010.05.17/outbox.cif.g08.bks.cpg/sg62_3_cif.got.tgz:5283.got - 2010.06.03 15:25:27.
