data_PCOD9463924
_publ_section_title
;
Structure prediction by ZEFSAII (Michael W. Deem and Ramdas Pophale) SiO2 
 PCOD9463924
Probable space group: P N M A
;
_chemical_formula_sum "Si O2"
_cell_formula_units_Z 40
_cell_length_a 9.740991
_cell_length_b 14.422850
_cell_length_c 16.111923
_cell_angle_alpha 90.000000
_cell_angle_beta 90.000000
_cell_angle_gamma 90.000000
_cell_volume 2263.610014
_symmetry_space_group_name_H-M "P N M A"
_symmetry_group_IT_number 62
_symmetry_cell_setting 'orthorhombic'
loop_
_space_group_symop_operation_xyz
x,y,z
1/2-x,-y,1/2+z
1/2+x,1/2-y,1/2-z
-x,1/2+y,-z
-x,-y,-z
1/2+x,y,1/2-z
1/2-x,1/2+y,1/2+z
x,1/2-y,z
loop_
_atom_site_type_symbol
_atom_site_label
_atom_site_fract_x
_atom_site_fract_y
_atom_site_fract_z
Si Si1 0.460663 0.856161 0.927607
Si Si2 0.211879 0.639067 0.805387
Si Si3 0.490562 0.095118 0.449678
Si Si4 0.269347 0.442950 0.122480
Si Si5 0.736660 0.649427 0.427880
O O1 0.510855 0.750000 0.918936
O O2 0.357929 0.874939 0.850888
O O3 0.589355 0.923691 0.925649
O O4 0.365131 0.859708 0.008856
O O5 0.186575 0.750000 0.801950
O O6 0.212713 0.595431 0.714920
O O7 0.097324 0.594265 0.865051
O O8 0.646250 0.113340 0.422348
O O9 0.398001 0.153470 0.513201
O O10 0.500000 0.000000 0.500000
O O11 0.234430 0.552962 0.122228
O O12 0.747869 0.750000 0.384332
#
# Coordination Sequence:
#
# PCOD9463924 Si02
#       5
#     8   8   8   8   8
#     4   9  18  31  48  72 100 128 160 203 255 304
#     4  10  20  33  50  76 108 133 158 208 272 313
#     4   9  19  34  53  76 101 135 173 209 254 310
#     4  11  19  29  51  79 101 128 170 213 253 305
#     4   9  19  35  50  67 100 140 170 203 251 306
#
# _framework density 17.670888999999999
#
# number of rings (size 3 to 8) (size 9 to 14) (size 15 to 20)
#    0.000    2.400    0.000    4.200    0.000    4.800 
#    0.000    0.000    0.000   12.000    0.000    5.600 
#    0.000    0.000    0.000    0.000    0.000    0.000 
#
# Total GULP energy -222745.966636 kJ/mol
# GULP energy per Si atom -5568.649166 kJ/mol
# Density = 1.763067 g / cm^3
# Si number density = 17.670889 Si / 1000 Ang^3
#
#
#
# Elastic Constant Matrix: (Units=GPa)
#
#
# Indices 1 2 3 4 5 6 
#
# 1 96.8728 51.3520 24.7215 0.0000 0.0000 0.0000
# 2 51.3520 90.6885 28.6511 0.0000 0.0000 0.0000
# 3 24.7215 28.6511 58.5880 0.0000 0.0000 0.0000
# 4 0.0000 0.0000 0.0000 4.2886 0.0000 0.0000
# 5 0.0000 0.0000 0.0000 0.0000 13.7770 0.0000
# 6 0.0000 0.0000 0.0000 0.0000 0.0000 -13.7666
#
#
#
# Elastic Compliance Matrix: (Units=1/GPa)
#
#
# Indices 1 2 3 4 5 6 
#
# 1 0.015075 -0.007719 -0.002586 0.000000 0.000000 0.000000
# 2 -0.007719 0.016994 -0.005054 0.000000 0.000000 0.000000
# 3 -0.002586 -0.005054 0.020631 0.000000 0.000000 0.000000
# 4 0.000000 0.000000 0.000000 0.233178 0.000000 0.000000
# 5 0.000000 0.000000 0.000000 0.000000 0.072585 0.000000
# 6 0.000000 0.000000 0.000000 0.000000 0.000000 -0.072640
#
#
# Mechanical properties :
#
#
# Convention : Reuss Voigt Hill
#
# Bulk Modulus (GPa) = 45.49065 50.62206 48.05636
# Shear Modulus (GPa) = 15.43845 10.28812 12.86329
#
# Velocity S-wave (km/s) = 2.95899 2.41552 2.70096
# Velocity P-wave (km/s) = 6.12155 6.04061 6.08121
#
# Compressibility (1/GPa) = 0.02198254
#
# Stress axis : x y z
#
# Youngs Moduli (GPa) = 66.33714 58.84401 48.47114
#
# Poissons Ratio (x) = 0.45421 0.12535
# Poissons Ratio (y) = 0.51205 0.24495
# Poissons Ratio (z) = 0.17155 0.29737
#
# Static dielectric constant tensor:
#      x y z
#    x 1.630860 0.000000 0.000000 
#    y 0.000000 1.616900 0.000000 
#    z 0.000000 0.000000 1.575200 
# 
# From -- ./inp_files/16681.got.cif
#   From: 2010.05.17/outbox.cif.g08.bks.cpg/sg62_9_cif.got.tgz:16681.got - 2010.06.03 15:25:27.
