data_PCOD9463716
_publ_section_title
;
Structure prediction by ZEFSAII (Michael W. Deem and Ramdas Pophale) SiO2 
 PCOD9463716
Probable space group: P N M A
;
_chemical_formula_sum "Si O2"
_cell_formula_units_Z 48
_cell_length_a 15.287935
_cell_length_b 16.783924
_cell_length_c 8.995262
_cell_angle_alpha 90.000000
_cell_angle_beta 90.000000
_cell_angle_gamma 90.000000
_cell_volume 2308.108122
_symmetry_space_group_name_H-M "P N M A"
_symmetry_group_IT_number 62
_symmetry_cell_setting 'orthorhombic'
loop_
_space_group_symop_operation_xyz
x,y,z
1/2-x,-y,1/2+z
1/2+x,1/2-y,1/2-z
-x,1/2+y,-z
-x,-y,-z
1/2+x,y,1/2-z
1/2-x,1/2+y,1/2+z
x,1/2-y,z
loop_
_atom_site_type_symbol
_atom_site_label
_atom_site_fract_x
_atom_site_fract_y
_atom_site_fract_z
Si Si1 0.376933 0.250000 0.163056
Si Si2 0.639522 0.376647 0.196217
Si Si3 0.042531 0.250000 0.864495
Si Si4 0.960132 0.416713 0.929661
Si Si5 0.438866 0.750000 0.010631
Si Si6 0.830279 0.415424 0.173594
Si Si7 0.695337 0.250000 0.441317
Si Si8 0.987221 0.006667 0.326156
O O1 0.356754 0.171222 0.259813
O O2 0.299168 0.250000 0.042006
O O3 0.471771 0.250000 0.087993
O O4 0.726809 0.428616 0.175100
O O5 0.664584 0.323036 0.337458
O O6 0.550085 0.422065 0.227017
O O7 0.618255 0.324613 0.049578
O O8 0.037943 0.250000 0.684751
O O9 0.002714 0.329136 0.943357
O O10 0.144512 0.250000 0.906244
O O11 0.971635 0.431194 0.755120
O O12 0.866237 0.415940 0.006070
O O13 0.000000 0.500000 0.000000
O O14 0.888877 0.476307 0.271363
O O15 0.000000 0.000000 0.500000
#
# Coordination Sequence:
#
# PCOD9463716 Si02
#       8
#     4   8   4   8   4   8   4   8
#     4  10  19  38  66  90 123 167 214 263 338 398
#     4  10  21  39  65  88 122 175 215 265 329 400
#     4  12  23  41  65  94 134 166 215 289 327 389
#     4  10  23  39  65  95 128 175 223 266 332 392
#     4  11  22  38  64  94 130 172 215 268 344 396
#     4  10  21  39  63  92 123 165 224 268 323 401
#     4   9  20  37  63  92 117 163 216 264 323 403
#     4  11  22  39  61  89 130 171 215 269 335 396
#
# _framework density 20.796254000000001
#
# number of rings (size 3 to 8) (size 9 to 14) (size 15 to 20)
#    0.000    1.667    1.667    4.000    2.333    1.333 
#    3.000    1.667    0.000    0.000    0.000    0.000 
#    0.000    0.000    0.000    0.000    0.000    0.000 
#
# Total GULP energy -267444.591799 kJ/mol
# GULP energy per Si atom -5571.762329 kJ/mol
# Density = 2.074892 g / cm^3
# Si number density = 20.796254 Si / 1000 Ang^3
#
#
#
# Elastic Constant Matrix: (Units=GPa)
#
#
# Indices 1 2 3 4 5 6 
#
# 1 93.7758 8.3921 8.8786 0.0000 0.0000 0.0000
# 2 8.3921 61.7585 11.6231 0.0000 0.0000 0.0000
# 3 8.8786 11.6231 76.3022 0.0000 0.0000 0.0000
# 4 0.0000 0.0000 0.0000 8.6499 0.0000 0.0000
# 5 0.0000 0.0000 0.0000 0.0000 22.9589 0.0000
# 6 0.0000 0.0000 0.0000 0.0000 0.0000 23.1378
#
#
#
# Elastic Compliance Matrix: (Units=1/GPa)
#
#
# Indices 1 2 3 4 5 6 
#
# 1 0.010879 -0.001277 -0.001071 0.000000 0.000000 0.000000
# 2 -0.001277 0.016820 -0.002414 0.000000 0.000000 0.000000
# 3 -0.001071 -0.002414 0.013598 0.000000 0.000000 0.000000
# 4 0.000000 0.000000 0.000000 0.115609 0.000000 0.000000
# 5 0.000000 0.000000 0.000000 0.000000 0.043556 0.000000
# 6 0.000000 0.000000 0.000000 0.000000 0.000000 0.043219
#
#
# Mechanical properties :
#
#
# Convention : Reuss Voigt Hill
#
# Bulk Modulus (GPa) = 31.47242 32.18045 31.82644
# Shear Modulus (GPa) = 18.95404 24.47884 21.71644
#
# Velocity S-wave (km/s) = 3.02224 3.43458 3.23499
# Velocity P-wave (km/s) = 5.22926 5.58894 5.41209
#
# Compressibility (1/GPa) = 0.03177385
#
# Stress axis : x y z
#
# Youngs Moduli (GPa) = 91.91661 59.45364 73.53958
#
# Poissons Ratio (x) = 0.07590 0.07880
# Poissons Ratio (y) = 0.11735 0.17749
# Poissons Ratio (z) = 0.09849 0.14350
#
# Static dielectric constant tensor:
#      x y z
#    x 1.727400 0.000000 0.000000 
#    y 0.000000 2.045050 0.000000 
#    z 0.000000 0.000000 1.815740 
# 
# From -- ./inp_files/6555.got.cif
#   From: 2010.05.17/outbox.cif.g08.bks.cpg/sg62_4_cif.got.tgz:6555.got - 2010.06.03 15:25:27.
