data_PCOD9463401
_publ_section_title
;
Structure prediction by ZEFSAII (Michael W. Deem and Ramdas Pophale) SiO2 
 PCOD9463401
Probable space group: P N M A
;
_chemical_formula_sum "Si O2"
_cell_formula_units_Z 48
_cell_length_a 22.321574
_cell_length_b 8.302240
_cell_length_c 12.589204
_cell_angle_alpha 90.000000
_cell_angle_beta 90.000000
_cell_angle_gamma 90.000000
_cell_volume 2333.019508
_symmetry_space_group_name_H-M "P N M A"
_symmetry_group_IT_number 62
_symmetry_cell_setting 'orthorhombic'
loop_
_space_group_symop_operation_xyz
x,y,z
1/2-x,-y,1/2+z
1/2+x,1/2-y,1/2-z
-x,1/2+y,-z
-x,-y,-z
1/2+x,y,1/2-z
1/2-x,1/2+y,1/2+z
x,1/2-y,z
loop_
_atom_site_type_symbol
_atom_site_label
_atom_site_fract_x
_atom_site_fract_y
_atom_site_fract_z
Si Si1 0.931406 0.058766 0.508225
Si Si2 0.305187 0.057795 0.587669
Si Si3 0.859415 0.053834 0.135256
Si Si4 0.493548 0.444025 0.379639
Si Si5 0.176615 0.554588 0.638672
Si Si6 0.604845 0.442789 0.238255
O O1 0.934296 0.250000 0.497872
O O2 0.884927 0.000354 0.417822
O O3 0.902086 0.013808 0.621192
O O4 0.000000 0.000000 0.500000
O O5 0.311694 0.250000 0.591738
O O6 0.337263 0.997189 0.479695
O O7 0.235750 0.011729 0.583367
O O8 0.337289 0.987389 0.692090
O O9 0.858154 0.250000 0.131708
O O10 0.927776 0.004417 0.156392
O O11 0.822030 0.003884 0.237873
O O12 0.500000 0.500000 0.500000
O O13 0.495375 0.250000 0.377284
O O14 0.547652 0.502532 0.306752
O O15 0.178088 0.750000 0.634769
O O16 0.601965 0.250000 0.228938
#
# Coordination Sequence:
#
# PCOD9463401 Si02
#       6
#     8   8   8   8   8   8
#     4  11  24  43  68  96 129 166 212 265 321 386
#     4  11  23  39  61  92 125 162 207 258 313 373
#     4   9  19  38  62  85 118 157 196 247 308 364
#     4  10  19  35  59  88 119 155 198 247 303 364
#     4  10  23  43  64  88 122 166 208 255 311 374
#     4  11  23  39  63  92 128 169 211 257 314 376
#
# _framework density 20.574196000000001
#
# number of rings (size 3 to 8) (size 9 to 14) (size 15 to 20)
#    0.000    1.667    1.667    2.500    2.333    4.667 
#    0.000    1.667    0.000    0.000    0.000    0.000 
#    0.000    0.000    0.000    0.000    0.000    0.000 
#
# Total GULP energy -268132.284133 kJ/mol
# GULP energy per Si atom -5586.089253 kJ/mol
# Density = 2.052737 g / cm^3
# Si number density = 20.574196 Si / 1000 Ang^3
#
#
#
# Elastic Constant Matrix: (Units=GPa)
#
#
# Indices 1 2 3 4 5 6 
#
# 1 110.8745 11.1078 27.4008 0.0000 0.0000 0.0000
# 2 11.1078 14.5376 2.7711 0.0000 0.0000 0.0000
# 3 27.4008 2.7711 100.5991 0.0000 0.0000 0.0000
# 4 0.0000 0.0000 0.0000 23.3150 0.0000 0.0000
# 5 0.0000 0.0000 0.0000 0.0000 25.8400 0.0000
# 6 0.0000 0.0000 0.0000 0.0000 0.0000 31.1043
#
#
#
# Elastic Compliance Matrix: (Units=1/GPa)
#
#
# Indices 1 2 3 4 5 6 
#
# 1 0.010417 -0.007458 -0.002632 0.000000 0.000000 0.000000
# 2 -0.007458 0.074489 -0.000021 0.000000 0.000000 0.000000
# 3 -0.002632 -0.000021 0.010658 0.000000 0.000000 0.000000
# 4 0.000000 0.000000 0.000000 0.042891 0.000000 0.000000
# 5 0.000000 0.000000 0.000000 0.000000 0.038700 0.000000
# 6 0.000000 0.000000 0.000000 0.000000 0.000000 0.032150
#
#
# Mechanical properties :
#
#
# Convention : Reuss Voigt Hill
#
# Bulk Modulus (GPa) = 13.27251 34.28562 23.77906
# Shear Modulus (GPa) = 19.63566 28.36728 24.00147
#
# Velocity S-wave (km/s) = 3.09266 3.71722 3.41923
# Velocity P-wave (km/s) = 4.38381 5.92657 5.21258
#
# Compressibility (1/GPa) = 0.07534371
#
# Stress axis : x y z
#
# Youngs Moduli (GPa) = 95.99920 13.42479 93.82736
#
# Poissons Ratio (x) = 0.10012 0.24694
# Poissons Ratio (y) = 0.71592 0.00193
# Poissons Ratio (z) = 0.25266 0.00028
#
# Static dielectric constant tensor:
#      x y z
#    x 1.739820 0.000000 0.000000 
#    y 0.000000 1.724590 0.000000 
#    z 0.000000 0.000000 1.732280 
# 
# From -- ./inp_files/15129.got.cif
#   From: 2010.05.17/outbox.cif.g08.bks.cpg/sg62_8_cif.got.tgz:15129.got - 2010.06.03 15:25:27.
