data_PCOD9463618
_publ_section_title
;
Structure prediction by ZEFSAII (Michael W. Deem and Ramdas Pophale) SiO2 
 PCOD9463618
Probable space group: P N M A
;
_chemical_formula_sum "Si O2"
_cell_formula_units_Z 56
_cell_length_a 15.349838
_cell_length_b 14.918796
_cell_length_c 11.749228
_cell_angle_alpha 90.000000
_cell_angle_beta 90.000000
_cell_angle_gamma 90.000000
_cell_volume 2690.586157
_symmetry_space_group_name_H-M "P N M A"
_symmetry_group_IT_number 62
_symmetry_cell_setting 'orthorhombic'
loop_
_space_group_symop_operation_xyz
x,y,z
1/2-x,-y,1/2+z
1/2+x,1/2-y,1/2-z
-x,1/2+y,-z
-x,-y,-z
1/2+x,y,1/2-z
1/2-x,1/2+y,1/2+z
x,1/2-y,z
loop_
_atom_site_type_symbol
_atom_site_label
_atom_site_fract_x
_atom_site_fract_y
_atom_site_fract_z
Si Si1 0.490458 0.651698 0.294351
Si Si2 0.265876 0.044253 0.160583
Si Si3 0.691230 0.651928 0.366432
Si Si4 0.469385 0.015671 0.127096
Si Si5 0.174857 0.891183 0.885327
Si Si6 0.485902 0.850762 0.690954
Si Si7 0.874542 0.582440 0.010662
O O1 0.484051 0.750000 0.240572
O O2 0.586344 0.645420 0.351681
O O3 0.481983 0.572513 0.204278
O O4 0.416389 0.643189 0.391377
O O5 0.367034 0.037647 0.129824
O O6 0.259929 0.094905 0.280892
O O7 0.231019 0.941865 0.177134
O O8 0.214931 0.094568 0.059431
O O9 0.717864 0.750000 0.317973
O O10 0.711599 0.651863 0.500873
O O11 0.519272 0.096483 0.190728
O O12 0.500000 0.000000 0.000000
O O13 0.087937 0.844838 0.839846
O O14 0.140594 0.988223 0.927482
O O15 0.449115 0.750000 0.690068
O O16 0.442870 0.911614 0.592929
#
# Coordination Sequence:
#
# PCOD9463618 Si02
#       7
#     8   8   8   8   8   8   8
#     4  11  22  41  71 100 127 170 219 273 331 390
#     4  10  23  36  60  91 129 173 209 257 328 376
#     4  10  21  37  64  97 125 158 216 273 322 381
#     4  11  25  46  64  90 133 185 218 264 325 401
#     4  10  19  37  58  88 125 169 200 257 321 385
#     4  11  21  37  65  96 121 161 215 270 327 386
#     4  11  20  38  65  96 126 161 214 269 323 388
#
# _framework density 20.813309
#
# number of rings (size 3 to 8) (size 9 to 14) (size 15 to 20)
#    0.000    1.429    4.286    3.000    0.000    5.714 
#    0.000    8.571    0.000    0.000    0.000    0.000 
#    0.000    0.000    0.000    0.000    0.000    0.000 
#
# Total GULP energy -312448.898577 kJ/mol
# GULP energy per Si atom -5579.444617 kJ/mol
# Density = 2.076594 g / cm^3
# Si number density = 20.813309 Si / 1000 Ang^3
#
#
#
# Elastic Constant Matrix: (Units=GPa)
#
#
# Indices 1 2 3 4 5 6 
#
# 1 52.7312 13.1362 23.9850 0.0000 0.0000 0.0000
# 2 13.1362 41.2309 21.4120 0.0000 0.0000 0.0000
# 3 23.9850 21.4120 120.0803 0.0000 0.0000 0.0000
# 4 0.0000 0.0000 0.0000 10.1530 0.0000 0.0000
# 5 0.0000 0.0000 0.0000 0.0000 26.8267 0.0000
# 6 0.0000 0.0000 0.0000 0.0000 0.0000 11.9721
#
#
#
# Elastic Compliance Matrix: (Units=1/GPa)
#
#
# Indices 1 2 3 4 5 6 
#
# 1 0.021814 -0.005166 -0.003436 0.000000 0.000000 0.000000
# 2 -0.005166 0.027952 -0.003952 0.000000 0.000000 0.000000
# 3 -0.003436 -0.003952 0.009719 0.000000 0.000000 0.000000
# 4 0.000000 0.000000 0.000000 0.098493 0.000000 0.000000
# 5 0.000000 0.000000 0.000000 0.000000 0.037276 0.000000
# 6 0.000000 0.000000 0.000000 0.000000 0.000000 0.083527
#
#
# Mechanical properties :
#
#
# Convention : Reuss Voigt Hill
#
# Bulk Modulus (GPa) = 29.08954 36.78989 32.93971
# Shear Modulus (GPa) = 15.85548 20.15763 18.00656
#
# Velocity S-wave (km/s) = 2.76306 3.11544 2.94453
# Velocity P-wave (km/s) = 4.91793 5.53677 5.23650
#
# Compressibility (1/GPa) = 0.03437662
#
# Stress axis : x y z
#
# Youngs Moduli (GPa) = 45.84254 35.77562 102.89267
#
# Poissons Ratio (x) = 0.18480 0.35354
# Poissons Ratio (y) = 0.23680 0.40668
# Poissons Ratio (z) = 0.15752 0.14140
#
# Static dielectric constant tensor:
#      x y z
#    x 1.759460 0.000000 0.000000 
#    y 0.000000 1.787690 0.000000 
#    z 0.000000 0.000000 1.736360 
# 
# From -- ./inp_files/13363.got.cif
#   From: 2010.05.17/outbox.cif.g08.bks.cpg/sg62_7_cif.got.tgz:13363.got - 2010.06.03 15:25:27.
