data_PCOD9463112
_publ_section_title
;
Structure prediction by ZEFSAII (Michael W. Deem and Ramdas Pophale) SiO2 
 PCOD9463112
Probable space group: P N M A
;
_chemical_formula_sum "Si O2"
_cell_formula_units_Z 64
_cell_length_a 19.827099
_cell_length_b 7.314795
_cell_length_c 16.629534
_cell_angle_alpha 90.000000
_cell_angle_beta 90.000000
_cell_angle_gamma 90.000000
_cell_volume 2411.800683
_symmetry_space_group_name_H-M "P N M A"
_symmetry_group_IT_number 62
_symmetry_cell_setting 'orthorhombic'
loop_
_space_group_symop_operation_xyz
x,y,z
1/2-x,-y,1/2+z
1/2+x,1/2-y,1/2-z
-x,1/2+y,-z
-x,-y,-z
1/2+x,y,1/2-z
1/2-x,1/2+y,1/2+z
x,1/2-y,z
loop_
_atom_site_type_symbol
_atom_site_label
_atom_site_fract_x
_atom_site_fract_y
_atom_site_fract_z
Si Si1 0.419714 0.026887 0.083663
Si Si2 0.948972 0.528241 0.658256
Si Si3 0.663317 0.027890 0.431763
Si Si4 0.294811 0.470429 0.991948
Si Si5 0.299393 0.539458 0.815918
Si Si6 0.170740 0.540910 0.732685
Si Si7 0.962546 0.530332 0.837607
Si Si8 0.397046 0.541149 0.398754
O O1 0.421986 0.250000 0.082903
O O2 0.496581 0.962797 0.093202
O O3 0.370818 0.967767 0.011482
O O4 0.377239 0.967911 0.162877
O O5 0.945244 0.750000 0.651060
O O6 0.872871 0.457776 0.666796
O O7 0.979065 0.483738 0.745999
O O8 0.663919 0.250000 0.428117
O O9 0.741150 0.972430 0.439984
O O10 0.612345 0.967569 0.362349
O O11 0.628722 0.970820 0.515962
O O12 0.294964 0.250000 0.989292
O O13 0.269413 0.538110 0.906002
O O14 0.310573 0.750000 0.790210
O O15 0.243861 0.459973 0.755867
O O16 0.184367 0.750000 0.707426
O O17 0.130411 0.546612 0.817015
O O18 0.962951 0.750000 0.842906
O O19 0.022044 0.463436 0.894459
O O20 0.373264 0.750000 0.394223
#
# Coordination Sequence:
#
# PCOD9463112 Si02
#       8
#     8   8   8   8   8   8   8   8
#     4   9  18  33  56  81 103 134 182 225 259 306
#     4   9  18  33  54  81 107 134 176 229 266 299
#     4   9  19  32  50  78 108 140 176 215 263 316
#     4  10  20  36  56  78 107 141 179 221 266 317
#     4  10  21  35  55  81 109 138 177 222 267 312
#     4  10  19  34  56  81 104 138 181 220 260 311
#     4  10  19  34  55  78 106 142 180 218 261 314
#     4  11  20  33  52  78 111 142 172 213 267 324
#
# _framework density 26.536187000000002
#
# number of rings (size 3 to 8) (size 9 to 14) (size 15 to 20)
#    0.000    2.250    2.500    0.750    1.750    0.500 
#    0.000    2.500    0.000    0.000    0.000    0.000 
#    0.000    0.000    0.000    0.000    0.000    0.000 
#
# Total GULP energy -357868.922122 kJ/mol
# GULP energy per Si atom -5591.701908 kJ/mol
# Density = 2.647579 g / cm^3
# Si number density = 26.536187 Si / 1000 Ang^3
#
#
#
# Elastic Constant Matrix: (Units=GPa)
#
#
# Indices 1 2 3 4 5 6 
#
# 1 165.2499 -6.2768 5.1200 0.0000 0.0000 0.0000
# 2 -6.2768 106.7862 -5.1581 0.0000 0.0000 0.0000
# 3 5.1200 -5.1581 70.9266 0.0000 0.0000 0.0000
# 4 0.0000 0.0000 0.0000 4.0745 0.0000 0.0000
# 5 0.0000 0.0000 0.0000 0.0000 49.9275 0.0000
# 6 0.0000 0.0000 0.0000 0.0000 0.0000 -3.4191
#
#
#
# Elastic Compliance Matrix: (Units=1/GPa)
#
#
# Indices 1 2 3 4 5 6 
#
# 1 0.006077 0.000337 -0.000414 0.000000 0.000000 0.000000
# 2 0.000337 0.009416 0.000660 0.000000 0.000000 0.000000
# 3 -0.000414 0.000660 0.014177 0.000000 0.000000 0.000000
# 4 0.000000 0.000000 0.000000 0.245431 0.000000 0.000000
# 5 0.000000 0.000000 0.000000 0.000000 0.020029 0.000000
# 6 0.000000 0.000000 0.000000 0.000000 0.000000 -0.292472
#
#
# Mechanical properties :
#
#
# Convention : Reuss Voigt Hill
#
# Bulk Modulus (GPa) = 32.42827 36.70365 34.56596
# Shear Modulus (GPa) = 424.80494 33.40173 229.10333
#
# Velocity S-wave (km/s) = 12.66620 3.55170 9.30181
# Velocity P-wave (km/s) = 15.03852 5.53904 11.33221
#
# Compressibility (1/GPa) = 0.03083729
#
# Stress axis : x y z
#
# Youngs Moduli (GPa) = 164.55265 106.19965 70.53670
#
# Poissons Ratio (x) = -0.03581 0.02921
# Poissons Ratio (y) = -0.05549 -0.04659
# Poissons Ratio (z) = 0.06815 -0.07014
#
# Static dielectric constant tensor:
#      x y z
#    x 2.092920 0.000000 0.000000 
#    y 0.000000 2.037390 0.000000 
#    z 0.000000 0.000000 2.041000 
# 
# From -- ./inp_files/24737.got.cif
#   From: 2010.05.17/outbox.cif.g08.bks.cpg/sg62_13_cif.got.tgz:24737.got - 2010.06.03 15:25:27.
