data_PCOD9463278
_publ_section_title
;
Structure prediction by ZEFSAII (Michael W. Deem and Ramdas Pophale) SiO2 
 PCOD9463278
Probable space group: P N M A
;
_chemical_formula_sum "Si O2"
_cell_formula_units_Z 40
_cell_length_a 8.642701
_cell_length_b 19.474413
_cell_length_c 14.119599
_cell_angle_alpha 90.000000
_cell_angle_beta 90.000000
_cell_angle_gamma 90.000000
_cell_volume 2376.491292
_symmetry_space_group_name_H-M "P N M A"
_symmetry_group_IT_number 62
_symmetry_cell_setting 'orthorhombic'
loop_
_space_group_symop_operation_xyz
x,y,z
1/2-x,-y,1/2+z
1/2+x,1/2-y,1/2-z
-x,1/2+y,-z
-x,-y,-z
1/2+x,y,1/2-z
1/2-x,1/2+y,1/2+z
x,1/2-y,z
loop_
_atom_site_type_symbol
_atom_site_label
_atom_site_fract_x
_atom_site_fract_y
_atom_site_fract_z
Si Si1 0.783658 0.885974 0.962124
Si Si2 0.108532 0.884374 0.867030
Si Si3 0.721868 0.979042 0.134044
Si Si4 0.108805 0.525249 0.690558
Si Si5 0.349276 0.250000 0.114321
Si Si6 0.299158 0.750000 0.815396
O O1 0.684095 0.817781 0.945995
O O2 0.959267 0.871918 0.930604
O O3 0.716912 0.942469 0.888967
O O4 0.767949 0.917783 0.065763
O O5 0.213700 0.817820 0.854209
O O6 0.206813 0.949175 0.905268
O O7 0.058053 0.912332 0.762027
O O8 0.796878 0.975875 0.238735
O O9 0.539760 0.989781 0.146027
O O10 0.229164 0.250000 0.202507
O O11 0.521317 0.250000 0.157337
#
# Coordination Sequence:
#
# PCOD9463278 Si02
#       6
#     8   8   8   8   4   4
#     4  12  21  36  57  83 115 147 191 233 274 347
#     4  10  20  35  54  82 113 151 180 219 291 334
#     4  10  21  35  57  82 116 146 189 233 276 337
#     4  10  19  35  52  81 112 146 184 222 283 327
#     4  12  24  34  52  84 111 154 188 228 297 330
#     4  12  22  36  56  78 121 152 176 236 287 360
#
# _framework density 16.831537999999998
#
# number of rings (size 3 to 8) (size 9 to 14) (size 15 to 20)
#    1.200    0.000    4.000    4.200    0.000    0.000 
#    0.000    0.000    0.000    1.200    0.000    1.400 
#    0.000    0.000    0.000    0.000    0.000    0.000 
#
# Total GULP energy -223136.956982 kJ/mol
# GULP energy per Si atom -5578.423925 kJ/mol
# Density = 1.679323 g / cm^3
# Si number density = 16.831538 Si / 1000 Ang^3
#
#
#
# Elastic Constant Matrix: (Units=GPa)
#
#
# Indices 1 2 3 4 5 6 
#
# 1 58.4990 17.9432 16.4641 0.0000 0.0000 0.0000
# 2 17.9432 62.5760 28.7120 0.0000 0.0000 0.0000
# 3 16.4641 28.7120 55.7133 0.0000 0.0000 0.0000
# 4 0.0000 0.0000 0.0000 30.9334 0.0000 0.0000
# 5 0.0000 0.0000 0.0000 0.0000 12.3478 0.0000
# 6 0.0000 0.0000 0.0000 0.0000 0.0000 20.0757
#
#
#
# Elastic Compliance Matrix: (Units=1/GPa)
#
#
# Indices 1 2 3 4 5 6 
#
# 1 0.019319 -0.003824 -0.003738 0.000000 0.000000 0.000000
# 2 -0.003824 0.021687 -0.010046 0.000000 0.000000 0.000000
# 3 -0.003738 -0.010046 0.024231 0.000000 0.000000 0.000000
# 4 0.000000 0.000000 0.000000 0.032327 0.000000 0.000000
# 5 0.000000 0.000000 0.000000 0.000000 0.080986 0.000000
# 6 0.000000 0.000000 0.000000 0.000000 0.000000 0.049812
#
#
# Mechanical properties :
#
#
# Convention : Reuss Voigt Hill
#
# Bulk Modulus (GPa) = 33.31163 33.66967 33.49065
# Shear Modulus (GPa) = 18.27576 20.24932 19.26254
#
# Velocity S-wave (km/s) = 3.29873 3.47228 3.38661
# Velocity P-wave (km/s) = 5.86029 6.01024 5.93574
#
# Compressibility (1/GPa) = 0.03001954
#
# Stress axis : x y z
#
# Youngs Moduli (GPa) = 51.76127 46.11117 41.26942
#
# Poissons Ratio (x) = 0.17635 0.15427
# Poissons Ratio (y) = 0.19796 0.41460
# Poissons Ratio (z) = 0.19349 0.46324
#
# Static dielectric constant tensor:
#      x y z
#    x 1.572110 0.000000 0.000000 
#    y 0.000000 1.559120 0.000000 
#    z 0.000000 0.000000 1.557730 
# 
# From -- ./inp_files/22318.got.cif
#   From: 2010.05.17/outbox.cif.g08.bks.cpg/sg62_12_cif.got.tgz:22318.got - 2010.06.03 15:25:27.
