data_PCOD9463099
_publ_section_title
;
Structure prediction by ZEFSAII (Michael W. Deem and Ramdas Pophale) SiO2 
 PCOD9463099
Probable space group: P N M A
;
_chemical_formula_sum "Si O2"
_cell_formula_units_Z 48
_cell_length_a 17.036221
_cell_length_b 8.702478
_cell_length_c 18.501996
_cell_angle_alpha 90.000000
_cell_angle_beta 90.000000
_cell_angle_gamma 90.000000
_cell_volume 2743.056683
_symmetry_space_group_name_H-M "P N M A"
_symmetry_group_IT_number 62
_symmetry_cell_setting 'orthorhombic'
loop_
_space_group_symop_operation_xyz
x,y,z
1/2-x,-y,1/2+z
1/2+x,1/2-y,1/2-z
-x,1/2+y,-z
-x,-y,-z
1/2+x,y,1/2-z
1/2-x,1/2+y,1/2+z
x,1/2-y,z
loop_
_atom_site_type_symbol
_atom_site_label
_atom_site_fract_x
_atom_site_fract_y
_atom_site_fract_z
Si Si1 0.263547 0.065530 0.446553
Si Si2 0.670652 0.064187 0.334444
Si Si3 0.823814 0.566893 0.403581
Si Si4 0.358202 0.937296 0.828127
Si Si5 0.509107 0.565848 0.919641
Si Si6 0.084826 0.066180 0.018844
O O1 0.274041 0.250000 0.444072
O O2 0.206326 0.032139 0.514732
O O3 0.218063 0.014770 0.374486
O O4 0.346977 0.990484 0.464491
O O5 0.675185 0.250000 0.335372
O O6 0.643747 0.014076 0.255071
O O7 0.613882 0.017878 0.400715
O O8 0.755905 0.996761 0.352210
O O9 0.830528 0.750000 0.397457
O O10 0.907256 0.489659 0.390491
O O11 0.357996 0.750000 0.828907
O O12 0.436568 0.986454 0.870021
O O13 0.507086 0.750000 0.923386
O O14 0.500000 0.500000 0.000000
O O15 0.081573 0.250000 0.017196
O O16 0.000000 0.000000 0.000000
#
# Coordination Sequence:
#
# PCOD9463099 Si02
#       6
#     8   8   8   8   8   8
#     4   9  17  33  56  77 101 137 175 215 262 315
#     4   9  19  37  58  78 102 139 184 225 265 315
#     4  10  19  34  54  79 109 141 176 214 266 323
#     4   9  18  35  56  79 107 139 179 221 266 318
#     4  11  20  33  55  83 112 144 182 223 266 321
#     4  10  20  35  56  80 104 136 181 225 264 312
#
# _framework density 17.498726999999999
#
# number of rings (size 3 to 8) (size 9 to 14) (size 15 to 20)
#    0.000    2.333    1.667    1.500    0.000    1.333 
#    3.000    2.500    0.000    0.000    0.000    0.000 
#    0.000    0.000    0.000    0.000    0.000    0.000 
#
# Total GULP energy -267774.437306 kJ/mol
# GULP energy per Si atom -5578.634111 kJ/mol
# Density = 1.745890 g / cm^3
# Si number density = 17.498727 Si / 1000 Ang^3
#
#
#
# Elastic Constant Matrix: (Units=GPa)
#
#
# Indices 1 2 3 4 5 6 
#
# 1 176.9511 40.1685 91.5497 0.0000 0.0000 0.0000
# 2 40.1685 24.6740 26.5956 0.0000 0.0000 0.0000
# 3 91.5497 26.5956 126.4102 0.0000 0.0000 0.0000
# 4 0.0000 0.0000 0.0000 20.6889 0.0000 0.0000
# 5 0.0000 0.0000 0.0000 0.0000 22.6122 0.0000
# 6 0.0000 0.0000 0.0000 0.0000 0.0000 32.5477
#
#
#
# Elastic Compliance Matrix: (Units=1/GPa)
#
#
# Indices 1 2 3 4 5 6 
#
# 1 0.011398 -0.012490 -0.005627 0.000000 0.000000 0.000000
# 2 -0.012490 0.066102 -0.004862 0.000000 0.000000 0.000000
# 3 -0.005627 -0.004862 0.013009 0.000000 0.000000 0.000000
# 4 0.000000 0.000000 0.000000 0.048335 0.000000 0.000000
# 5 0.000000 0.000000 0.000000 0.000000 0.044224 0.000000
# 6 0.000000 0.000000 0.000000 0.000000 0.000000 0.030724
#
#
# Mechanical properties :
#
#
# Convention : Reuss Voigt Hill
#
# Bulk Modulus (GPa) = 22.44588 71.62921 47.03755
# Shear Modulus (GPa) = 18.20835 26.48452 22.34644
#
# Velocity S-wave (km/s) = 3.22926 3.89461 3.57744
# Velocity P-wave (km/s) = 5.17293 7.82603 6.63347
#
# Compressibility (1/GPa) = 0.04455161
#
# Stress axis : x y z
#
# Youngs Moduli (GPa) = 87.73715 15.12807 76.87216
#
# Poissons Ratio (x) = 0.18895 0.43254
# Poissons Ratio (y) = 1.09585 0.37373
# Poissons Ratio (z) = 0.49367 0.07355
#
# Static dielectric constant tensor:
#      x y z
#    x 1.579090 0.000000 0.000000 
#    y 0.000000 1.593500 0.000000 
#    z 0.000000 0.000000 1.594820 
# 
# From -- ./inp_files/23688.got.cif
#   From: 2010.05.17/outbox.cif.g08.bks.cpg/sg62_12_cif.got.tgz:23688.got - 2010.06.03 15:25:27.
