data_PCOD9463362
_publ_section_title
;
Structure prediction by ZEFSAII (Michael W. Deem and Ramdas Pophale) SiO2 
 PCOD9463362
Probable space group: P N M A
;
_chemical_formula_sum "Si O2"
_cell_formula_units_Z 48
_cell_length_a 17.239391
_cell_length_b 15.346724
_cell_length_c 8.219081
_cell_angle_alpha 90.000000
_cell_angle_beta 90.000000
_cell_angle_gamma 90.000000
_cell_volume 2174.507265
_symmetry_space_group_name_H-M "P N M A"
_symmetry_group_IT_number 62
_symmetry_cell_setting 'orthorhombic'
loop_
_space_group_symop_operation_xyz
x,y,z
1/2-x,-y,1/2+z
1/2+x,1/2-y,1/2-z
-x,1/2+y,-z
-x,-y,-z
1/2+x,y,1/2-z
1/2-x,1/2+y,1/2+z
x,1/2-y,z
loop_
_atom_site_type_symbol
_atom_site_label
_atom_site_fract_x
_atom_site_fract_y
_atom_site_fract_z
Si Si1 0.192086 0.155745 0.980925
Si Si2 0.554373 0.950581 0.370275
Si Si3 0.013158 0.100652 0.556605
Si Si4 0.178102 0.959977 0.890799
Si Si5 0.350152 0.594071 0.833099
Si Si6 0.857662 0.343520 0.401671
O O1 0.165442 0.250000 0.916707
O O2 0.170835 0.151695 0.174417
O O3 0.285923 0.153033 0.974364
O O4 0.165975 0.063699 0.907516
O O5 0.499961 0.895729 0.250271
O O6 0.623499 0.911212 0.478643
O O7 0.500000 0.000000 0.500000
O O8 0.602021 0.015890 0.252758
O O9 0.093316 0.129690 0.473220
O O10 0.940859 0.151453 0.481583
O O11 0.000000 0.000000 0.500000
O O12 0.268816 0.938063 0.907206
O O13 0.152120 0.924708 0.717026
O O14 0.849529 0.250000 0.313834
#
# Coordination Sequence:
#
# PCOD9463362 Si02
#       6
#     8   8   8   8   8   8
#     4   9  18  33  57  89 121 160 210 260 313 372
#     4  10  20  33  55  86 117 154 201 256 311 370
#     4  10  19  35  58  84 115 159 208 254 306 371
#     4  10  19  36  60  90 123 164 207 260 322 378
#     4   9  19  33  55  85 118 160 207 251 306 374
#     4  10  21  38  61  88 123 167 211 257 317 385
#
# _framework density 22.073967
#
# number of rings (size 3 to 8) (size 9 to 14) (size 15 to 20)
#    0.000    2.333    0.000    4.000    0.000    3.333 
#    0.000    0.833    0.000   18.000    0.000   16.333 
#    0.000    0.000    0.000    0.000    0.000    0.000 
#
# Total GULP energy -267586.667875 kJ/mol
# GULP energy per Si atom -5574.722247 kJ/mol
# Density = 2.202373 g / cm^3
# Si number density = 22.073967 Si / 1000 Ang^3
#
#
#
# Elastic Constant Matrix: (Units=GPa)
#
#
# Indices 1 2 3 4 5 6 
#
# 1 160.5123 7.0528 50.4046 0.0000 0.0000 0.0000
# 2 7.0528 103.3452 16.3631 0.0000 0.0000 0.0000
# 3 50.4046 16.3631 68.3501 0.0000 0.0000 0.0000
# 4 0.0000 0.0000 0.0000 15.8339 0.0000 0.0000
# 5 0.0000 0.0000 0.0000 0.0000 39.2640 0.0000
# 6 0.0000 0.0000 0.0000 0.0000 0.0000 9.8785
#
#
#
# Elastic Compliance Matrix: (Units=1/GPa)
#
#
# Indices 1 2 3 4 5 6 
#
# 1 0.008124 0.000410 -0.006089 0.000000 0.000000 0.000000
# 2 0.000410 0.010078 -0.002715 0.000000 0.000000 0.000000
# 3 -0.006089 -0.002715 0.019771 0.000000 0.000000 0.000000
# 4 0.000000 0.000000 0.000000 0.063155 0.000000 0.000000
# 5 0.000000 0.000000 0.000000 0.000000 0.025469 0.000000
# 6 0.000000 0.000000 0.000000 0.000000 0.000000 0.101230
#
#
# Mechanical properties :
#
#
# Convention : Reuss Voigt Hill
#
# Bulk Modulus (GPa) = 47.20417 53.31651 50.26034
# Shear Modulus (GPa) = 19.86666 30.22109 25.04388
#
# Velocity S-wave (km/s) = 3.00326 3.70413 3.37195
# Velocity P-wave (km/s) = 5.78421 6.51921 6.16268
#
# Compressibility (1/GPa) = 0.02118457
#
# Stress axis : x y z
#
# Youngs Moduli (GPa) = 123.08873 99.22399 50.57913
#
# Poissons Ratio (x) = -0.04065 0.30799
# Poissons Ratio (y) = -0.05043 0.13732
# Poissons Ratio (z) = 0.74952 0.26938
#
# Static dielectric constant tensor:
#      x y z
#    x 1.851900 0.000000 0.000000 
#    y 0.000000 1.656330 0.000000 
#    z 0.000000 0.000000 2.056520 
# 
# From -- ./inp_files/8583.got.cif
#   From: 2010.05.17/outbox.cif.g08.bks.cpg/sg62_5_cif.got.tgz:8583.got - 2010.06.03 15:25:27.
