data_PCOD9463165
_publ_section_title
;
Structure prediction by ZEFSAII (Michael W. Deem and Ramdas Pophale) SiO2 
 PCOD9463165
Probable space group: P N M A
;
_chemical_formula_sum "Si O2"
_cell_formula_units_Z 64
_cell_length_a 19.877298
_cell_length_b 8.814451
_cell_length_c 20.779534
_cell_angle_alpha 90.000000
_cell_angle_beta 90.000000
_cell_angle_gamma 90.000000
_cell_volume 3640.729564
_symmetry_space_group_name_H-M "P N M A"
_symmetry_group_IT_number 62
_symmetry_cell_setting 'orthorhombic'
loop_
_space_group_symop_operation_xyz
x,y,z
1/2-x,-y,1/2+z
1/2+x,1/2-y,1/2-z
-x,1/2+y,-z
-x,-y,-z
1/2+x,y,1/2-z
1/2-x,1/2+y,1/2+z
x,1/2-y,z
loop_
_atom_site_type_symbol
_atom_site_label
_atom_site_fract_x
_atom_site_fract_y
_atom_site_fract_z
Si Si1 0.821869 0.932010 0.240071
Si Si2 0.680380 0.431166 0.239226
Si Si3 0.538304 0.068350 0.685011
Si Si4 0.963475 0.567703 0.692922
Si Si5 0.319218 0.567423 0.609935
Si Si6 0.675298 0.067944 0.889931
Si Si7 0.535980 0.431955 0.437860
Si Si8 0.039582 0.931361 0.560134
O O1 0.819797 0.750000 0.240670
O O2 0.884194 0.978904 0.195972
O O3 0.833397 0.980333 0.314626
O O4 0.750011 0.994063 0.218807
O O5 0.688131 0.250000 0.236789
O O6 0.615228 0.472815 0.197912
O O7 0.668326 0.471624 0.314554
O O8 0.535328 0.250000 0.677169
O O9 0.500699 0.019384 0.750031
O O10 0.503267 0.988714 0.625109
O O11 0.968889 0.750000 0.704283
O O12 0.997686 0.533240 0.625078
O O13 0.311863 0.750000 0.606251
O O14 0.249137 0.490713 0.590268
O O15 0.385542 0.522467 0.570380
O O16 0.673105 0.250000 0.892801
O O17 0.614039 0.999243 0.930249
O O18 0.500000 0.500000 0.500000
O O19 0.534259 0.250000 0.440392
O O20 0.043848 0.750000 0.554022
O O21 0.000000 0.000000 0.500000
#
# Coordination Sequence:
#
# PCOD9463165 Si02
#       8
#     8   8   8   8   8   8   8   8
#     4   9  19  33  51  82 116 144 180 229 282 333
#     4   9  17  32  54  81 110 141 182 230 282 333
#     4  11  21  35  57  84 114 147 185 231 282 334
#     4  10  20  36  57  83 111 144 186 233 282 336
#     4   9  18  34  56  81 111 145 184 231 279 335
#     4  10  19  34  56  83 114 144 186 235 279 338
#     4  11  23  40  59  84 117 152 193 236 283 339
#     4  11  23  38  58  82 115 154 194 237 288 341
#
# _framework density 17.578894999999999
#
# number of rings (size 3 to 8) (size 9 to 14) (size 15 to 20)
#    0.000    2.000    2.500    1.500    0.000    3.500 
#    0.000    1.250    0.000    3.000    0.000    0.000 
#    0.000    0.000    0.000    0.000    0.000    0.000 
#
# Total GULP energy -357203.665810 kJ/mol
# GULP energy per Si atom -5581.307278 kJ/mol
# Density = 1.753888 g / cm^3
# Si number density = 17.578895 Si / 1000 Ang^3
#
#
#
# Elastic Constant Matrix: (Units=GPa)
#
#
# Indices 1 2 3 4 5 6 
#
# 1 187.4882 54.8623 71.1893 0.0000 0.0000 0.0000
# 2 54.8623 39.4751 41.6485 0.0000 0.0000 0.0000
# 3 71.1893 41.6485 86.5086 0.0000 0.0000 0.0000
# 4 0.0000 0.0000 0.0000 25.4578 0.0000 0.0000
# 5 0.0000 0.0000 0.0000 0.0000 27.8761 0.0000
# 6 0.0000 0.0000 0.0000 0.0000 0.0000 32.1035
#
#
#
# Elastic Compliance Matrix: (Units=1/GPa)
#
#
# Indices 1 2 3 4 5 6 
#
# 1 0.009339 -0.009899 -0.002919 0.000000 0.000000 0.000000
# 2 -0.009899 0.061975 -0.021691 0.000000 0.000000 0.000000
# 3 -0.002919 -0.021691 0.024405 0.000000 0.000000 0.000000
# 4 0.000000 0.000000 0.000000 0.039281 0.000000 0.000000
# 5 0.000000 0.000000 0.000000 0.000000 0.035873 0.000000
# 6 0.000000 0.000000 0.000000 0.000000 0.000000 0.031149
#
#
# Mechanical properties :
#
#
# Convention : Reuss Voigt Hill
#
# Bulk Modulus (GPa) = 37.45322 72.09688 54.77505
# Shear Modulus (GPa) = 17.86093 26.80561 22.33327
#
# Velocity S-wave (km/s) = 3.19100 3.90920 3.56822
# Velocity P-wave (km/s) = 5.91005 7.84080 6.94287
#
# Compressibility (1/GPa) = 0.02669997
#
# Stress axis : x y z
#
# Youngs Moduli (GPa) = 107.08140 16.13547 40.97539
#
# Poissons Ratio (x) = 0.15972 0.11962
# Poissons Ratio (y) = 1.05998 0.88881
# Poissons Ratio (z) = 0.31260 0.35000
#
# Static dielectric constant tensor:
#      x y z
#    x 1.602440 0.000000 0.000000 
#    y 0.000000 1.586640 0.000000 
#    z 0.000000 0.000000 1.573180 
# 
# From -- ./inp_files/27712.got.cif
#   From: 2010.05.17/outbox.cif.g08.bks.cpg/sg62_14_cif.got.tgz:27712.got - 2010.06.03 15:25:27.
