data_PCOD9463116
_publ_section_title
;
Structure prediction by ZEFSAII (Michael W. Deem and Ramdas Pophale) SiO2 
 PCOD9463116
Probable space group: P N M A
;
_chemical_formula_sum "Si O2"
_cell_formula_units_Z 64
_cell_length_a 20.026934
_cell_length_b 7.557865
_cell_length_c 20.558182
_cell_angle_alpha 90.000000
_cell_angle_beta 90.000000
_cell_angle_gamma 90.000000
_cell_volume 3111.704180
_symmetry_space_group_name_H-M "P N M A"
_symmetry_group_IT_number 62
_symmetry_cell_setting 'orthorhombic'
loop_
_space_group_symop_operation_xyz
x,y,z
1/2-x,-y,1/2+z
1/2+x,1/2-y,1/2-z
-x,1/2+y,-z
-x,-y,-z
1/2+x,y,1/2-z
1/2-x,1/2+y,1/2+z
x,1/2-y,z
loop_
_atom_site_type_symbol
_atom_site_label
_atom_site_fract_x
_atom_site_fract_y
_atom_site_fract_z
Si Si1 0.083977 0.546368 0.186414
Si Si2 0.236793 0.036065 0.205776
Si Si3 0.064608 0.962980 0.043344
Si Si4 0.700315 0.543071 0.522261
Si Si5 0.724346 0.466814 0.148651
Si Si6 0.073632 0.043400 0.333955
Si Si7 0.535578 0.537786 0.932217
Si Si8 0.185518 0.535545 0.580938
O O1 0.063071 0.750000 0.189889
O O2 0.164532 0.534725 0.184554
O O3 0.059011 0.469372 0.117763
O O4 0.064714 0.466914 0.256213
O O5 0.231092 0.250000 0.205196
O O6 0.250345 0.982866 0.279893
O O7 0.291146 0.983742 0.153074
O O8 0.071954 0.750000 0.049383
O O9 0.132008 0.031490 0.008224
O O10 0.000000 0.000000 0.000000
O O11 0.686618 0.750000 0.534838
O O12 0.730197 0.468784 0.589470
O O13 0.759405 0.529126 0.469813
O O14 0.722984 0.250000 0.146012
O O15 0.646923 0.528912 0.146787
O O16 0.077078 0.250000 0.351118
O O17 0.012142 0.967895 0.374750
O O18 0.541332 0.750000 0.924062
O O19 0.611161 0.470000 0.932809
O O20 0.500000 0.500000 0.000000
O O21 0.186606 0.750000 0.577206
#
# Coordination Sequence:
#
# PCOD9463116 Si02
#       8
#     8   8   8   8   8   8   8   8
#     4  10  19  34  55  79 105 135 177 223 262 316
#     4   9  17  32  53  76 102 135 171 212 263 317
#     4  10  22  37  54  78 106 137 177 221 271 327
#     4  10  19  35  56  80 106 136 175 217 265 323
#     4   8  15  29  52  76 100 132 173 213 253 304
#     4   9  18  34  54  79 108 145 184 217 260 318
#     4  10  21  36  53  80 114 147 186 226 269 322
#     4  10  20  33  53  80 108 138 175 221 266 314
#
# _framework density 20.567509000000001
#
# number of rings (size 3 to 8) (size 9 to 14) (size 15 to 20)
#    0.000    2.500    1.250    1.875    0.000    3.500 
#    2.250    3.750    0.000    0.000    0.000    0.000 
#    0.000    0.000    0.000    0.000    0.000    0.000 
#
# Total GULP energy -357099.765399 kJ/mol
# GULP energy per Si atom -5579.683834 kJ/mol
# Density = 2.052070 g / cm^3
# Si number density = 20.567509 Si / 1000 Ang^3
#
#
#
# Elastic Constant Matrix: (Units=GPa)
#
#
# Indices 1 2 3 4 5 6 
#
# 1 126.4381 -11.9403 81.5321 0.0000 0.0000 0.0000
# 2 -11.9403 41.9850 -12.2136 0.0000 0.0000 0.0000
# 3 81.5321 -12.2136 138.6039 0.0000 0.0000 0.0000
# 4 0.0000 0.0000 0.0000 18.5363 0.0000 0.0000
# 5 0.0000 0.0000 0.0000 0.0000 35.5817 0.0000
# 6 0.0000 0.0000 0.0000 0.0000 0.0000 11.0029
#
#
#
# Elastic Compliance Matrix: (Units=1/GPa)
#
#
# Indices 1 2 3 4 5 6 
#
# 1 0.012833 0.001492 -0.007417 0.000000 0.000000 0.000000
# 2 0.001492 0.024618 0.001292 0.000000 0.000000 0.000000
# 3 -0.007417 0.001292 0.011692 0.000000 0.000000 0.000000
# 4 0.000000 0.000000 0.000000 0.053948 0.000000 0.000000
# 5 0.000000 0.000000 0.000000 0.000000 0.028104 0.000000
# 6 0.000000 0.000000 0.000000 0.000000 0.000000 0.090885
#
#
# Mechanical properties :
#
#
# Convention : Reuss Voigt Hill
#
# Bulk Modulus (GPa) = 25.07815 46.86481 35.97148
# Shear Modulus (GPa) = 20.43825 29.66744 25.05285
#
# Velocity S-wave (km/s) = 3.15575 3.80207 3.49388
# Velocity P-wave (km/s) = 5.04954 6.48919 5.81410
#
# Compressibility (1/GPa) = 0.03987534
#
# Stress axis : x y z
#
# Youngs Moduli (GPa) = 77.92495 40.62052 85.53021
#
# Poissons Ratio (x) = -0.06060 0.63440
# Poissons Ratio (y) = -0.11625 -0.11048
# Poissons Ratio (z) = 0.57799 -0.05247
#
# Static dielectric constant tensor:
#      x y z
#    x 1.716450 0.000000 0.000000 
#    y 0.000000 1.850550 0.000000 
#    z 0.000000 0.000000 1.752600 
# 
# From -- ./inp_files/24708.got.cif
#   From: 2010.05.17/outbox.cif.g08.bks.cpg/sg62_13_cif.got.tgz:24708.got - 2010.06.03 15:25:27.
