data_PCOD9463501
_publ_section_title
;
Structure prediction by ZEFSAII (Michael W. Deem and Ramdas Pophale) SiO2 
 PCOD9463501
Probable space group: P N M A
;
_chemical_formula_sum "Si O2"
_cell_formula_units_Z 48
_cell_length_a 9.900486
_cell_length_b 7.881585
_cell_length_c 25.633988
_cell_angle_alpha 90.000000
_cell_angle_beta 90.000000
_cell_angle_gamma 90.000000
_cell_volume 2000.259097
_symmetry_space_group_name_H-M "P N M A"
_symmetry_group_IT_number 62
_symmetry_cell_setting 'orthorhombic'
loop_
_space_group_symop_operation_xyz
x,y,z
1/2-x,-y,1/2+z
1/2+x,1/2-y,1/2-z
-x,1/2+y,-z
-x,-y,-z
1/2+x,y,1/2-z
1/2-x,1/2+y,1/2+z
x,1/2-y,z
loop_
_atom_site_type_symbol
_atom_site_label
_atom_site_fract_x
_atom_site_fract_y
_atom_site_fract_z
Si Si1 0.977604 0.458253 0.915761
Si Si2 0.955414 0.543600 0.365794
Si Si3 0.668713 0.560759 0.755960
Si Si4 0.713392 0.045459 0.969317
Si Si5 0.427278 0.058065 0.699211
Si Si6 0.781762 0.449351 0.582267
O O1 0.979473 0.250000 0.916524
O O2 0.130694 0.522274 0.918886
O O3 0.868361 0.511567 0.958561
O O4 0.921845 0.510956 0.859135
O O5 0.954831 0.750000 0.360845
O O6 0.108302 0.483515 0.377120
O O7 0.888599 0.470153 0.314141
O O8 0.870929 0.500947 0.417832
O O9 0.638945 0.750000 0.738579
O O10 0.828156 0.532816 0.760636
O O11 0.581328 0.444310 0.718066
O O12 0.710553 0.250000 0.973982
O O13 0.663218 0.969289 0.023450
O O14 0.375893 0.250000 0.697159
O O15 0.768514 0.250000 0.593736
#
# Coordination Sequence:
#
# PCOD9463501 Si02
#       6
#     8   8   8   8   8   8
#     4   9  19  37  60  87 118 154 204 253 291 359
#     4  10  21  39  61  85 120 165 210 249 299 377
#     4  12  26  43  64  97 131 157 201 268 325 365
#     4  10  19  36  58  83 119 161 206 253 302 362
#     4  11  23  44  70  92 121 169 214 249 307 385
#     4  10  21  35  57  90 120 155 205 254 302 364
#
# _framework density 23.996893
#
# number of rings (size 3 to 8) (size 9 to 14) (size 15 to 20)
#    0.000    1.667    1.667    3.000    2.333    1.333 
#    0.000    1.667    0.000    0.000    0.000    0.000 
#    0.000    0.000    0.000    0.000    0.000    0.000 
#
# Total GULP energy -268473.781265 kJ/mol
# GULP energy per Si atom -5593.203776 kJ/mol
# Density = 2.394228 g / cm^3
# Si number density = 23.996893 Si / 1000 Ang^3
#
#
#
# Elastic Constant Matrix: (Units=GPa)
#
#
# Indices 1 2 3 4 5 6 
#
# 1 79.9998 4.9736 -11.9897 0.0000 0.0000 0.0000
# 2 4.9736 30.4012 -8.9803 0.0000 0.0000 0.0000
# 3 -11.9897 -8.9803 41.0023 0.0000 0.0000 0.0000
# 4 0.0000 0.0000 0.0000 17.8564 0.0000 0.0000
# 5 0.0000 0.0000 0.0000 0.0000 37.7723 0.0000
# 6 0.0000 0.0000 0.0000 0.0000 0.0000 14.4026
#
#
#
# Elastic Compliance Matrix: (Units=1/GPa)
#
#
# Indices 1 2 3 4 5 6 
#
# 1 0.013106 -0.001082 0.003595 0.000000 0.000000 0.000000
# 2 -0.001082 0.035258 0.007406 0.000000 0.000000 0.000000
# 3 0.003595 0.007406 0.027062 0.000000 0.000000 0.000000
# 4 0.000000 0.000000 0.000000 0.056002 0.000000 0.000000
# 5 0.000000 0.000000 0.000000 0.000000 0.026474 0.000000
# 6 0.000000 0.000000 0.000000 0.000000 0.000000 0.069432
#
#
# Mechanical properties :
#
#
# Convention : Reuss Voigt Hill
#
# Bulk Modulus (GPa) = 10.49703 13.26781 11.88242
# Shear Modulus (GPa) = 20.89849 25.16624 23.03237
#
# Velocity S-wave (km/s) = 2.95427 3.24192 3.10143
# Velocity P-wave (km/s) = 4.00260 4.42203 4.21753
#
# Compressibility (1/GPa) = 0.09526503
#
# Stress axis : x y z
#
# Youngs Moduli (GPa) = 76.29995 28.36228 36.95177
#
# Poissons Ratio (x) = 0.03069 -0.13286
# Poissons Ratio (y) = 0.08256 -0.27366
# Poissons Ratio (z) = -0.27433 -0.21005
#
# Static dielectric constant tensor:
#      x y z
#    x 1.964440 0.000000 0.000000 
#    y 0.000000 1.863310 0.000000 
#    z 0.000000 0.000000 1.866900 
# 
# From -- ./inp_files/32039.got.cif
#   From: 2010.05.17/outbox.cif.g08.bks.cpg/sg62_17_cif.got.tgz:32039.got - 2010.06.03 15:25:27.
