data_PCOD9463105
_publ_section_title
;
Structure prediction by ZEFSAII (Michael W. Deem and Ramdas Pophale) SiO2 
 PCOD9463105
Probable space group: P N M A
;
_chemical_formula_sum "Si O2"
_cell_formula_units_Z 64
_cell_length_a 11.714665
_cell_length_b 7.601831
_cell_length_c 29.324141
_cell_angle_alpha 90.000000
_cell_angle_beta 90.000000
_cell_angle_gamma 90.000000
_cell_volume 2611.399900
_symmetry_space_group_name_H-M "P N M A"
_symmetry_group_IT_number 62
_symmetry_cell_setting 'orthorhombic'
loop_
_space_group_symop_operation_xyz
x,y,z
1/2-x,-y,1/2+z
1/2+x,1/2-y,1/2-z
-x,1/2+y,-z
-x,-y,-z
1/2+x,y,1/2-z
1/2-x,1/2+y,1/2+z
x,1/2-y,z
loop_
_atom_site_type_symbol
_atom_site_label
_atom_site_fract_x
_atom_site_fract_y
_atom_site_fract_z
Si Si1 0.185573 0.951425 0.010137
Si Si2 0.918750 0.462013 0.441004
Si Si3 0.451506 0.049456 0.230791
Si Si4 0.071602 0.542041 0.098927
Si Si5 0.670716 0.035728 0.067589
Si Si6 0.664037 0.954617 0.173532
Si Si7 0.910487 0.544805 0.174273
Si Si8 0.302528 0.461927 0.151857
O O1 0.149275 0.750000 0.002805
O O2 0.102951 0.032220 0.048724
O O3 0.311522 0.952561 0.033639
O O4 0.220046 0.030111 0.961260
O O5 0.909803 0.250000 0.446693
O O6 0.895416 0.501060 0.387564
O O7 0.047053 0.519491 0.452649
O O8 0.423011 0.250000 0.241182
O O9 0.348529 0.970303 0.200251
O O10 0.559698 0.047586 0.197564
O O11 0.481105 0.964750 0.279127
O O12 0.052572 0.750000 0.091986
O O13 0.183379 0.526137 0.131213
O O14 0.970478 0.465450 0.129792
O O15 0.672635 0.250000 0.067069
O O16 0.668174 0.973730 0.119139
O O17 0.652744 0.750000 0.185988
O O18 0.787228 0.027715 0.187534
O O19 0.892221 0.750000 0.163550
O O20 0.294497 0.250000 0.155001
#
# Coordination Sequence:
#
# PCOD9463105 Si02
#       8
#     8   8   8   8   8   8   8   8
#     4   9  18  31  53  83 112 150 196 239 289 346
#     4   9  16  29  48  74 114 151 178 225 285 341
#     4  11  23  40  62  87 116 147 186 240 298 353
#     4   9  19  37  58  81 114 152 192 238 284 338
#     4  10  19  34  54  80 117 154 192 240 295 346
#     4  11  24  41  61  85 116 154 198 241 287 348
#     4  10  24  43  60  82 115 154 196 243 290 343
#     4   9  18  33  53  81 113 144 178 226 285 341
#
# _framework density 24.507925
#
# number of rings (size 3 to 8) (size 9 to 14) (size 15 to 20)
#    0.000    2.250    1.250    1.125    1.750    3.500 
#    0.000    0.625    0.000    0.000    0.000    0.000 
#    0.000    0.000    0.000    0.000    0.000    0.000 
#
# Total GULP energy -357390.654039 kJ/mol
# GULP energy per Si atom -5584.228969 kJ/mol
# Density = 2.445214 g / cm^3
# Si number density = 24.507925 Si / 1000 Ang^3
#
#
#
# Elastic Constant Matrix: (Units=GPa)
#
#
# Indices 1 2 3 4 5 6 
#
# 1 24.9872 0.6862 12.7818 0.0000 0.0000 0.0000
# 2 0.6862 61.3136 -3.3265 0.0000 0.0000 0.0000
# 3 12.7818 -3.3265 84.3646 0.0000 0.0000 0.0000
# 4 0.0000 0.0000 0.0000 54.1831 0.0000 0.0000
# 5 0.0000 0.0000 0.0000 0.0000 27.7990 0.0000
# 6 0.0000 0.0000 0.0000 0.0000 0.0000 -15.5182
#
#
#
# Elastic Compliance Matrix: (Units=1/GPa)
#
#
# Indices 1 2 3 4 5 6 
#
# 1 0.043426 -0.000845 -0.006613 0.000000 0.000000 0.000000
# 2 -0.000845 0.016361 0.000773 0.000000 0.000000 0.000000
# 3 -0.006613 0.000773 0.012886 0.000000 0.000000 0.000000
# 4 0.000000 0.000000 0.000000 0.018456 0.000000 0.000000
# 5 0.000000 0.000000 0.000000 0.000000 0.035972 0.000000
# 6 0.000000 0.000000 0.000000 0.000000 0.000000 -0.064441
#
#
# Mechanical properties :
#
#
# Convention : Reuss Voigt Hill
#
# Bulk Modulus (GPa) = 16.86218 21.21648 19.03933
# Shear Modulus (GPa) = 52.19336 23.99438 38.09387
#
# Velocity S-wave (km/s) = 4.61982 3.13237 3.94680
# Velocity P-wave (km/s) = 5.94578 4.66455 5.34370
#
# Compressibility (1/GPa) = 0.05930431
#
# Stress axis : x y z
#
# Youngs Moduli (GPa) = 23.02749 61.12098 77.60565
#
# Poissons Ratio (x) = 0.05163 0.51318
# Poissons Ratio (y) = 0.01945 -0.06000
# Poissons Ratio (z) = 0.15227 -0.04725
#
# Static dielectric constant tensor:
#      x y z
#    x 1.979810 0.000000 0.000000 
#    y 0.000000 1.897160 0.000000 
#    z 0.000000 0.000000 2.022610 
# 
# From -- ./inp_files/32593.got.cif
#   From: 2010.05.17/outbox.cif.g08.bks.cpg/sg62_17_cif.got.tgz:32593.got - 2010.06.03 15:25:27.
