data_PCOD9463387
_publ_section_title
;
Structure prediction by ZEFSAII (Michael W. Deem and Ramdas Pophale) SiO2 
 PCOD9463387
Probable space group: P N M A
;
_chemical_formula_sum "Si O2"
_cell_formula_units_Z 64
_cell_length_a 25.646807
_cell_length_b 7.653372
_cell_length_c 14.632549
_cell_angle_alpha 90.000000
_cell_angle_beta 90.000000
_cell_angle_gamma 90.000000
_cell_volume 2872.143363
_symmetry_space_group_name_H-M "P N M A"
_symmetry_group_IT_number 62
_symmetry_cell_setting 'orthorhombic'
loop_
_space_group_symop_operation_xyz
x,y,z
1/2-x,-y,1/2+z
1/2+x,1/2-y,1/2-z
-x,1/2+y,-z
-x,-y,-z
1/2+x,y,1/2-z
1/2-x,1/2+y,1/2+z
x,1/2-y,z
loop_
_atom_site_type_symbol
_atom_site_label
_atom_site_fract_x
_atom_site_fract_y
_atom_site_fract_z
Si Si1 0.616682 0.448767 0.615299
Si Si2 0.049078 0.034769 0.719412
Si Si3 0.675414 0.463375 0.447336
Si Si4 0.594500 0.046490 0.972955
Si Si5 0.936687 0.452034 0.664308
Si Si6 0.209303 0.960546 0.557448
Si Si7 0.287370 0.452487 0.270085
Si Si8 0.671493 0.545997 0.234734
O O1 0.599237 0.250000 0.598020
O O2 0.576345 0.527448 0.687700
O O3 0.631672 0.527936 0.517589
O O4 0.672092 0.445741 0.668026
O O5 0.050730 0.250000 0.720648
O O6 0.080461 0.980282 0.628337
O O7 0.989740 0.975367 0.706009
O O8 0.674757 0.250000 0.446136
O O9 0.733956 0.517221 0.477924
O O10 0.668223 0.526123 0.344227
O O11 0.581071 0.250000 0.976026
O O12 0.656443 0.025307 0.987803
O O13 0.563103 0.958049 0.054634
O O14 0.935091 0.250000 0.693975
O O15 0.881712 0.532322 0.694831
O O16 0.208075 0.750000 0.553469
O O17 0.208080 0.012787 0.664643
O O18 0.302722 0.250000 0.273874
O O19 0.226664 0.467460 0.295349
O O20 0.674406 0.750000 0.209151
#
# Coordination Sequence:
#
# PCOD9463387 Si02
#       8
#     8   8   8   8   8   8   8   8
#     4  10  19  35  59  84 111 146 186 225 274 335
#     4   9  19  37  58  81 110 143 186 231 272 327
#     4   9  20  36  56  81 113 148 181 226 282 332
#     4  11  21  33  54  84 112 143 184 230 273 323
#     4  10  22  39  57  77 107 150 190 228 279 331
#     4   9  18  33  50  75 112 147 176 212 268 332
#     4  10  20  34  54  81 113 145 178 225 278 326
#     4  10  21  37  57  78 107 148 190 231 275 328
#
# _framework density 22.283010000000001
#
# number of rings (size 3 to 8) (size 9 to 14) (size 15 to 20)
#    0.000    2.250    1.250    2.250    1.750    3.500 
#    0.000    1.875    0.000    0.000    0.000    0.000 
#    0.000    0.000    0.000    0.000    0.000    0.000 
#
# Total GULP energy -357449.579202 kJ/mol
# GULP energy per Si atom -5585.149675 kJ/mol
# Density = 2.223229 g / cm^3
# Si number density = 22.283010 Si / 1000 Ang^3
#
#
#
# Elastic Constant Matrix: (Units=GPa)
#
#
# Indices 1 2 3 4 5 6 
#
# 1 85.7783 -4.1687 4.6384 0.0000 0.0000 0.0000
# 2 -4.1687 42.2690 -7.3723 0.0000 0.0000 0.0000
# 3 4.6384 -7.3723 35.0210 0.0000 0.0000 0.0000
# 4 0.0000 0.0000 0.0000 14.7212 0.0000 0.0000
# 5 0.0000 0.0000 0.0000 0.0000 35.0456 0.0000
# 6 0.0000 0.0000 0.0000 0.0000 0.0000 14.5074
#
#
#
# Elastic Compliance Matrix: (Units=1/GPa)
#
#
# Indices 1 2 3 4 5 6 
#
# 1 0.011777 0.000923 -0.001365 0.000000 0.000000 0.000000
# 2 0.000923 0.024632 0.005063 0.000000 0.000000 0.000000
# 3 -0.001365 0.005063 0.029801 0.000000 0.000000 0.000000
# 4 0.000000 0.000000 0.000000 0.067929 0.000000 0.000000
# 5 0.000000 0.000000 0.000000 0.000000 0.028534 0.000000
# 6 0.000000 0.000000 0.000000 0.000000 0.000000 0.068930
#
#
# Mechanical properties :
#
#
# Convention : Reuss Voigt Hill
#
# Bulk Modulus (GPa) = 13.25352 16.58480 14.91916
# Shear Modulus (GPa) = 20.20102 24.18622 22.19362
#
# Velocity S-wave (km/s) = 3.01419 3.29813 3.15935
# Velocity P-wave (km/s) = 4.25141 4.68642 4.47421
#
# Compressibility (1/GPa) = 0.07545163
#
# Stress axis : x y z
#
# Youngs Moduli (GPa) = 84.91367 40.59735 33.55595
#
# Poissons Ratio (x) = -0.03748 0.04582
# Poissons Ratio (y) = -0.07840 -0.16990
# Poissons Ratio (z) = 0.11594 -0.20555
#
# Static dielectric constant tensor:
#      x y z
#    x 1.825440 0.000000 0.000000 
#    y 0.000000 1.815960 0.000000 
#    z 0.000000 0.000000 1.826120 
# 
# From -- ./inp_files/20913.got.cif
#   From: 2010.05.17/outbox.cif.g08.bks.cpg/sg62_11_cif.got.tgz:20913.got - 2010.06.03 15:25:27.
