data_PCOD9463315
_publ_section_title
;
Structure prediction by ZEFSAII (Michael W. Deem and Ramdas Pophale) SiO2 
 PCOD9463315
Probable space group: P N M A
;
_chemical_formula_sum "Si O2"
_cell_formula_units_Z 48
_cell_length_a 9.551287
_cell_length_b 8.556082
_cell_length_c 31.879867
_cell_angle_alpha 90.000000
_cell_angle_beta 90.000000
_cell_angle_gamma 90.000000
_cell_volume 2605.273573
_symmetry_space_group_name_H-M "P N M A"
_symmetry_group_IT_number 62
_symmetry_cell_setting 'orthorhombic'
loop_
_space_group_symop_operation_xyz
x,y,z
1/2-x,-y,1/2+z
1/2+x,1/2-y,1/2-z
-x,1/2+y,-z
-x,-y,-z
1/2+x,y,1/2-z
1/2-x,1/2+y,1/2+z
x,1/2-y,z
loop_
_atom_site_type_symbol
_atom_site_label
_atom_site_fract_x
_atom_site_fract_y
_atom_site_fract_z
Si Si1 0.584640 0.060784 0.709442
Si Si2 0.906894 0.937825 0.867981
Si Si3 0.910625 0.937477 0.961714
Si Si4 0.909011 0.562305 0.370122
Si Si5 0.592521 0.559452 0.209372
Si Si6 0.914206 0.437326 0.460773
O O1 0.584745 0.250000 0.709292
O O2 0.496833 0.009024 0.750211
O O3 0.746151 0.007983 0.711234
O O4 0.506224 0.003136 0.667982
O O5 0.905888 0.750000 0.866686
O O6 0.954564 0.988252 0.914824
O O7 0.747164 0.996250 0.862566
O O8 0.917142 0.750000 0.962483
O O9 0.748322 0.983343 0.966373
O O10 0.000000 0.000000 0.000000
O O11 0.900974 0.750000 0.369958
O O12 0.958874 0.505050 0.415738
O O13 0.013054 0.511648 0.333048
O O14 0.593828 0.750000 0.209803
O O15 0.922311 0.250000 0.459008
O O16 0.000000 0.500000 0.500000
#
# Coordination Sequence:
#
# PCOD9463315 Si02
#       6
#     8   8   8   8   8   8
#     4  10  19  35  57  80 105 139 178 219 263 314
#     4  10  21  37  53  77 110 142 176 219 266 319
#     4   9  20  36  54  76 105 137 176 221 265 314
#     4  10  19  35  58  82 107 141 180 223 272 322
#     4   9  19  34  56  83 108 135 178 225 266 315
#     4  10  21  37  55  80 111 144 181 223 267 320
#
# _framework density 18.424168000000002
#
# number of rings (size 3 to 8) (size 9 to 14) (size 15 to 20)
#    0.000    2.333    0.000    3.500    0.000    8.000 
#    0.000   10.833    0.000    0.000    0.000    0.000 
#    0.000    0.000    0.000    0.000    0.000    0.000 
#
# Total GULP energy -267912.537072 kJ/mol
# GULP energy per Si atom -5581.511189 kJ/mol
# Density = 1.838223 g / cm^3
# Si number density = 18.424168 Si / 1000 Ang^3
#
#
#
# Elastic Constant Matrix: (Units=GPa)
#
#
# Indices 1 2 3 4 5 6 
#
# 1 128.7274 25.7909 128.6279 0.0000 0.0000 0.0000
# 2 25.7909 25.4340 34.4575 0.0000 0.0000 0.0000
# 3 128.6279 34.4575 221.7832 0.0000 0.0000 0.0000
# 4 0.0000 0.0000 0.0000 32.5326 0.0000 0.0000
# 5 0.0000 0.0000 0.0000 0.0000 42.6631 0.0000
# 6 0.0000 0.0000 0.0000 0.0000 0.0000 21.4974
#
#
#
# Elastic Compliance Matrix: (Units=1/GPa)
#
#
# Indices 1 2 3 4 5 6 
#
# 1 0.019067 -0.005513 -0.010201 0.000000 0.000000 0.000000
# 2 -0.005513 0.051394 -0.004787 0.000000 0.000000 0.000000
# 3 -0.010201 -0.004787 0.011169 0.000000 0.000000 0.000000
# 4 0.000000 0.000000 0.000000 0.030738 0.000000 0.000000
# 5 0.000000 0.000000 0.000000 0.000000 0.023439 0.000000
# 6 0.000000 0.000000 0.000000 0.000000 0.000000 0.046517
#
#
# Mechanical properties :
#
#
# Convention : Reuss Voigt Hill
#
# Bulk Modulus (GPa) = 24.61505 83.74414 54.17959
# Shear Modulus (GPa) = 21.10853 31.80983 26.45918
#
# Velocity S-wave (km/s) = 3.38849 4.15966 3.79372
# Velocity P-wave (km/s) = 5.35708 8.28387 6.97570
#
# Compressibility (1/GPa) = 0.04062556
#
# Stress axis : x y z
#
# Youngs Moduli (GPa) = 52.44782 19.45754 89.53153
#
# Poissons Ratio (x) = 0.10728 0.91335
# Poissons Ratio (y) = 0.28917 0.42861
# Poissons Ratio (z) = 0.53505 0.09315
#
# Static dielectric constant tensor:
#      x y z
#    x 1.612150 0.000000 0.000000 
#    y 0.000000 1.630550 0.000000 
#    z 0.000000 0.000000 1.623890 
# 
# From -- ./inp_files/31969.got.cif
#   From: 2010.05.17/outbox.cif.g08.bks.cpg/sg62_16_cif.got.tgz:31969.got - 2010.06.03 15:25:27.
