data_PCOD9463705
_publ_section_title
;
Structure prediction by ZEFSAII (Michael W. Deem and Ramdas Pophale) SiO2 
 PCOD9463705
Probable space group: P N M A
;
_chemical_formula_sum "Si O2"
_cell_formula_units_Z 64
_cell_length_a 15.598071
_cell_length_b 7.745544
_cell_length_c 25.184293
_cell_angle_alpha 90.000000
_cell_angle_beta 90.000000
_cell_angle_gamma 90.000000
_cell_volume 3042.654090
_symmetry_space_group_name_H-M "P N M A"
_symmetry_group_IT_number 62
_symmetry_cell_setting 'orthorhombic'
loop_
_space_group_symop_operation_xyz
x,y,z
1/2-x,-y,1/2+z
1/2+x,1/2-y,1/2-z
-x,1/2+y,-z
-x,-y,-z
1/2+x,y,1/2-z
1/2-x,1/2+y,1/2+z
x,1/2-y,z
loop_
_atom_site_type_symbol
_atom_site_label
_atom_site_fract_x
_atom_site_fract_y
_atom_site_fract_z
Si Si1 0.747804 0.961789 0.440993
Si Si2 0.110236 0.549568 0.752993
Si Si3 0.903531 0.542421 0.515219
Si Si4 0.232768 0.954201 0.179985
Si Si5 0.594716 0.957768 0.518304
Si Si6 0.349136 0.951036 0.870120
Si Si7 0.855167 0.048315 0.131542
Si Si8 0.582933 0.550466 0.242365
O O1 0.748999 0.750000 0.439649
O O2 0.834045 0.017915 0.471780
O O3 0.739785 0.022775 0.380138
O O4 0.667034 0.017157 0.476855
O O5 0.135735 0.750000 0.756098
O O6 0.177194 0.473934 0.710903
O O7 0.121745 0.470164 0.811682
O O8 0.010001 0.536551 0.740231
O O9 0.893223 0.750000 0.517904
O O10 0.884680 0.476530 0.574611
O O11 0.000000 0.500000 0.500000
O O12 0.216788 0.750000 0.175415
O O13 0.153584 0.022770 0.216053
O O14 0.605442 0.750000 0.521108
O O15 0.607848 0.028715 0.577652
O O16 0.500000 0.000000 0.500000
O O17 0.375939 0.750000 0.865088
O O18 0.246860 0.954303 0.874003
O O19 0.377486 0.041168 0.816334
O O20 0.883681 0.250000 0.133490
O O21 0.567246 0.750000 0.256244
#
# Coordination Sequence:
#
# PCOD9463705 Si02
#       8
#     8   8   8   8   8   8   8   8
#     4   9  19  38  60  80 113 155 186 224 285 346
#     4  11  23  39  61  86 115 153 194 241 290 343
#     4  10  21  37  60  86 113 149 191 236 286 343
#     4  10  22  40  59  84 118 154 193 237 289 347
#     4  10  20  37  60  86 114 150 191 231 281 339
#     4  10  19  38  63  84 110 148 198 245 286 341
#     4   9  18  36  61  84 110 146 191 239 286 335
#     4  11  24  39  58  86 120 155 192 239 290 347
#
# _framework density 21.034265999999999
#
# number of rings (size 3 to 8) (size 9 to 14) (size 15 to 20)
#    0.000    2.000    2.500    0.750    3.500    1.000 
#    0.000    2.500    0.000    0.000    0.000    0.000 
#    0.000    0.000    0.000    0.000    0.000    0.000 
#
# Total GULP energy -357286.288118 kJ/mol
# GULP energy per Si atom -5582.598252 kJ/mol
# Density = 2.098639 g / cm^3
# Si number density = 21.034266 Si / 1000 Ang^3
#
#
#
# Elastic Constant Matrix: (Units=GPa)
#
#
# Indices 1 2 3 4 5 6 
#
# 1 71.7215 -12.6285 19.7891 0.0000 0.0000 0.0000
# 2 -12.6285 31.3610 -2.0065 0.0000 0.0000 0.0000
# 3 19.7891 -2.0065 129.5249 0.0000 0.0000 0.0000
# 4 0.0000 0.0000 0.0000 13.0139 0.0000 0.0000
# 5 0.0000 0.0000 0.0000 0.0000 37.2410 0.0000
# 6 0.0000 0.0000 0.0000 0.0000 0.0000 7.1936
#
#
#
# Elastic Compliance Matrix: (Units=1/GPa)
#
#
# Indices 1 2 3 4 5 6 
#
# 1 0.015661 0.006159 -0.002297 0.000000 0.000000 0.000000
# 2 0.006159 0.034341 -0.000409 0.000000 0.000000 0.000000
# 3 -0.002297 -0.000409 0.008065 0.000000 0.000000 0.000000
# 4 0.000000 0.000000 0.000000 0.076841 0.000000 0.000000
# 5 0.000000 0.000000 0.000000 0.000000 0.026852 0.000000
# 6 0.000000 0.000000 0.000000 0.000000 0.000000 0.139012
#
#
# Mechanical properties :
#
#
# Convention : Reuss Voigt Hill
#
# Bulk Modulus (GPa) = 15.39091 26.99062 21.19077
# Shear Modulus (GPa) = 15.84665 26.65326 21.24995
#
# Velocity S-wave (km/s) = 2.74774 3.56355 3.18190
# Velocity P-wave (km/s) = 4.17130 5.45815 4.85753
#
# Compressibility (1/GPa) = 0.06497341
#
# Stress axis : x y z
#
# Youngs Moduli (GPa) = 63.85188 29.11985 123.98979
#
# Poissons Ratio (x) = -0.17936 0.28485
# Poissons Ratio (y) = -0.39330 0.05072
# Poissons Ratio (z) = 0.14669 0.01191
#
# Static dielectric constant tensor:
#      x y z
#    x 1.709670 0.000000 0.000000 
#    y 0.000000 1.804670 0.000000 
#    z 0.000000 0.000000 1.368610 
# 
# From -- ./inp_files/29760.got.cif
#   From: 2010.05.17/outbox.cif.g08.bks.cpg/sg62_15_cif.got.tgz:29760.got - 2010.06.03 15:25:27.
