data_PCOD9463418
_publ_section_title
;
Structure prediction by ZEFSAII (Michael W. Deem and Ramdas Pophale) SiO2 
 PCOD9463418
Probable space group: P N M A
;
_chemical_formula_sum "Si O2"
_cell_formula_units_Z 48
_cell_length_a 20.867063
_cell_length_b 7.948232
_cell_length_c 14.584883
_cell_angle_alpha 90.000000
_cell_angle_beta 90.000000
_cell_angle_gamma 90.000000
_cell_volume 2418.994116
_symmetry_space_group_name_H-M "P N M A"
_symmetry_group_IT_number 62
_symmetry_cell_setting 'orthorhombic'
loop_
_space_group_symop_operation_xyz
x,y,z
1/2-x,-y,1/2+z
1/2+x,1/2-y,1/2-z
-x,1/2+y,-z
-x,-y,-z
1/2+x,y,1/2-z
1/2-x,1/2+y,1/2+z
x,1/2-y,z
loop_
_atom_site_type_symbol
_atom_site_label
_atom_site_fract_x
_atom_site_fract_y
_atom_site_fract_z
Si Si1 0.061563 0.052406 0.941734
Si Si2 0.240395 0.548131 0.236083
Si Si3 0.808497 0.046054 0.960186
Si Si4 0.432829 0.952894 0.045604
Si Si5 0.611099 0.043461 0.752832
Si Si6 0.186426 0.452580 0.424502
O O1 0.055579 0.250000 0.928622
O O2 0.074533 0.982425 0.838806
O O3 0.124404 0.014421 0.001276
O O4 0.000000 0.000000 0.000000
O O5 0.244680 0.750000 0.230428
O O6 0.210139 0.487300 0.141180
O O7 0.313984 0.488878 0.249678
O O8 0.194419 0.502797 0.319711
O O9 0.809638 0.250000 0.960122
O O10 0.751161 0.988674 0.025944
O O11 0.429327 0.750000 0.048221
O O12 0.420549 0.009868 0.150539
O O13 0.375172 0.014612 0.980163
O O14 0.500000 0.000000 0.000000
O O15 0.611288 0.250000 0.752285
O O16 0.185317 0.250000 0.429550
#
# Coordination Sequence:
#
# PCOD9463418 Si02
#       6
#     8   8   8   8   8   8
#     4  11  23  39  60  85 117 153 193 236 284 343
#     4  10  19  35  60  86 112 149 195 233 278 343
#     4  10  20  36  59  85 113 148 189 236 287 337
#     4  10  21  39  59  82 115 151 189 232 284 338
#     4   9  18  36  60  81 107 150 192 230 279 339
#     4  10  20  35  57  85 115 144 183 241 290 325
#
# _framework density 19.842957999999999
#
# number of rings (size 3 to 8) (size 9 to 14) (size 15 to 20)
#    0.000    2.000    3.333    0.500    0.000    2.667 
#    0.000    7.500    0.000    0.000    0.000    0.000 
#    0.000    0.000    0.000    0.000    0.000    0.000 
#
# Total GULP energy -267919.385888 kJ/mol
# GULP energy per Si atom -5581.653873 kJ/mol
# Density = 1.979779 g / cm^3
# Si number density = 19.842958 Si / 1000 Ang^3
#
#
#
# Elastic Constant Matrix: (Units=GPa)
#
#
# Indices 1 2 3 4 5 6 
#
# 1 133.1779 1.0605 57.3586 0.0000 0.0000 0.0000
# 2 1.0605 11.6638 1.7222 0.0000 0.0000 0.0000
# 3 57.3586 1.7222 157.9982 0.0000 0.0000 0.0000
# 4 0.0000 0.0000 0.0000 26.0020 0.0000 0.0000
# 5 0.0000 0.0000 0.0000 0.0000 26.1196 0.0000
# 6 0.0000 0.0000 0.0000 0.0000 0.0000 28.8749
#
#
#
# Elastic Compliance Matrix: (Units=1/GPa)
#
#
# Indices 1 2 3 4 5 6 
#
# 1 0.008902 -0.000333 -0.003228 0.000000 0.000000 0.000000
# 2 -0.000333 0.085886 -0.000815 0.000000 0.000000 0.000000
# 3 -0.003228 -0.000815 0.007510 0.000000 0.000000 0.000000
# 4 0.000000 0.000000 0.000000 0.038459 0.000000 0.000000
# 5 0.000000 0.000000 0.000000 0.000000 0.038285 0.000000
# 6 0.000000 0.000000 0.000000 0.000000 0.000000 0.034632
#
#
# Mechanical properties :
#
#
# Convention : Reuss Voigt Hill
#
# Bulk Modulus (GPa) = 10.68998 47.01361 28.85180
# Shear Modulus (GPa) = 19.71548 32.37920 26.04734
#
# Velocity S-wave (km/s) = 3.15552 4.04390 3.62702
# Velocity P-wave (km/s) = 4.32151 6.74896 5.66674
#
# Compressibility (1/GPa) = 0.09354550
#
# Stress axis : x y z
#
# Youngs Moduli (GPa) = 112.33855 11.64333 133.15695
#
# Poissons Ratio (x) = 0.00387 0.42983
# Poissons Ratio (y) = 0.03738 0.10857
# Poissons Ratio (z) = 0.36263 0.00949
#
# Static dielectric constant tensor:
#      x y z
#    x 1.631080 0.000000 0.000000 
#    y 0.000000 1.714750 0.000000 
#    z 0.000000 0.000000 1.787680 
# 
# From -- ./inp_files/19572.got.cif
#   From: 2010.05.17/outbox.cif.g08.bks.cpg/sg62_10_cif.got.tgz:19572.got - 2010.06.03 15:25:27.
