data_PCOD9463536
_publ_section_title
;
Structure prediction by ZEFSAII (Michael W. Deem and Ramdas Pophale) SiO2 
 PCOD9463536
Probable space group: P N M A
;
_chemical_formula_sum "Si O2"
_cell_formula_units_Z 56
_cell_length_a 8.220589
_cell_length_b 17.968090
_cell_length_c 18.777067
_cell_angle_alpha 90.000000
_cell_angle_beta 90.000000
_cell_angle_gamma 90.000000
_cell_volume 2773.528326
_symmetry_space_group_name_H-M "P N M A"
_symmetry_group_IT_number 62
_symmetry_cell_setting 'orthorhombic'
loop_
_space_group_symop_operation_xyz
x,y,z
1/2-x,-y,1/2+z
1/2+x,1/2-y,1/2-z
-x,1/2+y,-z
-x,-y,-z
1/2+x,y,1/2-z
1/2-x,1/2+y,1/2+z
x,1/2-y,z
loop_
_atom_site_type_symbol
_atom_site_label
_atom_site_fract_x
_atom_site_fract_y
_atom_site_fract_z
Si Si1 0.053500 0.107164 0.420847
Si Si2 0.948930 0.164307 0.924794
Si Si3 0.556295 0.467567 0.829992
Si Si4 0.553839 0.750000 0.668926
Si Si5 0.443707 0.467567 0.670008
Si Si6 0.551069 0.164307 0.924794
Si Si7 0.446161 0.750000 0.831074
Si Si8 0.946499 0.107163 0.079153
O O1 0.000478 0.124880 0.501336
O O2 0.997846 0.176180 0.371974
O O3 0.249999 0.106368 0.421012
O O4 0.995790 0.031219 0.385349
O O5 0.003374 0.250000 0.921989
O O6 0.003066 0.112048 0.859916
O O7 0.750000 0.165940 0.925189
O O8 0.999521 0.124880 0.998664
O O9 0.500001 0.483565 0.750000
O O10 0.750001 0.465758 0.829210
O O11 0.496934 0.387952 0.859916
O O12 0.500000 0.750000 0.750000
O O13 0.750000 0.750000 0.666270
O O14 0.497846 0.823820 0.628026
O O15 0.495792 0.531218 0.614651
O O16 0.496625 0.250000 0.921988
#
# Coordination Sequence:
#
# PCOD9463536 Si02
#       8
#     8   8   8   4   8   8   4   8
#     4  10  19  36  60  83 110 144 185 230 279 336
#     4   9  18  36  61  85 110 145 188 231 280 334
#     4  11  23  37  56  83 115 150 188 231 278 330
#     4  10  20  32  52  80 109 144 180 218 269 328
#     4  11  23  37  56  83 115 150 188 231 278 330
#     4   9  18  36  61  85 110 145 188 231 280 334
#     4  10  20  32  52  80 109 144 180 218 269 328
#     4  10  19  36  60  83 110 144 185 230 279 336
#
# _framework density 20.190887
#
# number of rings (size 3 to 8) (size 9 to 14) (size 15 to 20)
#    0.000    2.000    1.429    2.571    0.000    4.000 
#    0.000    1.429    0.000    6.000    0.000    0.000 
#    0.000    0.000    0.000    0.000    0.000    0.000 
#
# Total GULP energy -312775.128559 kJ/mol
# GULP energy per Si atom -5585.270153 kJ/mol
# Density = 2.014493 g / cm^3
# Si number density = 20.190887 Si / 1000 Ang^3
#
#
#
# Elastic Constant Matrix: (Units=GPa)
#
#
# Indices 1 2 3 4 5 6 
#
# 1 12.6368 13.3492 4.1292 0.0000 0.0000 0.0000
# 2 13.3492 144.0898 32.2164 0.0000 0.0000 0.0000
# 3 4.1292 32.2164 13.7292 0.0000 0.0000 0.0000
# 4 0.0000 0.0000 0.0000 -75.9966 0.0000 0.0000
# 5 0.0000 0.0000 0.0000 0.0000 0.6416 0.0000
# 6 0.0000 0.0000 0.0000 0.0000 0.0000 16.4685
#
#
#
# Elastic Compliance Matrix: (Units=1/GPa)
#
#
# Indices 1 2 3 4 5 6 
#
# 1 0.089291 -0.004771 -0.015660 0.000000 0.000000 0.000000
# 2 -0.004771 0.014855 -0.033424 0.000000 0.000000 0.000000
# 3 -0.015660 -0.033424 0.155978 0.000000 0.000000 0.000000
# 4 0.000000 0.000000 0.000000 -0.013158 0.000000 0.000000
# 5 0.000000 0.000000 0.000000 0.000000 1.558538 0.000000
# 6 0.000000 0.000000 0.000000 0.000000 0.000000 0.060722
#
#
# Mechanical properties :
#
#
# Convention : Reuss Voigt Hill
#
# Bulk Modulus (GPa) = 6.56103 29.98282 18.27192
# Shear Modulus (GPa) = 2.46945 -3.72656 -0.62856
#
# Velocity S-wave (km/s) = 1.10712 -1.36003 -0.55855
# Velocity P-wave (km/s) = 2.21152 3.52359 2.94164
#
# Compressibility (1/GPa) = 0.15241519
#
# Stress axis : x y z
#
# Youngs Moduli (GPa) = 11.19932 67.31667 6.41117
#
# Poissons Ratio (x) = 0.32117 0.10040
# Poissons Ratio (y) = 0.05343 0.21428
# Poissons Ratio (z) = 0.17538 2.24996
#
# Static dielectric constant tensor:
#      x y z
#    x 1.709090 0.000000 0.000000 
#    y 0.000000 1.712370 0.000000 
#    z 0.000000 0.000000 1.697880 
# 
# From -- ./inp_files/22448.got.cif
#   From: 2010.05.17/outbox.cif.g08.bks.cpg/sg62_12_cif.got.tgz:22448.got - 2010.06.03 15:25:27.
