data_PCOD9463649
_publ_section_title
;
Structure prediction by ZEFSAII (Michael W. Deem and Ramdas Pophale) SiO2 
 PCOD9463649
Probable space group: P N M A
;
_chemical_formula_sum "Si O2"
_cell_formula_units_Z 52
_cell_length_a 15.487470
_cell_length_b 9.296124
_cell_length_c 17.287927
_cell_angle_alpha 90.000000
_cell_angle_beta 90.000000
_cell_angle_gamma 90.000000
_cell_volume 2489.002348
_symmetry_space_group_name_H-M "P N M A"
_symmetry_group_IT_number 62
_symmetry_cell_setting 'orthorhombic'
loop_
_space_group_symop_operation_xyz
x,y,z
1/2-x,-y,1/2+z
1/2+x,1/2-y,1/2-z
-x,1/2+y,-z
-x,-y,-z
1/2+x,y,1/2-z
1/2-x,1/2+y,1/2+z
x,1/2-y,z
loop_
_atom_site_type_symbol
_atom_site_label
_atom_site_fract_x
_atom_site_fract_y
_atom_site_fract_z
Si Si1 0.141973 0.908526 0.651650
Si Si2 0.109292 0.418362 0.234303
Si Si3 0.292412 0.079939 0.600680
Si Si4 0.909834 0.577573 0.022947
Si Si5 0.089127 0.913943 0.823720
Si Si6 0.049638 0.026325 0.400290
Si Si7 0.967374 0.750000 0.477872
O O1 0.179059 0.750000 0.633747
O O2 0.141435 0.930712 0.744047
O O3 0.042734 0.905980 0.625838
O O4 0.193118 0.034334 0.609906
O O5 0.135214 0.250000 0.230214
O O6 0.165215 0.519893 0.179735
O O7 0.011470 0.426329 0.200845
O O8 0.107024 0.467588 0.323365
O O9 0.304059 0.250000 0.591493
O O10 0.338083 0.990561 0.532859
O O11 0.916123 0.750000 0.014415
O O12 0.891220 0.529144 0.110698
O O13 0.000000 0.500000 0.000000
O O14 0.102480 0.750000 0.852649
O O15 0.080798 0.125217 0.469600
O O16 0.023904 0.873242 0.432363
#
# Coordination Sequence:
#
# PCOD9463649 Si02
#       7
#     8   8   8   8   8   8   4
#     4  10  21  42  64  88 125 166 196 245 314 377
#     4  10  19  37  61  90 118 158 199 248 305 367
#     4  12  26  39  61  91 126 162 207 252 309 371
#     4  12  23  39  63  94 125 160 206 261 307 361
#     4   9  19  37  65  90 118 155 205 249 301 366
#     4  10  20  38  65  93 122 156 209 255 312 357
#     4  10  20  36  62  94 120 158 210 260 292 364
#
# _framework density 20.891905999999999
#
# number of rings (size 3 to 8) (size 9 to 14) (size 15 to 20)
#    0.000    1.538    3.077    3.692    2.154    0.615 
#    2.769    3.077    3.385    0.000    0.000    0.000 
#    0.000    0.000    0.000    0.000    0.000    0.000 
#
# Total GULP energy -289514.848570 kJ/mol
# GULP energy per Si atom -5567.593242 kJ/mol
# Density = 2.084436 g / cm^3
# Si number density = 20.891906 Si / 1000 Ang^3
#
#
#
# Elastic Constant Matrix: (Units=GPa)
#
#
# Indices 1 2 3 4 5 6 
#
# 1 34.7657 1.6612 10.4388 0.0000 0.0000 0.0000
# 2 1.6612 161.4667 64.7210 0.0000 0.0000 0.0000
# 3 10.4388 64.7210 97.9429 0.0000 0.0000 0.0000
# 4 0.0000 0.0000 0.0000 30.5583 0.0000 0.0000
# 5 0.0000 0.0000 0.0000 0.0000 23.9683 0.0000
# 6 0.0000 0.0000 0.0000 0.0000 0.0000 6.6919
#
#
#
# Elastic Compliance Matrix: (Units=1/GPa)
#
#
# Indices 1 2 3 4 5 6 
#
# 1 0.029920 0.001320 -0.004061 0.000000 0.000000 0.000000
# 2 0.001320 0.008483 -0.005746 0.000000 0.000000 0.000000
# 3 -0.004061 -0.005746 0.014440 0.000000 0.000000 0.000000
# 4 0.000000 0.000000 0.000000 0.032724 0.000000 0.000000
# 5 0.000000 0.000000 0.000000 0.000000 0.041722 0.000000
# 6 0.000000 0.000000 0.000000 0.000000 0.000000 0.149433
#
#
# Mechanical properties :
#
#
# Convention : Reuss Voigt Hill
#
# Bulk Modulus (GPa) = 27.87963 49.75746 38.81855
# Shear Modulus (GPa) = 16.35838 26.73401 21.54620
#
# Velocity S-wave (km/s) = 2.80125 3.58108 3.21490
# Velocity P-wave (km/s) = 4.88225 6.40056 5.69225
#
# Compressibility (1/GPa) = 0.03586848
#
# Stress axis : x y z
#
# Youngs Moduli (GPa) = 33.42208 117.88401 69.25207
#
# Poissons Ratio (x) = -0.15561 0.28125
# Poissons Ratio (y) = -0.04412 0.39794
# Poissons Ratio (z) = 0.13573 0.67739
#
# Static dielectric constant tensor:
#      x y z
#    x 1.799320 0.000000 0.000000 
#    y 0.000000 2.067310 0.000000 
#    z 0.000000 0.000000 1.784580 
# 
# From -- ./inp_files/24324.got.cif
#   From: 2010.05.17/outbox.cif.g08.bks.cpg/sg62_13_cif.got.tgz:24324.got - 2010.06.03 15:25:27.
