data_PCOD9463984
_publ_section_title
;
Structure prediction by ZEFSAII (Michael W. Deem and Ramdas Pophale) SiO2 
 PCOD9463984
Probable space group: P N M A
;
_chemical_formula_sum "Si O2"
_cell_formula_units_Z 64
_cell_length_a 16.850086
_cell_length_b 8.172156
_cell_length_c 23.621829
_cell_angle_alpha 90.000000
_cell_angle_beta 90.000000
_cell_angle_gamma 90.000000
_cell_volume 3252.762028
_symmetry_space_group_name_H-M "P N M A"
_symmetry_group_IT_number 62
_symmetry_cell_setting 'orthorhombic'
loop_
_space_group_symop_operation_xyz
x,y,z
1/2-x,-y,1/2+z
1/2+x,1/2-y,1/2-z
-x,1/2+y,-z
-x,-y,-z
1/2+x,y,1/2-z
1/2-x,1/2+y,1/2+z
x,1/2-y,z
loop_
_atom_site_type_symbol
_atom_site_label
_atom_site_fract_x
_atom_site_fract_y
_atom_site_fract_z
Si Si1 0.262737 0.051599 0.096953
Si Si2 0.550335 0.556452 0.053895
Si Si3 0.887601 0.562453 0.840462
Si Si4 0.728769 0.054982 0.031148
Si Si5 0.042407 0.551283 0.772934
Si Si6 0.362694 0.052232 0.380011
Si Si7 0.483959 0.435327 0.561636
Si Si8 0.931018 0.054086 0.353924
O O1 0.260659 0.250000 0.098871
O O2 0.198826 0.990794 0.144002
O O3 0.351079 0.994493 0.114597
O O4 0.245468 0.005121 0.031553
O O5 0.546287 0.750000 0.058016
O O6 0.640466 0.504844 0.044019
O O7 0.507944 0.482708 0.108739
O O8 0.500000 0.500000 0.000000
O O9 0.875584 0.750000 0.822154
O O10 0.957871 0.491775 0.800100
O O11 0.927973 0.552611 0.902252
O O12 0.729114 0.250000 0.028039
O O13 0.784251 0.009405 0.084725
O O14 0.035001 0.750000 0.771615
O O15 0.118006 0.519595 0.813961
O O16 0.057855 0.490484 0.709793
O O17 0.375201 0.250000 0.387760
O O18 0.431507 0.948629 0.408862
O O19 0.500000 0.500000 0.500000
O O20 0.452866 0.250000 0.561954
O O21 0.922423 0.250000 0.350043
#
# Coordination Sequence:
#
# PCOD9463984 Si02
#       8
#     8   8   8   8   8   8   8   8
#     4  10  20  33  54  83 114 149 191 238 289 342
#     4  12  24  40  61  84 113 147 186 234 287 342
#     4   9  18  34  53  78 111 150 191 236 282 333
#     4  11  22  36  58  88 119 148 183 232 290 346
#     4   8  16  35  59  82 114 151 194 238 278 335
#     4   9  19  36  56  82 113 147 186 232 279 332
#     4  11  20  30  48  75 107 148 187 228 279 334
#     4  10  20  37  60  85 112 150 193 238 290 338
#
# _framework density 19.675585999999999
#
# number of rings (size 3 to 8) (size 9 to 14) (size 15 to 20)
#    0.000    2.000    1.250    4.125    0.000    3.500 
#    2.250    2.500    0.000    0.000    0.000    0.000 
#    0.000    0.000    0.000    0.000    0.000    0.000 
#
# Total GULP energy -356592.288517 kJ/mol
# GULP energy per Si atom -5571.754508 kJ/mol
# Density = 1.963080 g / cm^3
# Si number density = 19.675586 Si / 1000 Ang^3
#
#
#
# Elastic Constant Matrix: (Units=GPa)
#
#
# Indices 1 2 3 4 5 6 
#
# 1 112.8174 9.1318 42.0184 0.0000 0.0000 0.0000
# 2 9.1318 18.4019 9.1086 0.0000 0.0000 0.0000
# 3 42.0184 9.1086 137.2766 0.0000 0.0000 0.0000
# 4 0.0000 0.0000 0.0000 17.8764 0.0000 0.0000
# 5 0.0000 0.0000 0.0000 0.0000 25.3303 0.0000
# 6 0.0000 0.0000 0.0000 0.0000 0.0000 17.5584
#
#
#
# Elastic Compliance Matrix: (Units=1/GPa)
#
#
# Indices 1 2 3 4 5 6 
#
# 1 0.010236 -0.003649 -0.002891 0.000000 0.000000 0.000000
# 2 -0.003649 0.057488 -0.002698 0.000000 0.000000 0.000000
# 3 -0.002891 -0.002698 0.008348 0.000000 0.000000 0.000000
# 4 0.000000 0.000000 0.000000 0.055940 0.000000 0.000000
# 5 0.000000 0.000000 0.000000 0.000000 0.039478 0.000000
# 6 0.000000 0.000000 0.000000 0.000000 0.000000 0.056953
#
#
# Mechanical properties :
#
#
# Convention : Reuss Voigt Hill
#
# Bulk Modulus (GPa) = 17.36170 43.22373 30.29272
# Shear Modulus (GPa) = 18.78872 26.03550 22.41211
#
# Velocity S-wave (km/s) = 3.09354 3.64158 3.37869
# Velocity P-wave (km/s) = 4.64792 6.30059 5.53627
#
# Compressibility (1/GPa) = 0.05759803
#
# Stress axis : x y z
#
# Youngs Moduli (GPa) = 97.69493 17.39492 119.78276
#
# Poissons Ratio (x) = 0.06347 0.34629
# Poissons Ratio (y) = 0.35644 0.32314
# Poissons Ratio (z) = 0.28243 0.04693
#
# Static dielectric constant tensor:
#      x y z
#    x 1.479130 0.000000 0.000000 
#    y 0.000000 1.706550 0.000000 
#    z 0.000000 0.000000 1.662010 
# 
# From -- ./inp_files/29838.got.cif
#   From: 2010.05.17/outbox.cif.g08.bks.cpg/sg62_15_cif.got.tgz:29838.got - 2010.06.03 15:25:27.
