data_PCOD9463855
_publ_section_title
;
Structure prediction by ZEFSAII (Michael W. Deem and Ramdas Pophale) SiO2 
 PCOD9463855
Probable space group: P N M A
;
_chemical_formula_sum "Si O2"
_cell_formula_units_Z 56
_cell_length_a 21.213389
_cell_length_b 7.457491
_cell_length_c 15.666597
_cell_angle_alpha 90.000000
_cell_angle_beta 90.000000
_cell_angle_gamma 90.000000
_cell_volume 2478.434614
_symmetry_space_group_name_H-M "P N M A"
_symmetry_group_IT_number 62
_symmetry_cell_setting 'orthorhombic'
loop_
_space_group_symop_operation_xyz
x,y,z
1/2-x,-y,1/2+z
1/2+x,1/2-y,1/2-z
-x,1/2+y,-z
-x,-y,-z
1/2+x,y,1/2-z
1/2-x,1/2+y,1/2+z
x,1/2-y,z
loop_
_atom_site_type_symbol
_atom_site_label
_atom_site_fract_x
_atom_site_fract_y
_atom_site_fract_z
Si Si1 0.537860 0.955887 0.231535
Si Si2 0.689663 0.468846 0.686489
Si Si3 0.828532 0.031739 0.675764
Si Si4 0.545387 0.463090 0.420352
Si Si5 0.678653 0.468275 0.488323
Si Si6 0.682219 0.534585 0.978166
Si Si7 0.408481 0.538371 0.174705
O O1 0.544458 0.750000 0.202322
O O2 0.607703 0.034632 0.219729
O O3 0.479026 0.037229 0.180671
O O4 0.521175 0.959068 0.331461
O O5 0.689323 0.250000 0.688430
O O6 0.760528 0.528537 0.710167
O O7 0.676189 0.519103 0.588426
O O8 0.637430 0.535405 0.751903
O O9 0.826512 0.250000 0.680757
O O10 0.830349 0.981308 0.575803
O O11 0.500000 0.500000 0.500000
O O12 0.548333 0.250000 0.409111
O O13 0.616045 0.530945 0.440673
O O14 0.677787 0.250000 0.485934
O O15 0.746985 0.527783 0.453908
O O16 0.683889 0.750000 0.977494
O O17 0.628002 0.478697 0.913848
O O18 0.415151 0.750000 0.192785
#
# Coordination Sequence:
#
# PCOD9463855 Si02
#       7
#     8   8   8   8   8   8   8
#     4  10  21  36  53  77 107 141 179 222 266 315
#     4   8  14  28  50  72  97 134 173 209 254 315
#     4   8  16  32  53  74  98 135 180 217 257 315
#     4  11  22  36  55  80 110 144 178 218 271 324
#     4   8  16  32  53  75 101 134 174 218 263 312
#     4   9  18  34  55  77 101 136 180 221 265 317
#     4  10  20  32  50  77 107 137 173 218 270 317
#
# _framework density 22.594906999999999
#
# number of rings (size 3 to 8) (size 9 to 14) (size 15 to 20)
#    0.000    2.857    0.000    3.000    2.000    3.429 
#    0.000    1.429    0.000    3.429    0.000    0.000 
#    0.000    0.000    0.000    0.000    0.000    0.000 
#
# Total GULP energy -312689.365139 kJ/mol
# GULP energy per Si atom -5583.738663 kJ/mol
# Density = 2.254348 g / cm^3
# Si number density = 22.594907 Si / 1000 Ang^3
#
#
#
# Elastic Constant Matrix: (Units=GPa)
#
#
# Indices 1 2 3 4 5 6 
#
# 1 99.9239 9.3028 7.9179 0.0000 0.0000 0.0000
# 2 9.3028 69.4862 -7.1108 0.0000 0.0000 0.0000
# 3 7.9179 -7.1108 20.2529 0.0000 0.0000 0.0000
# 4 0.0000 0.0000 0.0000 12.9585 0.0000 0.0000
# 5 0.0000 0.0000 0.0000 0.0000 38.8730 0.0000
# 6 0.0000 0.0000 0.0000 0.0000 0.0000 -2.6533
#
#
#
# Elastic Compliance Matrix: (Units=1/GPa)
#
#
# Indices 1 2 3 4 5 6 
#
# 1 0.010565 -0.001906 -0.004800 0.000000 0.000000 0.000000
# 2 -0.001906 0.015271 0.006107 0.000000 0.000000 0.000000
# 3 -0.004800 0.006107 0.053396 0.000000 0.000000 0.000000
# 4 0.000000 0.000000 0.000000 0.077169 0.000000 0.000000
# 5 0.000000 0.000000 0.000000 0.000000 0.025725 0.000000
# 6 0.000000 0.000000 0.000000 0.000000 0.000000 -0.376886
#
#
# Mechanical properties :
#
#
# Convention : Reuss Voigt Hill
#
# Bulk Modulus (GPa) = 12.81461 23.32032 18.06746
# Shear Modulus (GPa) = -29.84180 21.80585 -4.01797
#
# Velocity S-wave (km/s) = -3.63813 3.10994 -1.33496
# Velocity P-wave (km/s) = 3.45893 4.82070 2.37433
#
# Compressibility (1/GPa) = 0.07803595
#
# Stress axis : x y z
#
# Youngs Moduli (GPa) = 94.64910 65.48185 18.72795
#
# Poissons Ratio (x) = 0.12479 0.08989
# Poissons Ratio (y) = 0.18037 -0.11437
# Poissons Ratio (z) = 0.45428 -0.39988
#
# Static dielectric constant tensor:
#      x y z
#    x 1.865810 0.000000 0.000000 
#    y 0.000000 1.853190 0.000000 
#    z 0.000000 0.000000 1.788630 
# 
# From -- ./inp_files/20196.got.cif
#   From: 2010.05.17/outbox.cif.g08.bks.cpg/sg62_11_cif.got.tgz:20196.got - 2010.06.03 15:25:27.
