data_PCOD9463520
_publ_section_title
;
Structure prediction by ZEFSAII (Michael W. Deem and Ramdas Pophale) SiO2 
 PCOD9463520
Probable space group: P N M A
;
_chemical_formula_sum "Si O2"
_cell_formula_units_Z 56
_cell_length_a 8.450147
_cell_length_b 18.821463
_cell_length_c 13.546401
_cell_angle_alpha 90.000000
_cell_angle_beta 90.000000
_cell_angle_gamma 90.000000
_cell_volume 2154.475550
_symmetry_space_group_name_H-M "P N M A"
_symmetry_group_IT_number 62
_symmetry_cell_setting 'orthorhombic'
loop_
_space_group_symop_operation_xyz
x,y,z
1/2-x,-y,1/2+z
1/2+x,1/2-y,1/2-z
-x,1/2+y,-z
-x,-y,-z
1/2+x,y,1/2-z
1/2-x,1/2+y,1/2+z
x,1/2-y,z
loop_
_atom_site_type_symbol
_atom_site_label
_atom_site_fract_x
_atom_site_fract_y
_atom_site_fract_z
Si Si1 0.251737 0.830692 0.505562
Si Si2 0.212041 0.405809 0.611827
Si Si3 0.166717 0.915575 0.792086
Si Si4 0.622692 0.037460 0.392874
Si Si5 0.809702 0.250000 0.892861
Si Si6 0.101936 0.623374 0.310632
Si Si7 0.093666 0.250000 0.783752
Si Si8 0.457661 0.832564 0.853743
O O1 0.288125 0.750000 0.536399
O O2 0.369209 0.891776 0.540749
O O3 0.218900 0.839293 0.389091
O O4 0.082333 0.844463 0.558579
O O5 0.305250 0.468140 0.555756
O O6 0.241989 0.325440 0.570051
O O7 0.303001 0.407340 0.718738
O O8 0.026295 0.423702 0.628869
O O9 0.257103 0.946657 0.697535
O O10 0.303438 0.881153 0.857509
O O11 0.051074 0.969959 0.846732
O O12 0.051520 0.855079 0.746049
O O13 0.757482 0.250000 0.776846
O O14 0.000021 0.250000 0.888731
O O15 0.980336 0.679552 0.265510
O O16 0.414267 0.750000 0.850461
#
# Coordination Sequence:
#
# PCOD9463520 Si02
#       8
#     8   8   8   8   4   8   4   8
#     4  10  21  37  57  85 122 159 194 246 304 359
#     4  10  20  35  60  86 112 153 197 249 292 353
#     4   9  18  32  52  78 115 156 198 246 282 351
#     4  10  20  35  56  86 119 156 205 244 301 356
#     4   8  16  28  50  80 104 134 182 234 288 328
#     4  10  19  36  59  83 117 148 199 246 299 356
#     4   8  14  28  50  76 102 136 170 234 280 340
#     4   9  17  30  53  81 110 150 199 243 292 344
#
# _framework density 25.992405999999999
#
# number of rings (size 3 to 8) (size 9 to 14) (size 15 to 20)
#    0.000    2.571    0.714    1.286    0.000    4.571 
#    0.000    1.429    0.000    2.571    0.000    0.000 
#    0.000    0.000    0.000    0.000    0.000    0.000 
#
# Total GULP energy -312993.975080 kJ/mol
# GULP energy per Si atom -5589.178126 kJ/mol
# Density = 2.593325 g / cm^3
# Si number density = 25.992406 Si / 1000 Ang^3
#
#
#
# Elastic Constant Matrix: (Units=GPa)
#
#
# Indices 1 2 3 4 5 6 
#
# 1 112.6185 12.7272 -3.2498 0.0000 0.0000 0.0000
# 2 12.7272 110.0385 27.1838 0.0000 0.0000 0.0000
# 3 -3.2498 27.1838 45.5873 0.0000 0.0000 0.0000
# 4 0.0000 0.0000 0.0000 19.0884 0.0000 0.0000
# 5 0.0000 0.0000 0.0000 0.0000 32.8759 0.0000
# 6 0.0000 0.0000 0.0000 0.0000 0.0000 32.2090
#
#
#
# Elastic Compliance Matrix: (Units=1/GPa)
#
#
# Indices 1 2 3 4 5 6 
#
# 1 0.009083 -0.001420 0.001494 0.000000 0.000000 0.000000
# 2 -0.001420 0.010880 -0.006589 0.000000 0.000000 0.000000
# 3 0.001494 -0.006589 0.025971 0.000000 0.000000 0.000000
# 4 0.000000 0.000000 0.000000 0.052388 0.000000 0.000000
# 5 0.000000 0.000000 0.000000 0.000000 0.030417 0.000000
# 6 0.000000 0.000000 0.000000 0.000000 0.000000 0.031047
#
#
# Mechanical properties :
#
#
# Convention : Reuss Voigt Hill
#
# Bulk Modulus (GPa) = 30.39020 37.95185 34.17103
# Shear Modulus (GPa) = 27.20591 32.27354 29.73973
#
# Velocity S-wave (km/s) = 3.23876 3.52753 3.38623
# Velocity P-wave (km/s) = 5.06986 5.58786 5.33515
#
# Compressibility (1/GPa) = 0.03290534
#
# Stress axis : x y z
#
# Youngs Moduli (GPa) = 110.09476 91.91514 38.50402
#
# Poissons Ratio (x) = 0.13049 -0.05753
# Poissons Ratio (y) = 0.15630 0.25369
# Poissons Ratio (z) = -0.16449 0.60560
#
# Static dielectric constant tensor:
#      x y z
#    x 2.144090 0.000000 0.000000 
#    y 0.000000 2.128120 0.000000 
#    z 0.000000 0.000000 2.091290 
# 
# From -- ./inp_files/17261.got.cif
#   From: 2010.05.17/outbox.cif.g08.bks.cpg/sg62_9_cif.got.tgz:17261.got - 2010.06.03 15:25:27.
