data_PCOD9463790
_publ_section_title
;
Structure prediction by ZEFSAII (Michael W. Deem and Ramdas Pophale) SiO2 
 PCOD9463790
Probable space group: P N M A
;
_chemical_formula_sum "Si O2"
_cell_formula_units_Z 64
_cell_length_a 7.816350
_cell_length_b 27.627302
_cell_length_c 16.915965
_cell_angle_alpha 90.000000
_cell_angle_beta 90.000000
_cell_angle_gamma 90.000000
_cell_volume 3652.912344
_symmetry_space_group_name_H-M "P N M A"
_symmetry_group_IT_number 62
_symmetry_cell_setting 'orthorhombic'
loop_
_space_group_symop_operation_xyz
x,y,z
1/2-x,-y,1/2+z
1/2+x,1/2-y,1/2-z
-x,1/2+y,-z
-x,-y,-z
1/2+x,y,1/2-z
1/2-x,1/2+y,1/2+z
x,1/2-y,z
loop_
_atom_site_type_symbol
_atom_site_label
_atom_site_fract_x
_atom_site_fract_y
_atom_site_fract_z
Si Si1 0.426723 0.396985 0.632643
Si Si2 0.466990 0.992709 0.281610
Si Si3 0.287001 0.396267 0.961962
Si Si4 0.619734 0.050463 0.410704
Si Si5 0.771932 0.049304 0.998476
Si Si6 0.609135 0.507730 0.122949
Si Si7 0.399028 0.195148 0.876117
Si Si8 0.765610 0.194938 0.790398
O O1 0.451163 0.440605 0.695355
O O2 0.602755 0.395654 0.583070
O O3 0.276461 0.411730 0.571000
O O4 0.380268 0.347141 0.673335
O O5 0.284666 0.993888 0.325563
O O6 0.462100 0.997096 0.187527
O O7 0.582434 0.035035 0.321067
O O8 0.387426 0.440826 0.921013
O O9 0.374787 0.345777 0.941487
O O10 0.245389 0.409262 0.053195
O O11 0.432061 0.062242 0.445602
O O12 0.677206 0.001001 0.455102
O O13 0.620952 0.034447 0.057707
O O14 0.381809 0.250000 0.906452
O O15 0.581138 0.191312 0.831474
O O16 0.264815 0.187966 0.804128
O O17 0.830341 0.250000 0.803442
#
# Coordination Sequence:
#
# PCOD9463790 Si02
#       8
#     8   8   8   8   8   8   8   8
#     4   9  16  27  43  58  74 101 134 163 190 222
#     4   9  16  25  38  57  80 104 130 158 188 224
#     4   9  16  27  43  58  74 101 134 163 190 222
#     4   7  12  24  39  54  74 101 129 155 186 225
#     4   7  12  24  39  54  74 101 129 155 186 225
#     4   9  16  25  38  57  80 104 130 158 188 224
#     4  10  20  31  41  55  77 103 130 161 194 226
#     4  10  20  31  41  55  77 103 130 161 194 226
#
# _framework density 17.520267
#
# number of rings (size 3 to 8) (size 9 to 14) (size 15 to 20)
#    0.000    3.250    0.000    4.500    0.000    4.500 
#    0.000    1.250    0.000    4.500    0.000    0.000 
#    0.000    1.000    0.000    2.250    0.000    4.000 
#
# Total GULP energy -356796.099037 kJ/mol
# GULP energy per Si atom -5574.939047 kJ/mol
# Density = 1.748039 g / cm^3
# Si number density = 17.520267 Si / 1000 Ang^3
#
#
#
# Elastic Constant Matrix: (Units=GPa)
#
#
# Indices 1 2 3 4 5 6 
#
# 1 52.8314 15.1204 17.6002 0.0000 0.0000 0.0000
# 2 15.1204 71.1509 24.0168 0.0000 0.0000 0.0000
# 3 17.6002 24.0168 43.4303 0.0000 0.0000 0.0000
# 4 0.0000 0.0000 0.0000 23.0930 0.0000 0.0000
# 5 0.0000 0.0000 0.0000 0.0000 26.5237 0.0000
# 6 0.0000 0.0000 0.0000 0.0000 0.0000 15.6778
#
#
#
# Elastic Compliance Matrix: (Units=1/GPa)
#
#
# Indices 1 2 3 4 5 6 
#
# 1 0.022125 -0.002060 -0.007827 0.000000 0.000000 0.000000
# 2 -0.002060 0.017472 -0.008827 0.000000 0.000000 0.000000
# 3 -0.007827 -0.008827 0.031079 0.000000 0.000000 0.000000
# 4 0.000000 0.000000 0.000000 0.043303 0.000000 0.000000
# 5 0.000000 0.000000 0.000000 0.000000 0.037702 0.000000
# 6 0.000000 0.000000 0.000000 0.000000 0.000000 0.063784
#
#
# Mechanical properties :
#
#
# Convention : Reuss Voigt Hill
#
# Bulk Modulus (GPa) = 30.07741 31.20971 30.64356
# Shear Modulus (GPa) = 18.94107 20.43725 19.68916
#
# Velocity S-wave (km/s) = 3.29157 3.41910 3.35594
# Velocity P-wave (km/s) = 5.62587 5.78266 5.70480
#
# Compressibility (1/GPa) = 0.03324754
#
# Stress axis : x y z
#
# Youngs Moduli (GPa) = 45.19732 57.23456 32.17623
#
# Poissons Ratio (x) = 0.11789 0.25185
# Poissons Ratio (y) = 0.09310 0.28403
# Poissons Ratio (z) = 0.35377 0.50522
#
# Static dielectric constant tensor:
#      x y z
#    x 1.721850 0.000000 0.000000 
#    y 0.000000 1.578790 0.000000 
#    z 0.000000 0.000000 1.608440 
# 
# From -- ./inp_files/22659.got.cif
#   From: 2010.05.17/outbox.cif.g08.bks.cpg/sg62_12_cif.got.tgz:22659.got - 2010.06.03 15:25:27.
