data_PCOD9463582
_publ_section_title
;
Structure prediction by ZEFSAII (Michael W. Deem and Ramdas Pophale) SiO2 
 PCOD9463582
Probable space group: P N M A
;
_chemical_formula_sum "Si O2"
_cell_formula_units_Z 56
_cell_length_a 13.066810
_cell_length_b 19.448454
_cell_length_c 11.499144
_cell_angle_alpha 90.000000
_cell_angle_beta 90.000000
_cell_angle_gamma 90.000000
_cell_volume 2922.268877
_symmetry_space_group_name_H-M "P N M A"
_symmetry_group_IT_number 62
_symmetry_cell_setting 'orthorhombic'
loop_
_space_group_symop_operation_xyz
x,y,z
1/2-x,-y,1/2+z
1/2+x,1/2-y,1/2-z
-x,1/2+y,-z
-x,-y,-z
1/2+x,y,1/2-z
1/2-x,1/2+y,1/2+z
x,1/2-y,z
loop_
_atom_site_type_symbol
_atom_site_label
_atom_site_fract_x
_atom_site_fract_y
_atom_site_fract_z
Si Si1 0.223564 0.116686 0.943531
Si Si2 0.394545 0.386479 0.331444
Si Si3 0.999805 0.831099 0.059092
Si Si4 0.724116 0.038671 0.012723
Si Si5 0.671332 0.906098 0.295100
Si Si6 0.083704 0.053003 0.284631
Si Si7 0.277086 0.675397 0.684327
O O1 0.102701 0.124966 0.920523
O O2 0.282714 0.124496 0.822736
O O3 0.255471 0.042336 0.994020
O O4 0.245157 0.168821 0.047875
O O5 0.460920 0.348046 0.429137
O O6 0.314270 0.433650 0.402190
O O7 0.467322 0.431183 0.248226
O O8 0.326685 0.335208 0.255861
O O9 0.979854 0.750000 0.071607
O O10 0.088839 0.856822 0.144856
O O11 0.618504 0.053207 0.080491
O O12 0.741256 0.075676 0.890089
O O13 0.618548 0.979289 0.264931
O O14 0.148742 0.113613 0.222954
O O15 0.322808 0.750000 0.710223
#
# Coordination Sequence:
#
# PCOD9463582 Si02
#       7
#     8   8   8   8   8   8   8
#     4  11  21  37  60  84 118 154 192 236 295 347
#     4  10  20  36  59  85 114 145 195 245 291 341
#     4  11  22  37  60  84 114 160 199 234 292 354
#     4   9  19  36  59  85 115 146 192 243 290 339
#     4  10  21  39  59  88 117 153 197 244 282 348
#     4  10  19  36  62  86 113 150 190 243 294 340
#     4  11  22  35  56  87 117 149 192 241 290 345
#
# _framework density 19.163193
#
# number of rings (size 3 to 8) (size 9 to 14) (size 15 to 20)
#    0.000    1.714    2.857    1.714    0.000    4.000 
#    2.571    1.429    0.000    0.000    0.000    0.000 
#    0.000    0.000    0.000    0.000    0.000    0.000 
#
# Total GULP energy -312622.706192 kJ/mol
# GULP energy per Si atom -5582.548325 kJ/mol
# Density = 1.911958 g / cm^3
# Si number density = 19.163193 Si / 1000 Ang^3
#
#
#
# Elastic Constant Matrix: (Units=GPa)
#
#
# Indices 1 2 3 4 5 6 
#
# 1 31.4433 -8.2578 5.8730 0.0000 0.0000 0.0000
# 2 -8.2578 52.2654 -3.0610 0.0000 0.0000 0.0000
# 3 5.8730 -3.0610 44.4455 0.0000 0.0000 0.0000
# 4 0.0000 0.0000 0.0000 -2.4725 0.0000 0.0000
# 5 0.0000 0.0000 0.0000 0.0000 30.4520 0.0000
# 6 0.0000 0.0000 0.0000 0.0000 0.0000 -4.3330
#
#
#
# Elastic Compliance Matrix: (Units=1/GPa)
#
#
# Indices 1 2 3 4 5 6 
#
# 1 0.033918 0.005117 -0.004130 0.000000 0.000000 0.000000
# 2 0.005117 0.019983 0.000700 0.000000 0.000000 0.000000
# 3 -0.004130 0.000700 0.023093 0.000000 0.000000 0.000000
# 4 0.000000 0.000000 0.000000 -0.404453 0.000000 0.000000
# 5 0.000000 0.000000 0.000000 0.000000 0.032839 0.000000
# 6 0.000000 0.000000 0.000000 0.000000 0.000000 -0.230790
#
#
# Mechanical properties :
#
#
# Convention : Reuss Voigt Hill
#
# Bulk Modulus (GPa) = 12.44248 13.02918 12.73583
# Shear Modulus (GPa) = -9.96027 13.63598 1.83786
#
# Velocity S-wave (km/s) = -2.28230 2.67042 0.98038
# Velocity P-wave (km/s) = 0.66195 4.04005 2.81814
#
# Compressibility (1/GPa) = 0.08036983
#
# Stress axis : x y z
#
# Youngs Moduli (GPa) = 29.48245 50.04345 43.30249
#
# Poissons Ratio (x) = -0.25608 0.17882
# Poissons Ratio (y) = -0.15087 -0.03031
# Poissons Ratio (z) = 0.12175 -0.03503
#
# Static dielectric constant tensor:
#      x y z
#    x 1.680400 0.000000 0.000000 
#    y 0.000000 1.649000 0.000000 
#    z 0.000000 0.000000 1.675390 
# 
# From -- ./inp_files/12417.got.cif
#   From: 2010.05.17/outbox.cif.g08.bks.cpg/sg62_7_cif.got.tgz:12417.got - 2010.06.03 15:25:27.
