data_PCOD9463531
_publ_section_title
;
Structure prediction by ZEFSAII (Michael W. Deem and Ramdas Pophale) SiO2 
 PCOD9463531
Probable space group: P N M A
;
_chemical_formula_sum "Si O2"
_cell_formula_units_Z 48
_cell_length_a 17.374442
_cell_length_b 13.277114
_cell_length_c 11.851871
_cell_angle_alpha 90.000000
_cell_angle_beta 90.000000
_cell_angle_gamma 90.000000
_cell_volume 2734.018605
_symmetry_space_group_name_H-M "P N M A"
_symmetry_group_IT_number 62
_symmetry_cell_setting 'orthorhombic'
loop_
_space_group_symop_operation_xyz
x,y,z
1/2-x,-y,1/2+z
1/2+x,1/2-y,1/2-z
-x,1/2+y,-z
-x,-y,-z
1/2+x,y,1/2-z
1/2-x,1/2+y,1/2+z
x,1/2-y,z
loop_
_atom_site_type_symbol
_atom_site_label
_atom_site_fract_x
_atom_site_fract_y
_atom_site_fract_z
Si Si1 0.581749 0.073681 0.370471
Si Si2 0.635426 0.365804 0.722673
Si Si3 0.033128 0.129900 0.382711
Si Si4 0.619596 0.505889 0.935292
Si Si5 0.979068 0.363203 0.920440
Si Si6 0.232639 0.367572 0.999514
O O1 0.560283 0.103735 0.244066
O O2 0.517485 0.117712 0.456995
O O3 0.664211 0.113704 0.410653
O O4 0.578002 0.953248 0.389886
O O5 0.647441 0.250000 0.758713
O O6 0.639983 0.441999 0.824714
O O7 0.550620 0.371122 0.666360
O O8 0.694631 0.389182 0.622215
O O9 0.034505 0.250000 0.399662
O O10 0.948248 0.084219 0.404016
O O11 0.087165 0.070853 0.470889
O O12 0.694037 0.564516 0.978031
O O13 0.947489 0.250000 0.914997
O O14 0.253515 0.250000 0.002670
#
# Coordination Sequence:
#
# PCOD9463531 Si02
#       6
#     8   8   8   8   8   8
#     4  10  19  36  59  88 119 150 189 240 296 340
#     4   9  18  37  59  81 112 152 194 240 290 339
#     4  11  23  39  59  87 119 153 192 240 293 345
#     4  11  23  38  60  85 114 156 197 239 282 353
#     4   9  17  33  59  86 114 152 195 236 281 340
#     4  10  22  39  60  82 115 157 194 239 295 343
#
# _framework density 17.556573
#
# number of rings (size 3 to 8) (size 9 to 14) (size 15 to 20)
#    0.000    2.000    1.667    3.500    2.333    0.000 
#    0.000    2.500    0.000    0.000    0.000    0.000 
#    0.000    0.000    0.000    0.000    0.000    0.000 
#
# Total GULP energy -267995.204609 kJ/mol
# GULP energy per Si atom -5583.233429 kJ/mol
# Density = 1.751661 g / cm^3
# Si number density = 17.556573 Si / 1000 Ang^3
#
#
#
# Elastic Constant Matrix: (Units=GPa)
#
#
# Indices 1 2 3 4 5 6 
#
# 1 66.7126 45.6844 46.3417 0.0000 0.0000 0.0000
# 2 45.6844 134.9817 70.7907 0.0000 0.0000 0.0000
# 3 46.3417 70.7907 92.5600 0.0000 0.0000 0.0000
# 4 0.0000 0.0000 0.0000 15.4880 0.0000 0.0000
# 5 0.0000 0.0000 0.0000 0.0000 8.6898 0.0000
# 6 0.0000 0.0000 0.0000 0.0000 0.0000 29.1938
#
#
#
# Elastic Compliance Matrix: (Units=1/GPa)
#
#
# Indices 1 2 3 4 5 6 
#
# 1 0.023689 -0.003001 -0.009565 0.000000 0.000000 0.000000
# 2 -0.003001 0.012750 -0.008249 0.000000 0.000000 0.000000
# 3 -0.009565 -0.008249 0.021902 0.000000 0.000000 0.000000
# 4 0.000000 0.000000 0.000000 0.064566 0.000000 0.000000
# 5 0.000000 0.000000 0.000000 0.000000 0.115078 0.000000
# 6 0.000000 0.000000 0.000000 0.000000 0.000000 0.034254
#
#
# Mechanical properties :
#
#
# Convention : Reuss Voigt Hill
#
# Bulk Modulus (GPa) = 59.84196 68.87644 64.35920
# Shear Modulus (GPa) = 15.65242 19.43681 17.54461
#
# Velocity S-wave (km/s) = 2.98911 3.33091 3.16463
# Velocity P-wave (km/s) = 6.78765 7.35592 7.07750
#
# Compressibility (1/GPa) = 0.01671068
#
# Stress axis : x y z
#
# Youngs Moduli (GPa) = 42.21329 78.42945 45.65886
#
# Poissons Ratio (x) = 0.23539 0.43673
# Poissons Ratio (y) = 0.12669 0.37664
# Poissons Ratio (z) = 0.40377 0.64696
#
# Static dielectric constant tensor:
#      x y z
#    x 1.568730 0.000000 0.000000 
#    y 0.000000 1.596780 0.000000 
#    z 0.000000 0.000000 1.581200 
# 
# From -- ./inp_files/14104.got.cif
#   From: 2010.05.17/outbox.cif.g08.bks.cpg/sg62_8_cif.got.tgz:14104.got - 2010.06.03 15:25:27.
