data_PCOD9463628
_publ_section_title
;
Structure prediction by ZEFSAII (Michael W. Deem and Ramdas Pophale) SiO2 
 PCOD9463628
Probable space group: P N M A
;
_chemical_formula_sum "Si O2"
_cell_formula_units_Z 64
_cell_length_a 12.425473
_cell_length_b 7.579487
_cell_length_c 31.289500
_cell_angle_alpha 90.000000
_cell_angle_beta 90.000000
_cell_angle_gamma 90.000000
_cell_volume 2946.804780
_symmetry_space_group_name_H-M "P N M A"
_symmetry_group_IT_number 62
_symmetry_cell_setting 'orthorhombic'
loop_
_space_group_symop_operation_xyz
x,y,z
1/2-x,-y,1/2+z
1/2+x,1/2-y,1/2-z
-x,1/2+y,-z
-x,-y,-z
1/2+x,y,1/2-z
1/2-x,1/2+y,1/2+z
x,1/2-y,z
loop_
_atom_site_type_symbol
_atom_site_label
_atom_site_fract_x
_atom_site_fract_y
_atom_site_fract_z
Si Si1 0.541693 0.465644 0.291606
Si Si2 0.056469 0.038475 0.044493
Si Si3 0.261833 0.461433 0.170615
Si Si4 0.515425 0.552993 0.049134
Si Si5 0.589107 0.966291 0.624320
Si Si6 0.721383 0.540046 0.927234
Si Si7 0.833581 0.953419 0.624202
Si Si8 0.501680 0.966879 0.805402
O O1 0.541389 0.250000 0.292125
O O2 0.661913 0.528414 0.302447
O O3 0.462345 0.518926 0.330113
O O4 0.513599 0.518924 0.243673
O O5 0.064917 0.250000 0.049776
O O6 0.985340 0.974121 0.084630
O O7 0.180023 0.973497 0.044240
O O8 0.000000 0.000000 0.000000
O O9 0.266106 0.250000 0.177794
O O10 0.238338 0.486532 0.120882
O O11 0.380506 0.528537 0.180313
O O12 0.557803 0.750000 0.049480
O O13 0.395062 0.543167 0.067648
O O14 0.597763 0.454253 0.080332
O O15 0.500000 0.500000 0.000000
O O16 0.587536 0.750000 0.622923
O O17 0.713001 0.027062 0.619990
O O18 0.704063 0.750000 0.934124
O O19 0.816582 0.750000 0.636556
O O20 0.910023 0.029545 0.661573
O O21 0.501028 0.750000 0.807381
#
# Coordination Sequence:
#
# PCOD9463628 Si02
#       8
#     8   8   8   8   8   8   8   8
#     4   9  16  26  44  77 114 149 185 226 278 327
#     4  10  21  36  55  81 112 150 188 232 281 333
#     4   9  15  27  47  71 109 149 182 227 276 324
#     4  12  26  42  61  84 110 143 185 231 282 341
#     4   9  18  32  50  76 115 152 182 223 279 333
#     4  10  19  37  60  81 112 149 188 233 284 329
#     4  10  20  36  55  81 117 150 183 228 278 331
#     4   9  17  26  45  77 112 149 187 227 274 325
#
# _framework density 21.718440999999999
#
# number of rings (size 3 to 8) (size 9 to 14) (size 15 to 20)
#    0.000    2.250    2.500    1.125    3.500    0.500 
#    0.000    0.000    0.000    0.000    0.000    4.375 
#    0.000    0.000    0.000    0.000    0.000    0.000 
#
# Total GULP energy -357236.050693 kJ/mol
# GULP energy per Si atom -5581.813292 kJ/mol
# Density = 2.166901 g / cm^3
# Si number density = 21.718441 Si / 1000 Ang^3
#
#
#
# Elastic Constant Matrix: (Units=GPa)
#
#
# Indices 1 2 3 4 5 6 
#
# 1 122.0760 -4.3603 35.5686 0.0000 0.0000 0.0000
# 2 -4.3603 42.0724 3.7334 0.0000 0.0000 0.0000
# 3 35.5686 3.7334 84.7056 0.0000 0.0000 0.0000
# 4 0.0000 0.0000 0.0000 4.7804 0.0000 0.0000
# 5 0.0000 0.0000 0.0000 0.0000 39.7446 0.0000
# 6 0.0000 0.0000 0.0000 0.0000 0.0000 -2.8993
#
#
#
# Elastic Compliance Matrix: (Units=1/GPa)
#
#
# Indices 1 2 3 4 5 6 
#
# 1 0.009407 0.001331 -0.004009 0.000000 0.000000 0.000000
# 2 0.001331 0.024050 -0.001619 0.000000 0.000000 0.000000
# 3 -0.004009 -0.001619 0.013560 0.000000 0.000000 0.000000
# 4 0.000000 0.000000 0.000000 0.209189 0.000000 0.000000
# 5 0.000000 0.000000 0.000000 0.000000 0.025161 0.000000
# 6 0.000000 0.000000 0.000000 0.000000 0.000000 -0.344905
#
#
# Mechanical properties :
#
#
# Convention : Reuss Voigt Hill
#
# Bulk Modulus (GPa) = 26.02558 35.41526 30.72042
# Shear Modulus (GPa) = -118.66235 22.58596 -48.03819
#
# Velocity S-wave (km/s) = -7.39968 3.22831 -4.70815
# Velocity P-wave (km/s) = 7.81011 5.49891 3.92173
#
# Compressibility (1/GPa) = 0.03842374
#
# Stress axis : x y z
#
# Youngs Moduli (GPa) = 106.30199 41.57990 73.74486
#
# Poissons Ratio (x) = -0.05533 0.29563
# Poissons Ratio (y) = -0.14145 0.11938
# Poissons Ratio (z) = 0.42614 0.06731
#
# Static dielectric constant tensor:
#      x y z
#    x 1.825900 0.000000 0.000000 
#    y 0.000000 1.857200 0.000000 
#    z 0.000000 0.000000 1.715410 
# 
# From -- ./inp_files/32443.got.cif
#   From: 2010.05.17/outbox.cif.g08.bks.cpg/sg62_17_cif.got.tgz:32443.got - 2010.06.03 15:25:27.
