data_PCOD9463377
_publ_section_title
;
Structure prediction by ZEFSAII (Michael W. Deem and Ramdas Pophale) SiO2 
 PCOD9463377
Probable space group: P N M A
;
_chemical_formula_sum "Si O2"
_cell_formula_units_Z 56
_cell_length_a 16.795350
_cell_length_b 20.182390
_cell_length_c 9.192781
_cell_angle_alpha 90.000000
_cell_angle_beta 90.000000
_cell_angle_gamma 90.000000
_cell_volume 3116.079769
_symmetry_space_group_name_H-M "P N M A"
_symmetry_group_IT_number 62
_symmetry_cell_setting 'orthorhombic'
loop_
_space_group_symop_operation_xyz
x,y,z
1/2-x,-y,1/2+z
1/2+x,1/2-y,1/2-z
-x,1/2+y,-z
-x,-y,-z
1/2+x,y,1/2-z
1/2-x,1/2+y,1/2+z
x,1/2-y,z
loop_
_atom_site_type_symbol
_atom_site_label
_atom_site_fract_x
_atom_site_fract_y
_atom_site_fract_z
Si Si1 0.834021 0.531250 0.678439
Si Si2 0.845001 0.176593 0.769405
Si Si3 0.996536 0.080657 0.232927
Si Si4 0.075174 0.905996 0.454913
Si Si5 0.761467 0.557659 0.383049
Si Si6 0.504581 0.326545 0.535964
Si Si7 0.933151 0.937370 0.236745
O O1 0.910503 0.574230 0.722543
O O2 0.871392 0.468323 0.592734
O O3 0.775238 0.560541 0.556412
O O4 0.789994 0.504120 0.822083
O O5 0.811225 0.250000 0.770428
O O6 0.878769 0.156414 0.611263
O O7 0.783985 0.122494 0.827154
O O8 0.922585 0.173759 0.872717
O O9 0.945154 0.094493 0.376930
O O10 0.967073 0.007828 0.178580
O O11 0.987780 0.138553 0.117072
O O12 0.992862 0.916980 0.367347
O O13 0.846234 0.554119 0.302683
O O14 0.532051 0.250000 0.525946
O O15 0.561962 0.378077 0.620554
#
# Coordination Sequence:
#
# PCOD9463377 Si02
#       7
#     8   8   8   8   8   8   8
#     4  10  21  33  51  87 116 135 179 224 287 331
#     4   9  21  38  53  76 109 148 187 220 276 345
#     4  11  19  36  59  85 111 140 186 244 276 318
#     4   9  17  36  57  78 106 139 183 237 267 323
#     4  11  21  33  57  84 114 145 174 228 286 335
#     4  10  23  38  55  80 111 151 192 227 272 333
#     4  10  19  35  59  82 110 144 186 229 279 330
#
# _framework density 17.971299999999999
#
# number of rings (size 3 to 8) (size 9 to 14) (size 15 to 20)
#    0.000    2.000    2.857    2.143    4.000    1.143 
#    0.000    0.714    0.000    0.000    0.000    0.000 
#    0.000    0.000    0.000    0.000    0.000    0.000 
#
# Total GULP energy -312350.294924 kJ/mol
# GULP energy per Si atom -5577.683838 kJ/mol
# Density = 1.793040 g / cm^3
# Si number density = 17.971300 Si / 1000 Ang^3
#
#
#
# Elastic Constant Matrix: (Units=GPa)
#
#
# Indices 1 2 3 4 5 6 
#
# 1 39.8077 17.2358 -8.2889 0.0000 0.0000 0.0000
# 2 17.2358 94.2207 49.0916 0.0000 0.0000 0.0000
# 3 -8.2889 49.0916 57.1348 0.0000 0.0000 0.0000
# 4 0.0000 0.0000 0.0000 15.4906 0.0000 0.0000
# 5 0.0000 0.0000 0.0000 0.0000 5.9148 0.0000
# 6 0.0000 0.0000 0.0000 0.0000 0.0000 16.7747
#
#
#
# Elastic Compliance Matrix: (Units=1/GPa)
#
#
# Indices 1 2 3 4 5 6 
#
# 1 0.036759 -0.017205 0.020116 0.000000 0.000000 0.000000
# 2 -0.017205 0.027269 -0.025926 0.000000 0.000000 0.000000
# 3 0.020116 -0.025926 0.042697 0.000000 0.000000 0.000000
# 4 0.000000 0.000000 0.000000 0.064555 0.000000 0.000000
# 5 0.000000 0.000000 0.000000 0.000000 0.169067 0.000000
# 6 0.000000 0.000000 0.000000 0.000000 0.000000 0.059614
#
#
# Mechanical properties :
#
#
# Convention : Reuss Voigt Hill
#
# Bulk Modulus (GPa) = 16.47604 34.13779 25.30692
# Shear Modulus (GPa) = 10.72446 16.51099 13.61772
#
# Velocity S-wave (km/s) = 2.44551 3.03436 2.75571
# Velocity P-wave (km/s) = 4.14269 5.59584 4.92318
#
# Compressibility (1/GPa) = 0.06069419
#
# Stress axis : x y z
#
# Youngs Moduli (GPa) = 27.20425 36.67152 23.42065
#
# Poissons Ratio (x) = 0.63095 -0.47113
# Poissons Ratio (y) = 0.46806 0.60721
# Poissons Ratio (z) = -0.54724 0.95076
#
# Static dielectric constant tensor:
#      x y z
#    x 1.619220 0.000000 0.000000 
#    y 0.000000 1.619790 0.000000 
#    z 0.000000 0.000000 1.635470 
# 
# From -- ./inp_files/8024.got.cif
#   From: 2010.05.17/outbox.cif.g08.bks.cpg/sg62_5_cif.got.tgz:8024.got - 2010.06.03 15:25:27.
