data_PCOD9463796
_publ_section_title
;
Structure prediction by ZEFSAII (Michael W. Deem and Ramdas Pophale) SiO2 
 PCOD9463796
Probable space group: P N M A
;
_chemical_formula_sum "Si O2"
_cell_formula_units_Z 40
_cell_length_a 13.997299
_cell_length_b 7.530885
_cell_length_c 19.039858
_cell_angle_alpha 90.000000
_cell_angle_beta 90.000000
_cell_angle_gamma 90.000000
_cell_volume 2007.030446
_symmetry_space_group_name_H-M "P N M A"
_symmetry_group_IT_number 62
_symmetry_cell_setting 'orthorhombic'
loop_
_space_group_symop_operation_xyz
x,y,z
1/2-x,-y,1/2+z
1/2+x,1/2-y,1/2-z
-x,1/2+y,-z
-x,-y,-z
1/2+x,y,1/2-z
1/2-x,1/2+y,1/2+z
x,1/2-y,z
loop_
_atom_site_type_symbol
_atom_site_label
_atom_site_fract_x
_atom_site_fract_y
_atom_site_fract_z
Si Si1 0.614383 0.964772 0.219122
Si Si2 0.684539 0.959365 0.656666
Si Si3 0.791126 0.467908 0.864098
Si Si4 0.388115 0.462716 0.492938
Si Si5 0.594569 0.454294 0.803528
O O1 0.609656 0.750000 0.221117
O O2 0.642944 0.022452 0.298102
O O3 0.511290 0.033492 0.195023
O O4 0.702902 0.015109 0.169914
O O5 0.663174 0.750000 0.659973
O O6 0.651071 0.030154 0.581497
O O7 0.630060 0.043722 0.722719
O O8 0.790029 0.250000 0.863406
O O9 0.683426 0.530494 0.847332
O O10 0.832833 0.528563 0.938097
O O11 0.500000 0.500000 0.500000
O O12 0.374968 0.250000 0.492162
O O13 0.585472 0.250000 0.826632
#
# Coordination Sequence:
#
# PCOD9463796 Si02
#       5
#     8   8   8   8   8
#     4   9  17  31  52  72  90 121 163 201 233 273
#     4  10  20  31  46  72 103 129 153 191 246 295
#     4   8  15  29  48  69  92 119 155 195 231 272
#     4  10  20  33  49  70  97 127 157 194 240 285
#     4   9  17  32  54  73  90 122 167 205 234 273
#
# _framework density 19.929940999999999
#
# number of rings (size 3 to 8) (size 9 to 14) (size 15 to 20)
#    0.000    2.800    0.000    3.000    0.000    4.000 
#    0.000    7.000    0.000    0.000    0.000    0.000 
#    0.000    0.000    0.000    0.000    0.000    0.000 
#
# Total GULP energy -223158.618531 kJ/mol
# GULP energy per Si atom -5578.965463 kJ/mol
# Density = 1.988458 g / cm^3
# Si number density = 19.929941 Si / 1000 Ang^3
#
#
#
# Elastic Constant Matrix: (Units=GPa)
#
#
# Indices 1 2 3 4 5 6 
#
# 1 147.0187 -15.0787 67.5355 0.0000 0.0000 0.0000
# 2 -15.0787 49.9279 -11.5623 0.0000 0.0000 0.0000
# 3 67.5355 -11.5623 132.1902 0.0000 0.0000 0.0000
# 4 0.0000 0.0000 0.0000 11.9516 0.0000 0.0000
# 5 0.0000 0.0000 0.0000 0.0000 15.3407 0.0000
# 6 0.0000 0.0000 0.0000 0.0000 0.0000 13.6520
#
#
#
# Elastic Compliance Matrix: (Units=1/GPa)
#
#
# Indices 1 2 3 4 5 6 
#
# 1 0.009026 0.001692 -0.004463 0.000000 0.000000 0.000000
# 2 0.001692 0.020760 0.000951 0.000000 0.000000 0.000000
# 3 -0.004463 0.000951 0.009928 0.000000 0.000000 0.000000
# 4 0.000000 0.000000 0.000000 0.083671 0.000000 0.000000
# 5 0.000000 0.000000 0.000000 0.000000 0.065186 0.000000
# 6 0.000000 0.000000 0.000000 0.000000 0.000000 0.073250
#
#
# Mechanical properties :
#
#
# Convention : Reuss Voigt Hill
#
# Bulk Modulus (GPa) = 27.72010 45.65843 36.68927
# Shear Modulus (GPa) = 18.01899 27.40500 22.71200
#
# Velocity S-wave (km/s) = 3.01012 3.71221 3.37945
# Velocity P-wave (km/s) = 5.10098 6.42909 5.80316
#
# Compressibility (1/GPa) = 0.03607490
#
# Stress axis : x y z
#
# Youngs Moduli (GPa) = 110.79539 48.16901 100.72248
#
# Poissons Ratio (x) = -0.08151 0.44954
# Poissons Ratio (y) = -0.18749 -0.09581
# Poissons Ratio (z) = 0.49450 -0.04582
#
# Static dielectric constant tensor:
#      x y z
#    x 1.699110 0.000000 0.000000 
#    y 0.000000 1.725860 0.000000 
#    z 0.000000 0.000000 1.677150 
# 
# From -- ./inp_files/18630.got.cif
#   From: 2010.05.17/outbox.cif.g08.bks.cpg/sg62_10_cif.got.tgz:18630.got - 2010.06.03 15:25:27.
