data_PCOD9463082
_publ_section_title
;
Structure prediction by ZEFSAII (Michael W. Deem and Ramdas Pophale) SiO2 
 PCOD9463082
Probable space group: P N M A
;
_chemical_formula_sum "Si O2"
_cell_formula_units_Z 56
_cell_length_a 19.699438
_cell_length_b 8.997512
_cell_length_c 19.345191
_cell_angle_alpha 90.000000
_cell_angle_beta 90.000000
_cell_angle_gamma 90.000000
_cell_volume 3428.856366
_symmetry_space_group_name_H-M "P N M A"
_symmetry_group_IT_number 62
_symmetry_cell_setting 'orthorhombic'
loop_
_space_group_symop_operation_xyz
x,y,z
1/2-x,-y,1/2+z
1/2+x,1/2-y,1/2-z
-x,1/2+y,-z
-x,-y,-z
1/2+x,y,1/2-z
1/2-x,1/2+y,1/2+z
x,1/2-y,z
loop_
_atom_site_type_symbol
_atom_site_label
_atom_site_fract_x
_atom_site_fract_y
_atom_site_fract_z
Si Si1 0.620396 0.072565 0.754539
Si Si2 0.268038 0.926629 0.356173
Si Si3 0.830084 0.925947 0.753860
Si Si4 0.550280 0.428620 0.055531
Si Si5 0.704702 0.072008 0.015148
Si Si6 0.019906 0.071884 0.285367
Si Si7 0.280913 0.073607 0.133670
O O1 0.621734 0.250000 0.764278
O O2 0.662531 0.038022 0.684813
O O3 0.544496 0.011733 0.754871
O O4 0.661039 0.995565 0.817373
O O5 0.264007 0.750000 0.365923
O O6 0.208720 0.981361 0.304575
O O7 0.256369 0.008874 0.428093
O O8 0.823748 0.750000 0.735807
O O9 0.909468 0.961389 0.753293
O O10 0.789679 0.949617 0.825007
O O11 0.545600 0.250000 0.050573
O O12 0.628163 0.469768 0.039177
O O13 0.530480 0.469686 0.133915
O O14 0.500000 0.500000 0.000000
O O15 0.708369 0.250000 0.012661
O O16 0.717951 0.003369 0.940280
O O17 0.008729 0.250000 0.282588
O O18 0.292077 0.250000 0.126774
#
# Coordination Sequence:
#
# PCOD9463082 Si02
#       7
#     8   8   8   8   8   8   8
#     4  10  21  35  51  77 108 137 173 218 260 305
#     4  10  20  34  53  76 103 136 177 217 258 310
#     4   9  18  35  55  75 102 135 176 219 259 309
#     4  10  21  33  47  71 105 139 169 203 247 307
#     4  11  21  35  53  75 106 139 174 217 261 309
#     4  10  19  34  53  74 101 138 176 211 257 312
#     4  10  20  34  54  78 104 137 175 216 261 312
#
# _framework density 16.331976999999998
#
# number of rings (size 3 to 8) (size 9 to 14) (size 15 to 20)
#    0.000    2.000    1.429    2.571    0.000    6.857 
#    0.000    0.000    0.000    0.857    0.000    0.000 
#    0.000    0.000    0.000    0.000    0.000    0.000 
#
# Total GULP energy -312604.656065 kJ/mol
# GULP energy per Si atom -5582.226001 kJ/mol
# Density = 1.629480 g / cm^3
# Si number density = 16.331977 Si / 1000 Ang^3
#
#
#
# Elastic Constant Matrix: (Units=GPa)
#
#
# Indices 1 2 3 4 5 6 
#
# 1 114.7712 41.9869 29.3644 0.0000 0.0000 0.0000
# 2 41.9869 43.0067 24.7988 0.0000 0.0000 0.0000
# 3 29.3644 24.7988 32.6766 0.0000 0.0000 0.0000
# 4 0.0000 0.0000 0.0000 29.6450 0.0000 0.0000
# 5 0.0000 0.0000 0.0000 0.0000 19.3658 0.0000
# 6 0.0000 0.0000 0.0000 0.0000 0.0000 14.4148
#
#
#
# Elastic Compliance Matrix: (Units=1/GPa)
#
#
# Indices 1 2 3 4 5 6 
#
# 1 0.013825 -0.011261 -0.003877 0.000000 0.000000 0.000000
# 2 -0.011261 0.050519 -0.028220 0.000000 0.000000 0.000000
# 3 -0.003877 -0.028220 0.055503 0.000000 0.000000 0.000000
# 4 0.000000 0.000000 0.000000 0.033732 0.000000 0.000000
# 5 0.000000 0.000000 0.000000 0.000000 0.051637 0.000000
# 6 0.000000 0.000000 0.000000 0.000000 0.000000 0.069373
#
#
# Mechanical properties :
#
#
# Convention : Reuss Voigt Hill
#
# Bulk Modulus (GPa) = 30.18336 42.52829 36.35582
# Shear Modulus (GPa) = 13.42828 18.97208 16.20018
#
# Velocity S-wave (km/s) = 2.87053 3.41200 3.15291
# Velocity P-wave (km/s) = 5.43211 6.45126 5.96350
#
# Compressibility (1/GPa) = 0.03313084
#
# Stress axis : x y z
#
# Youngs Moduli (GPa) = 72.33451 19.79470 18.01698
#
# Poissons Ratio (x) = 0.22291 0.06985
# Poissons Ratio (y) = 0.81458 0.50843
# Poissons Ratio (z) = 0.28044 0.55860
#
# Static dielectric constant tensor:
#      x y z
#    x 1.541390 0.000000 0.000000 
#    y 0.000000 1.545330 0.000000 
#    z 0.000000 0.000000 1.528400 
# 
# From -- ./inp_files/24604.got.cif
#   From: 2010.05.17/outbox.cif.g08.bks.cpg/sg62_13_cif.got.tgz:24604.got - 2010.06.03 15:25:27.
