data_PCOD9463560
_publ_section_title
;
Structure prediction by ZEFSAII (Michael W. Deem and Ramdas Pophale) SiO2 
 PCOD9463560
Probable space group: P N M A
;
_chemical_formula_sum "Si O2"
_cell_formula_units_Z 32
_cell_length_a 14.230736
_cell_length_b 10.932961
_cell_length_c 7.773470
_cell_angle_alpha 90.000000
_cell_angle_beta 90.000000
_cell_angle_gamma 90.000000
_cell_volume 1209.428191
_symmetry_space_group_name_H-M "P N M A"
_symmetry_group_IT_number 62
_symmetry_cell_setting 'orthorhombic'
loop_
_space_group_symop_operation_xyz
x,y,z
1/2-x,-y,1/2+z
1/2+x,1/2-y,1/2-z
-x,1/2+y,-z
-x,-y,-z
1/2+x,y,1/2-z
1/2-x,1/2+y,1/2+z
x,1/2-y,z
loop_
_atom_site_type_symbol
_atom_site_label
_atom_site_fract_x
_atom_site_fract_y
_atom_site_fract_z
Si Si1 0.869802 0.750000 0.210916
Si Si2 0.898101 0.500724 0.721077
Si Si3 0.811719 0.250000 0.294719
Si Si4 0.082253 0.250000 0.160877
Si Si5 0.529637 0.750000 0.085887
Si Si6 0.794861 0.006535 0.087035
O O1 0.815130 0.876886 0.179813
O O2 0.915981 0.750000 0.399147
O O3 0.939494 0.750000 0.041660
O O4 0.952629 0.628430 0.743199
O O5 0.954143 0.379359 0.683501
O O6 0.817592 0.513590 0.578226
O O7 0.845186 0.491300 0.903982
O O8 0.698146 0.250000 0.334563
O O9 0.884716 0.250000 0.450825
O O10 0.826634 0.373594 0.188277
#
# Coordination Sequence:
#
# PCOD9463560 Si02
#       6
#     4   8   4   4   4   8
#     4  10  22  36  54  82 118 152 184 230 285 342
#     4  10  19  36  61  84 109 144 187 238 287 335
#     4  10  21  38  57  82 112 146 196 242 278 332
#     4   8  18  35  55  79 106 137 185 240 281 324
#     4  12  23  35  54  83 120 157 187 220 280 350
#     4  10  20  38  62  86 111 143 191 244 288 329
#
# _framework density 26.458784999999999
#
# number of rings (size 3 to 8) (size 9 to 14) (size 15 to 20)
#    0.000    2.000    0.000    6.000    0.000    5.000 
#    0.000    5.000    0.000    3.000    0.000    0.000 
#    0.000    0.000    0.000    0.000    0.000    0.000 
#
# Total GULP energy -179083.707461 kJ/mol
# GULP energy per Si atom -5596.365858 kJ/mol
# Density = 2.639856 g / cm^3
# Si number density = 26.458785 Si / 1000 Ang^3
#
#
#
# Elastic Constant Matrix: (Units=GPa)
#
#
# Indices 1 2 3 4 5 6 
#
# 1 63.5067 4.4047 -7.9857 0.0000 0.0000 0.0000
# 2 4.4047 236.2261 24.1523 0.0000 0.0000 0.0000
# 3 -7.9857 24.1523 52.4416 0.0000 0.0000 0.0000
# 4 0.0000 0.0000 0.0000 47.5912 0.0000 0.0000
# 5 0.0000 0.0000 0.0000 0.0000 23.2037 0.0000
# 6 0.0000 0.0000 0.0000 0.0000 0.0000 22.3992
#
#
#
# Elastic Compliance Matrix: (Units=1/GPa)
#
#
# Indices 1 2 3 4 5 6 
#
# 1 0.016129 -0.000579 0.002723 0.000000 0.000000 0.000000
# 2 -0.000579 0.004463 -0.002144 0.000000 0.000000 0.000000
# 3 0.002723 -0.002144 0.020471 0.000000 0.000000 0.000000
# 4 0.000000 0.000000 0.000000 0.021012 0.000000 0.000000
# 5 0.000000 0.000000 0.000000 0.000000 0.043097 0.000000
# 6 0.000000 0.000000 0.000000 0.000000 0.000000 0.044644
#
#
# Mechanical properties :
#
#
# Convention : Reuss Voigt Hill
#
# Bulk Modulus (GPa) = 24.35299 43.70192 34.02745
# Shear Modulus (GPa) = 30.58029 40.74569 35.66299
#
# Velocity S-wave (km/s) = 3.40335 3.92850 3.67532
# Velocity P-wave (km/s) = 4.96667 6.09347 5.55869
#
# Compressibility (1/GPa) = 0.04106272
#
# Stress axis : x y z
#
# Youngs Moduli (GPa) = 62.00046 224.05382 48.85014
#
# Poissons Ratio (x) = 0.12976 -0.13301
# Poissons Ratio (y) = 0.03591 0.10472
# Poissons Ratio (z) = -0.16881 0.48032
#
# Static dielectric constant tensor:
#      x y z
#    x 2.041200 0.000000 0.000000 
#    y 0.000000 2.066340 0.000000 
#    z 0.000000 0.000000 2.160400 
# 
# From -- ./inp_files/5817.got.cif
#   From: 2010.05.17/outbox.cif.g08.bks.cpg/sg62_3_cif.got.tgz:5817.got - 2010.06.03 15:25:27.
