data_PCOD9463003
_publ_section_title
;
Structure prediction by ZEFSAII (Michael W. Deem and Ramdas Pophale) SiO2 
 PCOD9463003
Probable space group: P N M A
;
_chemical_formula_sum "Si O2"
_cell_formula_units_Z 64
_cell_length_a 15.133220
_cell_length_b 7.364167
_cell_length_c 22.590632
_cell_angle_alpha 90.000000
_cell_angle_beta 90.000000
_cell_angle_gamma 90.000000
_cell_volume 2517.580438
_symmetry_space_group_name_H-M "P N M A"
_symmetry_group_IT_number 62
_symmetry_cell_setting 'orthorhombic'
loop_
_space_group_symop_operation_xyz
x,y,z
1/2-x,-y,1/2+z
1/2+x,1/2-y,1/2-z
-x,1/2+y,-z
-x,-y,-z
1/2+x,y,1/2-z
1/2-x,1/2+y,1/2+z
x,1/2-y,z
loop_
_atom_site_type_symbol
_atom_site_label
_atom_site_fract_x
_atom_site_fract_y
_atom_site_fract_z
Si Si1 0.134264 0.045899 0.953962
Si Si2 0.078941 0.466761 0.207579
Si Si3 0.381693 0.028571 0.263481
Si Si4 0.303351 0.463038 0.009170
Si Si5 0.950383 0.465208 0.922139
Si Si6 0.797284 0.528553 0.686647
Si Si7 0.567386 0.468478 0.086878
Si Si8 0.126902 0.528118 0.628811
O O1 0.147331 0.250000 0.931306
O O2 0.095874 0.050152 0.021195
O O3 0.228957 0.955648 0.965589
O O4 0.051909 0.963845 0.918196
O O5 0.075836 0.250000 0.214809
O O6 0.980340 0.535724 0.222120
O O7 0.098005 0.504382 0.139333
O O8 0.151379 0.530212 0.254015
O O9 0.383806 0.250000 0.264040
O O10 0.304339 0.971469 0.308130
O O11 0.356732 0.974251 0.196291
O O12 0.281845 0.250000 0.013589
O O13 0.398124 0.477414 0.977625
O O14 0.309462 0.535062 0.075803
O O15 0.955540 0.250000 0.933482
O O16 0.796922 0.750000 0.684909
O O17 0.857317 0.466490 0.632451
O O18 0.565323 0.250000 0.088425
O O19 0.471945 0.528579 0.109480
O O20 0.129278 0.750000 0.628145
#
# Coordination Sequence:
#
# PCOD9463003 Si02
#       8
#     8   8   8   8   8   8   8   8
#     4   9  20  38  55  76 103 139 181 218 257 314
#     4  10  19  33  56  82 105 135 178 218 260 319
#     4   9  17  30  51  79 105 132 172 221 260 299
#     4  10  21  34  54  80 103 135 178 219 264 315
#     4  10  21  36  54  76 109 140 170 216 271 318
#     4   9  18  31  51  79 106 135 175 218 258 306
#     4  10  19  34  53  77 107 136 170 217 265 310
#     4   9  17  32  52  75 104 135 173 219 260 304
#
# _framework density 25.421233999999998
#
# number of rings (size 3 to 8) (size 9 to 14) (size 15 to 20)
#    0.000    2.500    1.250    0.750    3.500    1.000 
#    0.000    0.625    0.000    1.500    0.000    0.000 
#    0.000    0.000    0.000    0.000    0.000    0.000 
#
# Total GULP energy -357899.493849 kJ/mol
# GULP energy per Si atom -5592.179591 kJ/mol
# Density = 2.536337 g / cm^3
# Si number density = 25.421234 Si / 1000 Ang^3
#
#
#
# Elastic Constant Matrix: (Units=GPa)
#
#
# Indices 1 2 3 4 5 6 
#
# 1 92.0364 7.6429 -3.4335 0.0000 0.0000 0.0000
# 2 7.6429 103.2194 -5.7903 0.0000 0.0000 0.0000
# 3 -3.4335 -5.7903 82.1571 0.0000 0.0000 0.0000
# 4 0.0000 0.0000 0.0000 1.2675 0.0000 0.0000
# 5 0.0000 0.0000 0.0000 0.0000 30.3329 0.0000
# 6 0.0000 0.0000 0.0000 0.0000 0.0000 -7.3650
#
#
#
# Elastic Compliance Matrix: (Units=1/GPa)
#
#
# Indices 1 2 3 4 5 6 
#
# 1 0.010946 -0.000788 0.000402 0.000000 0.000000 0.000000
# 2 -0.000788 0.009783 0.000657 0.000000 0.000000 0.000000
# 3 0.000402 0.000657 0.012235 0.000000 0.000000 0.000000
# 4 0.000000 0.000000 0.000000 0.788980 0.000000 0.000000
# 5 0.000000 0.000000 0.000000 0.000000 0.032968 0.000000
# 6 0.000000 0.000000 0.000000 0.000000 0.000000 -0.135777
#
#
# Mechanical properties :
#
#
# Convention : Reuss Voigt Hill
#
# Bulk Modulus (GPa) = 29.84634 30.47236 30.15935
# Shear Modulus (GPa) = 6.85155 23.44665 15.14910
#
# Velocity S-wave (km/s) = 1.64349 3.04028 2.44380
# Velocity P-wave (km/s) = 3.92015 4.93329 4.45561
#
# Compressibility (1/GPa) = 0.03350495
#
# Stress axis : x y z
#
# Youngs Moduli (GPa) = 91.36018 102.21526 81.73360
#
# Poissons Ratio (x) = 0.08054 -0.03285
# Poissons Ratio (y) = 0.07199 -0.05366
# Poissons Ratio (z) = -0.03672 -0.06711
#
# Static dielectric constant tensor:
#      x y z
#    x 2.031650 0.000000 0.000000 
#    y 0.000000 3.166070 0.000000 
#    z 0.000000 0.000000 1.945650 
# 
# From -- ./inp_files/29807.got.cif
#   From: 2010.05.17/outbox.cif.g08.bks.cpg/sg62_15_cif.got.tgz:29807.got - 2010.06.03 15:25:27.
