data_PCOD9463246
_publ_section_title
;
Structure prediction by ZEFSAII (Michael W. Deem and Ramdas Pophale) SiO2 
 PCOD9463246
Probable space group: P N M A
;
_chemical_formula_sum "Si O2"
_cell_formula_units_Z 40
_cell_length_a 10.339893
_cell_length_b 9.424141
_cell_length_c 18.820851
_cell_angle_alpha 90.000000
_cell_angle_beta 90.000000
_cell_angle_gamma 90.000000
_cell_volume 1833.990477
_symmetry_space_group_name_H-M "P N M A"
_symmetry_group_IT_number 62
_symmetry_cell_setting 'orthorhombic'
loop_
_space_group_symop_operation_xyz
x,y,z
1/2-x,-y,1/2+z
1/2+x,1/2-y,1/2-z
-x,1/2+y,-z
-x,-y,-z
1/2+x,y,1/2-z
1/2-x,1/2+y,1/2+z
x,1/2-y,z
loop_
_atom_site_type_symbol
_atom_site_label
_atom_site_fract_x
_atom_site_fract_y
_atom_site_fract_z
Si Si1 0.883660 0.586595 0.967628
Si Si2 0.824640 0.582137 0.252351
Si Si3 0.000789 0.402314 0.610996
Si Si4 0.838026 0.595229 0.532651
Si Si5 0.926019 0.918464 0.799932
O O1 0.896402 0.750000 0.985716
O O2 0.758774 0.522097 0.004574
O O3 0.884782 0.572903 0.882562
O O4 0.000000 0.500000 0.000000
O O5 0.816341 0.750000 0.232668
O O6 0.685225 0.505535 0.257271
O O7 0.887513 0.578460 0.331524
O O8 0.934136 0.494983 0.208815
O O9 0.935956 0.250000 0.626685
O O10 0.907852 0.536148 0.602485
O O11 0.063306 0.390066 0.533029
O O12 0.777648 0.750000 0.544700
O O13 0.932247 0.750000 0.780894
#
# Coordination Sequence:
#
# PCOD9463246 Si02
#       5
#     8   8   8   8   8
#     4  11  24  41  63  89 123 163 205 256 314 373
#     4  11  23  42  68  95 128 171 216 265 318 381
#     4   9  19  35  58  89 120 154 199 247 301 362
#     4  10  19  34  59  89 121 155 198 248 301 362
#     4  11  25  44  66  95 129 168 214 266 322 380
#
# _framework density 21.810365999999998
#
# number of rings (size 3 to 8) (size 9 to 14) (size 15 to 20)
#    0.000    1.600    2.000    2.400    0.000    6.400 
#    0.000    0.000    0.000    0.000    0.000    0.000 
#    0.000    0.000    0.000    0.000    0.000    0.000 
#
# Total GULP energy -223328.792131 kJ/mol
# GULP energy per Si atom -5583.219803 kJ/mol
# Density = 2.176072 g / cm^3
# Si number density = 21.810366 Si / 1000 Ang^3
#
#
#
# Elastic Constant Matrix: (Units=GPa)
#
#
# Indices 1 2 3 4 5 6 
#
# 1 86.9269 67.8432 8.3533 0.0000 0.0000 0.0000
# 2 67.8432 184.5818 27.9918 0.0000 0.0000 0.0000
# 3 8.3533 27.9918 38.1205 0.0000 0.0000 0.0000
# 4 0.0000 0.0000 0.0000 23.7999 0.0000 0.0000
# 5 0.0000 0.0000 0.0000 0.0000 34.1843 0.0000
# 6 0.0000 0.0000 0.0000 0.0000 0.0000 24.1935
#
#
#
# Elastic Compliance Matrix: (Units=1/GPa)
#
#
# Indices 1 2 3 4 5 6 
#
# 1 0.016160 -0.006080 0.000923 0.000000 0.000000 0.000000
# 2 -0.006080 0.008384 -0.004824 0.000000 0.000000 0.000000
# 3 0.000923 -0.004824 0.029573 0.000000 0.000000 0.000000
# 4 0.000000 0.000000 0.000000 0.042017 0.000000 0.000000
# 5 0.000000 0.000000 0.000000 0.000000 0.029253 0.000000
# 6 0.000000 0.000000 0.000000 0.000000 0.000000 0.041333
#
#
# Mechanical properties :
#
#
# Convention : Reuss Voigt Hill
#
# Bulk Modulus (GPa) = 29.27789 57.55621 43.41705
# Shear Modulus (GPa) = 25.24407 30.13159 27.68783
#
# Velocity S-wave (km/s) = 3.40580 3.72092 3.56684
# Velocity P-wave (km/s) = 5.37763 6.70127 6.07561
#
# Compressibility (1/GPa) = 0.03415547
#
# Stress axis : x y z
#
# Youngs Moduli (GPa) = 61.88056 119.27774 33.81515
#
# Poissons Ratio (x) = 0.72517 -0.03122
# Poissons Ratio (y) = 0.37621 0.16312
# Poissons Ratio (z) = -0.05712 0.57539
#
# Static dielectric constant tensor:
#      x y z
#    x 1.838540 0.000000 0.000000 
#    y 0.000000 1.763160 0.000000 
#    z 0.000000 0.000000 1.857360 
# 
# From -- ./inp_files/26446.got.cif
#   From: 2010.05.17/outbox.cif.g08.bks.cpg/sg62_14_cif.got.tgz:26446.got - 2010.06.03 15:25:27.
