data_PCOD9463243
_publ_section_title
;
Structure prediction by ZEFSAII (Michael W. Deem and Ramdas Pophale) SiO2 
 PCOD9463243
Probable space group: P N M A
;
_chemical_formula_sum "Si O2"
_cell_formula_units_Z 48
_cell_length_a 10.484641
_cell_length_b 8.814167
_cell_length_c 28.641159
_cell_angle_alpha 90.000000
_cell_angle_beta 90.000000
_cell_angle_gamma 90.000000
_cell_volume 2646.826216
_symmetry_space_group_name_H-M "P N M A"
_symmetry_group_IT_number 62
_symmetry_cell_setting 'orthorhombic'
loop_
_space_group_symop_operation_xyz
x,y,z
1/2-x,-y,1/2+z
1/2+x,1/2-y,1/2-z
-x,1/2+y,-z
-x,-y,-z
1/2+x,y,1/2-z
1/2-x,1/2+y,1/2+z
x,1/2-y,z
loop_
_atom_site_type_symbol
_atom_site_label
_atom_site_fract_x
_atom_site_fract_y
_atom_site_fract_z
Si Si1 0.867488 0.431121 0.551903
Si Si2 0.647201 0.930097 0.945863
Si Si3 0.010369 0.431130 0.302392
Si Si4 0.011923 0.069383 0.191702
Si Si5 0.763985 0.569664 0.353434
Si Si6 0.241863 0.068734 0.851906
O O1 0.896112 0.250000 0.553450
O O2 0.819403 0.465632 0.499729
O O3 0.770841 0.464671 0.593671
O O4 0.999631 0.519506 0.559802
O O5 0.658126 0.750000 0.938591
O O6 0.727995 0.016789 0.907156
O O7 0.017245 0.250000 0.309680
O O8 0.003153 0.460670 0.247095
O O9 0.885389 0.495657 0.327618
O O10 0.135753 0.508496 0.323642
O O11 0.024052 0.250000 0.185394
O O12 0.884788 0.009764 0.166901
O O13 0.135481 0.988816 0.170473
O O14 0.773278 0.750000 0.350404
O O15 0.231663 0.250000 0.846384
#
# Coordination Sequence:
#
# PCOD9463243 Si02
#       6
#     8   8   8   8   8   8
#     4   9  19  35  57  88 119 149 190 242 291 346
#     4  10  19  34  59  87 117 152 192 238 292 347
#     4  11  23  40  62  87 115 154 200 243 289 346
#     4  11  25  42  59  83 119 158 198 241 291 352
#     4  12  24  39  60  88 120 154 197 244 293 346
#     4  11  22  38  61  90 121 152 192 241 293 348
#
# _framework density 18.134927000000001
#
# number of rings (size 3 to 8) (size 9 to 14) (size 15 to 20)
#    0.000    1.333    1.667    4.500    0.000    8.000 
#    0.000    0.833    0.000    0.000    0.000    0.000 
#    0.000    0.000    0.000    0.000    0.000    0.000 
#
# Total GULP energy -268339.954434 kJ/mol
# GULP energy per Si atom -5590.415717 kJ/mol
# Density = 1.809365 g / cm^3
# Si number density = 18.134927 Si / 1000 Ang^3
#
#
#
# Elastic Constant Matrix: (Units=GPa)
#
#
# Indices 1 2 3 4 5 6 
#
# 1 81.5456 15.7380 35.7456 0.0000 0.0000 0.0000
# 2 15.7380 55.8380 52.3503 0.0000 0.0000 0.0000
# 3 35.7456 52.3503 116.6528 0.0000 0.0000 0.0000
# 4 0.0000 0.0000 0.0000 29.6360 0.0000 0.0000
# 5 0.0000 0.0000 0.0000 0.0000 -45.8492 0.0000
# 6 0.0000 0.0000 0.0000 0.0000 0.0000 36.5113
#
#
#
# Elastic Compliance Matrix: (Units=1/GPa)
#
#
# Indices 1 2 3 4 5 6 
#
# 1 0.014166 0.000133 -0.004401 0.000000 0.000000 0.000000
# 2 0.000133 0.030918 -0.013916 0.000000 0.000000 0.000000
# 3 -0.004401 -0.013916 0.016166 0.000000 0.000000 0.000000
# 4 0.000000 0.000000 0.000000 0.033743 0.000000 0.000000
# 5 0.000000 0.000000 0.000000 0.000000 -0.021811 0.000000
# 6 0.000000 0.000000 0.000000 0.000000 0.000000 0.027389
#
#
# Mechanical properties :
#
#
# Convention : Reuss Voigt Hill
#
# Bulk Modulus (GPa) = 40.18741 51.30046 45.74394
# Shear Modulus (GPa) = 34.42735 14.07311 24.25023
#
# Velocity S-wave (km/s) = 4.36179 2.78874 3.66076
# Velocity P-wave (km/s) = 6.89748 6.22246 6.56865
#
# Compressibility (1/GPa) = 0.02488341
#
# Stress axis : x y z
#
# Youngs Moduli (GPa) = 70.58934 32.34337 61.85823
#
# Poissons Ratio (x) = -0.00430 0.27222
# Poissons Ratio (y) = -0.00939 0.86082
# Poissons Ratio (z) = 0.31064 0.45009
#
# Static dielectric constant tensor:
#      x y z
#    x 1.568020 0.000000 0.000000 
#    y 0.000000 1.604540 0.000000 
#    z 0.000000 0.000000 1.635290 
# 
# From -- ./inp_files/31919.got.cif
#   From: 2010.05.17/outbox.cif.g08.bks.cpg/sg62_16_cif.got.tgz:31919.got - 2010.06.03 15:25:27.
