data_PCOD9463862
_publ_section_title
;
Structure prediction by ZEFSAII (Michael W. Deem and Ramdas Pophale) SiO2 
 PCOD9463862
Probable space group: P N M A
;
_chemical_formula_sum "Si O2"
_cell_formula_units_Z 64
_cell_length_a 14.077134
_cell_length_b 9.791576
_cell_length_c 24.807748
_cell_angle_alpha 90.000000
_cell_angle_beta 90.000000
_cell_angle_gamma 90.000000
_cell_volume 3419.433684
_symmetry_space_group_name_H-M "P N M A"
_symmetry_group_IT_number 62
_symmetry_cell_setting 'orthorhombic'
loop_
_space_group_symop_operation_xyz
x,y,z
1/2-x,-y,1/2+z
1/2+x,1/2-y,1/2-z
-x,1/2+y,-z
-x,-y,-z
1/2+x,y,1/2-z
1/2-x,1/2+y,1/2+z
x,1/2-y,z
loop_
_atom_site_type_symbol
_atom_site_label
_atom_site_fract_x
_atom_site_fract_y
_atom_site_fract_z
Si Si1 0.582599 0.027593 0.457578
Si Si2 0.956744 0.404671 0.143131
Si Si3 0.742016 0.401717 0.912754
Si Si4 0.119623 0.411202 0.289932
Si Si5 0.248643 0.591063 0.213279
Si Si6 0.721489 0.599011 0.000961
Si Si7 0.257771 0.907733 0.898379
Si Si8 0.536151 0.410004 0.746301
O O1 0.532760 0.089433 0.405028
O O2 0.500000 0.000000 0.500000
O O3 0.649644 0.905155 0.435790
O O4 0.334607 0.890273 0.512043
O O5 0.955446 0.250000 0.165899
O O6 0.851841 0.431440 0.118812
O O7 0.977909 0.515942 0.188752
O O8 0.702517 0.250000 0.917876
O O9 0.746072 0.439176 0.850201
O O10 0.687335 0.510872 0.949605
O O11 0.104378 0.250000 0.279444
O O12 0.182848 0.483874 0.243958
O O13 0.176779 0.423136 0.345823
O O14 0.024025 0.500262 0.288441
O O15 0.216422 0.750000 0.219235
O O16 0.353293 0.582737 0.238561
O O17 0.680797 0.750000 0.005075
O O18 0.712815 0.510546 0.054734
O O19 0.263599 0.750000 0.917346
O O20 0.509109 0.250000 0.745449
#
# Coordination Sequence:
#
# PCOD9463862 Si02
#       8
#     8   8   8   8   8   8   8   8
#     4  10  20  32  51  81 114 151 188 232 286 350
#     4  11  20  36  55  78 113 153 194 236 283 347
#     4   9  20  36  54  76 109 152 190 231 283 343
#     4  11  23  39  60  86 116 155 200 247 296 353
#     4  10  21  40  62  86 119 157 200 250 300 353
#     4  10  21  34  51  80 112 148 188 234 290 345
#     4  10  21  37  56  79 112 153 193 234 286 347
#     4  11  24  39  59  88 119 154 196 245 302 357
#
# _framework density 18.716550000000002
#
# number of rings (size 3 to 8) (size 9 to 14) (size 15 to 20)
#    0.750    1.000    2.500    2.250    0.000    5.000 
#    0.000    0.000    0.000    0.750    0.000    0.000 
#    0.000    0.000    0.000    0.000    0.000    0.000 
#
# Total GULP energy -356642.112274 kJ/mol
# GULP energy per Si atom -5572.533004 kJ/mol
# Density = 1.867395 g / cm^3
# Si number density = 18.716550 Si / 1000 Ang^3
#
#
#
# Elastic Constant Matrix: (Units=GPa)
#
#
# Indices 1 2 3 4 5 6 
#
# 1 24.0517 7.8558 -0.0706 0.0000 0.0000 0.0000
# 2 7.8558 111.7705 52.0916 0.0000 0.0000 0.0000
# 3 -0.0706 52.0916 95.3499 0.0000 0.0000 0.0000
# 4 0.0000 0.0000 0.0000 25.2270 0.0000 0.0000
# 5 0.0000 0.0000 0.0000 0.0000 25.8151 0.0000
# 6 0.0000 0.0000 0.0000 0.0000 0.0000 17.8660
#
#
#
# Elastic Compliance Matrix: (Units=1/GPa)
#
#
# Indices 1 2 3 4 5 6 
#
# 1 0.042912 -0.004066 0.002253 0.000000 0.000000 0.000000
# 2 -0.004066 0.012388 -0.006771 0.000000 0.000000 0.000000
# 3 0.002253 -0.006771 0.014189 0.000000 0.000000 0.000000
# 4 0.000000 0.000000 0.000000 0.039640 0.000000 0.000000
# 5 0.000000 0.000000 0.000000 0.000000 0.038737 0.000000
# 6 0.000000 0.000000 0.000000 0.000000 0.000000 0.055972
#
#
# Mechanical properties :
#
#
# Convention : Reuss Voigt Hill
#
# Bulk Modulus (GPa) = 19.11289 38.99173 29.05231
# Shear Modulus (GPa) = 20.96907 25.20131 23.08519
#
# Velocity S-wave (km/s) = 3.35079 3.67341 3.51580
# Velocity P-wave (km/s) = 5.02039 6.23457 5.66014
#
# Compressibility (1/GPa) = 0.05232070
#
# Stress axis : x y z
#
# Youngs Moduli (GPa) = 23.30361 80.72066 70.47951
#
# Poissons Ratio (x) = 0.32823 -0.15881
# Poissons Ratio (y) = 0.09476 0.47722
# Poissons Ratio (z) = -0.05251 0.54656
#
# Static dielectric constant tensor:
#      x y z
#    x 1.648770 0.000000 0.000000 
#    y 0.000000 1.646810 0.000000 
#    z 0.000000 0.000000 1.635750 
# 
# From -- ./inp_files/29879.got.cif
#   From: 2010.05.17/outbox.cif.g08.bks.cpg/sg62_15_cif.got.tgz:29879.got - 2010.06.03 15:25:27.
