data_PCOD9463502
_publ_section_title
;
Structure prediction by ZEFSAII (Michael W. Deem and Ramdas Pophale) SiO2 
 PCOD9463502
Probable space group: P N M A
;
_chemical_formula_sum "Si O2"
_cell_formula_units_Z 40
_cell_length_a 14.914583
_cell_length_b 23.133434
_cell_length_c 4.927691
_cell_angle_alpha 90.000000
_cell_angle_beta 90.000000
_cell_angle_gamma 90.000000
_cell_volume 1700.179157
_symmetry_space_group_name_H-M "P N M A"
_symmetry_group_IT_number 62
_symmetry_cell_setting 'orthorhombic'
loop_
_space_group_symop_operation_xyz
x,y,z
1/2-x,-y,1/2+z
1/2+x,1/2-y,1/2-z
-x,1/2+y,-z
-x,-y,-z
1/2+x,y,1/2-z
1/2-x,1/2+y,1/2+z
x,1/2-y,z
loop_
_atom_site_type_symbol
_atom_site_label
_atom_site_fract_x
_atom_site_fract_y
_atom_site_fract_z
Si Si1 0.268313 0.814534 0.889079
Si Si2 0.966918 0.916364 0.458438
Si Si3 0.853018 0.420406 0.268694
Si Si4 0.378287 0.010822 0.743612
Si Si5 0.611914 0.314658 0.612605
O O1 0.233308 0.750000 0.826179
O O2 0.201542 0.865775 0.826939
O O3 0.298679 0.815190 0.200703
O O4 0.356129 0.822191 0.696273
O O5 0.943563 0.865234 0.254201
O O6 0.044705 0.900694 0.672799
O O7 0.019602 0.964465 0.277814
O O8 0.886609 0.947664 0.623321
O O9 0.822690 0.447762 0.553720
O O10 0.849614 0.472873 0.055336
O O11 0.571874 0.250000 0.640316
#
# Coordination Sequence:
#
# PCOD9463502 Si02
#       5
#     8   8   8   8   8
#     4  10  22  39  56  80 120 155 190 240 294 341
#     4   9  21  35  62  81 117 143 194 237 288 343
#     4  10  19  36  58  84 110 150 193 229 286 351
#     4   9  20  34  59  84 112 146 185 238 297 330
#     4  10  22  38  57  82 114 156 192 236 295 346
#
# _framework density 23.526931000000001
#
# number of rings (size 3 to 8) (size 9 to 14) (size 15 to 20)
#    1.200    1.200    0.000    1.800    2.800    0.800 
#    0.000    5.000    0.000    0.000    0.000    0.000 
#    0.000    0.000    0.000    0.000    0.000    0.000 
#
# Total GULP energy -223270.947394 kJ/mol
# GULP energy per Si atom -5581.773685 kJ/mol
# Density = 2.347338 g / cm^3
# Si number density = 23.526931 Si / 1000 Ang^3
#
#
#
# Elastic Constant Matrix: (Units=GPa)
#
#
# Indices 1 2 3 4 5 6 
#
# 1 29.5003 25.7033 -5.4618 0.0000 0.0000 0.0000
# 2 25.7033 117.6761 -6.1916 0.0000 0.0000 0.0000
# 3 -5.4618 -6.1916 82.9249 0.0000 0.0000 0.0000
# 4 0.0000 0.0000 0.0000 33.9287 0.0000 0.0000
# 5 0.0000 0.0000 0.0000 0.0000 13.8466 0.0000
# 6 0.0000 0.0000 0.0000 0.0000 0.0000 39.9787
#
#
#
# Elastic Compliance Matrix: (Units=1/GPa)
#
#
# Indices 1 2 3 4 5 6 
#
# 1 0.042227 -0.009113 0.002101 0.000000 0.000000 0.000000
# 2 -0.009113 0.010498 0.000184 0.000000 0.000000 0.000000
# 3 0.002101 0.000184 0.012211 0.000000 0.000000 0.000000
# 4 0.000000 0.000000 0.000000 0.029474 0.000000 0.000000
# 5 0.000000 0.000000 0.000000 0.000000 0.072220 0.000000
# 6 0.000000 0.000000 0.000000 0.000000 0.000000 0.025013
#
#
# Mechanical properties :
#
#
# Convention : Reuss Voigt Hill
#
# Bulk Modulus (GPa) = 19.50103 28.68899 24.09501
# Shear Modulus (GPa) = 22.48276 31.95423 27.21849
#
# Velocity S-wave (km/s) = 3.09466 3.68937 3.40503
# Velocity P-wave (km/s) = 4.59086 5.51083 5.07175
#
# Compressibility (1/GPa) = 0.05127936
#
# Stress axis : x y z
#
# Youngs Moduli (GPa) = 23.68162 95.25603 81.89216
#
# Poissons Ratio (x) = 0.86805 -0.17204
# Poissons Ratio (y) = 0.21581 -0.01504
# Poissons Ratio (z) = -0.04975 -0.01749
#
# Static dielectric constant tensor:
#      x y z
#    x 1.947860 0.000000 0.000000 
#    y 0.000000 1.912050 0.000000 
#    z 0.000000 0.000000 1.872210 
# 
# From -- ./inp_files/2130.got.cif
#   From: 2010.05.17/outbox.cif.g08.bks.cpg/sg62_2_cif.got.tgz:2130.got - 2010.06.03 15:25:27.
