data_PCOD9463169
_publ_section_title
;
Structure prediction by ZEFSAII (Michael W. Deem and Ramdas Pophale) SiO2 
 PCOD9463169
Probable space group: P N M A
;
_chemical_formula_sum "Si O2"
_cell_formula_units_Z 64
_cell_length_a 12.479778
_cell_length_b 8.534642
_cell_length_c 29.258171
_cell_angle_alpha 90.000000
_cell_angle_beta 90.000000
_cell_angle_gamma 90.000000
_cell_volume 3116.300593
_symmetry_space_group_name_H-M "P N M A"
_symmetry_group_IT_number 62
_symmetry_cell_setting 'orthorhombic'
loop_
_space_group_symop_operation_xyz
x,y,z
1/2-x,-y,1/2+z
1/2+x,1/2-y,1/2-z
-x,1/2+y,-z
-x,-y,-z
1/2+x,y,1/2-z
1/2-x,1/2+y,1/2+z
x,1/2-y,z
loop_
_atom_site_type_symbol
_atom_site_label
_atom_site_fract_x
_atom_site_fract_y
_atom_site_fract_z
Si Si1 0.767579 0.437092 0.529825
Si Si2 0.682928 0.564313 0.880022
Si Si3 0.425860 0.438261 0.411104
Si Si4 0.067507 0.939994 0.713748
Si Si5 0.647293 0.566243 0.442529
Si Si6 0.868489 0.435229 0.186245
Si Si7 0.478390 0.432149 0.927768
Si Si8 0.140989 0.929879 0.330180
O O1 0.770490 0.250000 0.535983
O O2 0.686466 0.508571 0.567096
O O3 0.713495 0.479878 0.482084
O O4 0.891209 0.491938 0.535438
O O5 0.703579 0.750000 0.880693
O O6 0.643442 0.517756 0.829257
O O7 0.787545 0.473513 0.896544
O O8 0.585286 0.525873 0.915035
O O9 0.430837 0.250000 0.412256
O O10 0.526251 0.506056 0.438573
O O11 0.430677 0.495677 0.358459
O O12 0.061326 0.750000 0.713282
O O13 0.105258 0.996436 0.763360
O O14 0.952151 0.010726 0.702848
O O15 0.647585 0.750000 0.452052
O O16 0.889433 0.250000 0.187984
O O17 0.744652 0.464913 0.175512
O O18 0.507146 0.250000 0.936935
O O19 0.408696 0.436663 0.880911
O O20 0.170183 0.750000 0.320942
#
# Coordination Sequence:
#
# PCOD9463169 Si02
#       8
#     8   8   8   8   8   8   8   8
#     4  11  22  40  64  90 120 155 198 247 299 356
#     4  10  21  39  62  86 117 157 200 246 296 352
#     4  11  23  40  62  88 119 156 201 247 296 354
#     4   9  20  38  59  85 116 154 197 241 292 351
#     4  12  26  42  60  84 121 162 200 245 300 359
#     4  10  21  37  60  87 116 153 197 242 290 351
#     4   9  19  36  60  87 117 151 189 240 294 349
#     4  10  19  34  56  84 116 149 188 240 296 345
#
# _framework density 20.53717
#
# number of rings (size 3 to 8) (size 9 to 14) (size 15 to 20)
#    0.000    1.750    1.250    3.000    0.000    4.500 
#    0.000    5.000    0.000    0.000    0.000    0.000 
#    0.000    0.000    0.000    0.000    0.000    0.000 
#
# Total GULP energy -357531.076893 kJ/mol
# GULP energy per Si atom -5586.423076 kJ/mol
# Density = 2.049043 g / cm^3
# Si number density = 20.537170 Si / 1000 Ang^3
#
#
#
# Elastic Constant Matrix: (Units=GPa)
#
#
# Indices 1 2 3 4 5 6 
#
# 1 53.7292 -0.9291 4.3236 0.0000 0.0000 0.0000
# 2 -0.9291 16.6120 -2.6044 0.0000 0.0000 0.0000
# 3 4.3236 -2.6044 67.3109 0.0000 0.0000 0.0000
# 4 0.0000 0.0000 0.0000 19.5725 0.0000 0.0000
# 5 0.0000 0.0000 0.0000 0.0000 22.4072 0.0000
# 6 0.0000 0.0000 0.0000 0.0000 0.0000 30.8347
#
#
#
# Elastic Compliance Matrix: (Units=1/GPa)
#
#
# Indices 1 2 3 4 5 6 
#
# 1 0.018721 0.000864 -0.001169 0.000000 0.000000 0.000000
# 2 0.000864 0.060605 0.002289 0.000000 0.000000 0.000000
# 3 -0.001169 0.002289 0.015020 0.000000 0.000000 0.000000
# 4 0.000000 0.000000 0.000000 0.051092 0.000000 0.000000
# 5 0.000000 0.000000 0.000000 0.000000 0.044629 0.000000
# 6 0.000000 0.000000 0.000000 0.000000 0.000000 0.032431
#
#
# Mechanical properties :
#
#
# Convention : Reuss Voigt Hill
#
# Bulk Modulus (GPa) = 10.17153 15.47026 12.82089
# Shear Modulus (GPa) = 19.89651 23.68700 21.79175
#
# Velocity S-wave (km/s) = 3.11594 3.39982 3.26097
# Velocity P-wave (km/s) = 4.23189 4.79175 4.52050
#
# Compressibility (1/GPa) = 0.09831366
#
# Stress axis : x y z
#
# Youngs Moduli (GPa) = 53.41630 16.50041 66.57738
#
# Poissons Ratio (x) = -0.01425 0.07783
# Poissons Ratio (y) = -0.04614 -0.15242
# Poissons Ratio (z) = 0.06245 -0.03778
#
# Static dielectric constant tensor:
#      x y z
#    x 1.700940 0.000000 0.000000 
#    y 0.000000 1.692390 0.000000 
#    z 0.000000 0.000000 1.783330 
# 
# From -- ./inp_files/32548.got.cif
#   From: 2010.05.17/outbox.cif.g08.bks.cpg/sg62_17_cif.got.tgz:32548.got - 2010.06.03 15:25:27.
