data_PCOD9463344
_publ_section_title
;
Structure prediction by ZEFSAII (Michael W. Deem and Ramdas Pophale) SiO2 
 PCOD9463344
Probable space group: P N M A
;
_chemical_formula_sum "Si O2"
_cell_formula_units_Z 64
_cell_length_a 11.858993
_cell_length_b 8.655196
_cell_length_c 34.179688
_cell_angle_alpha 90.000000
_cell_angle_beta 90.000000
_cell_angle_gamma 90.000000
_cell_volume 3508.268418
_symmetry_space_group_name_H-M "P N M A"
_symmetry_group_IT_number 62
_symmetry_cell_setting 'orthorhombic'
loop_
_space_group_symop_operation_xyz
x,y,z
1/2-x,-y,1/2+z
1/2+x,1/2-y,1/2-z
-x,1/2+y,-z
-x,-y,-z
1/2+x,y,1/2-z
1/2-x,1/2+y,1/2+z
x,1/2-y,z
loop_
_atom_site_type_symbol
_atom_site_label
_atom_site_fract_x
_atom_site_fract_y
_atom_site_fract_z
Si Si1 0.187544 0.433400 0.332094
Si Si2 0.968240 0.437620 0.863111
Si Si3 0.912968 0.065198 0.445453
Si Si4 0.046906 0.063787 0.698218
Si Si5 0.104780 0.436908 0.786537
Si Si6 0.189685 0.435116 0.907474
Si Si7 0.713023 0.063637 0.870287
Si Si8 0.338594 0.934900 0.973392
O O1 0.190961 0.250000 0.336948
O O2 0.278016 0.487964 0.299754
O O3 0.227889 0.511532 0.372458
O O4 0.064484 0.487821 0.319401
O O5 0.965592 0.250000 0.864002
O O6 0.842137 0.492771 0.871200
O O7 0.014028 0.479821 0.819979
O O8 0.064510 0.486099 0.893934
O O9 0.909405 0.250000 0.444892
O O10 0.043611 0.018050 0.452181
O O11 0.860179 0.000525 0.405935
O O12 0.845647 0.003356 0.483176
O O13 0.032739 0.250000 0.697345
O O14 0.067984 0.018449 0.743102
O O15 0.152325 0.024164 0.670508
O O16 0.117925 0.250000 0.787654
O O17 0.191050 0.250000 0.909652
O O18 0.235720 0.504949 0.947511
O O19 0.714271 0.250000 0.873263
O O20 0.336169 0.750000 0.975601
#
# Coordination Sequence:
#
# PCOD9463344 Si02
#       8
#     8   8   8   8   8   8   8   8
#     4  11  22  35  52  77 113 145 178 225 276 331
#     4   8  17  34  55  78 107 141 179 228 277 321
#     4  10  21  36  54  81 114 147 178 219 274 330
#     4  10  21  34  57  83 105 140 186 233 278 329
#     4   9  19  36  58  80 104 138 187 236 277 325
#     4  10  19  35  58  81 107 143 187 228 270 325
#     4  10  20  35  55  81 109 142 182 227 277 328
#     4  10  20  35  58  85 112 141 178 227 278 326
#
# _framework density 18.242616999999999
#
# number of rings (size 3 to 8) (size 9 to 14) (size 15 to 20)
#    0.000    2.250    0.000    3.750    1.750    4.500 
#    0.000    3.750    0.000    0.000    0.000    0.000 
#    0.000    0.000    0.000    0.000    0.000    0.000 
#
# Total GULP energy -357289.651323 kJ/mol
# GULP energy per Si atom -5582.650802 kJ/mol
# Density = 1.820110 g / cm^3
# Si number density = 18.242617 Si / 1000 Ang^3
#
#
#
# Elastic Constant Matrix: (Units=GPa)
#
#
# Indices 1 2 3 4 5 6 
#
# 1 52.4917 13.0186 18.1854 0.0000 0.0000 0.0000
# 2 13.0186 17.3859 11.0968 0.0000 0.0000 0.0000
# 3 18.1854 11.0968 70.9036 0.0000 0.0000 0.0000
# 4 0.0000 0.0000 0.0000 13.9068 0.0000 0.0000
# 5 0.0000 0.0000 0.0000 0.0000 14.0558 0.0000
# 6 0.0000 0.0000 0.0000 0.0000 0.0000 16.6451
#
#
#
# Elastic Compliance Matrix: (Units=1/GPa)
#
#
# Indices 1 2 3 4 5 6 
#
# 1 0.024263 -0.015772 -0.003755 0.000000 0.000000 0.000000
# 2 -0.015772 0.074153 -0.007560 0.000000 0.000000 0.000000
# 3 -0.003755 -0.007560 0.016250 0.000000 0.000000 0.000000
# 4 0.000000 0.000000 0.000000 0.071907 0.000000 0.000000
# 5 0.000000 0.000000 0.000000 0.000000 0.071145 0.000000
# 6 0.000000 0.000000 0.000000 0.000000 0.000000 0.060078
#
#
# Mechanical properties :
#
#
# Convention : Reuss Voigt Hill
#
# Bulk Modulus (GPa) = 16.53086 25.04252 20.78669
# Shear Modulus (GPa) = 12.75074 15.48689 14.11881
#
# Velocity S-wave (km/s) = 2.64664 2.91682 2.78501
# Velocity P-wave (km/s) = 4.29196 5.01010 4.66487
#
# Compressibility (1/GPa) = 0.06049293
#
# Stress axis : x y z
#
# Youngs Moduli (GPa) = 41.21502 13.48557 61.53900
#
# Poissons Ratio (x) = 0.21269 0.23105
# Poissons Ratio (y) = 0.65003 0.46525
# Poissons Ratio (z) = 0.15475 0.10195
#
# Static dielectric constant tensor:
#      x y z
#    x 1.620630 0.000000 0.000000 
#    y 0.000000 1.614450 0.000000 
#    z 0.000000 0.000000 1.608210 
# 
# From -- ./inp_files/32454.got.cif
#   From: 2010.05.17/outbox.cif.g08.bks.cpg/sg62_17_cif.got.tgz:32454.got - 2010.06.03 15:25:27.
