data_PCOD9463660
_publ_section_title
;
Structure prediction by ZEFSAII (Michael W. Deem and Ramdas Pophale) SiO2 
 PCOD9463660
Probable space group: P N M A
;
_chemical_formula_sum "Si O2"
_cell_formula_units_Z 48
_cell_length_a 8.467998
_cell_length_b 8.418249
_cell_length_c 29.461905
_cell_angle_alpha 90.000000
_cell_angle_beta 90.000000
_cell_angle_gamma 90.000000
_cell_volume 2100.212984
_symmetry_space_group_name_H-M "P N M A"
_symmetry_group_IT_number 62
_symmetry_cell_setting 'orthorhombic'
loop_
_space_group_symop_operation_xyz
x,y,z
1/2-x,-y,1/2+z
1/2+x,1/2-y,1/2-z
-x,1/2+y,-z
-x,-y,-z
1/2+x,y,1/2-z
1/2-x,1/2+y,1/2+z
x,1/2-y,z
loop_
_atom_site_type_symbol
_atom_site_label
_atom_site_fract_x
_atom_site_fract_y
_atom_site_fract_z
Si Si1 0.580614 0.565612 0.597451
Si Si2 0.075523 0.056680 0.728773
Si Si3 0.588518 0.564744 0.929848
Si Si4 0.721844 0.563978 0.023912
Si Si5 0.724280 0.565558 0.353394
Si Si6 0.747495 0.442365 0.683195
O O1 0.586082 0.750000 0.586915
O O2 0.620197 0.472297 0.551461
O O3 0.417269 0.523164 0.621901
O O4 0.711535 0.518813 0.635043
O O5 0.074886 0.250000 0.728093
O O6 0.217947 0.006780 0.695531
O O7 0.112026 0.012194 0.780351
O O8 0.911298 0.007071 0.706461
O O9 0.603426 0.750000 0.917330
O O10 0.418267 0.533010 0.951737
O O11 0.626737 0.456247 0.886972
O O12 0.712095 0.527325 0.970556
O O13 0.683289 0.750000 0.027977
O O14 0.679440 0.750000 0.349144
O O15 0.747908 0.250000 0.678211
#
# Coordination Sequence:
#
# PCOD9463660 Si02
#       6
#     8   8   8   8   8   8
#     4  12  25  39  56  83 117 153 196 247 298 341
#     4   9  19  35  61  90 114 147 191 236 281 345
#     4  10  21  38  61  90 120 149 188 240 292 342
#     4  10  21  39  62  86 115 155 197 235 284 348
#     4  11  22  38  60  86 117 156 198 238 288 349
#     4  10  19  37  62  87 115 148 190 236 287 349
#
# _framework density 22.854825999999999
#
# number of rings (size 3 to 8) (size 9 to 14) (size 15 to 20)
#    0.000    1.667    0.000    5.000    0.000    6.667 
#    0.000    5.000    0.000    0.000    0.000    0.000 
#    0.000    0.000    0.000    0.000    0.000    0.000 
#
# Total GULP energy -268530.996366 kJ/mol
# GULP energy per Si atom -5594.395758 kJ/mol
# Density = 2.280281 g / cm^3
# Si number density = 22.854826 Si / 1000 Ang^3
#
#
#
# Elastic Constant Matrix: (Units=GPa)
#
#
# Indices 1 2 3 4 5 6 
#
# 1 54.0003 -5.0252 -11.0040 0.0000 0.0000 0.0000
# 2 -5.0252 29.1289 6.8338 0.0000 0.0000 0.0000
# 3 -11.0040 6.8338 71.9522 0.0000 0.0000 0.0000
# 4 0.0000 0.0000 0.0000 18.3353 0.0000 0.0000
# 5 0.0000 0.0000 0.0000 0.0000 35.1276 0.0000
# 6 0.0000 0.0000 0.0000 0.0000 0.0000 23.0556
#
#
#
# Elastic Compliance Matrix: (Units=1/GPa)
#
#
# Indices 1 2 3 4 5 6 
#
# 1 0.019319 0.002700 0.002698 0.000000 0.000000 0.000000
# 2 0.002700 0.035490 -0.002958 0.000000 0.000000 0.000000
# 3 0.002698 -0.002958 0.014592 0.000000 0.000000 0.000000
# 4 0.000000 0.000000 0.000000 0.054540 0.000000 0.000000
# 5 0.000000 0.000000 0.000000 0.000000 0.028468 0.000000
# 6 0.000000 0.000000 0.000000 0.000000 0.000000 0.043373
#
#
# Mechanical properties :
#
#
# Convention : Reuss Voigt Hill
#
# Bulk Modulus (GPa) = 13.46229 15.18786 14.32507
# Shear Modulus (GPa) = 23.18445 26.25547 24.71996
#
# Velocity S-wave (km/s) = 3.18846 3.39306 3.29235
# Velocity P-wave (km/s) = 4.41114 4.69151 4.55348
#
# Compressibility (1/GPa) = 0.07428159
#
# Stress axis : x y z
#
# Youngs Moduli (GPa) = 51.76119 28.17706 68.53218
#
# Poissons Ratio (x) = -0.07608 -0.18491
# Poissons Ratio (y) = -0.13975 0.20271
# Poissons Ratio (z) = -0.13966 0.08334
#
# Static dielectric constant tensor:
#      x y z
#    x 1.911480 0.000000 0.000000 
#    y 0.000000 1.764340 0.000000 
#    z 0.000000 0.000000 1.825680 
# 
# From -- ./inp_files/31908.got.cif
#   From: 2010.05.17/outbox.cif.g08.bks.cpg/sg62_16_cif.got.tgz:31908.got - 2010.06.03 15:25:27.
