data_PCOD9463292
_publ_section_title
;
Structure prediction by ZEFSAII (Michael W. Deem and Ramdas Pophale) SiO2 
 PCOD9463292
Probable space group: P N M A
;
_chemical_formula_sum "Si O2"
_cell_formula_units_Z 40
_cell_length_a 9.059639
_cell_length_b 15.006169
_cell_length_c 15.478233
_cell_angle_alpha 90.000000
_cell_angle_beta 90.000000
_cell_angle_gamma 90.000000
_cell_volume 2104.273112
_symmetry_space_group_name_H-M "P N M A"
_symmetry_group_IT_number 62
_symmetry_cell_setting 'orthorhombic'
loop_
_space_group_symop_operation_xyz
x,y,z
1/2-x,-y,1/2+z
1/2+x,1/2-y,1/2-z
-x,1/2+y,-z
-x,-y,-z
1/2+x,y,1/2-z
1/2-x,1/2+y,1/2+z
x,1/2-y,z
loop_
_atom_site_type_symbol
_atom_site_label
_atom_site_fract_x
_atom_site_fract_y
_atom_site_fract_z
Si Si1 0.178396 0.396640 0.641038
Si Si2 0.608238 0.933691 0.946139
Si Si3 0.507530 0.648951 0.292860
Si Si4 0.364314 0.975110 0.435926
Si Si5 0.816871 0.651995 0.559187
O O1 0.171653 0.503227 0.628774
O O2 0.319973 0.366648 0.693832
O O3 0.190339 0.355229 0.545622
O O4 0.037089 0.366204 0.693996
O O5 0.490461 0.860495 0.917625
O O6 0.744846 0.916545 0.009872
O O7 0.500000 0.000000 0.000000
O O8 0.470080 0.750000 0.317821
O O9 0.424376 0.579256 0.354801
O O10 0.500000 0.000000 0.500000
O O11 0.280600 0.067406 0.410780
O O12 0.764694 0.750000 0.585886
#
# Coordination Sequence:
#
# PCOD9463292 Si02
#       5
#     8   8   8   8   8
#     4  10  22  36  52  83 117 145 178 227 285 336
#     4   8  18  36  55  75 107 151 188 226 273 325
#     4  12  23  34  54  86 120 148 179 225 287 346
#     4  10  19  35  55  79 113 151 190 228 274 326
#     4  10  20  38  60  82 113 150 193 234 273 330
#
# _framework density 19.008939000000002
#
# number of rings (size 3 to 8) (size 9 to 14) (size 15 to 20)
#    0.000    2.400    4.000    1.800    8.400    0.800 
#    0.000    0.000    0.000    1.200    0.000    0.000 
#    0.000    0.000    0.000    0.000    0.000    0.000 
#
# Total GULP energy -222829.996651 kJ/mol
# GULP energy per Si atom -5570.749916 kJ/mol
# Density = 1.896567 g / cm^3
# Si number density = 19.008939 Si / 1000 Ang^3
#
#
#
# Elastic Constant Matrix: (Units=GPa)
#
#
# Indices 1 2 3 4 5 6 
#
# 1 43.9714 -10.7095 -12.4595 0.0000 0.0000 0.0000
# 2 -10.7095 75.3298 -2.0973 0.0000 0.0000 0.0000
# 3 -12.4595 -2.0973 22.4572 0.0000 0.0000 0.0000
# 4 0.0000 0.0000 0.0000 10.6811 0.0000 0.0000
# 5 0.0000 0.0000 0.0000 0.0000 30.8518 0.0000
# 6 0.0000 0.0000 0.0000 0.0000 0.0000 20.9931
#
#
#
# Elastic Compliance Matrix: (Units=1/GPa)
#
#
# Indices 1 2 3 4 5 6 
#
# 1 0.028423 0.004492 0.016189 0.000000 0.000000 0.000000
# 2 0.004492 0.014019 0.003801 0.000000 0.000000 0.000000
# 3 0.016189 0.003801 0.053866 0.000000 0.000000 0.000000
# 4 0.000000 0.000000 0.000000 0.093624 0.000000 0.000000
# 5 0.000000 0.000000 0.000000 0.000000 0.032413 0.000000
# 6 0.000000 0.000000 0.000000 0.000000 0.000000 0.047635
#
#
# Mechanical properties :
#
#
# Convention : Reuss Voigt Hill
#
# Bulk Modulus (GPa) = 6.88362 10.13619 8.50991
# Shear Modulus (GPa) = 18.55700 23.64019 21.09859
#
# Velocity S-wave (km/s) = 3.12785 3.53035 3.33518
# Velocity P-wave (km/s) = 4.08335 4.68633 4.39519
#
# Compressibility (1/GPa) = 0.14527232
#
# Stress axis : x y z
#
# Youngs Moduli (GPa) = 35.18248 71.32994 18.56460
#
# Poissons Ratio (x) = -0.32039 -0.30054
# Poissons Ratio (y) = -0.15803 -0.07057
# Poissons Ratio (z) = -0.56957 -0.27115
#
# Static dielectric constant tensor:
#      x y z
#    x 1.700320 0.000000 0.000000 
#    y 0.000000 1.758230 0.000000 
#    z 0.000000 0.000000 1.661360 
# 
# From -- ./inp_files/16795.got.cif
#   From: 2010.05.17/outbox.cif.g08.bks.cpg/sg62_9_cif.got.tgz:16795.got - 2010.06.03 15:25:27.
