data_PCOD9463415
_publ_section_title
;
Structure prediction by ZEFSAII (Michael W. Deem and Ramdas Pophale) SiO2 
 PCOD9463415
Probable space group: P N M A
;
_chemical_formula_sum "Si O2"
_cell_formula_units_Z 64
_cell_length_a 12.678122
_cell_length_b 9.341189
_cell_length_c 27.974837
_cell_angle_alpha 90.000000
_cell_angle_beta 90.000000
_cell_angle_gamma 90.000000
_cell_volume 3313.024523
_symmetry_space_group_name_H-M "P N M A"
_symmetry_group_IT_number 62
_symmetry_cell_setting 'orthorhombic'
loop_
_space_group_symop_operation_xyz
x,y,z
1/2-x,-y,1/2+z
1/2+x,1/2-y,1/2-z
-x,1/2+y,-z
-x,-y,-z
1/2+x,y,1/2-z
1/2-x,1/2+y,1/2+z
x,1/2-y,z
loop_
_atom_site_type_symbol
_atom_site_label
_atom_site_fract_x
_atom_site_fract_y
_atom_site_fract_z
Si Si1 0.085627 0.585162 0.438205
Si Si2 0.367500 0.582728 0.289929
Si Si3 0.354460 0.580845 0.551861
Si Si4 0.793640 0.419815 0.038063
Si Si5 0.544336 0.580263 0.622707
Si Si6 0.432079 0.081033 0.197656
Si Si7 0.383716 0.081540 0.087594
Si Si8 0.128776 0.589559 0.324555
O O1 0.082801 0.750000 0.454810
O O2 0.180894 0.498499 0.462032
O O3 0.114949 0.584246 0.381711
O O4 0.971616 0.510065 0.440259
O O5 0.392730 0.750000 0.285357
O O6 0.442205 0.507894 0.328982
O O7 0.374900 0.504789 0.239275
O O8 0.248974 0.569507 0.309938
O O9 0.367909 0.750000 0.540312
O O10 0.362625 0.485530 0.504670
O O11 0.440252 0.544682 0.592100
O O12 0.235615 0.559752 0.570953
O O13 0.780603 0.250000 0.032424
O O14 0.856166 0.445774 0.087498
O O15 0.541726 0.750000 0.633471
O O16 0.422911 0.250000 0.205222
O O17 0.391456 0.047171 0.144149
O O18 0.553067 0.028833 0.197707
O O19 0.410158 0.250000 0.082339
O O20 0.095100 0.750000 0.309272
#
# Coordination Sequence:
#
# PCOD9463415 Si02
#       8
#     8   8   8   8   8   8   8   8
#     4  10  19  35  60  85 112 148 192 239 289 342
#     4  11  22  37  59  87 117 150 193 240 290 350
#     4  10  22  40  60  83 118 157 194 238 293 353
#     4  11  22  36  58  88 118 151 197 244 292 349
#     4  10  22  39  59  85 117 154 197 244 291 347
#     4  10  21  36  57  85 115 150 191 237 293 349
#     4   9  20  39  59  82 114 152 193 241 293 346
#     4   9  19  36  56  80 110 147 189 237 289 340
#
# _framework density 19.317695000000001
#
# number of rings (size 3 to 8) (size 9 to 14) (size 15 to 20)
#    0.000    2.000    1.250    1.875    0.000    5.000 
#    0.000    1.250    0.000    0.000    0.000    0.000 
#    0.000    0.000    0.000    0.000    0.000    0.000 
#
# Total GULP energy -357554.462070 kJ/mol
# GULP energy per Si atom -5586.788470 kJ/mol
# Density = 1.927373 g / cm^3
# Si number density = 19.317695 Si / 1000 Ang^3
#
#
#
# Elastic Constant Matrix: (Units=GPa)
#
#
# Indices 1 2 3 4 5 6 
#
# 1 59.3757 30.3532 9.3695 0.0000 0.0000 0.0000
# 2 30.3532 69.5249 37.4014 0.0000 0.0000 0.0000
# 3 9.3695 37.4014 64.7022 0.0000 0.0000 0.0000
# 4 0.0000 0.0000 0.0000 30.4924 0.0000 0.0000
# 5 0.0000 0.0000 0.0000 0.0000 24.4880 0.0000
# 6 0.0000 0.0000 0.0000 0.0000 0.0000 28.1363
#
#
#
# Elastic Compliance Matrix: (Units=1/GPa)
#
#
# Indices 1 2 3 4 5 6 
#
# 1 0.022204 -0.011558 0.003466 0.000000 0.000000 0.000000
# 2 -0.011558 0.026891 -0.013871 0.000000 0.000000 0.000000
# 3 0.003466 -0.013871 0.022972 0.000000 0.000000 0.000000
# 4 0.000000 0.000000 0.000000 0.032795 0.000000 0.000000
# 5 0.000000 0.000000 0.000000 0.000000 0.040836 0.000000
# 6 0.000000 0.000000 0.000000 0.000000 0.000000 0.035541
#
#
# Mechanical properties :
#
#
# Convention : Reuss Voigt Hill
#
# Bulk Modulus (GPa) = 35.53620 38.65012 37.09316
# Shear Modulus (GPa) = 21.31781 24.38860 22.85320
#
# Velocity S-wave (km/s) = 3.32556 3.55702 3.44324
# Velocity P-wave (km/s) = 5.76033 6.07626 5.92040
#
# Compressibility (1/GPa) = 0.02814032
#
# Stress axis : x y z
#
# Youngs Moduli (GPa) = 45.03775 37.18663 43.53183
#
# Poissons Ratio (x) = 0.42981 -0.15088
# Poissons Ratio (y) = 0.52055 0.60383
# Poissons Ratio (z) = -0.15610 0.51581
#
# Static dielectric constant tensor:
#      x y z
#    x 1.658070 0.000000 0.000000 
#    y 0.000000 1.657910 0.000000 
#    z 0.000000 0.000000 1.673950 
# 
# From -- ./inp_files/32441.got.cif
#   From: 2010.05.17/outbox.cif.g08.bks.cpg/sg62_17_cif.got.tgz:32441.got - 2010.06.03 15:25:27.
