data_PCOD9463986
_publ_section_title
;
Structure prediction by ZEFSAII (Michael W. Deem and Ramdas Pophale) SiO2 
 PCOD9463986
Probable space group: P N M A
;
_chemical_formula_sum "Si O2"
_cell_formula_units_Z 56
_cell_length_a 19.433344
_cell_length_b 26.207607
_cell_length_c 5.235993
_cell_angle_alpha 90.000000
_cell_angle_beta 90.000000
_cell_angle_gamma 90.000000
_cell_volume 2666.698786
_symmetry_space_group_name_H-M "P N M A"
_symmetry_group_IT_number 62
_symmetry_cell_setting 'orthorhombic'
loop_
_space_group_symop_operation_xyz
x,y,z
1/2-x,-y,1/2+z
1/2+x,1/2-y,1/2-z
-x,1/2+y,-z
-x,-y,-z
1/2+x,y,1/2-z
1/2-x,1/2+y,1/2+z
x,1/2-y,z
loop_
_atom_site_type_symbol
_atom_site_label
_atom_site_fract_x
_atom_site_fract_y
_atom_site_fract_z
Si Si1 0.683938 0.138989 0.019387
Si Si2 0.323789 0.307560 0.516322
Si Si3 0.032042 0.958145 0.188780
Si Si4 0.999921 0.373376 0.139487
Si Si5 0.617182 0.189617 0.523586
Si Si6 0.582534 0.807047 0.988077
Si Si7 0.592097 0.450271 0.087273
O O1 0.658017 0.166471 0.279724
O O2 0.661156 0.079498 0.014706
O O3 0.763917 0.151076 0.986523
O O4 0.645431 0.165308 0.782425
O O5 0.293515 0.250000 0.547789
O O6 0.363959 0.307879 0.248879
O O7 0.376474 0.314309 0.750381
O O8 0.968823 0.946819 0.378574
O O9 0.091768 0.990409 0.331014
O O10 0.050973 0.907787 0.029953
O O11 0.000000 0.000000 0.000000
O O12 0.969496 0.350985 0.400363
O O13 0.061051 0.413469 0.193698
O O14 0.036978 0.326499 0.001296
O O15 0.624804 0.250000 0.524951
O O16 0.550671 0.750000 0.993578
#
# Coordination Sequence:
#
# PCOD9463986 Si02
#       7
#     8   8   8   8   8   8   8
#     4  11  21  36  56  82 112 147 194 236 286 340
#     4  10  21  37  54  77 110 155 198 231 268 326
#     4   9  17  34  54  84 112 140 179 228 292 347
#     4  10  20  33  54  83 116 147 185 229 287 347
#     4  11  21  32  52  83 117 148 178 233 292 338
#     4  10  22  37  55  80 115 158 198 229 269 335
#     4   9  19  33  56  87 109 141 182 235 296 344
#
# _framework density 20.999748
#
# number of rings (size 3 to 8) (size 9 to 14) (size 15 to 20)
#    0.000    2.000    1.429    2.571    2.000    1.143 
#    0.000    2.857    0.000    0.000   11.143    0.000 
#    0.000    0.000    0.000    0.000    0.000    0.000 
#
# Total GULP energy -312388.353599 kJ/mol
# GULP energy per Si atom -5578.363457 kJ/mol
# Density = 2.095195 g / cm^3
# Si number density = 20.999748 Si / 1000 Ang^3
#
#
#
# Elastic Constant Matrix: (Units=GPa)
#
#
# Indices 1 2 3 4 5 6 
#
# 1 29.2817 14.3336 2.2493 0.0000 0.0000 0.0000
# 2 14.3336 59.1745 22.2573 0.0000 0.0000 0.0000
# 3 2.2493 22.2573 67.1777 0.0000 0.0000 0.0000
# 4 0.0000 0.0000 0.0000 -10.7655 0.0000 0.0000
# 5 0.0000 0.0000 0.0000 0.0000 18.6918 0.0000
# 6 0.0000 0.0000 0.0000 0.0000 0.0000 31.3248
#
#
#
# Elastic Compliance Matrix: (Units=1/GPa)
#
#
# Indices 1 2 3 4 5 6 
#
# 1 0.038999 -0.010230 0.002084 0.000000 0.000000 0.000000
# 2 -0.010230 0.021989 -0.006943 0.000000 0.000000 0.000000
# 3 0.002084 -0.006943 0.017116 0.000000 0.000000 0.000000
# 4 0.000000 0.000000 0.000000 -0.092889 0.000000 0.000000
# 5 0.000000 0.000000 0.000000 0.000000 0.053499 0.000000
# 6 0.000000 0.000000 0.000000 0.000000 0.000000 0.031924
#
#
# Mechanical properties :
#
#
# Convention : Reuss Voigt Hill
#
# Bulk Modulus (GPa) = 20.86588 25.92380 23.39484
# Shear Modulus (GPa) = 42.81172 15.63649 29.22410
#
# Velocity S-wave (km/s) = 4.52007 2.73170 3.73452
# Velocity P-wave (km/s) = 6.09911 4.72453 5.45529
#
# Compressibility (1/GPa) = 0.04792514
#
# Stress axis : x y z
#
# Youngs Moduli (GPa) = 25.64191 45.47824 58.42358
#
# Poissons Ratio (x) = 0.46525 -0.12174
# Poissons Ratio (y) = 0.26232 0.40562
# Poissons Ratio (z) = -0.05343 0.31574
#
# Static dielectric constant tensor:
#      x y z
#    x 1.793520 0.000000 0.000000 
#    y 0.000000 1.831530 0.000000 
#    z 0.000000 0.000000 1.841330 
# 
# From -- ./inp_files/2288.got.cif
#   From: 2010.05.17/outbox.cif.g08.bks.cpg/sg62_2_cif.got.tgz:2288.got - 2010.06.03 15:25:27.
