data_PCOD9463918
_publ_section_title
;
Structure prediction by ZEFSAII (Michael W. Deem and Ramdas Pophale) SiO2 
 PCOD9463918
Probable space group: P N M A
;
_chemical_formula_sum "Si O2"
_cell_formula_units_Z 64
_cell_length_a 30.750138
_cell_length_b 8.663630
_cell_length_c 14.881973
_cell_angle_alpha 90.000000
_cell_angle_beta 90.000000
_cell_angle_gamma 90.000000
_cell_volume 3964.673956
_symmetry_space_group_name_H-M "P N M A"
_symmetry_group_IT_number 62
_symmetry_cell_setting 'orthorhombic'
loop_
_space_group_symop_operation_xyz
x,y,z
1/2-x,-y,1/2+z
1/2+x,1/2-y,1/2-z
-x,1/2+y,-z
-x,-y,-z
1/2+x,y,1/2-z
1/2-x,1/2+y,1/2+z
x,1/2-y,z
loop_
_atom_site_type_symbol
_atom_site_label
_atom_site_fract_x
_atom_site_fract_y
_atom_site_fract_z
Si Si1 0.954353 0.933479 0.396471
Si Si2 0.222795 0.929121 0.001998
Si Si3 0.451072 0.933684 0.893719
Si Si4 0.202029 0.065985 0.191380
Si Si5 0.368914 0.431691 0.175089
Si Si6 0.210252 0.561675 0.798513
Si Si7 0.826956 0.926446 0.496007
Si Si8 0.134422 0.932626 0.324188
O O1 0.960590 0.750000 0.393983
O O2 0.943058 0.975081 0.500708
O O3 0.914987 0.983958 0.332808
O O4 0.999679 0.015882 0.374239
O O5 0.208570 0.750000 0.009884
O O6 0.211087 0.987486 0.902325
O O7 0.275082 0.929963 0.006593
O O8 0.205855 0.023108 0.086985
O O9 0.446278 0.750000 0.885191
O O10 0.415753 0.017415 0.831996
O O11 0.198769 0.250000 0.202904
O O12 0.246329 0.013752 0.243755
O O13 0.160549 0.986151 0.236675
O O14 0.376148 0.250000 0.187946
O O15 0.333753 0.487635 0.248213
O O16 0.345780 0.463014 0.079827
O O17 0.211040 0.750000 0.797961
O O18 0.841847 0.750000 0.478744
O O19 0.842694 0.979448 0.593062
O O20 0.138307 0.750000 0.335700
#
# Coordination Sequence:
#
# PCOD9463918 Si02
#       8
#     8   8   8   8   8   8   8   8
#     4  10  20  33  50  74 106 138 169 212 260 309
#     4  10  20  36  52  71 102 139 177 219 260 300
#     4  10  20  34  52  74 103 137 171 212 260 309
#     4  11  21  36  53  75 104 137 176 219 260 304
#     4  11  20  32  51  75 103 141 180 214 256 311
#     4   9  19  34  51  72 102 138 176 216 258 302
#     4  11  20  31  49  73 104 140 175 218 260 300
#     4  12  23  34  51  76 104 140 179 213 256 313
#
# _framework density 16.142562000000002
#
# number of rings (size 3 to 8) (size 9 to 14) (size 15 to 20)
#    0.000    1.500    3.750    3.000    0.000    1.500 
#    0.000    1.250    0.000    0.000    0.000    0.875 
#    0.000    0.000    0.000    0.000    0.000    0.000 
#
# Total GULP energy -357291.195459 kJ/mol
# GULP energy per Si atom -5582.674929 kJ/mol
# Density = 1.610582 g / cm^3
# Si number density = 16.142562 Si / 1000 Ang^3
#
#
#
# Elastic Constant Matrix: (Units=GPa)
#
#
# Indices 1 2 3 4 5 6 
#
# 1 90.4529 16.1531 31.2112 0.0000 0.0000 0.0000
# 2 16.1531 32.4948 0.0834 0.0000 0.0000 0.0000
# 3 31.2112 0.0834 70.9853 0.0000 0.0000 0.0000
# 4 0.0000 0.0000 0.0000 21.9264 0.0000 0.0000
# 5 0.0000 0.0000 0.0000 0.0000 22.9067 0.0000
# 6 0.0000 0.0000 0.0000 0.0000 0.0000 22.8972
#
#
#
# Elastic Compliance Matrix: (Units=1/GPa)
#
#
# Indices 1 2 3 4 5 6 
#
# 1 0.014548 -0.007216 -0.006388 0.000000 0.000000 0.000000
# 2 -0.007216 0.034353 0.003132 0.000000 0.000000 0.000000
# 3 -0.006388 0.003132 0.016893 0.000000 0.000000 0.000000
# 4 0.000000 0.000000 0.000000 0.045607 0.000000 0.000000
# 5 0.000000 0.000000 0.000000 0.000000 0.043655 0.000000
# 6 0.000000 0.000000 0.000000 0.000000 0.000000 0.043673
#
#
# Mechanical properties :
#
#
# Convention : Reuss Voigt Hill
#
# Bulk Modulus (GPa) = 22.29620 32.09204 27.19412
# Shear Modulus (GPa) = 21.31077 23.31173 22.31125
#
# Velocity S-wave (km/s) = 3.63734 3.80428 3.72175
# Velocity P-wave (km/s) = 5.61092 6.26261 5.94570
#
# Compressibility (1/GPa) = 0.04485070
#
# Stress axis : x y z
#
# Youngs Moduli (GPa) = 68.73646 29.10960 59.19770
#
# Poissons Ratio (x) = 0.21004 0.37817
# Poissons Ratio (y) = 0.49597 -0.18542
# Poissons Ratio (z) = 0.43910 -0.09118
#
# Static dielectric constant tensor:
#      x y z
#    x 1.546540 0.000000 0.000000 
#    y 0.000000 1.545070 0.000000 
#    z 0.000000 0.000000 1.524520 
# 
# From -- ./inp_files/21255.got.cif
#   From: 2010.05.17/outbox.cif.g08.bks.cpg/sg62_11_cif.got.tgz:21255.got - 2010.06.03 15:25:27.
