data_PCOD9463206
_publ_section_title
;
Structure prediction by ZEFSAII (Michael W. Deem and Ramdas Pophale) SiO2 
 PCOD9463206
Probable space group: P N M A
;
_chemical_formula_sum "Si O2"
_cell_formula_units_Z 56
_cell_length_a 32.720641
_cell_length_b 13.061786
_cell_length_c 6.907206
_cell_angle_alpha 90.000000
_cell_angle_beta 90.000000
_cell_angle_gamma 90.000000
_cell_volume 2952.070845
_symmetry_space_group_name_H-M "P N M A"
_symmetry_group_IT_number 62
_symmetry_cell_setting 'orthorhombic'
loop_
_space_group_symop_operation_xyz
x,y,z
1/2-x,-y,1/2+z
1/2+x,1/2-y,1/2-z
-x,1/2+y,-z
-x,-y,-z
1/2+x,y,1/2-z
1/2-x,1/2+y,1/2+z
x,1/2-y,z
loop_
_atom_site_type_symbol
_atom_site_label
_atom_site_fract_x
_atom_site_fract_y
_atom_site_fract_z
Si Si1 0.704465 0.999918 0.124152
Si Si2 0.848121 0.368043 0.325104
Si Si3 0.436329 0.522242 0.589738
Si Si4 0.517320 0.868395 0.694754
Si Si5 0.567502 0.633799 0.058487
Si Si6 0.846131 0.539895 0.011821
Si Si7 0.779451 0.633298 0.273804
O O1 0.681281 0.922120 0.980336
O O2 0.713014 0.099806 0.994875
O O3 0.745943 0.945544 0.191965
O O4 0.677164 0.025767 0.309670
O O5 0.837188 0.250000 0.294765
O O6 0.893326 0.372696 0.417575
O O7 0.846448 0.432297 0.128142
O O8 0.455290 0.448029 0.425868
O O9 0.470751 0.604506 0.644804
O O10 0.393191 0.568043 0.524003
O O11 0.429321 0.449222 0.774780
O O12 0.526795 0.750000 0.646637
O O13 0.528347 0.881794 0.920716
O O14 0.566373 0.750000 0.137858
O O15 0.820488 0.615556 0.148944
O O16 0.765621 0.750000 0.258467
#
# Coordination Sequence:
#
# PCOD9463206 Si02
#       7
#     8   8   8   8   8   8   8
#     4  11  22  44  63  93 126 160 208 250 303 374
#     4  10  21  35  60  92 123 158 201 256 309 364
#     4  11  21  37  62  83 119 163 197 253 306 359
#     4  10  22  38  56  85 118 156 205 251 305 366
#     4  10  19  34  57  88 120 151 198 252 307 360
#     4  11  23  40  62  90 126 159 206 252 306 374
#     4  11  25  44  65  92 128 165 204 256 305 360
#
# _framework density 18.969733999999999
#
# number of rings (size 3 to 8) (size 9 to 14) (size 15 to 20)
#    0.000    1.429    4.286    1.286    0.000    2.857 
#    0.000    0.000    0.000    0.000    0.000    0.000 
#    0.000    0.000    0.000    0.000    0.000    0.000 
#
# Total GULP energy -312817.852317 kJ/mol
# GULP energy per Si atom -5586.033077 kJ/mol
# Density = 1.892656 g / cm^3
# Si number density = 18.969734 Si / 1000 Ang^3
#
#
#
# Elastic Constant Matrix: (Units=GPa)
#
#
# Indices 1 2 3 4 5 6 
#
# 1 96.5752 -1.7159 19.8967 0.0000 0.0000 0.0000
# 2 -1.7159 28.6440 -2.1386 0.0000 0.0000 0.0000
# 3 19.8967 -2.1386 72.4171 0.0000 0.0000 0.0000
# 4 0.0000 0.0000 0.0000 18.4891 0.0000 0.0000
# 5 0.0000 0.0000 0.0000 0.0000 32.2293 0.0000
# 6 0.0000 0.0000 0.0000 0.0000 0.0000 23.5389
#
#
#
# Elastic Compliance Matrix: (Units=1/GPa)
#
#
# Indices 1 2 3 4 5 6 
#
# 1 0.010981 0.000434 -0.003004 0.000000 0.000000 0.000000
# 2 0.000434 0.035006 0.000915 0.000000 0.000000 0.000000
# 3 -0.003004 0.000915 0.014661 0.000000 0.000000 0.000000
# 4 0.000000 0.000000 0.000000 0.054086 0.000000 0.000000
# 5 0.000000 0.000000 0.000000 0.000000 0.031028 0.000000
# 6 0.000000 0.000000 0.000000 0.000000 0.000000 0.042483
#
#
# Mechanical properties :
#
#
# Convention : Reuss Voigt Hill
#
# Bulk Modulus (GPa) = 17.44105 25.52452 21.48279
# Shear Modulus (GPa) = 23.73392 26.95774 25.34583
#
# Velocity S-wave (km/s) = 3.54099 3.77383 3.65926
# Velocity P-wave (km/s) = 5.09237 5.69856 5.40398
#
# Compressibility (1/GPa) = 0.05733598
#
# Stress axis : x y z
#
# Youngs Moduli (GPa) = 91.06406 28.56683 68.20661
#
# Poissons Ratio (x) = -0.01238 0.20491
# Poissons Ratio (y) = -0.03948 -0.06238
# Poissons Ratio (z) = 0.27358 -0.02613
#
# Static dielectric constant tensor:
#      x y z
#    x 1.675510 0.000000 0.000000 
#    y 0.000000 1.617820 0.000000 
#    z 0.000000 0.000000 1.645960 
# 
# From -- ./inp_files/3577.got.cif
#   From: 2010.05.17/outbox.cif.g08.bks.cpg/sg62_2_cif.got.tgz:3577.got - 2010.06.03 15:25:27.
