data_PCOD9463056
_publ_section_title
;
Structure prediction by ZEFSAII (Michael W. Deem and Ramdas Pophale) SiO2 
 PCOD9463056
Probable space group: P N M A
;
_chemical_formula_sum "Si O2"
_cell_formula_units_Z 56
_cell_length_a 10.916039
_cell_length_b 20.430779
_cell_length_c 12.946193
_cell_angle_alpha 90.000000
_cell_angle_beta 90.000000
_cell_angle_gamma 90.000000
_cell_volume 2887.301136
_symmetry_space_group_name_H-M "P N M A"
_symmetry_group_IT_number 62
_symmetry_cell_setting 'orthorhombic'
loop_
_space_group_symop_operation_xyz
x,y,z
1/2-x,-y,1/2+z
1/2+x,1/2-y,1/2-z
-x,1/2+y,-z
-x,-y,-z
1/2+x,y,1/2-z
1/2-x,1/2+y,1/2+z
x,1/2-y,z
loop_
_atom_site_type_symbol
_atom_site_label
_atom_site_fract_x
_atom_site_fract_y
_atom_site_fract_z
Si Si1 0.493056 0.509207 0.186217
Si Si2 0.837544 0.392850 0.775193
Si Si3 0.752613 0.990501 0.921904
Si Si4 0.387422 0.173814 0.327218
Si Si5 0.357964 0.894093 0.742861
Si Si6 0.361311 0.560689 0.373650
Si Si7 0.037124 0.676872 0.060577
O O1 0.556626 0.579728 0.198900
O O2 0.391511 0.499128 0.099770
O O3 0.595670 0.453769 0.185165
O O4 0.423842 0.507212 0.298039
O O5 0.814312 0.447740 0.864366
O O6 0.719948 0.395652 0.703700
O O7 0.875295 0.329940 0.839328
O O8 0.804162 0.928099 0.859741
O O9 0.789550 0.978395 0.038805
O O10 0.385528 0.250000 0.298374
O O11 0.259124 0.142951 0.289613
O O12 0.515785 0.144553 0.282430
O O13 0.395583 0.168884 0.451423
O O14 0.449306 0.614104 0.425947
O O15 0.980247 0.750000 0.059602
#
# Coordination Sequence:
#
# PCOD9463056 Si02
#       7
#     8   8   8   8   8   8   8
#     4   9  20  35  55  91 119 151 193 244 312 362
#     4   9  21  34  57  87 118 150 198 249 298 354
#     4  10  19  33  60  88 119 153 192 249 303 360
#     4  11  23  38  60  88 120 163 206 245 295 362
#     4  11  20  36  60  88 122 157 193 247 303 356
#     4  10  20  37  60  88 115 157 206 248 300 363
#     4  10  22  39  59  82 113 161 209 245 294 356
#
# _framework density 19.395274000000001
#
# number of rings (size 3 to 8) (size 9 to 14) (size 15 to 20)
#    0.000    2.000    2.857    0.429    2.000    2.857 
#    0.000    2.857    0.000    0.000    0.000    0.000 
#    0.000    0.000    0.000    0.000    0.000    0.000 
#
# Total GULP energy -312101.925862 kJ/mol
# GULP energy per Si atom -5573.248676 kJ/mol
# Density = 1.935113 g / cm^3
# Si number density = 19.395274 Si / 1000 Ang^3
#
#
#
# Elastic Constant Matrix: (Units=GPa)
#
#
# Indices 1 2 3 4 5 6 
#
# 1 122.8670 41.9125 33.9424 0.0000 0.0000 0.0000
# 2 41.9125 75.2192 24.1693 0.0000 0.0000 0.0000
# 3 33.9424 24.1693 44.6106 0.0000 0.0000 0.0000
# 4 0.0000 0.0000 0.0000 23.8338 0.0000 0.0000
# 5 0.0000 0.0000 0.0000 0.0000 23.7687 0.0000
# 6 0.0000 0.0000 0.0000 0.0000 0.0000 23.6279
#
#
#
# Elastic Compliance Matrix: (Units=1/GPa)
#
#
# Indices 1 2 3 4 5 6 
#
# 1 0.011346 -0.004296 -0.006305 0.000000 0.000000 0.000000
# 2 -0.004296 0.017723 -0.006333 0.000000 0.000000 0.000000
# 3 -0.006305 -0.006333 0.030645 0.000000 0.000000 0.000000
# 4 0.000000 0.000000 0.000000 0.041957 0.000000 0.000000
# 5 0.000000 0.000000 0.000000 0.000000 0.042072 0.000000
# 6 0.000000 0.000000 0.000000 0.000000 0.000000 0.042323
#
#
# Mechanical properties :
#
#
# Convention : Reuss Voigt Hill
#
# Bulk Modulus (GPa) = 38.69254 49.19391 43.94323
# Shear Modulus (GPa) = 21.87688 23.75758 22.81723
#
# Velocity S-wave (km/s) = 3.36214 3.50368 3.43364
# Velocity P-wave (km/s) = 5.92155 6.46426 6.19884
#
# Compressibility (1/GPa) = 0.02584478
#
# Stress axis : x y z
#
# Youngs Moduli (GPa) = 88.13482 56.42266 32.63169
#
# Poissons Ratio (x) = 0.24240 0.20575
# Poissons Ratio (y) = 0.37864 0.20667
# Poissons Ratio (z) = 0.55572 0.35735
#
# Static dielectric constant tensor:
#      x y z
#    x 1.763200 0.000000 0.000000 
#    y 0.000000 1.676440 0.000000 
#    z 0.000000 0.000000 1.682260 
# 
# From -- ./inp_files/12413.got.cif
#   From: 2010.05.17/outbox.cif.g08.bks.cpg/sg62_7_cif.got.tgz:12413.got - 2010.06.03 15:25:27.
