data_PCOD9463436
_publ_section_title
;
Structure prediction by ZEFSAII (Michael W. Deem and Ramdas Pophale) SiO2 
 PCOD9463436
Probable space group: P N M A
;
_chemical_formula_sum "Si O2"
_cell_formula_units_Z 48
_cell_length_a 13.897764
_cell_length_b 13.905329
_cell_length_c 11.489498
_cell_angle_alpha 90.000000
_cell_angle_beta 90.000000
_cell_angle_gamma 90.000000
_cell_volume 2220.379736
_symmetry_space_group_name_H-M "P N M A"
_symmetry_group_IT_number 62
_symmetry_cell_setting 'orthorhombic'
loop_
_space_group_symop_operation_xyz
x,y,z
1/2-x,-y,1/2+z
1/2+x,1/2-y,1/2-z
-x,1/2+y,-z
-x,-y,-z
1/2+x,y,1/2-z
1/2-x,1/2+y,1/2+z
x,1/2-y,z
loop_
_atom_site_type_symbol
_atom_site_label
_atom_site_fract_x
_atom_site_fract_y
_atom_site_fract_z
Si Si1 0.102494 0.860279 0.878846
Si Si2 0.875574 0.853537 0.847614
Si Si3 0.240628 0.141169 0.915039
Si Si4 0.670057 0.940165 0.376883
Si Si5 0.561972 0.859955 0.171737
Si Si6 0.131990 0.471357 0.715071
O O1 0.139089 0.750000 0.879834
O O2 0.986857 0.855023 0.884636
O O3 0.126839 0.918656 0.760503
O O4 0.135935 0.920078 0.992290
O O5 0.859638 0.750000 0.785600
O O6 0.857363 0.961638 0.805217
O O7 0.806857 0.855106 0.959638
O O8 0.244372 0.250000 0.869452
O O9 0.351625 0.108377 0.914465
O O10 0.171564 0.083632 0.829569
O O11 0.616126 0.862821 0.296899
O O12 0.785046 0.944772 0.376124
O O13 0.532212 0.750000 0.145680
O O14 0.470104 0.928801 0.177455
#
# Coordination Sequence:
#
# PCOD9463436 Si02
#       6
#     8   8   8   8   8   8
#     4  11  22  37  59  88 118 152 199 249 290 344
#     4  10  19  35  61  85 110 146 192 239 288 346
#     4   9  18  32  54  82 111 144 184 235 289 339
#     4  11  21  36  58  86 115 152 194 239 296 350
#     4  10  20  34  54  84 118 145 185 240 293 348
#     4  11  21  35  58  84 117 153 191 241 296 347
#
# _framework density 21.617925
#
# number of rings (size 3 to 8) (size 9 to 14) (size 15 to 20)
#    0.000    1.667    3.333    2.500    0.000    4.000 
#    0.000    0.833    0.000    0.000    0.000    0.000 
#    0.000    0.000    0.000    0.000    0.000    0.000 
#
# Total GULP energy -267420.123865 kJ/mol
# GULP energy per Si atom -5571.252581 kJ/mol
# Density = 2.156872 g / cm^3
# Si number density = 21.617925 Si / 1000 Ang^3
#
#
#
# Elastic Constant Matrix: (Units=GPa)
#
#
# Indices 1 2 3 4 5 6 
#
# 1 130.7250 15.8012 8.4545 0.0000 0.0000 0.0000
# 2 15.8012 98.0766 -4.5491 0.0000 0.0000 0.0000
# 3 8.4545 -4.5491 4.4379 0.0000 0.0000 0.0000
# 4 0.0000 0.0000 0.0000 13.6383 0.0000 0.0000
# 5 0.0000 0.0000 0.0000 0.0000 17.5814 0.0000
# 6 0.0000 0.0000 0.0000 0.0000 0.0000 14.1128
#
#
#
# Elastic Compliance Matrix: (Units=1/GPa)
#
#
# Indices 1 2 3 4 5 6 
#
# 1 0.009241 -0.002421 -0.020086 0.000000 0.000000 0.000000
# 2 -0.002421 0.011339 0.016235 0.000000 0.000000 0.000000
# 3 -0.020086 0.016235 0.280238 0.000000 0.000000 0.000000
# 4 0.000000 0.000000 0.000000 0.073323 0.000000 0.000000
# 5 0.000000 0.000000 0.000000 0.000000 0.056878 0.000000
# 6 0.000000 0.000000 0.000000 0.000000 0.000000 0.070858
#
#
# Mechanical properties :
#
#
# Convention : Reuss Voigt Hill
#
# Bulk Modulus (GPa) = 3.46893 30.29474 16.88183
# Shear Modulus (GPa) = 8.18984 23.30204 15.74594
#
# Velocity S-wave (km/s) = 1.94851 3.28671 2.70177
# Velocity P-wave (km/s) = 2.58271 5.33361 4.19033
#
# Compressibility (1/GPa) = 0.28827327
#
# Stress axis : x y z
#
# Youngs Moduli (GPa) = 108.21001 88.19042 3.56840
#
# Poissons Ratio (x) = 0.21347 0.07168
# Poissons Ratio (y) = 0.26193 -0.05793
# Poissons Ratio (z) = 2.17355 -1.43173
#
# Static dielectric constant tensor:
#      x y z
#    x 1.787540 0.000000 0.000000 
#    y 0.000000 1.953630 0.000000 
#    z 0.000000 0.000000 1.780670 
# 
# From -- ./inp_files/17974.got.cif
#   From: 2010.05.17/outbox.cif.g08.bks.cpg/sg62_9_cif.got.tgz:17974.got - 2010.06.03 15:25:27.
