data_PCOD9463253
_publ_section_title
;
Structure prediction by ZEFSAII (Michael W. Deem and Ramdas Pophale) SiO2 
 PCOD9463253
Probable space group: P N M A
;
_chemical_formula_sum "Si O2"
_cell_formula_units_Z 64
_cell_length_a 29.033788
_cell_length_b 8.968018
_cell_length_c 12.427420
_cell_angle_alpha 90.000000
_cell_angle_beta 90.000000
_cell_angle_gamma 90.000000
_cell_volume 3235.796111
_symmetry_space_group_name_H-M "P N M A"
_symmetry_group_IT_number 62
_symmetry_cell_setting 'orthorhombic'
loop_
_space_group_symop_operation_xyz
x,y,z
1/2-x,-y,1/2+z
1/2+x,1/2-y,1/2-z
-x,1/2+y,-z
-x,-y,-z
1/2+x,y,1/2-z
1/2-x,1/2+y,1/2+z
x,1/2-y,z
loop_
_atom_site_type_symbol
_atom_site_label
_atom_site_fract_x
_atom_site_fract_y
_atom_site_fract_z
Si Si1 0.435187 0.926972 0.646633
Si Si2 0.589206 0.928343 0.570042
Si Si3 0.928550 0.921612 0.472441
Si Si4 0.183559 0.072890 0.884270
Si Si5 0.470359 0.073010 0.224950
Si Si6 0.285511 0.072876 0.937911
Si Si7 0.619898 0.570672 0.170892
Si Si8 0.172546 0.082144 0.630613
O O1 0.428266 0.750000 0.637315
O O2 0.481393 0.952756 0.715560
O O3 0.437846 0.998731 0.529055
O O4 0.394690 0.002359 0.715652
O O5 0.586392 0.750000 0.562926
O O6 0.567654 0.972890 0.685589
O O7 0.641538 0.985029 0.563025
O O8 0.939694 0.750000 0.499498
O O9 0.880494 0.925195 0.405679
O O10 0.964652 0.990826 0.388713
O O11 0.915796 0.011581 0.580032
O O12 0.179752 0.250000 0.910593
O O13 0.177752 0.057570 0.756265
O O14 0.234506 0.016305 0.913049
O O15 0.464963 0.250000 0.205568
O O16 0.283752 0.250000 0.922590
O O17 0.299422 0.032833 0.058900
O O18 0.328824 0.019779 0.865728
O O19 0.618524 0.750000 0.173577
O O20 0.189013 0.250000 0.605227
#
# Coordination Sequence:
#
# PCOD9463253 Si02
#       8
#     8   8   8   8   8   8   8   8
#     4  11  24  41  60  84 119 159 196 239 293 355
#     4  11  23  39  60  87 117 151 194 242 293 348
#     4  10  19  34  60  88 113 150 196 241 291 346
#     4  10  20  37  58  84 114 149 190 236 289 345
#     4  10  22  39  60  87 117 152 195 244 296 348
#     4   9  20  36  57  83 114 150 189 234 290 346
#     4  10  21  39  59  84 120 157 195 244 295 349
#     4   9  18  33  54  80 112 147 186 235 287 338
#
# _framework density 19.778751
#
# number of rings (size 3 to 8) (size 9 to 14) (size 15 to 20)
#    0.000    2.000    1.250    1.875    0.000    5.000 
#    0.000    1.250    0.000    0.000    0.000    0.000 
#    0.000    0.000    0.000    0.000    0.000    0.000 
#
# Total GULP energy -357401.071299 kJ/mol
# GULP energy per Si atom -5584.391739 kJ/mol
# Density = 1.973373 g / cm^3
# Si number density = 19.778751 Si / 1000 Ang^3
#
#
#
# Elastic Constant Matrix: (Units=GPa)
#
#
# Indices 1 2 3 4 5 6 
#
# 1 62.2548 26.2753 9.3047 0.0000 0.0000 0.0000
# 2 26.2753 42.1734 20.7820 0.0000 0.0000 0.0000
# 3 9.3047 20.7820 50.3387 0.0000 0.0000 0.0000
# 4 0.0000 0.0000 0.0000 32.6370 0.0000 0.0000
# 5 0.0000 0.0000 0.0000 0.0000 24.6544 0.0000
# 6 0.0000 0.0000 0.0000 0.0000 0.0000 25.1742
#
#
#
# Elastic Compliance Matrix: (Units=1/GPa)
#
#
# Indices 1 2 3 4 5 6 
#
# 1 0.021952 -0.014660 0.001994 0.000000 0.000000 0.000000
# 2 -0.014660 0.039557 -0.013621 0.000000 0.000000 0.000000
# 3 0.001994 -0.013621 0.025120 0.000000 0.000000 0.000000
# 4 0.000000 0.000000 0.000000 0.030640 0.000000 0.000000
# 5 0.000000 0.000000 0.000000 0.000000 0.040561 0.000000
# 6 0.000000 0.000000 0.000000 0.000000 0.000000 0.039723
#
#
# Mechanical properties :
#
#
# Convention : Reuss Voigt Hill
#
# Bulk Modulus (GPa) = 29.36277 29.72122 29.54200
# Shear Modulus (GPa) = 19.12198 23.05344 21.08771
#
# Velocity S-wave (km/s) = 3.11270 3.41774 3.26878
# Velocity P-wave (km/s) = 5.27223 5.53481 5.40511
#
# Compressibility (1/GPa) = 0.03405674
#
# Stress axis : x y z
#
# Youngs Moduli (GPa) = 45.55343 25.27972 39.80857
#
# Poissons Ratio (x) = 0.37060 -0.07940
# Poissons Ratio (y) = 0.66780 0.54224
# Poissons Ratio (z) = -0.09086 0.34434
#
# Static dielectric constant tensor:
#      x y z
#    x 1.721890 0.000000 0.000000 
#    y 0.000000 1.677670 0.000000 
#    z 0.000000 0.000000 1.669670 
# 
# From -- ./inp_files/15764.got.cif
#   From: 2010.05.17/outbox.cif.g08.bks.cpg/sg62_8_cif.got.tgz:15764.got - 2010.06.03 15:25:27.
