data_PCOD9463457
_publ_section_title
;
Structure prediction by ZEFSAII (Michael W. Deem and Ramdas Pophale) SiO2 
 PCOD9463457
Probable space group: P N M A
;
_chemical_formula_sum "Si O2"
_cell_formula_units_Z 44
_cell_length_a 13.124686
_cell_length_b 16.488198
_cell_length_c 7.439739
_cell_angle_alpha 90.000000
_cell_angle_beta 90.000000
_cell_angle_gamma 90.000000
_cell_volume 1609.977535
_symmetry_space_group_name_H-M "P N M A"
_symmetry_group_IT_number 62
_symmetry_cell_setting 'orthorhombic'
loop_
_space_group_symop_operation_xyz
x,y,z
1/2-x,-y,1/2+z
1/2+x,1/2-y,1/2-z
-x,1/2+y,-z
-x,-y,-z
1/2+x,y,1/2-z
1/2-x,1/2+y,1/2+z
x,1/2-y,z
loop_
_atom_site_type_symbol
_atom_site_label
_atom_site_fract_x
_atom_site_fract_y
_atom_site_fract_z
Si Si1 0.109765 0.040836 0.760581
Si Si2 0.521051 0.109679 0.171682
Si Si3 0.377162 0.250000 0.350391
Si Si4 0.829032 0.846262 0.948517
Si Si5 0.114420 0.653792 0.360420
Si Si6 0.285981 0.092327 0.508314
O O1 0.020025 0.980310 0.707680
O O2 0.178529 0.068257 0.594459
O O3 0.176993 0.980390 0.885266
O O4 0.099578 0.117530 0.893331
O O5 0.456560 0.178112 0.281412
O O6 0.630800 0.115304 0.264872
O O7 0.487406 0.132382 0.968692
O O8 0.297779 0.179042 0.415846
O O9 0.838740 0.750000 0.941006
O O10 0.711103 0.860204 0.005340
O O11 0.113421 0.750000 0.316227
O O12 0.139744 0.604582 0.182477
#
# Coordination Sequence:
#
# PCOD9463457 Si02
#       6
#     8   8   4   8   8   8
#     4  10  21  34  59  88 121 158 201 256 301 358
#     4  11  20  38  61  90 119 160 203 250 307 361
#     4  10  20  34  62  88 118 154 200 246 298 366
#     4  10  20  35  58  87 120 159 207 245 298 375
#     4  10  19  35  63  87 119 163 202 251 307 361
#     4  10  20  37  57  92 118 154 206 249 300 363
#
# _framework density 27.329573
#
# number of rings (size 3 to 8) (size 9 to 14) (size 15 to 20)
#    0.000    1.818    2.727    2.727    1.273    0.000 
#    0.000    0.909    0.000   26.182    0.000    0.000 
#    0.000    0.000    0.000    0.000    0.000    0.000 
#
# Total GULP energy -245877.566250 kJ/mol
# GULP energy per Si atom -5588.126506 kJ/mol
# Density = 2.726737 g / cm^3
# Si number density = 27.329573 Si / 1000 Ang^3
#
#
#
# Elastic Constant Matrix: (Units=GPa)
#
#
# Indices 1 2 3 4 5 6 
#
# 1 100.4658 27.9299 26.5872 0.0000 0.0000 0.0000
# 2 27.9299 129.7135 43.7541 0.0000 0.0000 0.0000
# 3 26.5872 43.7541 105.7775 0.0000 0.0000 0.0000
# 4 0.0000 0.0000 0.0000 62.8626 0.0000 0.0000
# 5 0.0000 0.0000 0.0000 0.0000 39.8139 0.0000
# 6 0.0000 0.0000 0.0000 0.0000 0.0000 81.8623
#
#
#
# Elastic Compliance Matrix: (Units=1/GPa)
#
#
# Indices 1 2 3 4 5 6 
#
# 1 0.010963 -0.001663 -0.002068 0.000000 0.000000 0.000000
# 2 -0.001663 0.009212 -0.003392 0.000000 0.000000 0.000000
# 3 -0.002068 -0.003392 0.011377 0.000000 0.000000 0.000000
# 4 0.000000 0.000000 0.000000 0.015908 0.000000 0.000000
# 5 0.000000 0.000000 0.000000 0.000000 0.025117 0.000000
# 6 0.000000 0.000000 0.000000 0.000000 0.000000 0.012216
#
#
# Mechanical properties :
#
#
# Convention : Reuss Voigt Hill
#
# Bulk Modulus (GPa) = 57.78558 59.16659 58.47609
# Shear Modulus (GPa) = 47.70700 52.75348 50.23024
#
# Velocity S-wave (km/s) = 4.18259 4.39825 4.29178
# Velocity P-wave (km/s) = 6.67198 6.89123 6.78249
#
# Compressibility (1/GPa) = 0.01730536
#
# Stress axis : x y z
#
# Youngs Moduli (GPa) = 91.21446 108.55782 87.89880
#
# Poissons Ratio (x) = 0.18055 0.18174
# Poissons Ratio (y) = 0.15170 0.29818
# Poissons Ratio (z) = 0.18860 0.36826
#
# Static dielectric constant tensor:
#      x y z
#    x 2.250370 0.000000 0.000000 
#    y 0.000000 1.985670 0.000000 
#    z 0.000000 0.000000 2.236890 
# 
# From -- ./inp_files/6350.got.cif
#   From: 2010.05.17/outbox.cif.g08.bks.cpg/sg62_4_cif.got.tgz:6350.got - 2010.06.03 15:25:27.
