data_PCOD9463906
_publ_section_title
;
Structure prediction by ZEFSAII (Michael W. Deem and Ramdas Pophale) SiO2 
 PCOD9463906
Probable space group: P N M A
;
_chemical_formula_sum "Si O2"
_cell_formula_units_Z 64
_cell_length_a 30.843951
_cell_length_b 8.538212
_cell_length_c 15.095268
_cell_angle_alpha 90.000000
_cell_angle_beta 90.000000
_cell_angle_gamma 90.000000
_cell_volume 3975.371925
_symmetry_space_group_name_H-M "P N M A"
_symmetry_group_IT_number 62
_symmetry_cell_setting 'orthorhombic'
loop_
_space_group_symop_operation_xyz
x,y,z
1/2-x,-y,1/2+z
1/2+x,1/2-y,1/2-z
-x,1/2+y,-z
-x,-y,-z
1/2+x,y,1/2-z
1/2-x,1/2+y,1/2+z
x,1/2-y,z
loop_
_atom_site_type_symbol
_atom_site_label
_atom_site_fract_x
_atom_site_fract_y
_atom_site_fract_z
Si Si1 0.206355 0.939689 0.310151
Si Si2 0.222620 0.933129 0.504172
Si Si3 0.045648 0.435901 0.899525
Si Si4 0.869219 0.067040 0.175912
Si Si5 0.451109 0.936119 0.605025
Si Si6 0.865631 0.063896 0.829422
Si Si7 0.173722 0.429149 0.992394
Si Si8 0.290351 0.059364 0.202426
O O1 0.210291 0.750000 0.313110
O O2 0.205319 0.999726 0.411355
O O3 0.162919 0.979201 0.255988
O O4 0.248558 0.000799 0.257313
O O5 0.209334 0.750000 0.506685
O O6 0.274590 0.937937 0.496009
O O7 0.211001 0.998551 0.600797
O O8 0.038972 0.250000 0.900589
O O9 0.085213 0.480430 0.836110
O O10 0.000495 0.517514 0.875232
O O11 0.056684 0.483794 0.001588
O O12 0.877670 0.250000 0.190254
O O13 0.834890 0.011148 0.249430
O O14 0.844570 0.040736 0.083027
O O15 0.445576 0.750000 0.610522
O O16 0.415960 0.017813 0.667514
O O17 0.861391 0.250000 0.842309
O O18 0.844743 0.975551 0.912810
O O19 0.160820 0.250000 0.970777
O O20 0.288352 0.250000 0.202759
#
# Coordination Sequence:
#
# PCOD9463906 Si02
#       8
#     8   8   8   8   8   8   8   8
#     4  10  20  33  49  70  96 130 168 205 242 285
#     4   9  18  33  49  66  95 132 169 205 242 284
#     4  10  20  33  50  71  98 130 162 196 242 293
#     4  11  21  31  47  72 101 130 165 204 243 287
#     4  10  20  33  50  71  98 130 162 196 242 293
#     4  11  21  31  47  72 101 130 165 204 243 287
#     4  11  19  29  48  68  95 134 170 201 240 286
#     4  10  20  33  49  70  96 130 168 205 242 285
#
# _framework density 16.099122999999999
#
# number of rings (size 3 to 8) (size 9 to 14) (size 15 to 20)
#    0.000    1.750    3.750    1.875    0.000    2.000 
#    0.000    0.625    0.000    0.000    0.000    0.875 
#    0.000    0.000    0.000    0.000    0.000    0.000 
#
# Total GULP energy -357008.222681 kJ/mol
# GULP energy per Si atom -5578.253479 kJ/mol
# Density = 1.606248 g / cm^3
# Si number density = 16.099123 Si / 1000 Ang^3
#
#
#
# Elastic Constant Matrix: (Units=GPa)
#
#
# Indices 1 2 3 4 5 6 
#
# 1 89.9212 13.5110 43.5993 0.0000 0.0000 0.0000
# 2 13.5110 12.8718 0.1088 0.0000 0.0000 0.0000
# 3 43.5993 0.1088 100.1913 0.0000 0.0000 0.0000
# 4 0.0000 0.0000 0.0000 10.7195 0.0000 0.0000
# 5 0.0000 0.0000 0.0000 0.0000 23.0572 0.0000
# 6 0.0000 0.0000 0.0000 0.0000 0.0000 24.3693
#
#
#
# Elastic Compliance Matrix: (Units=1/GPa)
#
#
# Indices 1 2 3 4 5 6 
#
# 1 0.017585 -0.018394 -0.007632 0.000000 0.000000 0.000000
# 2 -0.018394 0.096930 0.007899 0.000000 0.000000 0.000000
# 3 -0.007632 0.007899 0.013294 0.000000 0.000000 0.000000
# 4 0.000000 0.000000 0.000000 0.093288 0.000000 0.000000
# 5 0.000000 0.000000 0.000000 0.000000 0.043370 0.000000
# 6 0.000000 0.000000 0.000000 0.000000 0.000000 0.041035
#
#
# Mechanical properties :
#
#
# Convention : Reuss Voigt Hill
#
# Bulk Modulus (GPa) = 10.92253 35.26917 23.09585
# Shear Modulus (GPa) = 13.43095 21.34690 17.38892
#
# Velocity S-wave (km/s) = 2.89150 3.64533 3.29008
# Velocity P-wave (km/s) = 4.23639 6.29865 5.36749
#
# Compressibility (1/GPa) = 0.09155385
#
# Stress axis : x y z
#
# Youngs Moduli (GPa) = 56.86565 10.31676 75.22378
#
# Poissons Ratio (x) = 0.18977 0.57414
# Poissons Ratio (y) = 1.04599 -0.59420
# Poissons Ratio (z) = 0.43402 -0.08149
#
# Static dielectric constant tensor:
#      x y z
#    x 1.541570 0.000000 0.000000 
#    y 0.000000 1.553280 0.000000 
#    z 0.000000 0.000000 1.542980 
# 
# From -- ./inp_files/21252.got.cif
#   From: 2010.05.17/outbox.cif.g08.bks.cpg/sg62_11_cif.got.tgz:21252.got - 2010.06.03 15:25:27.
