data_PCOD9463740
_publ_section_title
;
Structure prediction by ZEFSAII (Michael W. Deem and Ramdas Pophale) SiO2 
 PCOD9463740
Probable space group: P N M A
;
_chemical_formula_sum "Si O2"
_cell_formula_units_Z 40
_cell_length_a 9.210345
_cell_length_b 13.309121
_cell_length_c 14.903602
_cell_angle_alpha 90.000000
_cell_angle_beta 90.000000
_cell_angle_gamma 90.000000
_cell_volume 1826.907320
_symmetry_space_group_name_H-M "P N M A"
_symmetry_group_IT_number 62
_symmetry_cell_setting 'orthorhombic'
loop_
_space_group_symop_operation_xyz
x,y,z
1/2-x,-y,1/2+z
1/2+x,1/2-y,1/2-z
-x,1/2+y,-z
-x,-y,-z
1/2+x,y,1/2-z
1/2-x,1/2+y,1/2+z
x,1/2-y,z
loop_
_atom_site_type_symbol
_atom_site_label
_atom_site_fract_x
_atom_site_fract_y
_atom_site_fract_z
Si Si1 0.597639 0.634224 0.473224
Si Si2 0.835868 0.465845 0.482747
Si Si3 0.025791 0.045349 0.786288
Si Si4 0.627833 0.366289 0.360367
Si Si5 0.809764 0.363967 0.663579
O O1 0.642580 0.750000 0.466210
O O2 0.730132 0.561114 0.497261
O O3 0.534069 0.597845 0.377876
O O4 0.475190 0.626958 0.550411
O O5 0.780405 0.417175 0.389588
O O6 0.806184 0.382278 0.558247
O O7 0.000000 0.500000 0.500000
O O8 0.965124 0.107427 0.702972
O O9 0.196868 0.059074 0.791961
O O10 0.959545 0.934097 0.789418
O O11 0.644211 0.250000 0.335825
O O12 0.769924 0.250000 0.685673
#
# Coordination Sequence:
#
# PCOD9463740 Si02
#       5
#     8   8   8   8   8
#     4  10  19  39  66  86 112 159 209 248 300 359
#     4  11  23  38  60  92 127 157 202 261 299 360
#     4  11  23  40  60  92 123 157 201 251 302 370
#     4  10  20  42  69  85 113 164 211 251 302 361
#     4  12  24  40  62  90 127 161 197 249 311 366
#
# _framework density 21.894928
#
# number of rings (size 3 to 8) (size 9 to 14) (size 15 to 20)
#    0.000    1.200    4.000    3.600    5.600    1.600 
#    0.000    2.000    0.000    0.000    0.000    0.000 
#    0.000    0.000    0.000    0.000    0.000    0.000 
#
# Total GULP energy -223644.017799 kJ/mol
# GULP energy per Si atom -5591.100445 kJ/mol
# Density = 2.184509 g / cm^3
# Si number density = 21.894928 Si / 1000 Ang^3
#
#
#
# Elastic Constant Matrix: (Units=GPa)
#
#
# Indices 1 2 3 4 5 6 
#
# 1 76.2665 16.5343 -21.5957 0.0000 0.0000 0.0000
# 2 16.5343 144.4268 -3.6286 0.0000 0.0000 0.0000
# 3 -21.5957 -3.6286 27.5274 0.0000 0.0000 0.0000
# 4 0.0000 0.0000 0.0000 26.0840 0.0000 0.0000
# 5 0.0000 0.0000 0.0000 0.0000 24.8360 0.0000
# 6 0.0000 0.0000 0.0000 0.0000 0.0000 20.3963
#
#
#
# Elastic Compliance Matrix: (Units=1/GPa)
#
#
# Indices 1 2 3 4 5 6 
#
# 1 0.017235 -0.001639 0.013305 0.000000 0.000000 0.000000
# 2 -0.001639 0.007103 -0.000349 0.000000 0.000000 0.000000
# 3 0.013305 -0.000349 0.046719 0.000000 0.000000 0.000000
# 4 0.000000 0.000000 0.000000 0.038338 0.000000 0.000000
# 5 0.000000 0.000000 0.000000 0.000000 0.040264 0.000000
# 6 0.000000 0.000000 0.000000 0.000000 0.000000 0.049029
#
#
# Mechanical properties :
#
#
# Convention : Reuss Voigt Hill
#
# Bulk Modulus (GPa) = 10.67349 25.64895 18.16122
# Shear Modulus (GPa) = 24.12153 31.39064 27.75608
#
# Velocity S-wave (km/s) = 3.32278 3.79052 3.56433
# Velocity P-wave (km/s) = 4.42793 5.55854 5.02514
#
# Compressibility (1/GPa) = 0.09369009
#
# Stress axis : x y z
#
# Youngs Moduli (GPa) = 58.02269 140.79043 21.40442
#
# Poissons Ratio (x) = 0.23073 -0.28478
# Poissons Ratio (y) = 0.09509 0.00748
# Poissons Ratio (z) = -0.77198 0.04919
#
# Static dielectric constant tensor:
#      x y z
#    x 1.801210 0.000000 0.000000 
#    y 0.000000 1.787260 0.000000 
#    z 0.000000 0.000000 1.799750 
# 
# From -- ./inp_files/16652.got.cif
#   From: 2010.05.17/outbox.cif.g08.bks.cpg/sg62_9_cif.got.tgz:16652.got - 2010.06.03 15:25:27.
