data_PCOD9463007
_publ_section_title
;
Structure prediction by ZEFSAII (Michael W. Deem and Ramdas Pophale) SiO2 
 PCOD9463007
Probable space group: P N M A
;
_chemical_formula_sum "Si O2"
_cell_formula_units_Z 64
_cell_length_a 15.187838
_cell_length_b 7.563929
_cell_length_c 25.317221
_cell_angle_alpha 90.000000
_cell_angle_beta 90.000000
_cell_angle_gamma 90.000000
_cell_volume 2908.435470
_symmetry_space_group_name_H-M "P N M A"
_symmetry_group_IT_number 62
_symmetry_cell_setting 'orthorhombic'
loop_
_space_group_symop_operation_xyz
x,y,z
1/2-x,-y,1/2+z
1/2+x,1/2-y,1/2-z
-x,1/2+y,-z
-x,-y,-z
1/2+x,y,1/2-z
1/2-x,1/2+y,1/2+z
x,1/2-y,z
loop_
_atom_site_type_symbol
_atom_site_label
_atom_site_fract_x
_atom_site_fract_y
_atom_site_fract_z
Si Si1 0.042074 0.535867 0.131912
Si Si2 0.134068 0.965973 0.240283
Si Si3 0.597736 0.538143 0.478743
Si Si4 0.996040 0.032821 0.667165
Si Si5 0.168239 0.450917 0.726306
Si Si6 0.352197 0.453504 0.341573
Si Si7 0.058005 0.959487 0.448855
Si Si8 0.741576 0.959031 0.560282
O O1 0.037763 0.750000 0.131261
O O2 0.080085 0.481744 0.188300
O O3 0.099426 0.476454 0.081933
O O4 0.943334 0.465239 0.126653
O O5 0.136766 0.750000 0.242500
O O6 0.082260 0.022846 0.292919
O O7 0.234054 0.029481 0.231904
O O8 0.500000 0.500000 0.500000
O O9 0.608408 0.750000 0.477194
O O10 0.673325 0.467005 0.517296
O O11 0.997449 0.250000 0.668438
O O12 0.979265 0.972864 0.607297
O O13 0.090097 0.971794 0.690762
O O14 0.180937 0.250000 0.706840
O O15 0.135013 0.447750 0.786688
O O16 0.333703 0.250000 0.327880
O O17 0.278327 0.529568 0.380777
O O18 0.061019 0.750000 0.443410
O O19 0.158079 0.020727 0.455784
O O20 0.000000 0.000000 0.500000
O O21 0.722686 0.750000 0.565153
#
# Coordination Sequence:
#
# PCOD9463007 Si02
#       8
#     8   8   8   8   8   8   8   8
#     4  10  19  33  56  82 111 148 190 232 278 337
#     4   9  17  31  54  86 111 135 184 237 278 326
#     4  10  20  34  55  84 117 152 188 233 285 342
#     4   9  18  34  57  85 112 143 188 238 285 337
#     4  10  19  34  59  83 110 148 190 240 285 339
#     4  11  21  34  54  83 119 154 187 232 289 343
#     4  11  24  42  64  87 113 152 201 252 300 348
#     4  10  22  39  58  84 120 158 196 239 290 351
#
# _framework density 22.004958999999999
#
# number of rings (size 3 to 8) (size 9 to 14) (size 15 to 20)
#    0.000    2.000    2.500    1.500    0.000    3.500 
#    0.000    5.625    0.000    0.000    0.000    0.000 
#    0.000    0.000    0.000    0.000    0.000    0.000 
#
# Total GULP energy -357422.968498 kJ/mol
# GULP energy per Si atom -5584.733883 kJ/mol
# Density = 2.195487 g / cm^3
# Si number density = 22.004959 Si / 1000 Ang^3
#
#
#
# Elastic Constant Matrix: (Units=GPa)
#
#
# Indices 1 2 3 4 5 6 
#
# 1 154.1967 -6.8872 73.3643 0.0000 0.0000 0.0000
# 2 -6.8872 52.0894 -1.7376 0.0000 0.0000 0.0000
# 3 73.3643 -1.7376 157.9365 0.0000 0.0000 0.0000
# 4 0.0000 0.0000 0.0000 9.3940 0.0000 0.0000
# 5 0.0000 0.0000 0.0000 0.0000 37.2282 0.0000
# 6 0.0000 0.0000 0.0000 0.0000 0.0000 12.5026
#
#
#
# Elastic Compliance Matrix: (Units=1/GPa)
#
#
# Indices 1 2 3 4 5 6 
#
# 1 0.008375 0.000978 -0.003879 0.000000 0.000000 0.000000
# 2 0.000978 0.019319 -0.000242 0.000000 0.000000 0.000000
# 3 -0.003879 -0.000242 0.008131 0.000000 0.000000 0.000000
# 4 0.000000 0.000000 0.000000 0.106451 0.000000 0.000000
# 5 0.000000 0.000000 0.000000 0.000000 0.026861 0.000000
# 6 0.000000 0.000000 0.000000 0.000000 0.000000 0.079984
#
#
# Mechanical properties :
#
#
# Convention : Reuss Voigt Hill
#
# Bulk Modulus (GPa) = 33.85443 54.85574 44.35508
# Shear Modulus (GPa) = 18.84993 31.79050 25.32022
#
# Velocity S-wave (km/s) = 2.92999 3.80504 3.39582
# Velocity P-wave (km/s) = 5.18312 6.65488 5.96457
#
# Compressibility (1/GPa) = 0.02953824
#
# Stress axis : x y z
#
# Youngs Moduli (GPa) = 119.40779 51.76252 122.98520
#
# Poissons Ratio (x) = -0.05062 0.47711
# Poissons Ratio (y) = -0.11677 0.02973
# Poissons Ratio (z) = 0.46323 0.01251
#
# Static dielectric constant tensor:
#      x y z
#    x 1.829200 0.000000 0.000000 
#    y 0.000000 1.846390 0.000000 
#    z 0.000000 0.000000 1.802950 
# 
# From -- ./inp_files/29857.got.cif
#   From: 2010.05.17/outbox.cif.g08.bks.cpg/sg62_15_cif.got.tgz:29857.got - 2010.06.03 15:25:27.
