data_PCOD9463141
_publ_section_title
;
Structure prediction by ZEFSAII (Michael W. Deem and Ramdas Pophale) SiO2 
 PCOD9463141
Probable space group: P N M A
;
_chemical_formula_sum "Si O2"
_cell_formula_units_Z 48
_cell_length_a 18.464730
_cell_length_b 8.939669
_cell_length_c 16.751517
_cell_angle_alpha 90.000000
_cell_angle_beta 90.000000
_cell_angle_gamma 90.000000
_cell_volume 2765.149030
_symmetry_space_group_name_H-M "P N M A"
_symmetry_group_IT_number 62
_symmetry_cell_setting 'orthorhombic'
loop_
_space_group_symop_operation_xyz
x,y,z
1/2-x,-y,1/2+z
1/2+x,1/2-y,1/2-z
-x,1/2+y,-z
-x,-y,-z
1/2+x,y,1/2-z
1/2-x,1/2+y,1/2+z
x,1/2-y,z
loop_
_atom_site_type_symbol
_atom_site_label
_atom_site_fract_x
_atom_site_fract_y
_atom_site_fract_z
Si Si1 0.049391 0.571175 0.252913
Si Si2 0.473710 0.571570 0.082076
Si Si3 0.079613 0.428937 0.992180
Si Si4 0.089588 0.927718 0.829010
Si Si5 0.164346 0.928413 0.662225
Si Si6 0.169072 0.070088 0.151556
O O1 0.046218 0.750000 0.243156
O O2 0.125574 0.508288 0.222918
O O3 0.027681 0.534711 0.344065
O O4 0.987495 0.495173 0.198406
O O5 0.471276 0.750000 0.074548
O O6 0.395209 0.510954 0.108750
O O7 0.500000 0.500000 0.000000
O O8 0.073231 0.250000 0.987418
O O9 0.127666 0.466584 0.069305
O O10 0.112452 0.493782 0.910613
O O11 0.000000 0.500000 0.000000
O O12 0.082029 0.750000 0.841046
O O13 0.142872 0.954773 0.754643
O O14 0.157769 0.750000 0.647933
O O15 0.246931 0.973703 0.647500
O O16 0.165761 0.250000 0.162448
#
# Coordination Sequence:
#
# PCOD9463141 Si02
#       6
#     8   8   8   8   8   8
#     4  10  20  34  56  82 108 140 182 226 270 327
#     4  10  21  38  60  85 110 144 189 234 278 328
#     4  11  21  33  54  83 113 146 185 225 272 329
#     4  10  19  34  56  79 106 144 183 222 272 326
#     4   9  20  39  59  79 110 148 185 229 279 330
#     4  10  21  37  56  80 113 149 182 225 281 330
#
# _framework density 17.358920999999999
#
# number of rings (size 3 to 8) (size 9 to 14) (size 15 to 20)
#    0.000    2.000    1.667    2.000    0.000    4.000 
#    3.000    0.000    0.000    0.000    0.000    0.000 
#    0.000    0.000    0.000    0.000    0.000    0.000 
#
# Total GULP energy -267962.751787 kJ/mol
# GULP energy per Si atom -5582.557329 kJ/mol
# Density = 1.731941 g / cm^3
# Si number density = 17.358921 Si / 1000 Ang^3
#
#
#
# Elastic Constant Matrix: (Units=GPa)
#
#
# Indices 1 2 3 4 5 6 
#
# 1 141.4293 57.4649 85.9123 0.0000 0.0000 0.0000
# 2 57.4649 55.6026 64.9329 0.0000 0.0000 0.0000
# 3 85.9123 64.9329 136.1387 0.0000 0.0000 0.0000
# 4 0.0000 0.0000 0.0000 34.2257 0.0000 0.0000
# 5 0.0000 0.0000 0.0000 0.0000 20.4096 0.0000
# 6 0.0000 0.0000 0.0000 0.0000 0.0000 24.4615
#
#
#
# Elastic Compliance Matrix: (Units=1/GPa)
#
#
# Indices 1 2 3 4 5 6 
#
# 1 0.013127 -0.008787 -0.004093 0.000000 0.000000 0.000000
# 2 -0.008787 0.046479 -0.016623 0.000000 0.000000 0.000000
# 3 -0.004093 -0.016623 0.017857 0.000000 0.000000 0.000000
# 4 0.000000 0.000000 0.000000 0.029218 0.000000 0.000000
# 5 0.000000 0.000000 0.000000 0.000000 0.048996 0.000000
# 6 0.000000 0.000000 0.000000 0.000000 0.000000 0.040881
#
#
# Mechanical properties :
#
#
# Convention : Reuss Voigt Hill
#
# Bulk Modulus (GPa) = 54.18208 83.31009 68.74608
# Shear Modulus (GPa) = 19.10452 24.14339 21.62395
#
# Velocity S-wave (km/s) = 3.32107 3.73344 3.53327
# Velocity P-wave (km/s) = 6.78134 8.16588 7.50560
#
# Compressibility (1/GPa) = 0.01845629
#
# Stress axis : x y z
#
# Youngs Moduli (GPa) = 76.17645 21.51507 55.99970
#
# Poissons Ratio (x) = 0.18905 0.22922
# Poissons Ratio (y) = 0.66937 0.93091
# Poissons Ratio (z) = 0.31180 0.35766
#
# Static dielectric constant tensor:
#      x y z
#    x 1.567510 0.000000 0.000000 
#    y 0.000000 1.579410 0.000000 
#    z 0.000000 0.000000 1.592600 
# 
# From -- ./inp_files/24202.got.cif
#   From: 2010.05.17/outbox.cif.g08.bks.cpg/sg62_13_cif.got.tgz:24202.got - 2010.06.03 15:25:27.
