data_PCOD9463900
_publ_section_title
;
Structure prediction by ZEFSAII (Michael W. Deem and Ramdas Pophale) SiO2 
 PCOD9463900
Probable space group: P N M A
;
_chemical_formula_sum "Si O2"
_cell_formula_units_Z 56
_cell_length_a 15.103015
_cell_length_b 7.914054
_cell_length_c 22.926095
_cell_angle_alpha 90.000000
_cell_angle_beta 90.000000
_cell_angle_gamma 90.000000
_cell_volume 2740.266180
_symmetry_space_group_name_H-M "P N M A"
_symmetry_group_IT_number 62
_symmetry_cell_setting 'orthorhombic'
loop_
_space_group_symop_operation_xyz
x,y,z
1/2-x,-y,1/2+z
1/2+x,1/2-y,1/2-z
-x,1/2+y,-z
-x,-y,-z
1/2+x,y,1/2-z
1/2-x,1/2+y,1/2+z
x,1/2-y,z
loop_
_atom_site_type_symbol
_atom_site_label
_atom_site_fract_x
_atom_site_fract_y
_atom_site_fract_z
Si Si1 0.102889 0.545898 0.999199
Si Si2 0.401003 0.453964 0.720029
Si Si3 0.403226 0.949119 0.854524
Si Si4 0.601173 0.452023 0.850772
Si Si5 0.601399 0.045933 0.717471
Si Si6 0.213905 0.956884 0.110899
Si Si7 0.717795 0.548604 0.609162
O O1 0.106760 0.750000 0.998979
O O2 0.154607 0.481582 0.941946
O O3 0.155081 0.485748 0.056645
O O4 0.000000 0.500000 0.000000
O O5 0.397335 0.250000 0.723571
O O6 0.388261 0.518282 0.785530
O O7 0.500666 0.499988 0.700457
O O8 0.330894 0.509729 0.671900
O O9 0.404831 0.750000 0.863846
O O10 0.317763 0.021267 0.887948
O O11 0.501171 0.012210 0.870004
O O12 0.608459 0.250000 0.847519
O O13 0.613216 0.514517 0.784023
O O14 0.683756 0.512181 0.889152
O O15 0.607748 0.250000 0.717535
O O16 0.670967 0.979715 0.671189
O O17 0.212018 0.750000 0.109979
O O18 0.724793 0.750000 0.600131
#
# Coordination Sequence:
#
# PCOD9463900 Si02
#       7
#     8   8   8   8   8   8   8
#     4  10  21  38  56  75 100 130 163 202 243 290
#     4   9  17  31  51  76 101 127 162 205 247 291
#     4  10  20  33  48  71 103 136 163 195 244 298
#     4   9  18  33  52  75  98 126 166 209 247 287
#     4   9  17  29  50  77 102 127 161 204 247 289
#     4   9  17  32  55  75  95 128 169 207 246 287
#     4  10  21  34  49  71 102 136 166 196 241 296
#
# _framework density 20.435970999999999
#
# number of rings (size 3 to 8) (size 9 to 14) (size 15 to 20)
#    0.000    2.571    0.000    3.000    0.000    6.286 
#    0.000    2.857    0.000    0.000    0.000    0.000 
#    0.000    0.000    0.000    0.000    0.000    0.000 
#
# Total GULP energy -312461.597136 kJ/mol
# GULP energy per Si atom -5579.671377 kJ/mol
# Density = 2.038946 g / cm^3
# Si number density = 20.435971 Si / 1000 Ang^3
#
#
#
# Elastic Constant Matrix: (Units=GPa)
#
#
# Indices 1 2 3 4 5 6 
#
# 1 211.0192 9.8381 82.6820 0.0000 0.0000 0.0000
# 2 9.8381 12.4850 5.6362 0.0000 0.0000 0.0000
# 3 82.6820 5.6362 53.1277 0.0000 0.0000 0.0000
# 4 0.0000 0.0000 0.0000 10.4748 0.0000 0.0000
# 5 0.0000 0.0000 0.0000 0.0000 32.3863 0.0000
# 6 0.0000 0.0000 0.0000 0.0000 0.0000 22.9670
#
#
#
# Elastic Compliance Matrix: (Units=1/GPa)
#
#
# Indices 1 2 3 4 5 6 
#
# 1 0.012159 -0.001091 -0.018806 0.000000 0.000000 0.000000
# 2 -0.001091 0.084223 -0.007237 0.000000 0.000000 0.000000
# 3 -0.018806 -0.007237 0.048859 0.000000 0.000000 0.000000
# 4 0.000000 0.000000 0.000000 0.095467 0.000000 0.000000
# 5 0.000000 0.000000 0.000000 0.000000 0.030877 0.000000
# 6 0.000000 0.000000 0.000000 0.000000 0.000000 0.043541
#
#
# Mechanical properties :
#
#
# Convention : Reuss Voigt Hill
#
# Bulk Modulus (GPa) = 10.99253 52.54938 31.77096
# Shear Modulus (GPa) = 12.50881 25.06398 18.78640
#
# Velocity S-wave (km/s) = 2.47674 3.50589 3.03525
# Velocity P-wave (km/s) = 3.68371 6.49295 5.27864
#
# Compressibility (1/GPa) = 0.09097085
#
# Stress axis : x y z
#
# Youngs Moduli (GPa) = 82.24648 11.87327 20.46721
#
# Poissons Ratio (x) = 0.01295 0.38492
# Poissons Ratio (y) = 0.08973 0.14812
# Poissons Ratio (z) = 1.54677 0.08593
#
# Static dielectric constant tensor:
#      x y z
#    x 1.754420 0.000000 0.000000 
#    y 0.000000 1.746320 0.000000 
#    z 0.000000 0.000000 1.704430 
# 
# From -- ./inp_files/27176.got.cif
#   From: 2010.05.17/outbox.cif.g08.bks.cpg/sg62_14_cif.got.tgz:27176.got - 2010.06.03 15:25:27.
