data_PCOD9463343
_publ_section_title
;
Structure prediction by ZEFSAII (Michael W. Deem and Ramdas Pophale) SiO2 
 PCOD9463343
Probable space group: P N M A
;
_chemical_formula_sum "Si O2"
_cell_formula_units_Z 48
_cell_length_a 20.382188
_cell_length_b 8.643355
_cell_length_c 15.355925
_cell_angle_alpha 90.000000
_cell_angle_beta 90.000000
_cell_angle_gamma 90.000000
_cell_volume 2705.260779
_symmetry_space_group_name_H-M "P N M A"
_symmetry_group_IT_number 62
_symmetry_cell_setting 'orthorhombic'
loop_
_space_group_symop_operation_xyz
x,y,z
1/2-x,-y,1/2+z
1/2+x,1/2-y,1/2-z
-x,1/2+y,-z
-x,-y,-z
1/2+x,y,1/2-z
1/2-x,1/2+y,1/2+z
x,1/2-y,z
loop_
_atom_site_type_symbol
_atom_site_label
_atom_site_fract_x
_atom_site_fract_y
_atom_site_fract_z
Si Si1 0.057897 0.064707 0.939166
Si Si2 0.687006 0.437832 0.113753
Si Si3 0.519049 0.935173 0.269928
Si Si4 0.194802 0.564213 0.008864
Si Si5 0.837018 0.935780 0.807567
Si Si6 0.462739 0.564240 0.916566
O O1 0.060678 0.250000 0.948941
O O2 0.036956 0.027808 0.840138
O O3 0.126694 0.993252 0.967537
O O4 0.000000 0.000000 0.000000
O O5 0.687903 0.250000 0.112658
O O6 0.694365 0.483933 0.214975
O O7 0.613993 0.484747 0.084071
O O8 0.744434 0.491256 0.050190
O O9 0.525851 0.750000 0.265628
O O10 0.587833 0.005247 0.304008
O O11 0.507680 0.001837 0.173941
O O12 0.194815 0.750000 0.010687
O O13 0.197375 0.502674 0.107358
O O14 0.837861 0.750000 0.811982
O O15 0.464888 0.750000 0.916040
O O16 0.500000 0.500000 0.000000
#
# Coordination Sequence:
#
# PCOD9463343 Si02
#       6
#     8   8   8   8   8   8
#     4  11  22  35  55  84 116 147 185 230 280 334
#     4   8  19  38  57  78 110 148 184 227 278 334
#     4  10  20  35  56  82 111 144 186 230 277 333
#     4  11  21  36  57  81 112 149 186 229 281 335
#     4  10  19  35  58  80 107 145 187 228 278 333
#     4  10  20  38  62  85 112 147 189 234 282 333
#
# _framework density 17.743207000000002
#
# number of rings (size 3 to 8) (size 9 to 14) (size 15 to 20)
#    0.000    2.000    1.667    3.500    0.000    2.000 
#    3.000   10.000    0.000    0.000    0.000    0.000 
#    0.000    0.000    0.000    0.000    0.000    0.000 
#
# Total GULP energy -267934.417914 kJ/mol
# GULP energy per Si atom -5581.967040 kJ/mol
# Density = 1.770282 g / cm^3
# Si number density = 17.743207 Si / 1000 Ang^3
#
#
#
# Elastic Constant Matrix: (Units=GPa)
#
#
# Indices 1 2 3 4 5 6 
#
# 1 96.6415 31.6737 100.1925 0.0000 0.0000 0.0000
# 2 31.6737 60.1983 54.0161 0.0000 0.0000 0.0000
# 3 100.1925 54.0161 194.2173 0.0000 0.0000 0.0000
# 4 0.0000 0.0000 0.0000 34.2898 0.0000 0.0000
# 5 0.0000 0.0000 0.0000 0.0000 35.6292 0.0000
# 6 0.0000 0.0000 0.0000 0.0000 0.0000 19.8307
#
#
#
# Elastic Compliance Matrix: (Units=1/GPa)
#
#
# Indices 1 2 3 4 5 6 
#
# 1 0.022405 -0.001889 -0.011033 0.000000 0.000000 0.000000
# 2 -0.001889 0.022295 -0.005227 0.000000 0.000000 0.000000
# 3 -0.011033 -0.005227 0.012294 0.000000 0.000000 0.000000
# 4 0.000000 0.000000 0.000000 0.029163 0.000000 0.000000
# 5 0.000000 0.000000 0.000000 0.000000 0.028067 0.000000
# 6 0.000000 0.000000 0.000000 0.000000 0.000000 0.050427
#
#
# Mechanical properties :
#
#
# Convention : Reuss Voigt Hill
#
# Bulk Modulus (GPa) = 48.31351 80.31353 64.31352
# Shear Modulus (GPa) = 24.05624 28.96159 26.50892
#
# Velocity S-wave (km/s) = 3.68611 4.04451 3.86946
# Velocity P-wave (km/s) = 6.73832 8.19594 7.50261
#
# Compressibility (1/GPa) = 0.02069814
#
# Stress axis : x y z
#
# Youngs Moduli (GPa) = 44.63338 44.85266 81.33978
#
# Poissons Ratio (x) = 0.08471 0.89741
# Poissons Ratio (y) = 0.08429 0.42512
# Poissons Ratio (z) = 0.49243 0.23442
#
# Static dielectric constant tensor:
#      x y z
#    x 1.578460 0.000000 0.000000 
#    y 0.000000 1.602230 0.000000 
#    z 0.000000 0.000000 1.610820 
# 
# From -- ./inp_files/15144.got.cif
#   From: 2010.05.17/outbox.cif.g08.bks.cpg/sg62_8_cif.got.tgz:15144.got - 2010.06.03 15:25:27.
