data_PCOD9463919
_publ_section_title
;
Structure prediction by ZEFSAII (Michael W. Deem and Ramdas Pophale) SiO2 
 PCOD9463919
Probable space group: P N M A
;
_chemical_formula_sum "Si O2"
_cell_formula_units_Z 64
_cell_length_a 20.947842
_cell_length_b 8.432571
_cell_length_c 20.359624
_cell_angle_alpha 90.000000
_cell_angle_beta 90.000000
_cell_angle_gamma 90.000000
_cell_volume 3596.408780
_symmetry_space_group_name_H-M "P N M A"
_symmetry_group_IT_number 62
_symmetry_cell_setting 'orthorhombic'
loop_
_space_group_symop_operation_xyz
x,y,z
1/2-x,-y,1/2+z
1/2+x,1/2-y,1/2-z
-x,1/2+y,-z
-x,-y,-z
1/2+x,y,1/2-z
1/2-x,1/2+y,1/2+z
x,1/2-y,z
loop_
_atom_site_type_symbol
_atom_site_label
_atom_site_fract_x
_atom_site_fract_y
_atom_site_fract_z
Si Si1 0.179267 0.558312 0.925729
Si Si2 0.680247 0.560257 0.423352
Si Si3 0.569724 0.941842 0.824861
Si Si4 0.179250 0.941622 0.575612
Si Si5 0.319793 0.441562 0.924695
Si Si6 0.926125 0.939993 0.823710
Si Si7 0.429062 0.056891 0.325606
Si Si8 0.071957 0.940162 0.323468
O O1 0.179065 0.750000 0.925054
O O2 0.249556 0.501177 0.905555
O O3 0.123986 0.501153 0.876858
O O4 0.168555 0.506529 0.001236
O O5 0.680466 0.750000 0.422739
O O6 0.750641 0.500065 0.404291
O O7 0.626113 0.499822 0.374611
O O8 0.568428 0.750000 0.825741
O O9 0.623634 0.996445 0.875594
O O10 0.584164 0.991282 0.749701
O O11 0.498888 0.001072 0.841431
O O12 0.179678 0.750000 0.576551
O O13 0.168227 0.993018 0.500101
O O14 0.319089 0.250000 0.924160
O O15 0.374800 0.495855 0.875188
O O16 0.925600 0.750000 0.822748
O O17 0.998396 0.992493 0.841704
O O18 0.913497 0.999720 0.749906
O O19 0.428104 0.250000 0.326845
O O20 0.071935 0.750000 0.322974
#
# Coordination Sequence:
#
# PCOD9463919 Si02
#       8
#     8   8   8   8   8   8   8   8
#     4   9  18  33  52  73 100 133 167 206 249 296
#     4  10  20  33  50  75 104 131 164 208 254 298
#     4   9  18  33  53  75  99 130 169 209 246 295
#     4   9  18  34  53  73 101 137 173 205 243 296
#     4   9  19  34  50  72 103 135 167 206 250 296
#     4  10  20  35  54  73  97 132 170 208 251 304
#     4   8  16  32  51  72  97 125 163 206 244 287
#     4  10  20  34  51  73 103 134 165 209 259 301
#
# _framework density 17.795528999999998
#
# number of rings (size 3 to 8) (size 9 to 14) (size 15 to 20)
#    0.000    2.750    0.000    1.875    0.000    4.000 
#    0.000    4.375    0.000    0.000    0.000    0.000 
#    0.000    0.000    0.000    0.000    0.000    0.000 
#
# Total GULP energy -356909.172333 kJ/mol
# GULP energy per Si atom -5576.705818 kJ/mol
# Density = 1.775503 g / cm^3
# Si number density = 17.795529 Si / 1000 Ang^3
#
#
#
# Elastic Constant Matrix: (Units=GPa)
#
#
# Indices 1 2 3 4 5 6 
#
# 1 191.9934 24.1253 138.7410 0.0000 0.0000 0.0000
# 2 24.1253 13.4564 20.6221 0.0000 0.0000 0.0000
# 3 138.7410 20.6221 119.0949 0.0000 0.0000 0.0000
# 4 0.0000 0.0000 0.0000 10.1485 0.0000 0.0000
# 5 0.0000 0.0000 0.0000 0.0000 45.4261 0.0000
# 6 0.0000 0.0000 0.0000 0.0000 0.0000 28.0963
#
#
#
# Elastic Compliance Matrix: (Units=1/GPa)
#
#
# Indices 1 2 3 4 5 6 
#
# 1 0.032933 -0.000338 -0.038308 0.000000 0.000000 0.000000
# 2 -0.000338 0.101161 -0.017123 0.000000 0.000000 0.000000
# 3 -0.038308 -0.017123 0.055989 0.000000 0.000000 0.000000
# 4 0.000000 0.000000 0.000000 0.098537 0.000000 0.000000
# 5 0.000000 0.000000 0.000000 0.000000 0.022014 0.000000
# 6 0.000000 0.000000 0.000000 0.000000 0.000000 0.035592
#
#
# Mechanical properties :
#
#
# Convention : Reuss Voigt Hill
#
# Bulk Modulus (GPa) = 12.73144 76.83570 44.78357
# Shear Modulus (GPa) = 10.33175 26.13792 18.23483
#
# Velocity S-wave (km/s) = 2.41214 3.83664 3.20454
# Velocity P-wave (km/s) = 3.86364 7.93077 6.23798
#
# Compressibility (1/GPa) = 0.07854571
#
# Stress axis : x y z
#
# Youngs Moduli (GPa) = 30.36436 9.88523 17.86076
#
# Poissons Ratio (x) = 0.00334 0.68420
# Poissons Ratio (y) = 0.01025 0.30584
# Poissons Ratio (z) = 1.16319 0.16927
#
# Static dielectric constant tensor:
#      x y z
#    x 1.583300 0.000000 0.000000 
#    y 0.000000 1.608200 0.000000 
#    z 0.000000 0.000000 1.603380 
# 
# From -- ./inp_files/24694.got.cif
#   From: 2010.05.17/outbox.cif.g08.bks.cpg/sg62_13_cif.got.tgz:24694.got - 2010.06.03 15:25:27.
