data_PCOD9463738
_publ_section_title
;
Structure prediction by ZEFSAII (Michael W. Deem and Ramdas Pophale) SiO2 
 PCOD9463738
Probable space group: P N M A
;
_chemical_formula_sum "Si O2"
_cell_formula_units_Z 56
_cell_length_a 14.932216
_cell_length_b 28.323261
_cell_length_c 5.255582
_cell_angle_alpha 90.000000
_cell_angle_beta 90.000000
_cell_angle_gamma 90.000000
_cell_volume 2222.738308
_symmetry_space_group_name_H-M "P N M A"
_symmetry_group_IT_number 62
_symmetry_cell_setting 'orthorhombic'
loop_
_space_group_symop_operation_xyz
x,y,z
1/2-x,-y,1/2+z
1/2+x,1/2-y,1/2-z
-x,1/2+y,-z
-x,-y,-z
1/2+x,y,1/2-z
1/2-x,1/2+y,1/2+z
x,1/2-y,z
loop_
_atom_site_type_symbol
_atom_site_label
_atom_site_fract_x
_atom_site_fract_y
_atom_site_fract_z
Si Si1 0.559209 0.803252 0.081078
Si Si2 0.761500 0.697376 0.842014
Si Si3 0.556763 0.562542 0.577978
Si Si4 0.302500 0.889106 0.370321
Si Si5 0.532934 0.401245 0.947782
Si Si6 0.661728 0.854771 0.460692
Si Si7 0.802984 0.513004 0.915219
O O1 0.522519 0.750000 0.064049
O O2 0.658269 0.802136 0.949626
O O3 0.499140 0.847363 0.991415
O O4 0.585528 0.818824 0.369317
O O5 0.796314 0.750000 0.844108
O O6 0.821109 0.660940 0.998868
O O7 0.743032 0.676208 0.565268
O O8 0.511955 0.581435 0.317994
O O9 0.628258 0.604228 0.643961
O O10 0.609457 0.515075 0.512273
O O11 0.493851 0.564024 0.823954
O O12 0.363966 0.900035 0.129965
O O13 0.314496 0.931269 0.564411
O O14 0.201075 0.884611 0.274035
O O15 0.729116 0.501592 0.135315
#
# Coordination Sequence:
#
# PCOD9463738 Si02
#       7
#     8   8   8   8   8   8   8
#     4   9  19  36  60  89 122 168 218 263 321 390
#     4  10  20  38  66  95 126 168 225 274 321 389
#     4  11  23  43  66  94 131 176 222 268 324 401
#     4  11  26  40  65  98 135 174 218 282 337 393
#     4  11  25  42  64  95 139 173 214 275 338 397
#     4  10  19  39  65  92 124 174 226 274 313 392
#     4  12  25  42  72 101 128 175 230 281 328 393
#
# _framework density 25.194147999999998
#
# number of rings (size 3 to 8) (size 9 to 14) (size 15 to 20)
#    0.000    1.429    2.857    2.143    4.000    2.286 
#    0.000    0.000    0.000    0.000    0.000    0.000 
#    0.000    0.000    0.000    0.000    0.000    0.000 
#
# Total GULP energy -313207.255083 kJ/mol
# GULP energy per Si atom -5592.986698 kJ/mol
# Density = 2.513681 g / cm^3
# Si number density = 25.194148 Si / 1000 Ang^3
#
#
#
# Elastic Constant Matrix: (Units=GPa)
#
#
# Indices 1 2 3 4 5 6 
#
# 1 39.4329 13.7615 12.7966 0.0000 0.0000 0.0000
# 2 13.7615 138.2205 26.5886 0.0000 0.0000 0.0000
# 3 12.7966 26.5886 93.2519 0.0000 0.0000 0.0000
# 4 0.0000 0.0000 0.0000 27.5166 0.0000 0.0000
# 5 0.0000 0.0000 0.0000 0.0000 41.7597 0.0000
# 6 0.0000 0.0000 0.0000 0.0000 0.0000 18.5976
#
#
#
# Elastic Compliance Matrix: (Units=1/GPa)
#
#
# Indices 1 2 3 4 5 6 
#
# 1 0.027105 -0.002098 -0.003121 0.000000 0.000000 0.000000
# 2 -0.002098 0.007817 -0.001941 0.000000 0.000000 0.000000
# 3 -0.003121 -0.001941 0.011705 0.000000 0.000000 0.000000
# 4 0.000000 0.000000 0.000000 0.036342 0.000000 0.000000
# 5 0.000000 0.000000 0.000000 0.000000 0.023947 0.000000
# 6 0.000000 0.000000 0.000000 0.000000 0.000000 0.053770
#
#
# Mechanical properties :
#
#
# Convention : Reuss Voigt Hill
#
# Bulk Modulus (GPa) = 30.95356 41.91094 36.43225
# Shear Modulus (GPa) = 26.91424 32.09202 29.50313
#
# Velocity S-wave (km/s) = 3.27199 3.57289 3.42575
# Velocity P-wave (km/s) = 5.15628 5.80448 5.48996
#
# Compressibility (1/GPa) = 0.03230646
#
# Stress axis : x y z
#
# Youngs Moduli (GPa) = 36.89403 127.92501 85.43090
#
# Poissons Ratio (x) = 0.26841 0.26665
# Poissons Ratio (y) = 0.07741 0.16582
# Poissons Ratio (z) = 0.11515 0.24829
#
# Static dielectric constant tensor:
#      x y z
#    x 2.042830 0.000000 0.000000 
#    y 0.000000 1.970310 0.000000 
#    z 0.000000 0.000000 2.076640 
# 
# From -- ./inp_files/1276.got.cif
#   From: 2010.05.17/outbox.cif.g08.bks.cpg/sg62_1_cif.got.tgz:1276.got - 2010.06.03 15:25:27.
