data_PCOD9463382
_publ_section_title
;
Structure prediction by ZEFSAII (Michael W. Deem and Ramdas Pophale) SiO2 
 PCOD9463382
Probable space group: P N M A
;
_chemical_formula_sum "Si O2"
_cell_formula_units_Z 64
_cell_length_a 12.647267
_cell_length_b 8.667935
_cell_length_c 29.216123
_cell_angle_alpha 90.000000
_cell_angle_beta 90.000000
_cell_angle_gamma 90.000000
_cell_volume 3202.837593
_symmetry_space_group_name_H-M "P N M A"
_symmetry_group_IT_number 62
_symmetry_cell_setting 'orthorhombic'
loop_
_space_group_symop_operation_xyz
x,y,z
1/2-x,-y,1/2+z
1/2+x,1/2-y,1/2-z
-x,1/2+y,-z
-x,-y,-z
1/2+x,y,1/2-z
1/2-x,1/2+y,1/2+z
x,1/2-y,z
loop_
_atom_site_type_symbol
_atom_site_label
_atom_site_fract_x
_atom_site_fract_y
_atom_site_fract_z
Si Si1 0.038426 0.930904 0.427149
Si Si2 0.370140 0.431946 0.307842
Si Si3 0.350375 0.566163 0.560786
Si Si4 0.733665 0.066000 0.027397
Si Si5 0.577117 0.562025 0.592665
Si Si6 0.441565 0.932126 0.213251
Si Si7 0.324212 0.935426 0.119154
Si Si8 0.127896 0.427759 0.336724
O O1 0.032583 0.750000 0.436576
O O2 0.919283 0.985352 0.415492
O O3 0.114607 0.007819 0.464366
O O4 0.098342 0.963598 0.379119
O O5 0.393709 0.250000 0.300567
O O6 0.427336 0.486215 0.354388
O O7 0.396945 0.524138 0.262414
O O8 0.246516 0.445165 0.319777
O O9 0.350439 0.750000 0.555371
O O10 0.288901 0.490771 0.518654
O O11 0.471768 0.513031 0.565924
O O12 0.282918 0.518586 0.605190
O O13 0.730492 0.250000 0.027663
O O14 0.814567 0.013683 0.067751
O O15 0.579071 0.750000 0.593036
O O16 0.464801 0.750000 0.210526
O O17 0.363021 0.967851 0.170746
O O18 0.546549 0.029337 0.203046
O O19 0.312776 0.750000 0.114579
O O20 0.113555 0.250000 0.351965
#
# Coordination Sequence:
#
# PCOD9463382 Si02
#       8
#     8   8   8   8   8   8   8   8
#     4  10  20  36  60  87 115 147 193 246 290 341
#     4  10  20  37  60  86 114 150 197 240 290 353
#     4  11  23  38  59  86 118 154 196 243 290 346
#     4  11  21  38  62  86 117 155 194 239 296 355
#     4   9  20  39  59  84 118 152 193 243 290 347
#     4  10  22  38  57  85 119 152 193 244 295 349
#     4   9  21  41  58  78 116 157 191 237 294 351
#     4  10  19  35  59  83 112 151 191 237 293 350
#
# _framework density 19.982282000000001
#
# number of rings (size 3 to 8) (size 9 to 14) (size 15 to 20)
#    0.000    2.000    1.250    3.000    0.000    5.500 
#    0.000    6.875    0.000    0.000    0.000    0.000 
#    0.000    0.000    0.000    0.000    0.000    0.000 
#
# Total GULP energy -357382.746319 kJ/mol
# GULP energy per Si atom -5584.105411 kJ/mol
# Density = 1.993680 g / cm^3
# Si number density = 19.982282 Si / 1000 Ang^3
#
#
#
# Elastic Constant Matrix: (Units=GPa)
#
#
# Indices 1 2 3 4 5 6 
#
# 1 52.1623 7.0014 -1.4478 0.0000 0.0000 0.0000
# 2 7.0014 17.8462 -1.4959 0.0000 0.0000 0.0000
# 3 -1.4478 -1.4959 59.8057 0.0000 0.0000 0.0000
# 4 0.0000 0.0000 0.0000 29.2771 0.0000 0.0000
# 5 0.0000 0.0000 0.0000 0.0000 16.6690 0.0000
# 6 0.0000 0.0000 0.0000 0.0000 0.0000 11.5581
#
#
#
# Elastic Compliance Matrix: (Units=1/GPa)
#
#
# Indices 1 2 3 4 5 6 
#
# 1 0.020242 -0.007917 0.000292 0.000000 0.000000 0.000000
# 2 -0.007917 0.059248 0.001290 0.000000 0.000000 0.000000
# 3 0.000292 0.001290 0.016760 0.000000 0.000000 0.000000
# 4 0.000000 0.000000 0.000000 0.034156 0.000000 0.000000
# 5 0.000000 0.000000 0.000000 0.000000 0.059992 0.000000
# 6 0.000000 0.000000 0.000000 0.000000 0.000000 0.086520
#
#
# Mechanical properties :
#
#
# Convention : Reuss Voigt Hill
#
# Bulk Modulus (GPa) = 11.96439 15.32552 13.64496
# Shear Modulus (GPa) = 15.75065 19.88460 17.81763
#
# Velocity S-wave (km/s) = 2.81059 3.15796 2.98933
# Velocity P-wave (km/s) = 4.06609 4.58074 4.33106
#
# Compressibility (1/GPa) = 0.08358133
#
# Stress axis : x y z
#
# Youngs Moduli (GPa) = 49.40305 16.87810 59.66533
#
# Poissons Ratio (x) = 0.13362 -0.01742
# Poissons Ratio (y) = 0.39111 -0.07699
# Poissons Ratio (z) = -0.01443 -0.02178
#
# Static dielectric constant tensor:
#      x y z
#    x 1.700130 0.000000 0.000000 
#    y 0.000000 1.684540 0.000000 
#    z 0.000000 0.000000 1.723560 
# 
# From -- ./inp_files/32437.got.cif
#   From: 2010.05.17/outbox.cif.g08.bks.cpg/sg62_17_cif.got.tgz:32437.got - 2010.06.03 15:25:27.
