data_PCOD9463955
_publ_section_title
;
Structure prediction by ZEFSAII (Michael W. Deem and Ramdas Pophale) SiO2 
 PCOD9463955
Probable space group: P N M A
;
_chemical_formula_sum "Si O2"
_cell_formula_units_Z 64
_cell_length_a 20.994539
_cell_length_b 8.681655
_cell_length_c 20.180474
_cell_angle_alpha 90.000000
_cell_angle_beta 90.000000
_cell_angle_gamma 90.000000
_cell_volume 3678.241406
_symmetry_space_group_name_H-M "P N M A"
_symmetry_group_IT_number 62
_symmetry_cell_setting 'orthorhombic'
loop_
_space_group_symop_operation_xyz
x,y,z
1/2-x,-y,1/2+z
1/2+x,1/2-y,1/2-z
-x,1/2+y,-z
-x,-y,-z
1/2+x,y,1/2-z
1/2-x,1/2+y,1/2+z
x,1/2-y,z
loop_
_atom_site_type_symbol
_atom_site_label
_atom_site_fract_x
_atom_site_fract_y
_atom_site_fract_z
Si Si1 0.452826 0.433495 0.556232
Si Si2 0.712338 0.427171 0.180629
Si Si3 0.670777 0.066388 0.506208
Si Si4 0.347097 0.062847 0.346142
Si Si5 0.511978 0.935522 0.689974
Si Si6 0.060000 0.933571 0.460746
Si Si7 0.425707 0.562579 0.813637
Si Si8 0.805333 0.927694 0.520342
O O1 0.500000 0.500000 0.500000
O O2 0.452408 0.250000 0.550967
O O3 0.382450 0.498388 0.542249
O O4 0.478930 0.486663 0.627070
O O5 0.714699 0.250000 0.203647
O O6 0.782842 0.493730 0.190604
O O7 0.645682 0.493195 0.206246
O O8 0.704019 0.428396 0.100539
O O9 0.668458 0.250000 0.505708
O O10 0.653067 0.005288 0.579850
O O11 0.742549 0.009271 0.492089
O O12 0.342677 0.250000 0.352275
O O13 0.413236 0.024970 0.311050
O O14 0.507058 0.750000 0.682014
O O15 0.476286 0.977571 0.757495
O O16 0.058733 0.750000 0.461270
O O17 0.058198 0.994611 0.385230
O O18 0.127141 0.991466 0.491321
O O19 0.000000 0.000000 0.500000
O O20 0.423191 0.750000 0.819932
O O21 0.807645 0.750000 0.499488
#
# Coordination Sequence:
#
# PCOD9463955 Si02
#       8
#     8   8   8   8   8   8   8   8
#     4  12  23  35  51  74 106 146 187 230 275 321
#     4   7  12  25  47  71  95 126 167 212 258 309
#     4  11  20  31  50  77 107 139 180 226 267 317
#     4   9  16  28  48  73 100 134 178 222 266 314
#     4  10  20  33  52  76 105 142 182 224 274 330
#     4  11  21  35  58  86 112 142 182 228 275 327
#     4   9  18  34  54  77 106 141 179 222 273 330
#     4   9  17  32  53  79 108 138 172 219 272 321
#
# _framework density 17.399619999999999
#
# number of rings (size 3 to 8) (size 9 to 14) (size 15 to 20)
#    0.000    2.250    1.250    5.250    0.000    0.500 
#    0.000    0.000    2.750    0.000    0.000    0.000 
#    0.000    0.000    0.000    0.000    0.000    0.000 
#
# Total GULP energy -356806.257542 kJ/mol
# GULP energy per Si atom -5575.097774 kJ/mol
# Density = 1.736002 g / cm^3
# Si number density = 17.399620 Si / 1000 Ang^3
#
#
#
# Elastic Constant Matrix: (Units=GPa)
#
#
# Indices 1 2 3 4 5 6 
#
# 1 208.8954 61.9913 68.6435 0.0000 0.0000 0.0000
# 2 61.9913 75.8104 30.7620 0.0000 0.0000 0.0000
# 3 68.6435 30.7620 54.8789 0.0000 0.0000 0.0000
# 4 0.0000 0.0000 0.0000 18.9890 0.0000 0.0000
# 5 0.0000 0.0000 0.0000 0.0000 26.1075 0.0000
# 6 0.0000 0.0000 0.0000 0.0000 0.0000 25.5484
#
#
#
# Elastic Compliance Matrix: (Units=1/GPa)
#
#
# Indices 1 2 3 4 5 6 
#
# 1 0.008803 -0.003534 -0.009030 0.000000 0.000000 0.000000
# 2 -0.003534 0.018493 -0.005946 0.000000 0.000000 0.000000
# 3 -0.009030 -0.005946 0.032850 0.000000 0.000000 0.000000
# 4 0.000000 0.000000 0.000000 0.052662 0.000000 0.000000
# 5 0.000000 0.000000 0.000000 0.000000 0.038303 0.000000
# 6 0.000000 0.000000 0.000000 0.000000 0.000000 0.039141
#
#
# Mechanical properties :
#
#
# Convention : Reuss Voigt Hill
#
# Bulk Modulus (GPa) = 43.24070 73.59760 58.41915
# Shear Modulus (GPa) = 21.27826 26.00818 23.64322
#
# Velocity S-wave (km/s) = 3.50081 3.87040 3.69024
# Velocity P-wave (km/s) = 6.42234 7.89706 7.19757
#
# Compressibility (1/GPa) = 0.02312636
#
# Stress axis : x y z
#
# Youngs Moduli (GPa) = 113.59467 54.07323 30.44175
#
# Poissons Ratio (x) = 0.19111 0.27489
# Poissons Ratio (y) = 0.40148 0.18099
# Poissons Ratio (z) = 1.02577 0.32149
#
# Static dielectric constant tensor:
#      x y z
#    x 1.634360 0.000000 0.000000 
#    y 0.000000 1.591370 0.000000 
#    z 0.000000 0.000000 1.551940 
# 
# From -- ./inp_files/24741.got.cif
#   From: 2010.05.17/outbox.cif.g08.bks.cpg/sg62_13_cif.got.tgz:24741.got - 2010.06.03 15:25:27.
