data_PCOD9463086
_publ_section_title
;
Structure prediction by ZEFSAII (Michael W. Deem and Ramdas Pophale) SiO2 
 PCOD9463086
Probable space group: P N M A
;
_chemical_formula_sum "Si O2"
_cell_formula_units_Z 56
_cell_length_a 9.747869
_cell_length_b 16.340738
_cell_length_c 16.116213
_cell_angle_alpha 90.000000
_cell_angle_beta 90.000000
_cell_angle_gamma 90.000000
_cell_volume 2567.109238
_symmetry_space_group_name_H-M "P N M A"
_symmetry_group_IT_number 62
_symmetry_cell_setting 'orthorhombic'
loop_
_space_group_symop_operation_xyz
x,y,z
1/2-x,-y,1/2+z
1/2+x,1/2-y,1/2-z
-x,1/2+y,-z
-x,-y,-z
1/2+x,y,1/2-z
1/2-x,1/2+y,1/2+z
x,1/2-y,z
loop_
_atom_site_type_symbol
_atom_site_label
_atom_site_fract_x
_atom_site_fract_y
_atom_site_fract_z
Si Si1 0.000452 0.528947 0.617429
Si Si2 0.953494 0.442547 0.193061
Si Si3 0.863228 0.164830 0.896910
Si Si4 0.695914 0.009469 0.416650
Si Si5 0.946072 0.159835 0.652603
Si Si6 0.870707 0.871263 0.186146
Si Si7 0.275502 0.401006 0.439662
O O1 0.999046 0.560161 0.712619
O O2 0.973986 0.430210 0.612595
O O3 0.882722 0.577330 0.570013
O O4 0.153215 0.545023 0.585585
O O5 0.083303 0.439900 0.131565
O O6 0.878248 0.530675 0.188251
O O7 0.843131 0.384735 0.148866
O O8 0.820885 0.250000 0.856203
O O9 0.026989 0.156296 0.887949
O O10 0.803200 0.078215 0.865878
O O11 0.811421 0.164560 0.991069
O O12 0.662690 0.981155 0.510382
O O13 0.969083 0.250000 0.611462
O O14 0.784960 0.156275 0.676966
O O15 0.044943 0.158037 0.733114
#
# Coordination Sequence:
#
# PCOD9463086 Si02
#       7
#     8   8   8   8   8   8   8
#     4  11  21  34  51  81 109 134 177 217 263 307
#     4  10  19  34  53  77 101 139 170 215 260 311
#     4   9  20  34  53  73 100 135 177 216 261 312
#     4   9  21  32  53  75 104 138 172 219 255 311
#     4  11  22  32  49  73 112 148 177 209 247 307
#     4  10  21  34  49  73 108 144 180 209 248 306
#     4  10  20  35  56  75 104 135 177 219 261 314
#
# _framework density 21.814419000000001
#
# number of rings (size 3 to 8) (size 9 to 14) (size 15 to 20)
#    0.857    1.143    1.429    3.000   10.000    0.571 
#    0.000    0.000    0.000    0.857    0.000    0.000 
#    0.000    0.000    0.000    0.000    0.000    0.000 
#
# Total GULP energy -311990.947480 kJ/mol
# GULP energy per Si atom -5571.266919 kJ/mol
# Density = 2.176477 g / cm^3
# Si number density = 21.814419 Si / 1000 Ang^3
#
#
#
# Elastic Constant Matrix: (Units=GPa)
#
#
# Indices 1 2 3 4 5 6 
#
# 1 129.2989 8.2674 17.6568 0.0000 0.0000 0.0000
# 2 8.2674 24.9048 -11.2001 0.0000 0.0000 0.0000
# 3 17.6568 -11.2001 70.3924 0.0000 0.0000 0.0000
# 4 0.0000 0.0000 0.0000 0.5133 0.0000 0.0000
# 5 0.0000 0.0000 0.0000 0.0000 30.4778 0.0000
# 6 0.0000 0.0000 0.0000 0.0000 0.0000 -18.9741
#
#
#
# Elastic Compliance Matrix: (Units=1/GPa)
#
#
# Indices 1 2 3 4 5 6 
#
# 1 0.008364 -0.004007 -0.002735 0.000000 0.000000 0.000000
# 2 -0.004007 0.045167 0.008191 0.000000 0.000000 0.000000
# 3 -0.002735 0.008191 0.016196 0.000000 0.000000 0.000000
# 4 0.000000 0.000000 0.000000 1.948183 0.000000 0.000000
# 5 0.000000 0.000000 0.000000 0.000000 0.032811 0.000000
# 6 0.000000 0.000000 0.000000 0.000000 0.000000 -0.052703
#
#
# Mechanical properties :
#
#
# Convention : Reuss Voigt Hill
#
# Bulk Modulus (GPa) = 13.76936 28.22713 20.99824
# Shear Modulus (GPa) = 2.47607 16.39487 9.43547
#
# Velocity S-wave (km/s) = 1.06655 2.74444 2.08200
# Velocity P-wave (km/s) = 2.80044 4.79691 3.92764
#
# Compressibility (1/GPa) = 0.07262503
#
# Stress axis : x y z
#
# Youngs Moduli (GPa) = 119.56376 22.14019 61.74534
#
# Poissons Ratio (x) = 0.08871 0.16890
# Poissons Ratio (y) = 0.47904 -0.50579
# Poissons Ratio (z) = 0.32705 -0.18136
#
# Static dielectric constant tensor:
#      x y z
#    x 1.810810 0.000000 0.000000 
#    y 0.000000 1.808110 0.000000 
#    z 0.000000 0.000000 1.877070 
# 
# From -- ./inp_files/22511.got.cif
#   From: 2010.05.17/outbox.cif.g08.bks.cpg/sg62_12_cif.got.tgz:22511.got - 2010.06.03 15:25:27.
