data_PCOD9463998
_publ_section_title
;
Structure prediction by ZEFSAII (Michael W. Deem and Ramdas Pophale) SiO2 
 PCOD9463998
Probable space group: P N M A
;
_chemical_formula_sum "Si O2"
_cell_formula_units_Z 56
_cell_length_a 22.056857
_cell_length_b 8.226505
_cell_length_c 14.983205
_cell_angle_alpha 90.000000
_cell_angle_beta 90.000000
_cell_angle_gamma 90.000000
_cell_volume 2718.715199
_symmetry_space_group_name_H-M "P N M A"
_symmetry_group_IT_number 62
_symmetry_cell_setting 'orthorhombic'
loop_
_space_group_symop_operation_xyz
x,y,z
1/2-x,-y,1/2+z
1/2+x,1/2-y,1/2-z
-x,1/2+y,-z
-x,-y,-z
1/2+x,y,1/2-z
1/2-x,1/2+y,1/2+z
x,1/2-y,z
loop_
_atom_site_type_symbol
_atom_site_label
_atom_site_fract_x
_atom_site_fract_y
_atom_site_fract_z
Si Si1 0.563482 0.058420 0.614425
Si Si2 0.694027 0.555913 0.910328
Si Si3 0.810195 0.949247 0.800858
Si Si4 0.576725 0.941364 0.803992
Si Si5 0.331873 0.940710 0.896042
Si Si6 0.573262 0.052956 0.413407
Si Si7 0.033010 0.560268 0.410237
O O1 0.573519 0.250000 0.625817
O O2 0.587500 0.009807 0.516533
O O3 0.590039 0.967756 0.699923
O O4 0.491457 0.022340 0.610864
O O5 0.693110 0.750000 0.898324
O O6 0.753034 0.494349 0.858577
O O7 0.631813 0.495317 0.864988
O O8 0.694103 0.520003 0.014859
O O9 0.810378 0.750000 0.800327
O O10 0.807581 0.004340 0.698504
O O11 0.873019 0.997717 0.847862
O O12 0.567838 0.750000 0.821734
O O13 0.514836 0.029893 0.831424
O O14 0.318950 0.750000 0.901116
O O15 0.404376 0.967073 0.895927
O O16 0.566892 0.250000 0.409533
O O17 0.952735 0.250000 0.580716
O O18 0.000000 0.500000 0.500000
#
# Coordination Sequence:
#
# PCOD9463998 Si02
#       7
#     8   8   8   8   8   8   8
#     4  10  20  33  55  86 116 147 188 240 292 349
#     4  10  22  40  59  80 113 154 197 239 288 350
#     4   9  20  39  61  83 111 154 200 242 293 352
#     4  11  22  36  56  83 117 157 194 236 295 353
#     4  11  22  38  62  90 120 153 197 248 301 356
#     4   9  18  36  59  82 112 150 192 239 296 353
#     4  12  23  37  60  89 121 154 192 241 300 358
#
# _framework density 20.597964000000001
#
# number of rings (size 3 to 8) (size 9 to 14) (size 15 to 20)
#    0.000    1.714    1.429    3.429    0.000    3.429 
#    0.000    2.857    0.000    0.000    0.000    0.000 
#    0.000    0.000    0.000    0.000    0.000    0.000 
#
# Total GULP energy -312990.553463 kJ/mol
# GULP energy per Si atom -5589.117026 kJ/mol
# Density = 2.055108 g / cm^3
# Si number density = 20.597964 Si / 1000 Ang^3
#
#
#
# Elastic Constant Matrix: (Units=GPa)
#
#
# Indices 1 2 3 4 5 6 
#
# 1 59.0819 -11.0631 40.4631 0.0000 0.0000 0.0000
# 2 -11.0631 7.4503 -8.4031 0.0000 0.0000 0.0000
# 3 40.4631 -8.4031 144.0818 0.0000 0.0000 0.0000
# 4 0.0000 0.0000 0.0000 31.2753 0.0000 0.0000
# 5 0.0000 0.0000 0.0000 0.0000 27.8460 0.0000
# 6 0.0000 0.0000 0.0000 0.0000 0.0000 14.1247
#
#
#
# Elastic Compliance Matrix: (Units=1/GPa)
#
#
# Indices 1 2 3 4 5 6 
#
# 1 0.027148 0.033946 -0.005644 0.000000 0.000000 0.000000
# 2 0.033946 0.186120 0.001322 0.000000 0.000000 0.000000
# 3 -0.005644 0.001322 0.008603 0.000000 0.000000 0.000000
# 4 0.000000 0.000000 0.000000 0.031974 0.000000 0.000000
# 5 0.000000 0.000000 0.000000 0.000000 0.035912 0.000000
# 6 0.000000 0.000000 0.000000 0.000000 0.000000 0.070798
#
#
# Mechanical properties :
#
#
# Convention : Reuss Voigt Hill
#
# Bulk Modulus (GPa) = 3.55724 28.06753 15.81239
# Shear Modulus (GPa) = 12.65783 27.29035 19.97409
#
# Velocity S-wave (km/s) = 2.48164 3.64387 3.11740
# Velocity P-wave (km/s) = 3.15311 5.59997 4.54433
#
# Compressibility (1/GPa) = 0.28111649
#
# Stress axis : x y z
#
# Youngs Moduli (GPa) = 36.83574 5.37289 116.24307
#
# Poissons Ratio (x) = -0.18239 0.65610
# Poissons Ratio (y) = -1.25042 -0.15363
# Poissons Ratio (z) = 0.20791 -0.00710
#
# Static dielectric constant tensor:
#      x y z
#    x 1.706440 0.000000 0.000000 
#    y 0.000000 1.722320 0.000000 
#    z 0.000000 0.000000 1.754330 
# 
# From -- ./inp_files/20444.got.cif
#   From: 2010.05.17/outbox.cif.g08.bks.cpg/sg62_11_cif.got.tgz:20444.got - 2010.06.03 15:25:27.
