data_PCOD9463704
_publ_section_title
;
Structure prediction by ZEFSAII (Michael W. Deem and Ramdas Pophale) SiO2 
 PCOD9463704
Probable space group: P N M A
;
_chemical_formula_sum "Si O2"
_cell_formula_units_Z 32
_cell_length_a 9.489690
_cell_length_b 14.855349
_cell_length_c 9.909627
_cell_angle_alpha 90.000000
_cell_angle_beta 90.000000
_cell_angle_gamma 90.000000
_cell_volume 1396.986447
_symmetry_space_group_name_H-M "P N M A"
_symmetry_group_IT_number 62
_symmetry_cell_setting 'orthorhombic'
loop_
_space_group_symop_operation_xyz
x,y,z
1/2-x,-y,1/2+z
1/2+x,1/2-y,1/2-z
-x,1/2+y,-z
-x,-y,-z
1/2+x,y,1/2-z
1/2-x,1/2+y,1/2+z
x,1/2-y,z
loop_
_atom_site_type_symbol
_atom_site_label
_atom_site_fract_x
_atom_site_fract_y
_atom_site_fract_z
Si Si1 0.811409 0.354638 0.183399
Si Si2 0.902858 0.389250 0.893058
Si Si3 0.963569 0.968942 0.688391
Si Si4 0.579185 0.153671 0.846484
O O1 0.786120 0.250000 0.214322
O O2 0.668127 0.408004 0.148550
O O3 0.898018 0.408445 0.296123
O O4 0.904356 0.363439 0.048034
O O5 0.922818 0.490901 0.838319
O O6 0.745969 0.360697 0.846841
O O7 0.023996 0.342248 0.806868
O O8 0.998494 0.062221 0.609002
O O9 0.546816 0.250000 0.913874
#
# Coordination Sequence:
#
# PCOD9463704 Si02
#       4
#     8   8   8   8
#     4  12  23  41  62  86 123 164 197 241 299 353
#     4  10  22  39  61  88 118 156 197 245 298 345
#     4  10  22  41  58  90 120 156 199 247 288 356
#     4  10  19  38  62  90 120 150 198 252 296 347
#
# _framework density 22.906448999999999
#
# number of rings (size 3 to 8) (size 9 to 14) (size 15 to 20)
#    1.500    0.000    2.500    3.750    0.000    1.000 
#    0.000    0.000    0.000    0.000    0.000    0.000 
#    0.000    0.000    0.000    0.000    0.000    0.000 
#
# Total GULP energy -178284.631538 kJ/mol
# GULP energy per Si atom -5571.394736 kJ/mol
# Density = 2.285431 g / cm^3
# Si number density = 22.906449 Si / 1000 Ang^3
#
#
#
# Elastic Constant Matrix: (Units=GPa)
#
#
# Indices 1 2 3 4 5 6 
#
# 1 80.5651 56.1402 10.7928 0.0000 0.0000 0.0000
# 2 56.1402 216.3497 19.7009 0.0000 0.0000 0.0000
# 3 10.7928 19.7009 21.8544 0.0000 0.0000 0.0000
# 4 0.0000 0.0000 0.0000 -3.5507 0.0000 0.0000
# 5 0.0000 0.0000 0.0000 0.0000 30.3096 0.0000
# 6 0.0000 0.0000 0.0000 0.0000 0.0000 -23.4010
#
#
#
# Elastic Compliance Matrix: (Units=1/GPa)
#
#
# Indices 1 2 3 4 5 6 
#
# 1 0.015531 -0.003630 -0.004398 0.000000 0.000000 0.000000
# 2 -0.003630 0.005884 -0.003512 0.000000 0.000000 0.000000
# 3 -0.004398 -0.003512 0.051095 0.000000 0.000000 0.000000
# 4 0.000000 0.000000 0.000000 -0.281632 0.000000 0.000000
# 5 0.000000 0.000000 0.000000 0.000000 0.032993 0.000000
# 6 0.000000 0.000000 0.000000 0.000000 0.000000 -0.042733
#
#
# Mechanical properties :
#
#
# Convention : Reuss Voigt Hill
#
# Bulk Modulus (GPa) = 20.23011 54.67077 37.45044
# Shear Modulus (GPa) = -27.88491 16.14726 -5.86882
#
# Velocity S-wave (km/s) = -3.49282 2.65792 -1.60239
# Velocity P-wave (km/s) = 2.72316 5.77392 3.60018
#
# Compressibility (1/GPa) = 0.04943126
#
# Stress axis : x y z
#
# Youngs Moduli (GPa) = 64.38881 169.96019 19.57145
#
# Poissons Ratio (x) = 0.61688 0.08607
# Poissons Ratio (y) = 0.23370 0.06873
# Poissons Ratio (z) = 0.28318 0.59682
#
# Static dielectric constant tensor:
#      x y z
#    x 1.784160 0.000000 0.000000 
#    y 0.000000 1.834310 0.000000 
#    z 0.000000 0.000000 1.947310 
# 
# From -- ./inp_files/10937.got.cif
#   From: 2010.05.17/outbox.cif.g08.bks.cpg/sg62_6_cif.got.tgz:10937.got - 2010.06.03 15:25:27.
