data_PCOD9463938
_publ_section_title
;
Structure prediction by ZEFSAII (Michael W. Deem and Ramdas Pophale) SiO2 
 PCOD9463938
Probable space group: P N M A
;
_chemical_formula_sum "Si O2"
_cell_formula_units_Z 56
_cell_length_a 14.413464
_cell_length_b 7.591858
_cell_length_c 24.262279
_cell_angle_alpha 90.000000
_cell_angle_beta 90.000000
_cell_angle_gamma 90.000000
_cell_volume 2654.899200
_symmetry_space_group_name_H-M "P N M A"
_symmetry_group_IT_number 62
_symmetry_cell_setting 'orthorhombic'
loop_
_space_group_symop_operation_xyz
x,y,z
1/2-x,-y,1/2+z
1/2+x,1/2-y,1/2-z
-x,1/2+y,-z
-x,-y,-z
1/2+x,y,1/2-z
1/2-x,1/2+y,1/2+z
x,1/2-y,z
loop_
_atom_site_type_symbol
_atom_site_label
_atom_site_fract_x
_atom_site_fract_y
_atom_site_fract_z
Si Si1 0.572743 0.955891 0.328492
Si Si2 0.719576 0.032546 0.835260
Si Si3 0.111582 0.456684 0.560197
Si Si4 0.031290 0.959657 0.938292
Si Si5 0.283750 0.037882 0.380277
Si Si6 0.391237 0.959841 0.270098
Si Si7 0.403139 0.535990 0.935169
O O1 0.579917 0.750000 0.314066
O O2 0.675909 0.029027 0.323979
O O3 0.490047 0.033203 0.291052
O O4 0.537136 0.967261 0.391477
O O5 0.719825 0.250000 0.835723
O O6 0.681754 0.971949 0.894409
O O7 0.650783 0.973777 0.786825
O O8 0.132564 0.250000 0.554790
O O9 0.114154 0.528217 0.498016
O O10 0.005900 0.476289 0.581047
O O11 0.030830 0.750000 0.931629
O O12 0.135103 0.022420 0.922363
O O13 0.000000 0.000000 0.000000
O O14 0.281176 0.250000 0.383039
O O15 0.181952 0.975429 0.397457
O O16 0.318564 0.988111 0.319727
O O17 0.402459 0.750000 0.264061
O O18 0.405038 0.750000 0.935520
#
# Coordination Sequence:
#
# PCOD9463938 Si02
#       7
#     8   8   8   8   8   8   8
#     4   9  18  33  52  73 104 138 171 212 255 302
#     4   9  18  32  54  78 102 137 175 211 260 308
#     4   9  18  32  51  74 100 131 169 211 254 303
#     4  10  20  33  51  76 104 133 168 209 256 311
#     4   9  19  34  52  72  99 137 170 201 254 317
#     4   9  18  33  51  76 103 129 172 219 249 291
#     4   9  18  33  51  72 101 133 167 207 252 306
#
# _framework density 21.09308
#
# number of rings (size 3 to 8) (size 9 to 14) (size 15 to 20)
#    0.000    2.857    0.000    0.429    2.000    2.286 
#    0.000    5.000    0.000    3.429    0.000    0.000 
#    0.000    0.000    0.000    0.000    0.000    0.000 
#
# Total GULP energy -312449.862786 kJ/mol
# GULP energy per Si atom -5579.461835 kJ/mol
# Density = 2.104507 g / cm^3
# Si number density = 21.093080 Si / 1000 Ang^3
#
#
#
# Elastic Constant Matrix: (Units=GPa)
#
#
# Indices 1 2 3 4 5 6 
#
# 1 112.6077 -2.4656 34.7920 0.0000 0.0000 0.0000
# 2 -2.4656 43.4231 -6.6876 0.0000 0.0000 0.0000
# 3 34.7920 -6.6876 32.9979 0.0000 0.0000 0.0000
# 4 0.0000 0.0000 0.0000 10.4834 0.0000 0.0000
# 5 0.0000 0.0000 0.0000 0.0000 15.5721 0.0000
# 6 0.0000 0.0000 0.0000 0.0000 0.0000 16.2077
#
#
#
# Elastic Compliance Matrix: (Units=1/GPa)
#
#
# Indices 1 2 3 4 5 6 
#
# 1 0.013258 -0.001445 -0.014272 0.000000 0.000000 0.000000
# 2 -0.001445 0.023929 0.006373 0.000000 0.000000 0.000000
# 3 -0.014272 0.006373 0.046645 0.000000 0.000000 0.000000
# 4 0.000000 0.000000 0.000000 0.095389 0.000000 0.000000
# 5 0.000000 0.000000 0.000000 0.000000 0.064217 0.000000
# 6 0.000000 0.000000 0.000000 0.000000 0.000000 0.061699
#
#
# Mechanical properties :
#
#
# Convention : Reuss Voigt Hill
#
# Bulk Modulus (GPa) = 15.35066 26.70070 21.02568
# Shear Modulus (GPa) = 14.47014 19.34531 16.90772
#
# Velocity S-wave (km/s) = 2.62203 3.03172 2.83428
# Velocity P-wave (km/s) = 4.05710 4.99410 4.54979
#
# Compressibility (1/GPa) = 0.06514379
#
# Stress axis : x y z
#
# Youngs Moduli (GPa) = 75.42435 41.79079 21.43871
#
# Poissons Ratio (x) = 0.06040 0.30597
# Poissons Ratio (y) = 0.10900 -0.13664
# Poissons Ratio (z) = 1.07646 -0.26635
#
# Static dielectric constant tensor:
#      x y z
#    x 1.759250 0.000000 0.000000 
#    y 0.000000 1.840650 0.000000 
#    z 0.000000 0.000000 1.737170 
# 
# From -- ./inp_files/27278.got.cif
#   From: 2010.05.17/outbox.cif.g08.bks.cpg/sg62_14_cif.got.tgz:27278.got - 2010.06.03 15:25:27.
