data_PCOD9463265
_publ_section_title
;
Structure prediction by ZEFSAII (Michael W. Deem and Ramdas Pophale) SiO2 
 PCOD9463265
Probable space group: P N M A
;
_chemical_formula_sum "Si O2"
_cell_formula_units_Z 48
_cell_length_a 9.199297
_cell_length_b 20.697569
_cell_length_c 10.320061
_cell_angle_alpha 90.000000
_cell_angle_beta 90.000000
_cell_angle_gamma 90.000000
_cell_volume 1964.971446
_symmetry_space_group_name_H-M "P N M A"
_symmetry_group_IT_number 62
_symmetry_cell_setting 'orthorhombic'
loop_
_space_group_symop_operation_xyz
x,y,z
1/2-x,-y,1/2+z
1/2+x,1/2-y,1/2-z
-x,1/2+y,-z
-x,-y,-z
1/2+x,y,1/2-z
1/2-x,1/2+y,1/2+z
x,1/2-y,z
loop_
_atom_site_type_symbol
_atom_site_label
_atom_site_fract_x
_atom_site_fract_y
_atom_site_fract_z
Si Si1 0.537429 0.750000 0.946200
Si Si2 0.044911 0.355953 0.066579
Si Si3 0.519983 0.985224 0.698601
Si Si4 0.812022 0.358953 0.601335
Si Si5 0.675376 0.603572 0.388949
Si Si6 0.322600 0.750000 0.740400
Si Si7 0.330138 0.990347 0.929665
O O1 0.374863 0.750000 0.888971
O O2 0.662412 0.750000 0.828498
O O3 0.570894 0.688026 0.036262
O O4 0.055013 0.429645 0.113661
O O5 0.092312 0.312029 0.184407
O O6 0.158022 0.337959 0.956061
O O7 0.886115 0.351795 0.003662
O O8 0.470369 0.972818 0.844791
O O9 0.689491 0.981599 0.665768
O O10 0.453626 0.053318 0.652882
O O11 0.796484 0.359806 0.756195
O O12 0.835244 0.432573 0.554414
O O13 0.797597 0.556885 0.450290
#
# Coordination Sequence:
#
# PCOD9463265 Si02
#       7
#     4   8   8   8   8   4   8
#     4  10  24  47  68  92 122 167 212 262 308 378
#     4  10  19  40  59  86 127 168 206 254 322 369
#     4  10  19  34  62  88 127 163 207 257 313 370
#     4  10  20  37  62  90 125 164 210 257 312 374
#     4  10  19  35  60  90 128 164 207 250 323 378
#     4  10  24  41  70  88 118 167 214 254 318 366
#     4  10  19  37  62  94 124 168 209 257 318 374
#
# _framework density 24.427835999999999
#
# number of rings (size 3 to 8) (size 9 to 14) (size 15 to 20)
#    0.000    2.000    3.333    1.000    0.000    6.000 
#    0.000    8.333    0.000    1.000    0.000    0.000 
#    0.000    0.000    0.000    0.000    0.000    0.000 
#
# Total GULP energy -268322.887808 kJ/mol
# GULP energy per Si atom -5590.060163 kJ/mol
# Density = 2.437224 g / cm^3
# Si number density = 24.427836 Si / 1000 Ang^3
#
#
#
# Elastic Constant Matrix: (Units=GPa)
#
#
# Indices 1 2 3 4 5 6 
#
# 1 74.1947 3.2185 34.2156 0.0000 0.0000 0.0000
# 2 3.2185 30.7578 17.4389 0.0000 0.0000 0.0000
# 3 34.2156 17.4389 83.5570 0.0000 0.0000 0.0000
# 4 0.0000 0.0000 0.0000 23.1085 0.0000 0.0000
# 5 0.0000 0.0000 0.0000 0.0000 49.5904 0.0000
# 6 0.0000 0.0000 0.0000 0.0000 0.0000 23.3372
#
#
#
# Elastic Compliance Matrix: (Units=1/GPa)
#
#
# Indices 1 2 3 4 5 6 
#
# 1 0.016774 0.002426 -0.007375 0.000000 0.000000 0.000000
# 2 0.002426 0.037227 -0.008763 0.000000 0.000000 0.000000
# 3 -0.007375 -0.008763 0.016817 0.000000 0.000000 0.000000
# 4 0.000000 0.000000 0.000000 0.043274 0.000000 0.000000
# 5 0.000000 0.000000 0.000000 0.000000 0.020165 0.000000
# 6 0.000000 0.000000 0.000000 0.000000 0.000000 0.042850
#
#
# Mechanical properties :
#
#
# Convention : Reuss Voigt Hill
#
# Bulk Modulus (GPa) = 23.04485 33.13953 28.09219
# Shear Modulus (GPa) = 22.83159 28.11630 25.47394
#
# Velocity S-wave (km/s) = 3.06053 3.39631 3.23278
# Velocity P-wave (km/s) = 4.68438 5.38290 5.04575
#
# Compressibility (1/GPa) = 0.04339363
#
# Stress axis : x y z
#
# Youngs Moduli (GPa) = 59.61644 26.86254 59.46437
#
# Poissons Ratio (x) = -0.06518 0.43856
# Poissons Ratio (y) = -0.14465 0.52108
# Poissons Ratio (z) = 0.43968 0.23540
#
# Static dielectric constant tensor:
#      x y z
#    x 1.982650 0.000000 0.000000 
#    y 0.000000 1.957960 0.000000 
#    z 0.000000 0.000000 2.031320 
# 
# From -- ./inp_files/5352.got.cif
#   From: 2010.05.17/outbox.cif.g08.bks.cpg/sg62_3_cif.got.tgz:5352.got - 2010.06.03 15:25:27.
