data_PCOD9463040
_publ_section_title
;
Structure prediction by ZEFSAII (Michael W. Deem and Ramdas Pophale) SiO2 
 PCOD9463040
Probable space group: P N M A
;
_chemical_formula_sum "Si O2"
_cell_formula_units_Z 40
_cell_length_a 7.955162
_cell_length_b 13.232142
_cell_length_c 21.293742
_cell_angle_alpha 90.000000
_cell_angle_beta 90.000000
_cell_angle_gamma 90.000000
_cell_volume 2241.460906
_symmetry_space_group_name_H-M "P N M A"
_symmetry_group_IT_number 62
_symmetry_cell_setting 'orthorhombic'
loop_
_space_group_symop_operation_xyz
x,y,z
1/2-x,-y,1/2+z
1/2+x,1/2-y,1/2-z
-x,1/2+y,-z
-x,-y,-z
1/2+x,y,1/2-z
1/2-x,1/2+y,1/2+z
x,1/2-y,z
loop_
_atom_site_type_symbol
_atom_site_label
_atom_site_fract_x
_atom_site_fract_y
_atom_site_fract_z
Si Si1 0.848379 0.487365 0.589241
Si Si2 0.483605 0.460400 0.570870
Si Si3 0.152310 0.366896 0.532939
Si Si4 0.371537 0.635000 0.664972
Si Si5 0.525349 0.134442 0.192659
O O1 0.671078 0.429106 0.590457
O O2 0.844577 0.567519 0.531245
O O3 0.876169 0.553181 0.651503
O O4 0.003537 0.413865 0.574890
O O5 0.500000 0.500000 0.500000
O O6 0.330240 0.382316 0.568120
O O7 0.431331 0.553539 0.615090
O O8 0.122582 0.250000 0.518817
O O9 0.413261 0.750000 0.645260
O O10 0.452855 0.617151 0.733222
O O11 0.170337 0.628864 0.673786
O O12 0.584579 0.250000 0.180492
#
# Coordination Sequence:
#
# PCOD9463040 Si02
#       5
#     8   8   8   8   8
#     4  10  20  36  57  85 113 150 186 232 289 331
#     4  10  21  36  54  81 115 152 189 230 281 334
#     4  10  21  37  56  81 114 150 194 234 275 336
#     4  10  20  34  55  87 119 149 185 230 288 351
#     4  10  19  33  57  88 120 149 182 230 292 350
#
# _framework density 17.845504999999999
#
# number of rings (size 3 to 8) (size 9 to 14) (size 15 to 20)
#    0.000    2.000    2.000    1.800    0.000    6.400 
#    0.000    0.000    0.000    1.200    0.000    0.000 
#    0.000    0.000    0.000    0.000    0.000    0.000 
#
# Total GULP energy -223198.088502 kJ/mol
# GULP energy per Si atom -5579.952213 kJ/mol
# Density = 1.780489 g / cm^3
# Si number density = 17.845505 Si / 1000 Ang^3
#
#
#
# Elastic Constant Matrix: (Units=GPa)
#
#
# Indices 1 2 3 4 5 6 
#
# 1 98.5971 31.5784 13.6592 0.0000 0.0000 0.0000
# 2 31.5784 59.0302 13.3563 0.0000 0.0000 0.0000
# 3 13.6592 13.3563 48.7048 0.0000 0.0000 0.0000
# 4 0.0000 0.0000 0.0000 23.5881 0.0000 0.0000
# 5 0.0000 0.0000 0.0000 0.0000 28.7341 0.0000
# 6 0.0000 0.0000 0.0000 0.0000 0.0000 9.0065
#
#
#
# Elastic Compliance Matrix: (Units=1/GPa)
#
#
# Indices 1 2 3 4 5 6 
#
# 1 0.012380 -0.006223 -0.001765 0.000000 0.000000 0.000000
# 2 -0.006223 0.021189 -0.004065 0.000000 0.000000 0.000000
# 3 -0.001765 -0.004065 0.022142 0.000000 0.000000 0.000000
# 4 0.000000 0.000000 0.000000 0.042394 0.000000 0.000000
# 5 0.000000 0.000000 0.000000 0.000000 0.034802 0.000000
# 6 0.000000 0.000000 0.000000 0.000000 0.000000 0.111031
#
#
# Mechanical properties :
#
#
# Convention : Reuss Voigt Hill
#
# Bulk Modulus (GPa) = 31.64244 35.94664 33.79454
# Shear Modulus (GPa) = 17.94809 22.11495 20.03152
#
# Velocity S-wave (km/s) = 3.17479 3.52411 3.35400
# Velocity P-wave (km/s) = 5.58649 6.06186 5.82902
#
# Compressibility (1/GPa) = 0.03160312
#
# Stress axis : x y z
#
# Youngs Moduli (GPa) = 80.77524 47.19319 45.16345
#
# Poissons Ratio (x) = 0.29370 0.07973
# Poissons Ratio (y) = 0.50269 0.18361
# Poissons Ratio (z) = 0.14260 0.19186
#
# Static dielectric constant tensor:
#      x y z
#    x 1.664410 0.000000 0.000000 
#    y 0.000000 -0.345350 0.000000 
#    z 0.000000 0.000000 1.591170 
# 
# From -- ./inp_files/21919.got.cif
#   From: 2010.05.17/outbox.cif.g08.bks.cpg/sg62_11_cif.got.tgz:21919.got - 2010.06.03 15:25:27.
