data_PCOD9463971
_publ_section_title
;
Structure prediction by ZEFSAII (Michael W. Deem and Ramdas Pophale) SiO2 
 PCOD9463971
Probable space group: P N M A
;
_chemical_formula_sum "Si O2"
_cell_formula_units_Z 56
_cell_length_a 15.135985
_cell_length_b 7.836918
_cell_length_c 22.449806
_cell_angle_alpha 90.000000
_cell_angle_beta 90.000000
_cell_angle_gamma 90.000000
_cell_volume 2662.984163
_symmetry_space_group_name_H-M "P N M A"
_symmetry_group_IT_number 62
_symmetry_cell_setting 'orthorhombic'
loop_
_space_group_symop_operation_xyz
x,y,z
1/2-x,-y,1/2+z
1/2+x,1/2-y,1/2-z
-x,1/2+y,-z
-x,-y,-z
1/2+x,y,1/2-z
1/2-x,1/2+y,1/2+z
x,1/2-y,z
loop_
_atom_site_type_symbol
_atom_site_label
_atom_site_fract_x
_atom_site_fract_y
_atom_site_fract_z
Si Si1 0.644511 0.044365 0.645268
Si Si2 0.005199 0.543826 0.636179
Si Si3 0.284559 0.452130 0.611428
Si Si4 0.166816 0.953844 0.717188
Si Si5 0.827473 0.454103 0.594992
Si Si6 0.620894 0.949306 0.968326
Si Si7 0.021955 0.544142 0.068772
O O1 0.642806 0.250000 0.640447
O O2 0.732010 0.978351 0.612259
O O3 0.556056 0.981235 0.612571
O O4 0.657810 0.002430 0.714335
O O5 0.006781 0.750000 0.635785
O O6 0.076897 0.485773 0.684369
O O7 0.043987 0.476654 0.573121
O O8 0.904667 0.487718 0.642376
O O9 0.281109 0.250000 0.599895
O O10 0.250796 0.480211 0.679224
O O11 0.210104 0.538666 0.570510
O O12 0.381918 0.514637 0.592519
O O13 0.170194 0.750000 0.712478
O O14 0.818556 0.250000 0.588517
O O15 0.859994 0.528569 0.532150
O O16 0.599646 0.750000 0.976720
O O17 0.023334 0.750000 0.072098
O O18 0.000000 0.500000 0.000000
#
# Coordination Sequence:
#
# PCOD9463971 Si02
#       7
#     8   8   8   8   8   8   8
#     4  10  22  39  56  78 110 146 183 228 275 325
#     4   9  19  34  53  78 108 139 176 219 264 318
#     4  10  20  35  58  86 111 142 184 228 273 326
#     4  10  22  40  58  79 107 143 184 226 276 331
#     4  10  20  33  53  79 107 141 177 213 263 317
#     4   9  18  34  54  80 113 145 175 212 262 322
#     4  10  22  39  60  86 116 150 190 234 284 337
#
# _framework density 21.029039999999998
#
# number of rings (size 3 to 8) (size 9 to 14) (size 15 to 20)
#    0.000    2.286    0.000    3.000    0.000    8.000 
#    0.000    4.286    0.000    0.000    0.000    0.000 
#    0.000    0.000    0.000    0.000    0.000    0.000 
#
# Total GULP energy -312531.412982 kJ/mol
# GULP energy per Si atom -5580.918089 kJ/mol
# Density = 2.098118 g / cm^3
# Si number density = 21.029040 Si / 1000 Ang^3
#
#
#
# Elastic Constant Matrix: (Units=GPa)
#
#
# Indices 1 2 3 4 5 6 
#
# 1 156.6366 -5.5946 46.4558 0.0000 0.0000 0.0000
# 2 -5.5946 27.7287 -9.1294 0.0000 0.0000 0.0000
# 3 46.4558 -9.1294 101.9328 0.0000 0.0000 0.0000
# 4 0.0000 0.0000 0.0000 26.8510 0.0000 0.0000
# 5 0.0000 0.0000 0.0000 0.0000 16.9075 0.0000
# 6 0.0000 0.0000 0.0000 0.0000 0.0000 17.0631
#
#
#
# Elastic Compliance Matrix: (Units=1/GPa)
#
#
# Indices 1 2 3 4 5 6 
#
# 1 0.007386 0.000394 -0.003331 0.000000 0.000000 0.000000
# 2 0.000394 0.037180 0.003151 0.000000 0.000000 0.000000
# 3 -0.003331 0.003151 0.011611 0.000000 0.000000 0.000000
# 4 0.000000 0.000000 0.000000 0.037243 0.000000 0.000000
# 5 0.000000 0.000000 0.000000 0.000000 0.059145 0.000000
# 6 0.000000 0.000000 0.000000 0.000000 0.000000 0.058606
#
#
# Mechanical properties :
#
#
# Convention : Reuss Voigt Hill
#
# Bulk Modulus (GPa) = 17.66668 38.86239 28.26453
# Shear Modulus (GPa) = 21.77578 29.13541 25.45560
#
# Velocity S-wave (km/s) = 3.22143 3.72625 3.48299
# Velocity P-wave (km/s) = 4.71764 6.08553 5.44471
#
# Compressibility (1/GPa) = 0.05660374
#
# Stress axis : x y z
#
# Youngs Moduli (GPa) = 135.38803 26.89582 86.12772
#
# Poissons Ratio (x) = -0.01058 0.28689
# Poissons Ratio (y) = -0.05328 -0.27136
# Poissons Ratio (z) = 0.45098 -0.08474
#
# Static dielectric constant tensor:
#      x y z
#    x 1.766670 0.000000 0.000000 
#    y 0.000000 1.759540 0.000000 
#    z 0.000000 0.000000 1.765620 
# 
# From -- ./inp_files/27142.got.cif
#   From: 2010.05.17/outbox.cif.g08.bks.cpg/sg62_14_cif.got.tgz:27142.got - 2010.06.03 15:25:27.
