data_PCOD9463570
_publ_section_title
;
Structure prediction by ZEFSAII (Michael W. Deem and Ramdas Pophale) SiO2 
 PCOD9463570
Probable space group: P N M A
;
_chemical_formula_sum "Si O2"
_cell_formula_units_Z 64
_cell_length_a 31.555202
_cell_length_b 8.598716
_cell_length_c 12.206657
_cell_angle_alpha 90.000000
_cell_angle_beta 90.000000
_cell_angle_gamma 90.000000
_cell_volume 3312.083760
_symmetry_space_group_name_H-M "P N M A"
_symmetry_group_IT_number 62
_symmetry_cell_setting 'orthorhombic'
loop_
_space_group_symop_operation_xyz
x,y,z
1/2-x,-y,1/2+z
1/2+x,1/2-y,1/2-z
-x,1/2+y,-z
-x,-y,-z
1/2+x,y,1/2-z
1/2-x,1/2+y,1/2+z
x,1/2-y,z
loop_
_atom_site_type_symbol
_atom_site_label
_atom_site_fract_x
_atom_site_fract_y
_atom_site_fract_z
Si Si1 0.879144 0.563533 0.404231
Si Si2 0.932730 0.434954 0.007675
Si Si3 0.952116 0.565159 0.778938
Si Si4 0.303346 0.563200 0.252247
Si Si5 0.791991 0.440000 0.790385
Si Si6 0.627834 0.563915 0.148784
Si Si7 0.954580 0.062122 0.255911
Si Si8 0.832770 0.435172 0.017017
O O1 0.878916 0.750000 0.405447
O O2 0.837619 0.507457 0.337001
O O3 0.877890 0.502904 0.527712
O O4 0.920631 0.507396 0.338927
O O5 0.941413 0.250000 0.998381
O O6 0.944228 0.485321 0.130595
O O7 0.882395 0.459414 0.994599
O O8 0.954696 0.522092 0.907410
O O9 0.947414 0.750000 0.768409
O O10 0.911682 0.484788 0.724504
O O11 0.996578 0.518622 0.723131
O O12 0.302203 0.750000 0.244204
O O13 0.255447 0.505663 0.234540
O O14 0.319272 0.516899 0.371874
O O15 0.792109 0.250000 0.788976
O O16 0.828119 0.490237 0.704636
O O17 0.806438 0.488048 0.911637
O O18 0.628975 0.750000 0.143304
O O19 0.951208 0.250000 0.259914
O O20 0.826564 0.250000 0.030854
#
# Coordination Sequence:
#
# PCOD9463570 Si02
#       8
#     8   8   8   8   8   8   8   8
#     4  11  24  40  60  88 120 153 194 249 300 341
#     4  10  19  36  61  88 120 156 195 234 285 352
#     4  11  23  38  60  90 121 151 193 247 296 343
#     4  10  22  39  59  87 122 153 190 242 295 341
#     4   9  20  39  60  85 118 156 193 236 289 347
#     4  11  23  42  64  83 114 160 201 239 289 353
#     4  10  22  40  61  87 119 158 198 237 288 356
#     4  10  19  36  63  88 116 155 197 236 284 348
#
# _framework density 19.323183
#
# number of rings (size 3 to 8) (size 9 to 14) (size 15 to 20)
#    0.000    1.750    2.500    1.500    1.750    3.000 
#    0.000    1.250    0.000    0.000    0.000    0.000 
#    0.000    0.000    0.000    0.000    0.000    0.000 
#
# Total GULP energy -357539.295208 kJ/mol
# GULP energy per Si atom -5586.551488 kJ/mol
# Density = 1.927920 g / cm^3
# Si number density = 19.323183 Si / 1000 Ang^3
#
#
#
# Elastic Constant Matrix: (Units=GPa)
#
#
# Indices 1 2 3 4 5 6 
#
# 1 83.3961 21.2526 23.9130 0.0000 0.0000 0.0000
# 2 21.2526 13.7654 9.4064 0.0000 0.0000 0.0000
# 3 23.9130 9.4064 102.3102 0.0000 0.0000 0.0000
# 4 0.0000 0.0000 0.0000 32.4564 0.0000 0.0000
# 5 0.0000 0.0000 0.0000 0.0000 7.8544 0.0000
# 6 0.0000 0.0000 0.0000 0.0000 0.0000 19.6453
#
#
#
# Elastic Compliance Matrix: (Units=1/GPa)
#
#
# Indices 1 2 3 4 5 6 
#
# 1 0.020135 -0.029739 -0.001972 0.000000 0.000000 0.000000
# 2 -0.029739 0.121441 -0.004214 0.000000 0.000000 0.000000
# 3 -0.001972 -0.004214 0.010623 0.000000 0.000000 0.000000
# 4 0.000000 0.000000 0.000000 0.030811 0.000000 0.000000
# 5 0.000000 0.000000 0.000000 0.000000 0.127318 0.000000
# 6 0.000000 0.000000 0.000000 0.000000 0.000000 0.050903
#
#
# Mechanical properties :
#
#
# Convention : Reuss Voigt Hill
#
# Bulk Modulus (GPa) = 12.44599 34.29065 23.36832
# Shear Modulus (GPa) = 10.87281 21.65119 16.26200
#
# Velocity S-wave (km/s) = 2.37467 3.35098 2.90415
# Velocity P-wave (km/s) = 3.73814 5.72333 4.83374
#
# Compressibility (1/GPa) = 0.08034714
#
# Stress axis : x y z
#
# Youngs Moduli (GPa) = 49.66431 8.23447 94.13927
#
# Poissons Ratio (x) = 0.24489 0.18564
# Poissons Ratio (y) = 1.47699 0.39672
# Poissons Ratio (z) = 0.09794 0.03470
#
# Static dielectric constant tensor:
#      x y z
#    x 1.681260 0.000000 0.000000 
#    y 0.000000 1.659980 0.000000 
#    z 0.000000 0.000000 1.638940 
# 
# From -- ./inp_files/15886.got.cif
#   From: 2010.05.17/outbox.cif.g08.bks.cpg/sg62_8_cif.got.tgz:15886.got - 2010.06.03 15:25:27.
