data_PCOD9463293
_publ_section_title
;
Structure prediction by ZEFSAII (Michael W. Deem and Ramdas Pophale) SiO2 
 PCOD9463293
Probable space group: P N M A
;
_chemical_formula_sum "Si O2"
_cell_formula_units_Z 60
_cell_length_a 17.931877
_cell_length_b 7.415850
_cell_length_c 17.205033
_cell_angle_alpha 90.000000
_cell_angle_beta 90.000000
_cell_angle_gamma 90.000000
_cell_volume 2287.927182
_symmetry_space_group_name_H-M "P N M A"
_symmetry_group_IT_number 62
_symmetry_cell_setting 'orthorhombic'
loop_
_space_group_symop_operation_xyz
x,y,z
1/2-x,-y,1/2+z
1/2+x,1/2-y,1/2-z
-x,1/2+y,-z
-x,-y,-z
1/2+x,y,1/2-z
1/2-x,1/2+y,1/2+z
x,1/2-y,z
loop_
_atom_site_type_symbol
_atom_site_label
_atom_site_fract_x
_atom_site_fract_y
_atom_site_fract_z
Si Si1 0.008671 0.537507 0.156393
Si Si2 0.568189 0.464103 0.057391
Si Si3 0.595210 0.044065 0.790102
Si Si4 0.385575 0.532722 0.781722
Si Si5 0.321412 0.750000 0.564113
Si Si6 0.220942 0.968154 0.829944
Si Si7 0.611527 0.956167 0.531625
Si Si8 0.185277 0.029092 0.564953
O O1 0.993811 0.750000 0.148589
O O2 0.962960 0.456660 0.230897
O O3 0.963848 0.462867 0.082516
O O4 0.090129 0.523772 0.195628
O O5 0.572481 0.250000 0.063922
O O6 0.562787 0.530407 0.145845
O O7 0.500000 0.500000 0.000000
O O8 0.646244 0.516676 0.017152
O O9 0.572512 0.250000 0.802106
O O10 0.621654 0.973550 0.872614
O O11 0.670080 0.039311 0.738981
O O12 0.383720 0.750000 0.777574
O O13 0.304054 0.473729 0.810051
O O14 0.382651 0.593529 0.538310
O O15 0.257989 0.589872 0.578551
O O16 0.219461 0.750000 0.829814
O O17 0.179252 0.018294 0.910219
O O18 0.623502 0.750000 0.507469
O O19 0.196270 0.250000 0.569277
#
# Coordination Sequence:
#
# PCOD9463293 Si02
#       8
#     8   8   8   8   4   8   8   8
#     4  10  19  35  55  82 113 151 193 234 281 351
#     4  10  21  36  51  73 114 159 201 234 278 338
#     4   9  19  35  55  77 112 148 191 239 290 336
#     4  10  20  34  51  79 114 150 188 233 286 338
#     4  12  22  34  58  82 110 138 196 228 290 342
#     4   9  19  34  55  78 110 147 188 242 294 335
#     4  10  20  37  57  82 115 148 185 241 291 340
#     4  10  22  38  53  80 116 152 193 243 283 339
#
# _framework density 26.224610999999999
#
# number of rings (size 3 to 8) (size 9 to 14) (size 15 to 20)
#    0.000    2.133    0.667    2.400    2.800    4.800 
#    2.400    0.000    0.000    0.000    0.000    0.933 
#    0.000    0.000    0.000    0.000    0.000    0.000 
#
# Total GULP energy -334440.422909 kJ/mol
# GULP energy per Si atom -5574.007048 kJ/mol
# Density = 2.616492 g / cm^3
# Si number density = 26.224611 Si / 1000 Ang^3
#
#
#
# Elastic Constant Matrix: (Units=GPa)
#
#
# Indices 1 2 3 4 5 6 
#
# 1 108.8494 0.0188 16.2250 0.0000 0.0000 0.0000
# 2 0.0188 116.9231 -0.5109 0.0000 0.0000 0.0000
# 3 16.2250 -0.5109 109.8431 0.0000 0.0000 0.0000
# 4 0.0000 0.0000 0.0000 40.0605 0.0000 0.0000
# 5 0.0000 0.0000 0.0000 0.0000 33.5706 0.0000
# 6 0.0000 0.0000 0.0000 0.0000 0.0000 30.3525
#
#
#
# Elastic Compliance Matrix: (Units=1/GPa)
#
#
# Indices 1 2 3 4 5 6 
#
# 1 0.009394 -0.000008 -0.001388 0.000000 0.000000 0.000000
# 2 -0.000008 0.008553 0.000041 0.000000 0.000000 0.000000
# 3 -0.001388 0.000041 0.009309 0.000000 0.000000 0.000000
# 4 0.000000 0.000000 0.000000 0.024962 0.000000 0.000000
# 5 0.000000 0.000000 0.000000 0.000000 0.029788 0.000000
# 6 0.000000 0.000000 0.000000 0.000000 0.000000 0.032946
#
#
# Mechanical properties :
#
#
# Convention : Reuss Voigt Hill
#
# Bulk Modulus (GPa) = 40.73795 40.78683 40.76239
# Shear Modulus (GPa) = 39.73204 42.12225 40.92714
#
# Velocity S-wave (km/s) = 3.89661 4.01210 3.95478
# Velocity P-wave (km/s) = 5.98437 6.08681 6.03581
#
# Compressibility (1/GPa) = 0.02454714
#
# Stress axis : x y z
#
# Youngs Moduli (GPa) = 106.45275 116.92063 107.42238
#
# Poissons Ratio (x) = 0.00089 0.14906
# Poissons Ratio (y) = 0.00081 -0.00439
# Poissons Ratio (z) = 0.14771 -0.00478
#
# Static dielectric constant tensor:
#      x y z
#    x 2.090780 0.000000 0.000000 
#    y 0.000000 1.987180 0.000000 
#    z 0.000000 0.000000 1.810540 
# 
# From -- ./inp_files/24410.got.cif
#   From: 2010.05.17/outbox.cif.g08.bks.cpg/sg62_13_cif.got.tgz:24410.got - 2010.06.03 15:25:27.
