data_PCOD9463921
_publ_section_title
;
Structure prediction by ZEFSAII (Michael W. Deem and Ramdas Pophale) SiO2 
 PCOD9463921
Probable space group: P N M A
;
_chemical_formula_sum "Si O2"
_cell_formula_units_Z 48
_cell_length_a 15.224288
_cell_length_b 7.424166
_cell_length_c 18.265174
_cell_angle_alpha 90.000000
_cell_angle_beta 90.000000
_cell_angle_gamma 90.000000
_cell_volume 2064.469536
_symmetry_space_group_name_H-M "P N M A"
_symmetry_group_IT_number 62
_symmetry_cell_setting 'orthorhombic'
loop_
_space_group_symop_operation_xyz
x,y,z
1/2-x,-y,1/2+z
1/2+x,1/2-y,1/2-z
-x,1/2+y,-z
-x,-y,-z
1/2+x,y,1/2-z
1/2-x,1/2+y,1/2+z
x,1/2-y,z
loop_
_atom_site_type_symbol
_atom_site_label
_atom_site_fract_x
_atom_site_fract_y
_atom_site_fract_z
Si Si1 0.397810 0.031489 0.627874
Si Si2 0.207668 0.957892 0.582253
Si Si3 0.220282 0.528140 0.425063
Si Si4 0.894735 0.457722 0.281204
Si Si5 0.092146 0.532283 0.296101
Si Si6 0.909666 0.954965 0.113506
O O1 0.398869 0.250000 0.625642
O O2 0.387056 0.976360 0.712949
O O3 0.493386 0.965866 0.601121
O O4 0.312942 0.965639 0.585652
O O5 0.178644 0.750000 0.583860
O O6 0.181591 0.031195 0.503047
O O7 0.168797 0.037971 0.656934
O O8 0.222195 0.750000 0.424655
O O9 0.162338 0.472274 0.355905
O O10 0.320605 0.463368 0.417497
O O11 0.870628 0.250000 0.266764
O O12 0.896704 0.548636 0.201813
O O13 0.993646 0.468085 0.311829
O O14 0.090734 0.750000 0.296642
O O15 0.913662 0.750000 0.086478
#
# Coordination Sequence:
#
# PCOD9463921 Si02
#       6
#     8   8   8   8   8   8
#     4   9  18  32  52  77  98 123 166 211 245 284
#     4  10  21  34  49  73 105 137 163 196 250 303
#     4   9  18  34  54  74  99 133 170 204 241 292
#     4  10  20  33  50  75 105 131 160 204 254 298
#     4   9  18  34  56  76  95 128 173 211 241 284
#     4   9  18  35  57  75  94 128 172 209 241 287
#
# _framework density 23.250525
#
# number of rings (size 3 to 8) (size 9 to 14) (size 15 to 20)
#    0.000    2.667    0.000    2.500    0.000    6.667 
#    0.000    2.500    0.000    0.000    0.000    0.000 
#    0.000    0.000    0.000    0.000    0.000    0.000 
#
# Total GULP energy -268093.969600 kJ/mol
# GULP energy per Si atom -5585.291033 kJ/mol
# Density = 2.319761 g / cm^3
# Si number density = 23.250525 Si / 1000 Ang^3
#
#
#
# Elastic Constant Matrix: (Units=GPa)
#
#
# Indices 1 2 3 4 5 6 
#
# 1 56.9941 -12.0848 22.0395 0.0000 0.0000 0.0000
# 2 -12.0848 79.2319 -5.8094 0.0000 0.0000 0.0000
# 3 22.0395 -5.8094 51.2937 0.0000 0.0000 0.0000
# 4 0.0000 0.0000 0.0000 19.4962 0.0000 0.0000
# 5 0.0000 0.0000 0.0000 0.0000 -35.2837 0.0000
# 6 0.0000 0.0000 0.0000 0.0000 0.0000 19.5351
#
#
#
# Elastic Compliance Matrix: (Units=1/GPa)
#
#
# Indices 1 2 3 4 5 6 
#
# 1 0.021573 0.002633 -0.008971 0.000000 0.000000 0.000000
# 2 0.002633 0.013048 0.000347 0.000000 0.000000 0.000000
# 3 -0.008971 0.000347 0.023389 0.000000 0.000000 0.000000
# 4 0.000000 0.000000 0.000000 0.051292 0.000000 0.000000
# 5 0.000000 0.000000 0.000000 0.000000 -0.028342 0.000000
# 6 0.000000 0.000000 0.000000 0.000000 0.000000 0.051190
#
#
# Mechanical properties :
#
#
# Convention : Reuss Voigt Hill
#
# Bulk Modulus (GPa) = 21.72644 21.75668 21.74156
# Shear Modulus (GPa) = 31.35252 12.97450 22.16351
#
# Velocity S-wave (km/s) = 3.67613 2.36483 3.09082
# Velocity P-wave (km/s) = 5.23291 4.10297 4.70201
#
# Compressibility (1/GPa) = 0.04602688
#
# Stress axis : x y z
#
# Youngs Moduli (GPa) = 46.35418 76.63931 42.75429
#
# Poissons Ratio (x) = -0.20176 0.38356
# Poissons Ratio (y) = -0.12203 -0.01482
# Poissons Ratio (z) = 0.41585 -0.02657
#
# Static dielectric constant tensor:
#      x y z
#    x 1.850880 0.000000 0.000000 
#    y 0.000000 1.857110 0.000000 
#    z 0.000000 0.000000 1.865180 
# 
# From -- ./inp_files/23708.got.cif
#   From: 2010.05.17/outbox.cif.g08.bks.cpg/sg62_12_cif.got.tgz:23708.got - 2010.06.03 15:25:27.
