data_PCOD9463650
_publ_section_title
;
Structure prediction by ZEFSAII (Michael W. Deem and Ramdas Pophale) SiO2 
 PCOD9463650
Probable space group: P N M A
;
_chemical_formula_sum "Si O2"
_cell_formula_units_Z 64
_cell_length_a 24.037130
_cell_length_b 7.437057
_cell_length_c 15.054616
_cell_angle_alpha 90.000000
_cell_angle_beta 90.000000
_cell_angle_gamma 90.000000
_cell_volume 2691.246046
_symmetry_space_group_name_H-M "P N M A"
_symmetry_group_IT_number 62
_symmetry_cell_setting 'orthorhombic'
loop_
_space_group_symop_operation_xyz
x,y,z
1/2-x,-y,1/2+z
1/2+x,1/2-y,1/2-z
-x,1/2+y,-z
-x,-y,-z
1/2+x,y,1/2-z
1/2-x,1/2+y,1/2+z
x,1/2-y,z
loop_
_atom_site_type_symbol
_atom_site_label
_atom_site_fract_x
_atom_site_fract_y
_atom_site_fract_z
Si Si1 0.941773 0.029628 0.226591
Si Si2 0.349666 0.961599 0.630361
Si Si3 0.677416 0.543004 0.664225
Si Si4 0.879879 0.536182 0.665322
Si Si5 0.501717 0.034893 0.104075
Si Si6 0.221850 0.028429 0.453284
Si Si7 0.724092 0.451874 0.853616
Si Si8 0.034325 0.035869 0.087749
O O1 0.939290 0.250000 0.224392
O O2 0.883799 0.965207 0.183737
O O3 0.953172 0.973027 0.328566
O O4 0.995505 0.973057 0.168968
O O5 0.339703 0.750000 0.611460
O O6 0.370998 0.981550 0.730774
O O7 0.402609 0.032761 0.576400
O O8 0.290210 0.052563 0.628966
O O9 0.668766 0.750000 0.638608
O O10 0.719114 0.467575 0.589021
O O11 0.709279 0.541010 0.759894
O O12 0.881373 0.750000 0.646389
O O13 0.826502 0.468078 0.612946
O O14 0.939090 0.461853 0.637128
O O15 0.502071 0.250000 0.115147
O O16 0.500000 0.000000 0.000000
O O17 0.223749 0.250000 0.455208
O O18 0.205149 0.968005 0.552291
O O19 0.702025 0.250000 0.845478
O O20 0.040944 0.250000 0.101819
O O21 0.000000 0.000000 0.000000
#
# Coordination Sequence:
#
# PCOD9463650 Si02
#       8
#     8   8   8   8   8   8   8   8
#     4   9  19  36  58  82 110 147 191 226 264 330
#     4  10  19  37  62  81 105 148 196 229 270 337
#     4  10  20  38  60  78 107 153 191 220 265 336
#     4   9  16  33  59  77  98 141 192 225 253 319
#     4  10  20  35  56  82 109 142 183 228 271 321
#     4   9  19  34  55  79 103 143 190 220 264 332
#     4  11  23  36  55  87 116 140 180 239 289 323
#     4  10  21  37  59  86 113 148 190 234 278 330
#
# _framework density 23.780805999999998
#
# number of rings (size 3 to 8) (size 9 to 14) (size 15 to 20)
#    0.000    2.250    2.500    0.375    3.500    0.500 
#    0.000    3.125    0.000    0.000    0.000    0.000 
#    0.000    0.000    0.000    0.000    0.000    0.000 
#
# Total GULP energy -357331.679763 kJ/mol
# GULP energy per Si atom -5583.307496 kJ/mol
# Density = 2.372668 g / cm^3
# Si number density = 23.780806 Si / 1000 Ang^3
#
#
#
# Elastic Constant Matrix: (Units=GPa)
#
#
# Indices 1 2 3 4 5 6 
#
# 1 44.5032 -9.3497 -18.1404 0.0000 0.0000 0.0000
# 2 -9.3497 68.0433 0.2788 0.0000 0.0000 0.0000
# 3 -18.1404 0.2788 45.5265 0.0000 0.0000 0.0000
# 4 0.0000 0.0000 0.0000 12.9530 0.0000 0.0000
# 5 0.0000 0.0000 0.0000 0.0000 35.9359 0.0000
# 6 0.0000 0.0000 0.0000 0.0000 0.0000 -27.4618
#
#
#
# Elastic Compliance Matrix: (Units=1/GPa)
#
#
# Indices 1 2 3 4 5 6 
#
# 1 0.027762 0.003769 0.011039 0.000000 0.000000 0.000000
# 2 0.003769 0.015209 0.001409 0.000000 0.000000 0.000000
# 3 0.011039 0.001409 0.026355 0.000000 0.000000 0.000000
# 4 0.000000 0.000000 0.000000 0.077202 0.000000 0.000000
# 5 0.000000 0.000000 0.000000 0.000000 0.027827 0.000000
# 6 0.000000 0.000000 0.000000 0.000000 0.000000 -0.036414
#
#
# Mechanical properties :
#
#
# Convention : Reuss Voigt Hill
#
# Bulk Modulus (GPa) = 9.82707 11.51674 10.67190
# Shear Modulus (GPa) = 35.86108 16.63768 26.24938
#
# Velocity S-wave (km/s) = 3.88749 2.64791 3.32596
# Velocity P-wave (km/s) = 4.92863 3.76855 4.38711
#
# Compressibility (1/GPa) = 0.10175978
#
# Stress axis : x y z
#
# Youngs Moduli (GPa) = 36.02069 65.75179 37.94335
#
# Poissons Ratio (x) = -0.24785 -0.41885
# Poissons Ratio (y) = -0.13578 -0.05346
# Poissons Ratio (z) = -0.39763 -0.09263
#
# Static dielectric constant tensor:
#      x y z
#    x 1.706710 0.000000 0.000000 
#    y 0.000000 1.933040 0.000000 
#    z 0.000000 0.000000 1.971690 
# 
# From -- ./inp_files/20902.got.cif
#   From: 2010.05.17/outbox.cif.g08.bks.cpg/sg62_11_cif.got.tgz:20902.got - 2010.06.03 15:25:27.
