data_PCOD9463625
_publ_section_title
;
Structure prediction by ZEFSAII (Michael W. Deem and Ramdas Pophale) SiO2 
 PCOD9463625
Probable space group: P N M A
;
_chemical_formula_sum "Si O2"
_cell_formula_units_Z 24
_cell_length_a 13.939955
_cell_length_b 5.453924
_cell_length_c 12.583315
_cell_angle_alpha 90.000000
_cell_angle_beta 90.000000
_cell_angle_gamma 90.000000
_cell_volume 956.677417
_symmetry_space_group_name_H-M "P N M A"
_symmetry_group_IT_number 62
_symmetry_cell_setting 'orthorhombic'
loop_
_space_group_symop_operation_xyz
x,y,z
1/2-x,-y,1/2+z
1/2+x,1/2-y,1/2-z
-x,1/2+y,-z
-x,-y,-z
1/2+x,y,1/2-z
1/2-x,1/2+y,1/2+z
x,1/2-y,z
loop_
_atom_site_type_symbol
_atom_site_label
_atom_site_fract_x
_atom_site_fract_y
_atom_site_fract_z
Si Si1 0.204481 0.750000 0.561074
Si Si2 0.897440 0.750000 0.362884
Si Si3 0.928074 0.250000 0.051560
Si Si4 0.390135 0.750000 0.706845
Si Si5 0.886802 0.250000 0.657105
Si Si6 0.098225 0.250000 0.891369
O O1 0.152591 0.499298 0.599448
O O2 0.306181 0.750000 0.620490
O O3 0.192053 0.750000 0.434183
O O4 0.898481 0.750000 0.234417
O O5 0.008342 0.750000 0.396975
O O6 0.866689 0.490964 0.065473
O O7 0.007263 0.250000 0.146244
O O8 0.988827 0.250000 0.942619
O O9 0.381105 0.500345 0.774739
#
# Coordination Sequence:
#
# PCOD9463625 Si02
#       6
#     4   4   4   4   4   4
#     4  12  28  42  68 104 135 172 234 276 337 400
#     4  12  22  45  69 101 135 178 227 281 324 407
#     4  10  19  37  59  96 124 171 213 265 320 398
#     4  12  24  44  68  96 137 181 219 278 350 397
#     4  12  25  47  72  94 135 186 220 276 341 402
#     4  10  20  35  66  93 126 162 223 266 320 374
#
# _framework density 25.086825000000001
#
# number of rings (size 3 to 8) (size 9 to 14) (size 15 to 20)
#    0.000    0.667    3.333    5.000    0.000    2.667 
#    0.000    0.000    0.000    0.000    0.000    0.000 
#    0.000    0.000    0.000    0.000    0.000    0.000 
#
# Total GULP energy -134566.905308 kJ/mol
# GULP energy per Si atom -5606.954388 kJ/mol
# Density = 2.502973 g / cm^3
# Si number density = 25.086825 Si / 1000 Ang^3
#
#
#
# Elastic Constant Matrix: (Units=GPa)
#
#
# Indices 1 2 3 4 5 6 
#
# 1 131.4375 69.9914 35.0991 0.0000 0.0000 0.0000
# 2 69.9914 292.9269 92.0681 0.0000 0.0000 0.0000
# 3 35.0991 92.0681 150.5490 0.0000 0.0000 0.0000
# 4 0.0000 0.0000 0.0000 47.2027 0.0000 0.0000
# 5 0.0000 0.0000 0.0000 0.0000 21.6169 0.0000
# 6 0.0000 0.0000 0.0000 0.0000 0.0000 41.4057
#
#
#
# Elastic Compliance Matrix: (Units=1/GPa)
#
#
# Indices 1 2 3 4 5 6 
#
# 1 0.008826 -0.001810 -0.000951 0.000000 0.000000 0.000000
# 2 -0.001810 0.004597 -0.002390 0.000000 0.000000 0.000000
# 3 -0.000951 -0.002390 0.008325 0.000000 0.000000 0.000000
# 4 0.000000 0.000000 0.000000 0.021185 0.000000 0.000000
# 5 0.000000 0.000000 0.000000 0.000000 0.046260 0.000000
# 6 0.000000 0.000000 0.000000 0.000000 0.000000 0.024151
#
#
# Mechanical properties :
#
#
# Convention : Reuss Voigt Hill
#
# Bulk Modulus (GPa) = 87.35159 107.69228 97.52194
# Shear Modulus (GPa) = 39.22748 47.22872 43.22810
#
# Velocity S-wave (km/s) = 3.95861 4.34361 4.15557
# Velocity P-wave (km/s) = 7.46924 8.25694 7.87294
#
# Compressibility (1/GPa) = 0.01144799
#
# Stress axis : x y z
#
# Youngs Moduli (GPa) = 113.30267 217.51735 120.11549
#
# Poissons Ratio (x) = 0.39371 0.11420
# Poissons Ratio (y) = 0.20508 0.28702
# Poissons Ratio (z) = 0.10772 0.51976
#
# Static dielectric constant tensor:
#      x y z
#    x 2.017670 0.000000 0.000000 
#    y 0.000000 2.098210 0.000000 
#    z 0.000000 0.000000 1.961150 
# 
# From -- ./inp_files/12656.got.cif
#   From: 2010.05.17/outbox.cif.g08.bks.cpg/sg62_7_cif.got.tgz:12656.got - 2010.06.03 15:25:27.
