data_PCOD9463957
_publ_section_title
;
Structure prediction by ZEFSAII (Michael W. Deem and Ramdas Pophale) SiO2 
 PCOD9463957
Probable space group: P N M A
;
_chemical_formula_sum "Si O2"
_cell_formula_units_Z 48
_cell_length_a 29.006972
_cell_length_b 7.412267
_cell_length_c 8.068036
_cell_angle_alpha 90.000000
_cell_angle_beta 90.000000
_cell_angle_gamma 90.000000
_cell_volume 1734.687616
_symmetry_space_group_name_H-M "P N M A"
_symmetry_group_IT_number 62
_symmetry_cell_setting 'orthorhombic'
loop_
_space_group_symop_operation_xyz
x,y,z
1/2-x,-y,1/2+z
1/2+x,1/2-y,1/2-z
-x,1/2+y,-z
-x,-y,-z
1/2+x,y,1/2-z
1/2-x,1/2+y,1/2+z
x,1/2-y,z
loop_
_atom_site_type_symbol
_atom_site_label
_atom_site_fract_x
_atom_site_fract_y
_atom_site_fract_z
Si Si1 0.676350 0.541323 0.232848
Si Si2 0.093605 0.458070 0.046970
Si Si3 0.238439 0.030727 0.945309
Si Si4 0.927683 0.960247 0.449592
Si Si5 0.488149 0.531101 0.744257
Si Si6 0.845417 0.970718 0.258338
O O1 0.667534 0.750000 0.202343
O O2 0.628122 0.459654 0.293463
O O3 0.710653 0.528579 0.392937
O O4 0.709538 0.464848 0.087980
O O5 0.085961 0.250000 0.005980
O O6 0.043690 0.535486 0.093146
O O7 0.124104 0.534758 0.899762
O O8 0.239636 0.250000 0.947058
O O9 0.205828 0.972560 0.790075
O O10 0.922153 0.750000 0.485873
O O11 0.958148 0.037189 0.597315
O O12 0.876989 0.033387 0.410702
O O13 0.960212 0.973893 0.286339
O O14 0.488274 0.750000 0.742341
O O15 0.845076 0.750000 0.259927
#
# Coordination Sequence:
#
# PCOD9463957 Si02
#       6
#     8   8   8   8   8   8
#     4  10  20  33  52  77 101 129 167 206 244 289
#     4   9  18  33  50  67  94 129 160 195 240 290
#     4   9  19  35  52  72 101 132 162 201 246 293
#     4   9  17  30  48  68  91 120 156 197 236 281
#     4   9  18  31  47  68  93 123 157 192 238 291
#     4   8  15  30  49  66  88 122 158 189 230 283
#
# _framework density 27.67069
#
# number of rings (size 3 to 8) (size 9 to 14) (size 15 to 20)
#    0.000    3.000    0.000    1.500    0.000    4.000 
#    0.000    6.667    0.000    0.000    0.000    0.000 
#    0.000    0.000    0.000    0.000    0.000    0.000 
#
# Total GULP energy -268404.125338 kJ/mol
# GULP energy per Si atom -5591.752611 kJ/mol
# Density = 2.760771 g / cm^3
# Si number density = 27.670690 Si / 1000 Ang^3
#
#
#
# Elastic Constant Matrix: (Units=GPa)
#
#
# Indices 1 2 3 4 5 6 
#
# 1 205.4669 2.9664 19.0441 0.0000 0.0000 0.0000
# 2 2.9664 120.0552 5.5813 0.0000 0.0000 0.0000
# 3 19.0441 5.5813 54.9854 0.0000 0.0000 0.0000
# 4 0.0000 0.0000 0.0000 15.4724 0.0000 0.0000
# 5 0.0000 0.0000 0.0000 0.0000 61.6873 0.0000
# 6 0.0000 0.0000 0.0000 0.0000 0.0000 13.3017
#
#
#
# Elastic Compliance Matrix: (Units=1/GPa)
#
#
# Indices 1 2 3 4 5 6 
#
# 1 0.005029 -0.000043 -0.001737 0.000000 0.000000 0.000000
# 2 -0.000043 0.008369 -0.000834 0.000000 0.000000 0.000000
# 3 -0.001737 -0.000834 0.018873 0.000000 0.000000 0.000000
# 4 0.000000 0.000000 0.000000 0.064631 0.000000 0.000000
# 5 0.000000 0.000000 0.000000 0.000000 0.016211 0.000000
# 6 0.000000 0.000000 0.000000 0.000000 0.000000 0.075178
#
#
# Mechanical properties :
#
#
# Convention : Reuss Voigt Hill
#
# Bulk Modulus (GPa) = 36.98139 48.41012 42.69576
# Shear Modulus (GPa) = 24.68705 41.61999 33.15352
#
# Velocity S-wave (km/s) = 2.99017 3.88250 3.46518
# Velocity P-wave (km/s) = 5.03143 6.13445 5.61012
#
# Compressibility (1/GPa) = 0.02704062
#
# Stress axis : x y z
#
# Youngs Moduli (GPa) = 198.86210 119.48330 52.98568
#
# Poissons Ratio (x) = 0.00520 0.09205
# Poissons Ratio (y) = 0.00865 0.04421
# Poissons Ratio (z) = 0.34547 0.09971
#
# Static dielectric constant tensor:
#      x y z
#    x 2.119320 0.000000 0.000000 
#    y 0.000000 1.993670 0.000000 
#    z 0.000000 0.000000 2.327800 
# 
# From -- ./inp_files/10206.got.cif
#   From: 2010.05.17/outbox.cif.g08.bks.cpg/sg62_6_cif.got.tgz:10206.got - 2010.06.03 15:25:27.
