data_PCOD9463947
_publ_section_title
;
Structure prediction by ZEFSAII (Michael W. Deem and Ramdas Pophale) SiO2 
 PCOD9463947
Probable space group: P N M A
;
_chemical_formula_sum "Si O2"
_cell_formula_units_Z 56
_cell_length_a 14.025746
_cell_length_b 9.511499
_cell_length_c 20.156394
_cell_angle_alpha 90.000000
_cell_angle_beta 90.000000
_cell_angle_gamma 90.000000
_cell_volume 2688.981259
_symmetry_space_group_name_H-M "P N M A"
_symmetry_group_IT_number 62
_symmetry_cell_setting 'orthorhombic'
loop_
_space_group_symop_operation_xyz
x,y,z
1/2-x,-y,1/2+z
1/2+x,1/2-y,1/2-z
-x,1/2+y,-z
-x,-y,-z
1/2+x,y,1/2-z
1/2-x,1/2+y,1/2+z
x,1/2-y,z
loop_
_atom_site_type_symbol
_atom_site_label
_atom_site_fract_x
_atom_site_fract_y
_atom_site_fract_z
Si Si1 0.641067 0.412633 0.173588
Si Si2 0.850406 0.088164 0.802968
Si Si3 0.016929 0.580939 0.430439
Si Si4 0.895907 0.596386 0.060342
Si Si5 0.121069 0.407705 0.691150
Si Si6 0.628656 0.591321 0.685252
Si Si7 0.116768 0.594052 0.051301
O O1 0.607597 0.250000 0.171136
O O2 0.616574 0.494702 0.241638
O O3 0.600191 0.503268 0.112196
O O4 0.756254 0.407916 0.176851
O O5 0.884550 0.250000 0.796171
O O6 0.735661 0.093085 0.807473
O O7 0.878597 0.032840 0.875158
O O8 0.033667 0.750000 0.439457
O O9 0.000000 0.500000 0.500000
O O10 0.925685 0.567320 0.380564
O O11 0.853176 0.750000 0.070312
O O12 0.903020 0.512596 0.127968
O O13 0.004887 0.613539 0.036624
O O14 0.842176 0.505574 0.005050
O O15 0.090020 0.250000 0.712368
O O16 0.098059 0.527091 0.744558
O O17 0.593942 0.750000 0.676436
O O18 0.161604 0.750000 0.051549
#
# Coordination Sequence:
#
# PCOD9463947 Si02
#       7
#     8   8   8   8   8   8   8
#     4  10  22  39  58  84 114 147 192 240 286 341
#     4   9  18  36  60  83 110 147 189 235 287 340
#     4  11  24  41  61  87 120 157 198 242 293 351
#     4  10  20  33  51  79 114 148 186 227 273 333
#     4   9  20  38  59  83 111 145 188 235 285 343
#     4  10  21  37  58  83 113 149 190 237 288 340
#     4   9  19  34  52  78 112 148 185 225 276 334
#
# _framework density 20.825731999999999
#
# number of rings (size 3 to 8) (size 9 to 14) (size 15 to 20)
#    0.000    2.286    0.000    1.714    2.000    5.143 
#    0.000    2.857    0.000    0.000    0.000    0.000 
#    0.000    0.000    0.000    0.000    0.000    0.000 
#
# Total GULP energy -312297.074389 kJ/mol
# GULP energy per Si atom -5576.733471 kJ/mol
# Density = 2.077833 g / cm^3
# Si number density = 20.825732 Si / 1000 Ang^3
#
#
#
# Elastic Constant Matrix: (Units=GPa)
#
#
# Indices 1 2 3 4 5 6 
#
# 1 44.3698 5.0321 5.1116 0.0000 0.0000 0.0000
# 2 5.0321 139.1709 93.1162 0.0000 0.0000 0.0000
# 3 5.1116 93.1162 143.4586 0.0000 0.0000 0.0000
# 4 0.0000 0.0000 0.0000 59.6466 0.0000 0.0000
# 5 0.0000 0.0000 0.0000 0.0000 34.6441 0.0000
# 6 0.0000 0.0000 0.0000 0.0000 0.0000 12.4570
#
#
#
# Elastic Compliance Matrix: (Units=1/GPa)
#
#
# Indices 1 2 3 4 5 6 
#
# 1 0.022650 -0.000493 -0.000487 0.000000 0.000000 0.000000
# 2 -0.000493 0.012712 -0.008234 0.000000 0.000000 0.000000
# 3 -0.000487 -0.008234 0.012332 0.000000 0.000000 0.000000
# 4 0.000000 0.000000 0.000000 0.016765 0.000000 0.000000
# 5 0.000000 0.000000 0.000000 0.000000 0.028865 0.000000
# 6 0.000000 0.000000 0.000000 0.000000 0.000000 0.080276
#
#
# Mechanical properties :
#
#
# Convention : Reuss Voigt Hill
#
# Bulk Modulus (GPa) = 34.16833 59.27987 46.72410
# Shear Modulus (GPa) = 24.77895 36.26550 30.52222
#
# Velocity S-wave (km/s) = 3.45312 4.17751 3.83247
# Velocity P-wave (km/s) = 5.68693 7.19690 6.48600
#
# Compressibility (1/GPa) = 0.02926687
#
# Stress axis : x y z
#
# Youngs Moduli (GPa) = 44.15033 78.66444 81.08767
#
# Poissons Ratio (x) = 0.03880 0.03948
# Poissons Ratio (y) = 0.02177 0.66765
# Poissons Ratio (z) = 0.02150 0.64770
#
# Static dielectric constant tensor:
#      x y z
#    x 1.807150 0.000000 0.000000 
#    y 0.000000 1.801930 0.000000 
#    z 0.000000 0.000000 1.713280 
# 
# From -- ./inp_files/27280.got.cif
#   From: 2010.05.17/outbox.cif.g08.bks.cpg/sg62_14_cif.got.tgz:27280.got - 2010.06.03 15:25:27.
