data_PCOD9463761
_publ_section_title
;
Structure prediction by ZEFSAII (Michael W. Deem and Ramdas Pophale) SiO2 
 PCOD9463761
Probable space group: P N M A
;
_chemical_formula_sum "Si O2"
_cell_formula_units_Z 44
_cell_length_a 15.502853
_cell_length_b 8.042745
_cell_length_c 17.922646
_cell_angle_alpha 90.000000
_cell_angle_beta 90.000000
_cell_angle_gamma 90.000000
_cell_volume 2234.693960
_symmetry_space_group_name_H-M "P N M A"
_symmetry_group_IT_number 62
_symmetry_cell_setting 'orthorhombic'
loop_
_space_group_symop_operation_xyz
x,y,z
1/2-x,-y,1/2+z
1/2+x,1/2-y,1/2-z
-x,1/2+y,-z
-x,-y,-z
1/2+x,y,1/2-z
1/2-x,1/2+y,1/2+z
x,1/2-y,z
loop_
_atom_site_type_symbol
_atom_site_label
_atom_site_fract_x
_atom_site_fract_y
_atom_site_fract_z
Si Si1 0.234695 0.250000 0.864328
Si Si2 0.902390 0.250000 0.715177
Si Si3 0.937173 0.064536 0.937823
Si Si4 0.359620 0.923909 0.696481
Si Si5 0.109498 0.250000 0.714368
Si Si6 0.173045 0.561556 0.617752
Si Si7 0.258755 0.439644 0.472606
O O1 0.339743 0.250000 0.856184
O O2 0.172593 0.250000 0.789145
O O3 0.219782 0.420363 0.910891
O O4 0.868780 0.414802 0.755135
O O5 0.005535 0.250000 0.722089
O O6 0.961084 0.250000 0.912251
O O7 0.930510 0.943210 0.868182
O O8 0.844239 0.072828 0.976587
O O9 0.000000 0.000000 0.000000
O O10 0.369571 0.750000 0.737745
O O11 0.267623 0.926158 0.655745
O O12 0.129119 0.415510 0.665490
O O13 0.136022 0.750000 0.621098
O O14 0.187199 0.504746 0.531846
O O15 0.239969 0.250000 0.445805
#
# Coordination Sequence:
#
# PCOD9463761 Si02
#       7
#     4   4   8   8   4   8   8
#     4  12  26  44  66 100 135 166 217 287 325 381
#     4  12  26  44  62  96 134 175 217 269 339 378
#     4  10  20  32  55  92 129 164 210 256 319 396
#     4  10  20  37  62  87 126 171 211 256 319 399
#     4  12  26  42  70  94 139 173 220 270 330 401
#     4  10  19  41  71  95 120 180 221 261 326 403
#     4  10  22  39  66  94 128 169 221 270 331 382
#
# _framework density 19.689498
#
# number of rings (size 3 to 8) (size 9 to 14) (size 15 to 20)
#    0.000    1.455    4.545    0.545    5.091    2.182 
#    0.000    0.909    0.000    0.000    0.000    0.000 
#    0.000    0.000    0.000    0.000    0.000    0.000 
#
# Total GULP energy -244995.632878 kJ/mol
# GULP energy per Si atom -5568.082565 kJ/mol
# Density = 1.964468 g / cm^3
# Si number density = 19.689498 Si / 1000 Ang^3
#
#
#
# Elastic Constant Matrix: (Units=GPa)
#
#
# Indices 1 2 3 4 5 6 
#
# 1 36.0226 19.5072 -1.3997 0.0000 0.0000 0.0000
# 2 19.5072 182.0541 26.5965 0.0000 0.0000 0.0000
# 3 -1.3997 26.5965 27.5151 0.0000 0.0000 0.0000
# 4 0.0000 0.0000 0.0000 88.0484 0.0000 0.0000
# 5 0.0000 0.0000 0.0000 0.0000 19.4339 0.0000
# 6 0.0000 0.0000 0.0000 0.0000 0.0000 21.6380
#
#
#
# Elastic Compliance Matrix: (Units=1/GPa)
#
#
# Indices 1 2 3 4 5 6 
#
# 1 0.030149 -0.004023 0.005422 0.000000 0.000000 0.000000
# 2 -0.004023 0.006933 -0.006906 0.000000 0.000000 0.000000
# 3 0.005422 -0.006906 0.043295 0.000000 0.000000 0.000000
# 4 0.000000 0.000000 0.000000 0.011357 0.000000 0.000000
# 5 0.000000 0.000000 0.000000 0.000000 0.051456 0.000000
# 6 0.000000 0.000000 0.000000 0.000000 0.000000 0.046215
#
#
# Mechanical properties :
#
#
# Convention : Reuss Voigt Hill
#
# Bulk Modulus (GPa) = 14.41674 37.22219 25.81947
# Shear Modulus (GPa) = 22.36733 39.21659 30.79196
#
# Velocity S-wave (km/s) = 3.37412 4.46775 3.95888
# Velocity P-wave (km/s) = 4.74526 6.74981 5.83427
#
# Compressibility (1/GPa) = 0.06936379
#
# Stress axis : x y z
#
# Youngs Moduli (GPa) = 33.16815 144.24200 23.09747
#
# Poissons Ratio (x) = 0.58023 -0.12523
# Poissons Ratio (y) = 0.13342 0.15951
# Poissons Ratio (z) = -0.17984 0.99613
#
# Static dielectric constant tensor:
#      x y z
#    x 1.735230 0.000000 0.000000 
#    y 0.000000 1.590490 0.000000 
#    z 0.000000 0.000000 1.729770 
# 
# From -- ./inp_files/23606.got.cif
#   From: 2010.05.17/outbox.cif.g08.bks.cpg/sg62_12_cif.got.tgz:23606.got - 2010.06.03 15:25:27.
