data_PCOD9463992
_publ_section_title
;
Structure prediction by ZEFSAII (Michael W. Deem and Ramdas Pophale) SiO2 
 PCOD9463992
Probable space group: P N M A
;
_chemical_formula_sum "Si O2"
_cell_formula_units_Z 56
_cell_length_a 22.622528
_cell_length_b 11.760174
_cell_length_c 11.566031
_cell_angle_alpha 90.000000
_cell_angle_beta 90.000000
_cell_angle_gamma 90.000000
_cell_volume 3077.083163
_symmetry_space_group_name_H-M "P N M A"
_symmetry_group_IT_number 62
_symmetry_cell_setting 'orthorhombic'
loop_
_space_group_symop_operation_xyz
x,y,z
1/2-x,-y,1/2+z
1/2+x,1/2-y,1/2-z
-x,1/2+y,-z
-x,-y,-z
1/2+x,y,1/2-z
1/2-x,1/2+y,1/2+z
x,1/2-y,z
loop_
_atom_site_type_symbol
_atom_site_label
_atom_site_fract_x
_atom_site_fract_y
_atom_site_fract_z
Si Si1 0.184959 0.620296 0.589567
Si Si2 0.459538 0.879990 0.126401
Si Si3 0.105189 0.377399 0.221565
Si Si4 0.087599 0.541801 0.422237
Si Si5 0.689877 0.116213 0.499219
Si Si6 0.488320 0.118352 0.426518
Si Si7 0.882322 0.011894 0.195303
O O1 0.197857 0.750000 0.621864
O O2 0.135442 0.615279 0.489977
O O3 0.245759 0.571325 0.538121
O O4 0.158052 0.560525 0.701991
O O5 0.442912 0.750000 0.111285
O O6 0.530318 0.892952 0.125186
O O7 0.429303 0.928704 0.241630
O O8 0.436189 0.953006 0.018283
O O9 0.113844 0.250000 0.268864
O O10 0.115312 0.471131 0.317857
O O11 0.038382 0.384775 0.172871
O O12 0.147469 0.391848 0.111925
O O13 0.695231 0.250000 0.529983
O O14 0.658568 0.051029 0.603091
O O15 0.493319 0.250000 0.477283
O O16 0.423684 0.103113 0.370293
O O17 0.500000 0.000000 0.500000
#
# Coordination Sequence:
#
# PCOD9463992 Si02
#       7
#     8   8   8   8   8   8   8
#     4  10  23  40  59  82 113 160 202 245 297 354
#     4  10  20  33  54  86 119 150 189 243 303 357
#     4  10  20  36  58  84 116 150 191 240 297 357
#     4  10  20  35  56  85 114 152 194 239 294 356
#     4  10  22  39  60  84 114 153 199 246 297 357
#     4  11  22  38  60  91 125 158 198 247 306 366
#     4  11  21  38  61  86 116 155 197 247 299 361
#
# _framework density 18.199051999999998
#
# number of rings (size 3 to 8) (size 9 to 14) (size 15 to 20)
#    0.000    1.714    2.857    1.714    2.000    0.571 
#    0.000    0.000    0.000    2.571    0.000    0.000 
#    0.000    0.000    0.000    0.000    0.000    0.000 
#
# Total GULP energy -312241.525535 kJ/mol
# GULP energy per Si atom -5575.741527 kJ/mol
# Density = 1.815763 g / cm^3
# Si number density = 18.199052 Si / 1000 Ang^3
#
#
#
# Elastic Constant Matrix: (Units=GPa)
#
#
# Indices 1 2 3 4 5 6 
#
# 1 112.4017 19.6056 34.7049 0.0000 0.0000 0.0000
# 2 19.6056 78.0217 27.5859 0.0000 0.0000 0.0000
# 3 34.7049 27.5859 66.1454 0.0000 0.0000 0.0000
# 4 0.0000 0.0000 0.0000 6.7526 0.0000 0.0000
# 5 0.0000 0.0000 0.0000 0.0000 27.0949 0.0000
# 6 0.0000 0.0000 0.0000 0.0000 0.0000 23.1752
#
#
#
# Elastic Compliance Matrix: (Units=1/GPa)
#
#
# Indices 1 2 3 4 5 6 
#
# 1 0.010661 -0.000823 -0.005251 0.000000 0.000000 0.000000
# 2 -0.000823 0.015097 -0.005865 0.000000 0.000000 0.000000
# 3 -0.005251 -0.005865 0.020319 0.000000 0.000000 0.000000
# 4 0.000000 0.000000 0.000000 0.148091 0.000000 0.000000
# 5 0.000000 0.000000 0.000000 0.000000 0.036907 0.000000
# 6 0.000000 0.000000 0.000000 0.000000 0.000000 0.043150
#
#
# Mechanical properties :
#
#
# Convention : Reuss Voigt Hill
#
# Bulk Modulus (GPa) = 45.04175 46.70683 45.87429
# Shear Modulus (GPa) = 16.36652 23.04936 19.70794
#
# Velocity S-wave (km/s) = 3.00210 3.56267 3.29433
# Velocity P-wave (km/s) = 6.06795 6.53021 6.30332
#
# Compressibility (1/GPa) = 0.02220162
#
# Stress axis : x y z
#
# Youngs Moduli (GPa) = 93.79695 66.23732 49.21498
#
# Poissons Ratio (x) = 0.05448 0.25841
# Poissons Ratio (y) = 0.07715 0.28863
# Poissons Ratio (z) = 0.49250 0.38846
#
# Static dielectric constant tensor:
#      x y z
#    x 1.633390 0.000000 0.000000 
#    y 0.000000 1.640820 0.000000 
#    z 0.000000 0.000000 1.607250 
# 
# From -- ./inp_files/14833.got.cif
#   From: 2010.05.17/outbox.cif.g08.bks.cpg/sg62_8_cif.got.tgz:14833.got - 2010.06.03 15:25:27.
