data_PCOD9463311
_publ_section_title
;
Structure prediction by ZEFSAII (Michael W. Deem and Ramdas Pophale) SiO2 
 PCOD9463311
Probable space group: P N M A
;
_chemical_formula_sum "Si O2"
_cell_formula_units_Z 64
_cell_length_a 25.736055
_cell_length_b 7.425837
_cell_length_c 14.403705
_cell_angle_alpha 90.000000
_cell_angle_beta 90.000000
_cell_angle_gamma 90.000000
_cell_volume 2752.717261
_symmetry_space_group_name_H-M "P N M A"
_symmetry_group_IT_number 62
_symmetry_cell_setting 'orthorhombic'
loop_
_space_group_symop_operation_xyz
x,y,z
1/2-x,-y,1/2+z
1/2+x,1/2-y,1/2-z
-x,1/2+y,-z
-x,-y,-z
1/2+x,y,1/2-z
1/2-x,1/2+y,1/2+z
x,1/2-y,z
loop_
_atom_site_type_symbol
_atom_site_label
_atom_site_fract_x
_atom_site_fract_y
_atom_site_fract_z
Si Si1 0.759736 0.964787 0.540818
Si Si2 0.366860 0.531334 0.881716
Si Si3 0.128921 0.957574 0.175639
Si Si4 0.024126 0.965739 0.100440
Si Si5 0.943613 0.535254 0.456676
Si Si6 0.562740 0.470864 0.743692
Si Si7 0.174585 0.036162 0.821542
Si Si8 0.746140 0.970810 0.334643
O O1 0.764350 0.750000 0.539781
O O2 0.807318 0.031495 0.603899
O O3 0.766219 0.025618 0.435624
O O4 0.703071 0.006266 0.580988
O O5 0.368061 0.750000 0.878505
O O6 0.387949 0.464576 0.783448
O O7 0.400716 0.470289 0.969676
O O8 0.135346 0.750000 0.146383
O O9 0.082503 0.037381 0.114826
O O10 0.186842 0.035857 0.173539
O O11 0.027517 0.750000 0.111650
O O12 0.985558 0.031378 0.181203
O O13 0.000000 0.000000 0.000000
O O14 0.936070 0.750000 0.451013
O O15 0.939470 0.468823 0.350885
O O16 0.000000 0.500000 0.500000
O O17 0.561772 0.250000 0.744030
O O18 0.616634 0.530731 0.695909
O O19 0.171531 0.250000 0.808085
O O20 0.215315 0.964844 0.745254
O O21 0.745874 0.750000 0.330084
#
# Coordination Sequence:
#
# PCOD9463311 Si02
#       8
#     8   8   8   8   8   8   8   8
#     4  10  20  34  53  79 110 142 176 221 275 324
#     4  10  20  34  55  84 114 141 173 222 280 326
#     4  10  20  36  57  79 107 145 186 223 264 322
#     4  10  22  38  56  79 107 143 185 226 268 315
#     4  10  20  36  58  83 109 141 179 220 269 325
#     4   9  19  36  56  78 107 143 182 221 265 322
#     4  10  19  35  57  79 105 142 184 221 261 319
#     4   9  18  33  54  78 105 141 181 218 264 321
#
# _framework density 23.249752999999998
#
# number of rings (size 3 to 8) (size 9 to 14) (size 15 to 20)
#    0.000    2.250    1.250    1.500    1.750    5.000 
#    0.000    2.500    0.000    1.500    0.000    0.000 
#    0.000    0.000    0.000    0.000    0.000    0.000 
#
# Total GULP energy -357694.786648 kJ/mol
# GULP energy per Si atom -5588.981041 kJ/mol
# Density = 2.319684 g / cm^3
# Si number density = 23.249753 Si / 1000 Ang^3
#
#
#
# Elastic Constant Matrix: (Units=GPa)
#
#
# Indices 1 2 3 4 5 6 
#
# 1 67.7165 1.3331 -30.6323 0.0000 0.0000 0.0000
# 2 1.3331 74.3386 -12.6134 0.0000 0.0000 0.0000
# 3 -30.6323 -12.6134 27.1872 0.0000 0.0000 0.0000
# 4 0.0000 0.0000 0.0000 16.2080 0.0000 0.0000
# 5 0.0000 0.0000 0.0000 0.0000 42.3100 0.0000
# 6 0.0000 0.0000 0.0000 0.0000 0.0000 22.1237
#
#
#
# Elastic Compliance Matrix: (Units=1/GPa)
#
#
# Indices 1 2 3 4 5 6 
#
# 1 0.032488 0.006109 0.039439 0.000000 0.000000 0.000000
# 2 0.006109 0.015750 0.014191 0.000000 0.000000 0.000000
# 3 0.039439 0.014191 0.087803 0.000000 0.000000 0.000000
# 4 0.000000 0.000000 0.000000 0.061698 0.000000 0.000000
# 5 0.000000 0.000000 0.000000 0.000000 0.023635 0.000000
# 6 0.000000 0.000000 0.000000 0.000000 0.000000 0.045200
#
#
# Mechanical properties :
#
#
# Convention : Reuss Voigt Hill
#
# Bulk Modulus (GPa) = 3.91360 9.49077 6.70219
# Shear Modulus (GPa) = 21.52676 30.20533 25.86604
#
# Velocity S-wave (km/s) = 3.04615 3.60831 3.33908
# Velocity P-wave (km/s) = 3.74953 4.63150 4.21365
#
# Compressibility (1/GPa) = 0.25551924
#
# Stress axis : x y z
#
# Youngs Moduli (GPa) = 30.78062 63.49125 11.38917
#
# Poissons Ratio (x) = -0.38788 -0.44918
# Poissons Ratio (y) = -0.18805 -0.16162
# Poissons Ratio (z) = -1.21396 -0.90098
#
# Static dielectric constant tensor:
#      x y z
#    x 1.861020 0.000000 0.000000 
#    y 0.000000 1.870830 0.000000 
#    z 0.000000 0.000000 1.835650 
# 
# From -- ./inp_files/20854.got.cif
#   From: 2010.05.17/outbox.cif.g08.bks.cpg/sg62_11_cif.got.tgz:20854.got - 2010.06.03 15:25:27.
