data_PCOD9463665
_publ_section_title
;
Structure prediction by ZEFSAII (Michael W. Deem and Ramdas Pophale) SiO2 
 PCOD9463665
Probable space group: P N M A
;
_chemical_formula_sum "Si O2"
_cell_formula_units_Z 40
_cell_length_a 8.472121
_cell_length_b 8.137611
_cell_length_c 24.514185
_cell_angle_alpha 90.000000
_cell_angle_beta 90.000000
_cell_angle_gamma 90.000000
_cell_volume 1690.077168
_symmetry_space_group_name_H-M "P N M A"
_symmetry_group_IT_number 62
_symmetry_cell_setting 'orthorhombic'
loop_
_space_group_symop_operation_xyz
x,y,z
1/2-x,-y,1/2+z
1/2+x,1/2-y,1/2-z
-x,1/2+y,-z
-x,-y,-z
1/2+x,y,1/2-z
1/2-x,1/2+y,1/2+z
x,1/2-y,z
loop_
_atom_site_type_symbol
_atom_site_label
_atom_site_fract_x
_atom_site_fract_y
_atom_site_fract_z
Si Si1 0.835769 0.450165 0.223003
Si Si2 0.666411 0.050810 0.329316
Si Si3 0.155135 0.062666 0.969036
Si Si4 0.859069 0.559690 0.622796
Si Si5 0.669204 0.063764 0.934310
O O1 0.835156 0.250000 0.222266
O O2 0.799174 0.496987 0.284851
O O3 0.696987 0.501856 0.181704
O O4 0.001516 0.500925 0.197544
O O5 0.667037 0.250000 0.335249
O O6 0.703273 0.972893 0.387242
O O7 0.134202 0.250000 0.951671
O O8 0.208964 0.956557 0.917404
O O9 0.293824 0.049639 0.014207
O O10 0.000000 0.000000 0.000000
O O11 0.906926 0.750000 0.627977
O O12 0.002032 0.466720 0.594266
O O13 0.682360 0.250000 0.953742
#
# Coordination Sequence:
#
# PCOD9463665 Si02
#       5
#     8   8   8   8   8
#     4   9  19  35  62  92 120 155 200 248 304 368
#     4  10  19  37  62  90 120 157 202 251 303 366
#     4  12  25  43  65  92 123 159 200 249 302 362
#     4  11  22  40  64  92 123 161 204 252 304 362
#     4  12  25  41  60  88 122 162 206 254 306 360
#
# _framework density 23.667560999999999
#
# number of rings (size 3 to 8) (size 9 to 14) (size 15 to 20)
#    0.000    1.200    0.000    7.200    0.000    4.800 
#    0.000    6.000    0.000    0.000    0.000    0.000 
#    0.000    0.000    0.000    0.000    0.000    0.000 
#
# Total GULP energy -224050.911559 kJ/mol
# GULP energy per Si atom -5601.272789 kJ/mol
# Density = 2.361369 g / cm^3
# Si number density = 23.667561 Si / 1000 Ang^3
#
#
#
# Elastic Constant Matrix: (Units=GPa)
#
#
# Indices 1 2 3 4 5 6 
#
# 1 66.8501 1.0401 -11.7433 0.0000 0.0000 0.0000
# 2 1.0401 52.6161 -6.4113 0.0000 0.0000 0.0000
# 3 -11.7433 -6.4113 85.9193 0.0000 0.0000 0.0000
# 4 0.0000 0.0000 0.0000 20.5738 0.0000 0.0000
# 5 0.0000 0.0000 0.0000 0.0000 41.1628 0.0000
# 6 0.0000 0.0000 0.0000 0.0000 0.0000 27.1714
#
#
#
# Elastic Compliance Matrix: (Units=1/GPa)
#
#
# Indices 1 2 3 4 5 6 
#
# 1 0.015327 -0.000048 0.002091 0.000000 0.000000 0.000000
# 2 -0.000048 0.019180 0.001425 0.000000 0.000000 0.000000
# 3 0.002091 0.001425 0.012031 0.000000 0.000000 0.000000
# 4 0.000000 0.000000 0.000000 0.048605 0.000000 0.000000
# 5 0.000000 0.000000 0.000000 0.000000 0.024294 0.000000
# 6 0.000000 0.000000 0.000000 0.000000 0.000000 0.036803
#
#
# Mechanical properties :
#
#
# Convention : Reuss Voigt Hill
#
# Bulk Modulus (GPa) = 18.70084 19.01739 18.85912
# Shear Modulus (GPa) = 29.91688 32.61493 31.26591
#
# Velocity S-wave (km/s) = 3.55920 3.71623 3.63856
# Velocity P-wave (km/s) = 4.98088 5.14456 5.06338
#
# Compressibility (1/GPa) = 0.05347354
#
# Stress axis : x y z
#
# Youngs Moduli (GPa) = 65.24454 52.13728 83.11881
#
# Poissons Ratio (x) = 0.00251 -0.17382
# Poissons Ratio (y) = 0.00314 -0.11841
# Poissons Ratio (z) = -0.13644 -0.07428
#
# Static dielectric constant tensor:
#      x y z
#    x 1.948460 0.000000 0.000000 
#    y 0.000000 1.830730 0.000000 
#    z 0.000000 0.000000 1.839760 
# 
# From -- ./inp_files/28582.got.cif
#   From: 2010.05.17/outbox.cif.g08.bks.cpg/sg62_15_cif.got.tgz:28582.got - 2010.06.03 15:25:27.
