data_PCOD9463345
_publ_section_title
;
Structure prediction by ZEFSAII (Michael W. Deem and Ramdas Pophale) SiO2 
 PCOD9463345
Probable space group: P N M A
;
_chemical_formula_sum "Si O2"
_cell_formula_units_Z 56
_cell_length_a 17.304757
_cell_length_b 13.748656
_cell_length_c 12.725288
_cell_angle_alpha 90.000000
_cell_angle_beta 90.000000
_cell_angle_gamma 90.000000
_cell_volume 3027.564269
_symmetry_space_group_name_H-M "P N M A"
_symmetry_group_IT_number 62
_symmetry_cell_setting 'orthorhombic'
loop_
_space_group_symop_operation_xyz
x,y,z
1/2-x,-y,1/2+z
1/2+x,1/2-y,1/2-z
-x,1/2+y,-z
-x,-y,-z
1/2+x,y,1/2-z
1/2-x,1/2+y,1/2+z
x,1/2-y,z
loop_
_atom_site_type_symbol
_atom_site_label
_atom_site_fract_x
_atom_site_fract_y
_atom_site_fract_z
Si Si1 0.084018 0.865346 0.493990
Si Si2 0.185677 0.139795 0.502245
Si Si3 0.277062 0.454273 0.881978
Si Si4 0.325690 0.138318 0.668186
Si Si5 0.450853 0.955704 0.135019
Si Si6 0.958828 0.363310 0.991322
Si Si7 0.905985 0.541035 0.122132
O O1 0.072227 0.750000 0.507182
O O2 0.172557 0.889594 0.463194
O O3 0.032614 0.909122 0.398046
O O4 0.057657 0.933343 0.591999
O O5 0.176079 0.250000 0.466666
O O6 0.258356 0.134355 0.581195
O O7 0.111661 0.104647 0.567467
O O8 0.201396 0.064625 0.409821
O O9 0.303348 0.427270 0.765483
O O10 0.185161 0.442082 0.890303
O O11 0.331571 0.250000 0.706034
O O12 0.404167 0.112661 0.608495
O O13 0.430848 0.946498 0.256960
O O14 0.949080 0.250000 0.015665
O O15 0.044788 0.388768 0.953713
O O16 0.930286 0.433273 0.083785
#
# Coordination Sequence:
#
# PCOD9463345 Si02
#       7
#     8   8   8   8   8   8   8
#     4  10  22  39  58  86 118 150 191 239 290 338
#     4  10  20  35  58  85 112 148 193 234 277 335
#     4  11  21  35  59  85 119 147 186 241 287 330
#     4  10  19  35  58  81 109 148 187 229 278 329
#     4  10  21  39  61  84 114 153 192 241 283 337
#     4  10  23  40  58  82 115 151 190 233 279 343
#     4  11  22  37  59  86 114 149 191 232 286 340
#
# _framework density 18.496718999999999
#
# number of rings (size 3 to 8) (size 9 to 14) (size 15 to 20)
#    0.000    1.714    2.857    1.714    0.000    4.000 
#    0.000    0.000    0.000    8.571    0.000    0.000 
#    0.000    0.000    0.000    0.000    0.000    0.000 
#
# Total GULP energy -312668.144709 kJ/mol
# GULP energy per Si atom -5583.359727 kJ/mol
# Density = 1.845462 g / cm^3
# Si number density = 18.496719 Si / 1000 Ang^3
#
#
#
# Elastic Constant Matrix: (Units=GPa)
#
#
# Indices 1 2 3 4 5 6 
#
# 1 110.2793 17.2328 15.7753 0.0000 0.0000 0.0000
# 2 17.2328 90.1066 17.7095 0.0000 0.0000 0.0000
# 3 15.7753 17.7095 48.0665 0.0000 0.0000 0.0000
# 4 0.0000 0.0000 0.0000 18.1970 0.0000 0.0000
# 5 0.0000 0.0000 0.0000 0.0000 14.9144 0.0000
# 6 0.0000 0.0000 0.0000 0.0000 0.0000 13.6057
#
#
#
# Elastic Compliance Matrix: (Units=1/GPa)
#
#
# Indices 1 2 3 4 5 6 
#
# 1 0.009658 -0.001320 -0.002683 0.000000 0.000000 0.000000
# 2 -0.001320 0.012145 -0.004041 0.000000 0.000000 0.000000
# 3 -0.002683 -0.004041 0.023174 0.000000 0.000000 0.000000
# 4 0.000000 0.000000 0.000000 0.054954 0.000000 0.000000
# 5 0.000000 0.000000 0.000000 0.000000 0.067049 0.000000
# 6 0.000000 0.000000 0.000000 0.000000 0.000000 0.073499
#
#
# Mechanical properties :
#
#
# Convention : Reuss Voigt Hill
#
# Bulk Modulus (GPa) = 34.61687 38.87641 36.74664
# Shear Modulus (GPa) = 18.78308 22.52576 20.65442
#
# Velocity S-wave (km/s) = 3.19012 3.49352 3.34526
# Velocity P-wave (km/s) = 5.68550 6.11036 5.90176
#
# Compressibility (1/GPa) = 0.02888765
#
# Stress axis : x y z
#
# Youngs Moduli (GPa) = 103.54139 82.34077 43.15140
#
# Poissons Ratio (x) = 0.10866 0.11580
# Poissons Ratio (y) = 0.13664 0.17439
# Poissons Ratio (z) = 0.27785 0.33277
#
# Static dielectric constant tensor:
#      x y z
#    x 1.673830 0.000000 0.000000 
#    y 0.000000 1.634980 0.000000 
#    z 0.000000 0.000000 1.611010 
# 
# From -- ./inp_files/13371.got.cif
#   From: 2010.05.17/outbox.cif.g08.bks.cpg/sg62_7_cif.got.tgz:13371.got - 2010.06.03 15:25:27.
