data_PCOD9463631
_publ_section_title
;
Structure prediction by ZEFSAII (Michael W. Deem and Ramdas Pophale) SiO2 
 PCOD9463631
Probable space group: P N M A
;
_chemical_formula_sum "Si O2"
_cell_formula_units_Z 40
_cell_length_a 12.921425
_cell_length_b 28.649851
_cell_length_c 5.244346
_cell_angle_alpha 90.000000
_cell_angle_beta 90.000000
_cell_angle_gamma 90.000000
_cell_volume 1941.440637
_symmetry_space_group_name_H-M "P N M A"
_symmetry_group_IT_number 62
_symmetry_cell_setting 'orthorhombic'
loop_
_space_group_symop_operation_xyz
x,y,z
1/2-x,-y,1/2+z
1/2+x,1/2-y,1/2-z
-x,1/2+y,-z
-x,-y,-z
1/2+x,y,1/2-z
1/2-x,1/2+y,1/2+z
x,1/2-y,z
loop_
_atom_site_type_symbol
_atom_site_label
_atom_site_fract_x
_atom_site_fract_y
_atom_site_fract_z
Si Si1 0.408679 0.893284 0.552069
Si Si2 0.020783 0.196617 0.900587
Si Si3 0.051537 0.651971 0.603551
Si Si4 0.306549 0.063899 0.083142
Si Si5 0.918252 0.038850 0.914535
O O1 0.552564 0.816800 0.640146
O O2 0.450754 0.881263 0.836032
O O3 0.314777 0.928649 0.544170
O O4 0.509938 0.914719 0.415549
O O5 0.053500 0.250000 0.913024
O O6 0.965644 0.184463 0.636918
O O7 0.111185 0.157684 0.932372
O O8 0.145153 0.616158 0.577404
O O9 0.335360 0.043836 0.359011
O O10 0.362479 0.035386 0.857079
O O11 0.000000 0.000000 0.000000
#
# Coordination Sequence:
#
# PCOD9463631 Si02
#       5
#     8   8   8   8   8
#     4   9  23  37  63  82 121 155 195 240 305 344
#     4  10  19  37  60  82 118 153 189 245 293 339
#     4   9  19  37  56  83 115 151 192 235 287 347
#     4  11  21  39  64  82 118 158 193 239 303 352
#     4  11  24  40  59  91 119 151 203 248 292 358
#
# _framework density 20.603255000000001
#
# number of rings (size 3 to 8) (size 9 to 14) (size 15 to 20)
#    1.200    0.800    2.000    1.200    2.800    1.600 
#    0.000    2.000    0.000    0.000    0.000    0.000 
#    0.000    0.000    0.000    0.000    0.000    0.000 
#
# Total GULP energy -222864.947894 kJ/mol
# GULP energy per Si atom -5571.623697 kJ/mol
# Density = 2.055636 g / cm^3
# Si number density = 20.603255 Si / 1000 Ang^3
#
#
#
# Elastic Constant Matrix: (Units=GPa)
#
#
# Indices 1 2 3 4 5 6 
#
# 1 66.0839 2.6874 7.2591 0.0000 0.0000 0.0000
# 2 2.6874 77.6446 -3.6571 0.0000 0.0000 0.0000
# 3 7.2591 -3.6571 109.6328 0.0000 0.0000 0.0000
# 4 0.0000 0.0000 0.0000 23.6275 0.0000 0.0000
# 5 0.0000 0.0000 0.0000 0.0000 2.6622 0.0000
# 6 0.0000 0.0000 0.0000 0.0000 0.0000 23.2260
#
#
#
# Elastic Compliance Matrix: (Units=1/GPa)
#
#
# Indices 1 2 3 4 5 6 
#
# 1 0.015269 -0.000577 -0.001030 0.000000 0.000000 0.000000
# 2 -0.000577 0.012921 0.000469 0.000000 0.000000 0.000000
# 3 -0.001030 0.000469 0.009205 0.000000 0.000000 0.000000
# 4 0.000000 0.000000 0.000000 0.042324 0.000000 0.000000
# 5 0.000000 0.000000 0.000000 0.000000 0.375636 0.000000
# 6 0.000000 0.000000 0.000000 0.000000 0.000000 0.043055
#
#
# Mechanical properties :
#
#
# Convention : Reuss Voigt Hill
#
# Bulk Modulus (GPa) = 28.47429 29.54887 29.01158
# Shear Modulus (GPa) = 9.75815 26.37459 18.06637
#
# Velocity S-wave (km/s) = 2.17865 3.58175 2.96441
# Velocity P-wave (km/s) = 4.49210 5.61055 5.08219
#
# Compressibility (1/GPa) = 0.03511940
#
# Stress axis : x y z
#
# Youngs Moduli (GPa) = 65.49255 77.39174 108.63391
#
# Poissons Ratio (x) = 0.04466 0.11192
# Poissons Ratio (y) = 0.03779 -0.05097
# Poissons Ratio (z) = 0.06747 -0.03631
#
# Static dielectric constant tensor:
#      x y z
#    x 1.725550 0.000000 0.000000 
#    y 0.000000 1.797230 0.000000 
#    z 0.000000 0.000000 1.750280 
# 
# From -- ./inp_files/686.got.cif
#   From: 2010.05.17/outbox.cif.g08.bks.cpg/sg62_1_cif.got.tgz:686.got - 2010.06.03 15:25:27.
