data_PCOD9463788
_publ_section_title
;
Structure prediction by ZEFSAII (Michael W. Deem and Ramdas Pophale) SiO2 
 PCOD9463788
Probable space group: P N M A
;
_chemical_formula_sum "Si O2"
_cell_formula_units_Z 36
_cell_length_a 5.062159
_cell_length_b 9.850554
_cell_length_c 34.518870
_cell_angle_alpha 90.000000
_cell_angle_beta 90.000000
_cell_angle_gamma 90.000000
_cell_volume 1721.285889
_symmetry_space_group_name_H-M "P N M A"
_symmetry_group_IT_number 62
_symmetry_cell_setting 'orthorhombic'
loop_
_space_group_symop_operation_xyz
x,y,z
1/2-x,-y,1/2+z
1/2+x,1/2-y,1/2-z
-x,1/2+y,-z
-x,-y,-z
1/2+x,y,1/2-z
1/2-x,1/2+y,1/2+z
x,1/2-y,z
loop_
_atom_site_type_symbol
_atom_site_label
_atom_site_fract_x
_atom_site_fract_y
_atom_site_fract_z
Si Si1 0.439986 0.405967 0.222271
Si Si2 0.341453 0.750000 0.276699
Si Si3 0.575534 0.413471 0.962580
Si Si4 0.833986 0.403147 0.835192
Si Si5 0.082009 0.087086 0.914039
O O1 0.706295 0.425287 0.246383
O O2 0.432118 0.250000 0.208863
O O3 0.374637 0.503630 0.186548
O O4 0.549781 0.750000 0.240728
O O5 0.431906 0.627969 0.304536
O O6 0.549279 0.250000 0.969245
O O7 0.371141 0.453013 0.928294
O O8 0.870792 0.440876 0.947821
O O9 0.500000 0.500000 0.000000
O O10 0.722311 0.250000 0.843718
O O11 0.962436 0.464383 0.873703
O O12 0.092617 0.250000 0.908723
#
# Coordination Sequence:
#
# PCOD9463788 Si02
#       5
#     8   4   8   8   8
#     4  10  21  36  52  72 103 141 178 216 262 307
#     4  10  20  30  48  76 104 132 174 218 252 294
#     4  10  20  36  58  79 108 135 175 209 265 316
#     4   9  20  35  54  79 106 137 179 219 269 306
#     4   9  19  35  53  81 107 140 166 218 266 321
#
# _framework density 20.914594999999998
#
# number of rings (size 3 to 8) (size 9 to 14) (size 15 to 20)
#    0.667    1.778    0.000    2.000    0.000    3.556 
#    0.000    2.222    0.000    0.000    0.000    0.000 
#    0.000    0.000    0.000    0.000    0.000    0.000 
#
# Total GULP energy -200974.657275 kJ/mol
# GULP energy per Si atom -5582.629369 kJ/mol
# Density = 2.086699 g / cm^3
# Si number density = 20.914595 Si / 1000 Ang^3
#
#
#
# Elastic Constant Matrix: (Units=GPa)
#
#
# Indices 1 2 3 4 5 6 
#
# 1 81.0747 0.3830 -12.9727 0.0000 0.0000 0.0000
# 2 0.3830 50.2921 11.3415 0.0000 0.0000 0.0000
# 3 -12.9727 11.3415 59.0874 0.0000 0.0000 0.0000
# 4 0.0000 0.0000 0.0000 27.5297 0.0000 0.0000
# 5 0.0000 0.0000 0.0000 0.0000 15.5807 0.0000
# 6 0.0000 0.0000 0.0000 0.0000 0.0000 18.1255
#
#
#
# Elastic Compliance Matrix: (Units=1/GPa)
#
#
# Indices 1 2 3 4 5 6 
#
# 1 0.012811 -0.000765 0.002960 0.000000 0.000000 0.000000
# 2 -0.000765 0.020829 -0.004166 0.000000 0.000000 0.000000
# 3 0.002960 -0.004166 0.018374 0.000000 0.000000 0.000000
# 4 0.000000 0.000000 0.000000 0.036324 0.000000 0.000000
# 5 0.000000 0.000000 0.000000 0.000000 0.064182 0.000000
# 6 0.000000 0.000000 0.000000 0.000000 0.000000 0.055171
#
#
# Mechanical properties :
#
#
# Convention : Reuss Voigt Hill
#
# Bulk Modulus (GPa) = 20.80242 20.88422 20.84332
# Shear Modulus (GPa) = 21.96278 25.02734 23.49506
#
# Velocity S-wave (km/s) = 3.24407 3.46301 3.35532
# Velocity P-wave (km/s) = 4.89897 5.09873 4.99985
#
# Compressibility (1/GPa) = 0.04807134
#
# Stress axis : x y z
#
# Youngs Moduli (GPa) = 78.05498 48.00966 54.42619
#
# Poissons Ratio (x) = 0.03673 -0.16108
# Poissons Ratio (y) = 0.05971 0.22674
# Poissons Ratio (z) = -0.23101 0.20001
#
# Static dielectric constant tensor:
#      x y z
#    x 1.763450 0.000000 0.000000 
#    y 0.000000 1.808210 0.000000 
#    z 0.000000 0.000000 1.759050 
# 
# From -- ./inp_files/31489.got.cif
#   From: 2010.05.17/outbox.cif.g08.bks.cpg/sg62_16_cif.got.tgz:31489.got - 2010.06.03 15:25:27.
