data_PCOD9463191
_publ_section_title
;
Structure prediction by ZEFSAII (Michael W. Deem and Ramdas Pophale) SiO2 
 PCOD9463191
Probable space group: P N M A
;
_chemical_formula_sum "Si O2"
_cell_formula_units_Z 56
_cell_length_a 17.831622
_cell_length_b 13.178522
_cell_length_c 11.769500
_cell_angle_alpha 90.000000
_cell_angle_beta 90.000000
_cell_angle_gamma 90.000000
_cell_volume 2765.766859
_symmetry_space_group_name_H-M "P N M A"
_symmetry_group_IT_number 62
_symmetry_cell_setting 'orthorhombic'
loop_
_space_group_symop_operation_xyz
x,y,z
1/2-x,-y,1/2+z
1/2+x,1/2-y,1/2-z
-x,1/2+y,-z
-x,-y,-z
1/2+x,y,1/2-z
1/2-x,1/2+y,1/2+z
x,1/2-y,z
loop_
_atom_site_type_symbol
_atom_site_label
_atom_site_fract_x
_atom_site_fract_y
_atom_site_fract_z
Si Si1 0.348615 0.570102 0.959310
Si Si2 0.491910 0.871046 0.839069
Si Si3 0.749515 0.636230 0.337958
Si Si4 0.118140 0.934081 0.996400
Si Si5 0.843373 0.136383 0.433425
Si Si6 0.457001 0.868295 0.578211
Si Si7 0.771227 0.070286 0.212908
O O1 0.434647 0.581070 0.928229
O O2 0.301870 0.609076 0.851889
O O3 0.317636 0.625524 0.070913
O O4 0.327258 0.452468 0.978612
O O5 0.482504 0.750000 0.844538
O O6 0.576886 0.891772 0.875548
O O7 0.473106 0.900187 0.709373
O O8 0.747186 0.750000 0.292300
O O9 0.673667 0.612127 0.409147
O O10 0.761406 0.546728 0.248792
O O11 0.036766 0.882116 0.986338
O O12 0.161143 0.920523 0.876955
O O13 0.101430 0.051854 0.025619
O O14 0.846746 0.250000 0.479646
O O15 0.786137 0.129056 0.329009
O O16 0.434761 0.750000 0.574399
#
# Coordination Sequence:
#
# PCOD9463191 Si02
#       7
#     8   8   8   8   8   8   8
#     4  10  21  36  55  82 112 144 183 233 277 329
#     4  10  19  34  57  83 109 144 186 231 277 329
#     4  10  21  36  55  78 108 147 185 224 278 337
#     4  10  20  36  56  81 113 147 185 233 282 332
#     4  10  21  37  58  82 110 147 188 229 281 333
#     4  10  20  34  57  84 110 145 189 233 280 332
#     4  10  21  37  55  81 113 146 184 228 282 327
#
# _framework density 20.24755
#
# number of rings (size 3 to 8) (size 9 to 14) (size 15 to 20)
#    0.000    2.000    1.429    2.143    0.000    4.000 
#    0.000    8.571    0.000    0.857    0.000    0.000 
#    0.000    0.000    0.000    0.000    0.000    0.000 
#
# Total GULP energy -312728.167026 kJ/mol
# GULP energy per Si atom -5584.431554 kJ/mol
# Density = 2.020147 g / cm^3
# Si number density = 20.247550 Si / 1000 Ang^3
#
#
#
# Elastic Constant Matrix: (Units=GPa)
#
#
# Indices 1 2 3 4 5 6 
#
# 1 27.0556 0.8304 2.1340 0.0000 0.0000 0.0000
# 2 0.8304 44.2499 -16.7443 0.0000 0.0000 0.0000
# 3 2.1340 -16.7443 25.5522 0.0000 0.0000 0.0000
# 4 0.0000 0.0000 0.0000 2.3665 0.0000 0.0000
# 5 0.0000 0.0000 0.0000 0.0000 14.4674 0.0000
# 6 0.0000 0.0000 0.0000 0.0000 0.0000 17.1280
#
#
#
# Elastic Compliance Matrix: (Units=1/GPa)
#
#
# Indices 1 2 3 4 5 6 
#
# 1 0.037414 -0.002506 -0.004767 0.000000 0.000000 0.000000
# 2 -0.002506 0.030218 0.020011 0.000000 0.000000 0.000000
# 3 -0.004767 0.020011 0.052647 0.000000 0.000000 0.000000
# 4 0.000000 0.000000 0.000000 0.422569 0.000000 0.000000
# 5 0.000000 0.000000 0.000000 0.000000 0.069121 0.000000
# 6 0.000000 0.000000 0.000000 0.000000 0.000000 0.058384
#
#
# Mechanical properties :
#
#
# Convention : Reuss Voigt Hill
#
# Bulk Modulus (GPa) = 6.86077 7.69978 7.28027
# Shear Modulus (GPa) = 7.21021 14.16820 10.68921
#
# Velocity S-wave (km/s) = 1.88912 2.64815 2.30016
# Velocity P-wave (km/s) = 2.85555 3.62785 3.26462
#
# Compressibility (1/GPa) = 0.14575632
#
# Stress axis : x y z
#
# Youngs Moduli (GPa) = 26.72809 33.09257 18.99441
#
# Poissons Ratio (x) = 0.08293 0.09054
# Poissons Ratio (y) = 0.06698 -0.38010
# Poissons Ratio (z) = 0.12741 -0.66222
#
# Static dielectric constant tensor:
#      x y z
#    x 1.745480 0.000000 0.000000 
#    y 0.000000 1.706790 0.000000 
#    z 0.000000 0.000000 1.694650 
# 
# From -- ./inp_files/14777.got.cif
#   From: 2010.05.17/outbox.cif.g08.bks.cpg/sg62_8_cif.got.tgz:14777.got - 2010.06.03 15:25:27.
