data_PCOD9463277
_publ_section_title
;
Structure prediction by ZEFSAII (Michael W. Deem and Ramdas Pophale) SiO2 
 PCOD9463277
Probable space group: P N M A
;
_chemical_formula_sum "Si O2"
_cell_formula_units_Z 52
_cell_length_a 7.013000
_cell_length_b 9.813761
_cell_length_c 33.220924
_cell_angle_alpha 90.000000
_cell_angle_beta 90.000000
_cell_angle_gamma 90.000000
_cell_volume 2286.393747
_symmetry_space_group_name_H-M "P N M A"
_symmetry_group_IT_number 62
_symmetry_cell_setting 'orthorhombic'
loop_
_space_group_symop_operation_xyz
x,y,z
1/2-x,-y,1/2+z
1/2+x,1/2-y,1/2-z
-x,1/2+y,-z
-x,-y,-z
1/2+x,y,1/2-z
1/2-x,1/2+y,1/2+z
x,1/2-y,z
loop_
_atom_site_type_symbol
_atom_site_label
_atom_site_fract_x
_atom_site_fract_y
_atom_site_fract_z
Si Si1 0.454849 0.592596 0.875232
Si Si2 0.624037 0.904604 0.194889
Si Si3 0.941350 0.250000 0.993828
Si Si4 0.455192 0.091371 0.037854
Si Si5 0.486115 0.974586 0.555121
Si Si6 0.411255 0.907315 0.644517
Si Si7 0.178964 0.904977 0.215262
O O1 0.396126 0.750000 0.874299
O O2 0.346922 0.503925 0.842399
O O3 0.444677 0.542341 0.921162
O O4 0.681852 0.590847 0.864684
O O5 0.691803 0.750000 0.187650
O O6 0.394697 0.897040 0.199809
O O7 0.689394 0.955451 0.238757
O O8 0.894409 0.129415 0.027739
O O9 0.994825 0.371963 0.961072
O O10 0.493023 0.250000 0.029623
O O11 0.229137 0.079920 0.046150
O O12 0.500000 0.000000 0.000000
O O13 0.507546 0.957541 0.603031
O O14 0.461517 0.750000 0.652425
O O15 0.433943 0.002413 0.683669
O O16 0.102718 0.750000 0.217417
#
# Coordination Sequence:
#
# PCOD9463277 Si02
#       7
#     8   8   4   8   8   8   8
#     4   8  16  31  50  71  94 127 162 207 247 284
#     4   9  17  31  50  72  97 124 160 201 245 298
#     4  10  20  32  56  72 102 138 168 210 258 304
#     4  10  20  34  53  76 105 133 173 219 256 302
#     4  10  19  35  52  77 101 135 175 211 257 302
#     4   9  16  30  50  73  96 123 166 212 241 287
#     4   9  18  30  50  72  97 125 160 200 248 295
#
# _framework density 22.743241999999999
#
# number of rings (size 3 to 8) (size 9 to 14) (size 15 to 20)
#    0.000    2.769    1.538    0.923    2.154    1.231 
#    2.769    0.000    6.769    0.000    0.000    0.000 
#    0.000    0.000    0.000    0.000    0.000    0.000 
#
# Total GULP energy -289717.822228 kJ/mol
# GULP energy per Si atom -5571.496581 kJ/mol
# Density = 2.269148 g / cm^3
# Si number density = 22.743242 Si / 1000 Ang^3
#
#
#
# Elastic Constant Matrix: (Units=GPa)
#
#
# Indices 1 2 3 4 5 6 
#
# 1 66.9913 3.8211 13.6617 0.0000 0.0000 0.0000
# 2 3.8211 157.9993 118.1970 0.0000 0.0000 0.0000
# 3 13.6617 118.1970 230.9505 0.0000 0.0000 0.0000
# 4 0.0000 0.0000 0.0000 61.8913 0.0000 0.0000
# 5 0.0000 0.0000 0.0000 0.0000 32.8057 0.0000
# 6 0.0000 0.0000 0.0000 0.0000 0.0000 308.2600
#
#
#
# Elastic Compliance Matrix: (Units=1/GPa)
#
#
# Indices 1 2 3 4 5 6 
#
# 1 0.015133 0.000492 -0.001147 0.000000 0.000000 0.000000
# 2 0.000492 0.010272 -0.005286 0.000000 0.000000 0.000000
# 3 -0.001147 -0.005286 0.007103 0.000000 0.000000 0.000000
# 4 0.000000 0.000000 0.000000 0.016157 0.000000 0.000000
# 5 0.000000 0.000000 0.000000 0.000000 0.030483 0.000000
# 6 0.000000 0.000000 0.000000 0.000000 0.000000 0.003244
#
#
# Mechanical properties :
#
#
# Convention : Reuss Voigt Hill
#
# Bulk Modulus (GPa) = 48.48244 80.81119 64.64682
# Shear Modulus (GPa) = 49.43210 101.94214 75.68712
#
# Velocity S-wave (km/s) = 4.66712 6.70226 5.77505
# Velocity P-wave (km/s) = 7.09974 9.77256 8.54135
#
# Compressibility (1/GPa) = 0.02062603
#
# Stress axis : x y z
#
# Youngs Moduli (GPa) = 66.08001 97.35593 140.78443
#
# Poissons Ratio (x) = -0.04791 0.16149
# Poissons Ratio (y) = -0.03252 0.74418
# Poissons Ratio (z) = 0.07580 0.51462
#
# Static dielectric constant tensor:
#      x y z
#    x 2.035980 0.000000 0.000000 
#    y 0.000000 1.773110 0.000000 
#    z 0.000000 0.000000 1.821390 
# 
# From -- ./inp_files/31078.got.cif
#   From: 2010.05.17/outbox.cif.g08.bks.cpg/sg62_16_cif.got.tgz:31078.got - 2010.06.03 15:25:27.
