data_PCOD9463440
_publ_section_title
;
Structure prediction by ZEFSAII (Michael W. Deem and Ramdas Pophale) SiO2 
 PCOD9463440
Probable space group: P N M A
;
_chemical_formula_sum "Si O2"
_cell_formula_units_Z 48
_cell_length_a 19.939958
_cell_length_b 13.464069
_cell_length_c 7.470861
_cell_angle_alpha 90.000000
_cell_angle_beta 90.000000
_cell_angle_gamma 90.000000
_cell_volume 2005.724244
_symmetry_space_group_name_H-M "P N M A"
_symmetry_group_IT_number 62
_symmetry_cell_setting 'orthorhombic'
loop_
_space_group_symop_operation_xyz
x,y,z
1/2-x,-y,1/2+z
1/2+x,1/2-y,1/2-z
-x,1/2+y,-z
-x,-y,-z
1/2+x,y,1/2-z
1/2-x,1/2+y,1/2+z
x,1/2-y,z
loop_
_atom_site_type_symbol
_atom_site_label
_atom_site_fract_x
_atom_site_fract_y
_atom_site_fract_z
Si Si1 0.508396 0.364459 0.030542
Si Si2 0.150830 0.912732 0.139149
Si Si3 0.886158 0.476580 0.500394
Si Si4 0.497757 0.106136 0.596482
Si Si5 0.355135 0.855658 0.541458
Si Si6 0.203635 0.356239 0.654189
O O1 0.516634 0.250000 0.073460
O O2 0.567001 0.437674 0.091572
O O3 0.505815 0.379228 0.812809
O O4 0.439358 0.409864 0.106553
O O5 0.145555 0.905264 0.353925
O O6 0.081045 0.867713 0.066154
O O7 0.220495 0.864398 0.086128
O O8 0.155389 0.032533 0.112787
O O9 0.833337 0.542846 0.399478
O O10 0.566716 0.150045 0.519492
O O11 0.500000 0.000000 0.500000
O O12 0.341602 0.750000 0.641108
O O13 0.307705 0.853497 0.366518
O O14 0.174022 0.250000 0.589461
#
# Coordination Sequence:
#
# PCOD9463440 Si02
#       6
#     8   8   8   8   8   8
#     4  10  19  35  61  89 117 156 202 245 299 355
#     4  10  22  37  55  85 119 151 189 247 295 342
#     4  10  21  36  59  89 118 154 196 250 290 350
#     4   9  18  34  57  85 115 149 196 243 286 340
#     4  10  20  36  59  82 110 153 195 236 292 358
#     4  11  22  38  60  83 113 155 200 240 299 364
#
# _framework density 23.931505999999999
#
# number of rings (size 3 to 8) (size 9 to 14) (size 15 to 20)
#    0.000    2.000    1.667    2.000    0.000    4.667 
#    0.000    0.833    0.000    2.000    0.000    0.000 
#    0.000    0.000    0.000    0.000    0.000    0.000 
#
# Total GULP energy -267388.857506 kJ/mol
# GULP energy per Si atom -5570.601198 kJ/mol
# Density = 2.387704 g / cm^3
# Si number density = 23.931506 Si / 1000 Ang^3
#
#
#
# Elastic Constant Matrix: (Units=GPa)
#
#
# Indices 1 2 3 4 5 6 
#
# 1 108.5420 16.6056 2.2730 0.0000 0.0000 0.0000
# 2 16.6056 108.1602 -4.8498 0.0000 0.0000 0.0000
# 3 2.2730 -4.8498 38.7231 0.0000 0.0000 0.0000
# 4 0.0000 0.0000 0.0000 -44.5938 0.0000 0.0000
# 5 0.0000 0.0000 0.0000 0.0000 19.8117 0.0000
# 6 0.0000 0.0000 0.0000 0.0000 0.0000 -51.0495
#
#
#
# Elastic Compliance Matrix: (Units=1/GPa)
#
#
# Indices 1 2 3 4 5 6 
#
# 1 0.009456 -0.001485 -0.000741 0.000000 0.000000 0.000000
# 2 -0.001485 0.009531 0.001281 0.000000 0.000000 0.000000
# 3 -0.000741 0.001281 0.026028 0.000000 0.000000 0.000000
# 4 0.000000 0.000000 0.000000 -0.022425 0.000000 0.000000
# 5 0.000000 0.000000 0.000000 0.000000 0.050475 0.000000
# 6 0.000000 0.000000 0.000000 0.000000 0.000000 -0.019589
#
#
# Mechanical properties :
#
#
# Convention : Reuss Voigt Hill
#
# Bulk Modulus (GPa) = 23.18855 31.49810 27.34333
# Shear Modulus (GPa) = 71.69291 0.92677 36.30984
#
# Velocity S-wave (km/s) = 5.47929 0.62298 3.89940
# Velocity P-wave (km/s) = 7.05271 3.70241 5.63243
#
# Compressibility (1/GPa) = 0.04312473
#
# Stress axis : x y z
#
# Youngs Moduli (GPa) = 105.75610 104.92122 38.41976
#
# Poissons Ratio (x) = 0.15580 0.02847
# Poissons Ratio (y) = 0.15704 -0.04921
# Poissons Ratio (z) = 0.07837 -0.13439
#
# Static dielectric constant tensor:
#      x y z
#    x 1.941720 0.000000 0.000000 
#    y 0.000000 1.901260 0.000000 
#    z 0.000000 0.000000 1.942660 
# 
# From -- ./inp_files/8608.got.cif
#   From: 2010.05.17/outbox.cif.g08.bks.cpg/sg62_5_cif.got.tgz:8608.got - 2010.06.03 15:25:27.
