data_PCOD9463367
_publ_section_title
;
Structure prediction by ZEFSAII (Michael W. Deem and Ramdas Pophale) SiO2 
 PCOD9463367
Probable space group: P N M A
;
_chemical_formula_sum "Si O2"
_cell_formula_units_Z 52
_cell_length_a 28.016669
_cell_length_b 14.818766
_cell_length_c 5.363867
_cell_angle_alpha 90.000000
_cell_angle_beta 90.000000
_cell_angle_gamma 90.000000
_cell_volume 2226.929868
_symmetry_space_group_name_H-M "P N M A"
_symmetry_group_IT_number 62
_symmetry_cell_setting 'orthorhombic'
loop_
_space_group_symop_operation_xyz
x,y,z
1/2-x,-y,1/2+z
1/2+x,1/2-y,1/2-z
-x,1/2+y,-z
-x,-y,-z
1/2+x,y,1/2-z
1/2-x,1/2+y,1/2+z
x,1/2-y,z
loop_
_atom_site_type_symbol
_atom_site_label
_atom_site_fract_x
_atom_site_fract_y
_atom_site_fract_z
Si Si1 0.107307 0.900511 0.802812
Si Si2 0.448772 0.750000 0.542303
Si Si3 0.781934 0.391518 0.198591
Si Si4 0.772100 0.611035 0.200990
Si Si5 0.881599 0.882529 0.245745
Si Si6 0.961133 0.611675 0.597396
Si Si7 0.549739 0.600507 0.195726
O O1 0.162088 0.868389 0.801744
O O2 0.077921 0.876777 0.052799
O O3 0.110874 0.010425 0.796135
O O4 0.081281 0.874117 0.546268
O O5 0.411275 0.672261 0.451699
O O6 0.480018 0.828436 0.681866
O O7 0.776428 0.501192 0.199039
O O8 0.757783 0.361071 0.942509
O O9 0.753953 0.361076 0.446097
O O10 0.826476 0.641173 0.231266
O O11 0.908419 0.860719 0.505580
O O12 0.958711 0.507859 0.675176
O O13 0.996241 0.634575 0.363900
#
# Coordination Sequence:
#
# PCOD9463367 Si02
#       7
#     8   4   8   8   8   8   8
#     4  10  19  35  58  85 113 148 187 244 295 342
#     4  12  22  38  54  80 116 158 194 234 286 368
#     4   9  17  30  51  80 110 137 178 220 276 331
#     4   9  18  30  50  78 111 144 171 220 273 336
#     4  10  22  34  54  79 119 151 190 229 295 356
#     4  10  23  36  55  82 117 155 197 238 292 358
#     4  10  21  36  59  83 116 152 195 244 299 341
#
# _framework density 23.350531
#
# number of rings (size 3 to 8) (size 9 to 14) (size 15 to 20)
#    0.000    2.154    1.538    1.385    4.308    5.538 
#    0.000    0.000    0.000    0.000    0.000    6.462 
#    0.000    0.000    0.000    0.000    0.000    0.000 
#
# Total GULP energy -289570.113252 kJ/mol
# GULP energy per Si atom -5568.656024 kJ/mol
# Density = 2.329738 g / cm^3
# Si number density = 23.350531 Si / 1000 Ang^3
#
#
#
# Elastic Constant Matrix: (Units=GPa)
#
#
# Indices 1 2 3 4 5 6 
#
# 1 164.9462 2.4016 71.4116 0.0000 0.0000 0.0000
# 2 2.4016 33.9983 -2.1853 0.0000 0.0000 0.0000
# 3 71.4116 -2.1853 161.7666 0.0000 0.0000 0.0000
# 4 0.0000 0.0000 0.0000 -24.5334 0.0000 0.0000
# 5 0.0000 0.0000 0.0000 0.0000 43.4163 0.0000
# 6 0.0000 0.0000 0.0000 0.0000 0.0000 -14.2144
#
#
#
# Elastic Compliance Matrix: (Units=1/GPa)
#
#
# Indices 1 2 3 4 5 6 
#
# 1 0.007514 -0.000745 -0.003327 0.000000 0.000000 0.000000
# 2 -0.000745 0.029513 0.000727 0.000000 0.000000 0.000000
# 3 -0.003327 0.000727 0.007660 0.000000 0.000000 0.000000
# 4 0.000000 0.000000 0.000000 -0.040761 0.000000 0.000000
# 5 0.000000 0.000000 0.000000 0.000000 0.023033 0.000000
# 6 0.000000 0.000000 0.000000 0.000000 0.000000 -0.070351
#
#
# Mechanical properties :
#
#
# Convention : Reuss Voigt Hill
#
# Bulk Modulus (GPa) = 26.31707 55.99633 41.15670
# Shear Modulus (GPa) = -208.00265 20.20593 -93.89836
#
# Velocity S-wave (km/s) = -9.44837 2.94484 -6.34821
# Velocity P-wave (km/s) = 10.37950 5.96621 6.00577
#
# Compressibility (1/GPa) = 0.03799816
#
# Stress axis : x y z
#
# Youngs Moduli (GPa) = 133.08808 33.88389 130.54353
#
# Poissons Ratio (x) = 0.02523 0.43432
# Poissons Ratio (y) = 0.09910 -0.09496
# Poissons Ratio (z) = 0.44279 -0.02465
#
# Static dielectric constant tensor:
#      x y z
#    x 1.830760 0.000000 0.000000 
#    y 0.000000 1.904200 0.000000 
#    z 0.000000 0.000000 1.951660 
# 
# From -- ./inp_files/3262.got.cif
#   From: 2010.05.17/outbox.cif.g08.bks.cpg/sg62_2_cif.got.tgz:3262.got - 2010.06.03 15:25:27.
