data_PCOD9463558
_publ_section_title
;
Structure prediction by ZEFSAII (Michael W. Deem and Ramdas Pophale) SiO2 
 PCOD9463558
Probable space group: P N M A
;
_chemical_formula_sum "Si O2"
_cell_formula_units_Z 48
_cell_length_a 18.388013
_cell_length_b 16.219122
_cell_length_c 8.976636
_cell_angle_alpha 90.000000
_cell_angle_beta 90.000000
_cell_angle_gamma 90.000000
_cell_volume 2677.168816
_symmetry_space_group_name_H-M "P N M A"
_symmetry_group_IT_number 62
_symmetry_cell_setting 'orthorhombic'
loop_
_space_group_symop_operation_xyz
x,y,z
1/2-x,-y,1/2+z
1/2+x,1/2-y,1/2-z
-x,1/2+y,-z
-x,-y,-z
1/2+x,y,1/2-z
1/2-x,1/2+y,1/2+z
x,1/2-y,z
loop_
_atom_site_type_symbol
_atom_site_label
_atom_site_fract_x
_atom_site_fract_y
_atom_site_fract_z
Si Si1 0.546499 0.559215 0.807176
Si Si2 0.970713 0.345252 0.020638
Si Si3 0.304208 0.846740 0.120256
Si Si4 0.157966 0.946737 0.121620
Si Si5 0.613320 0.018539 0.073369
Si Si6 0.615733 0.418832 0.602494
O O1 0.549093 0.634516 0.692345
O O2 0.465098 0.546985 0.865616
O O3 0.570042 0.481213 0.707164
O O4 0.598766 0.552635 0.950047
O O5 0.960067 0.250000 0.986050
O O6 0.917597 0.401233 0.919690
O O7 0.054373 0.370428 0.990363
O O8 0.308393 0.750000 0.087036
O O9 0.222866 0.882038 0.108625
O O10 0.336670 0.864259 0.285417
O O11 0.349783 0.903974 0.007035
O O12 0.156480 0.983533 0.286791
O O13 0.162887 0.023044 0.006149
#
# Coordination Sequence:
#
# PCOD9463558 Si02
#       6
#     8   8   8   8   8   8
#     4   9  18  35  58  83 107 141 190 233 278 340
#     4  11  20  34  58  87 117 145 189 245 285 323
#     4  11  24  37  53  84 119 148 187 238 287 330
#     4  11  20  39  60  82 109 157 194 227 279 350
#     4  10  19  36  61  79 109 149 188 232 278 343
#     4  10  19  38  60  80 109 154 196 222 277 350
#
# _framework density 17.929389
#
# number of rings (size 3 to 8) (size 9 to 14) (size 15 to 20)
#    0.000    1.667    3.333    3.000    0.000    0.667 
#    0.000    1.667    0.000    0.000    0.000    0.000 
#    0.000    0.000    0.000    0.000    0.000    0.000 
#
# Total GULP energy -267732.867857 kJ/mol
# GULP energy per Si atom -5577.768080 kJ/mol
# Density = 1.788858 g / cm^3
# Si number density = 17.929389 Si / 1000 Ang^3
#
#
#
# Elastic Constant Matrix: (Units=GPa)
#
#
# Indices 1 2 3 4 5 6 
#
# 1 56.2910 9.8317 17.1417 0.0000 0.0000 0.0000
# 2 9.8317 65.5561 29.0092 0.0000 0.0000 0.0000
# 3 17.1417 29.0092 100.8671 0.0000 0.0000 0.0000
# 4 0.0000 0.0000 0.0000 12.0838 0.0000 0.0000
# 5 0.0000 0.0000 0.0000 0.0000 10.3168 0.0000
# 6 0.0000 0.0000 0.0000 0.0000 0.0000 12.7351
#
#
#
# Elastic Compliance Matrix: (Units=1/GPa)
#
#
# Indices 1 2 3 4 5 6 
#
# 1 0.018883 -0.001618 -0.002744 0.000000 0.000000 0.000000
# 2 -0.001618 0.017617 -0.004792 0.000000 0.000000 0.000000
# 3 -0.002744 -0.004792 0.011758 0.000000 0.000000 0.000000
# 4 0.000000 0.000000 0.000000 0.082755 0.000000 0.000000
# 5 0.000000 0.000000 0.000000 0.000000 0.096929 0.000000
# 6 0.000000 0.000000 0.000000 0.000000 0.000000 0.078523
#
#
# Mechanical properties :
#
#
# Convention : Reuss Voigt Hill
#
# Bulk Modulus (GPa) = 33.38687 37.18661 35.28674
# Shear Modulus (GPa) = 14.93622 18.14258 16.53940
#
# Velocity S-wave (km/s) = 2.88941 3.18447 3.04052
# Velocity P-wave (km/s) = 5.45832 5.85720 5.66127
#
# Compressibility (1/GPa) = 0.02995189
#
# Stress axis : x y z
#
# Youngs Moduli (GPa) = 52.95795 56.76299 85.04555
#
# Poissons Ratio (x) = 0.09183 0.23334
# Poissons Ratio (y) = 0.08568 0.40751
# Poissons Ratio (z) = 0.14530 0.27199
#
# Static dielectric constant tensor:
#      x y z
#    x 1.615890 0.000000 0.000000 
#    y 0.000000 1.581590 0.000000 
#    z 0.000000 0.000000 1.632810 
# 
# From -- ./inp_files/7624.got.cif
#   From: 2010.05.17/outbox.cif.g08.bks.cpg/sg62_4_cif.got.tgz:7624.got - 2010.06.03 15:25:27.
