data_PCOD9463748
_publ_section_title
;
Structure prediction by ZEFSAII (Michael W. Deem and Ramdas Pophale) SiO2 
 PCOD9463748
Probable space group: P N M A
;
_chemical_formula_sum "Si O2"
_cell_formula_units_Z 56
_cell_length_a 10.176640
_cell_length_b 11.789439
_cell_length_c 23.302050
_cell_angle_alpha 90.000000
_cell_angle_beta 90.000000
_cell_angle_gamma 90.000000
_cell_volume 2795.707175
_symmetry_space_group_name_H-M "P N M A"
_symmetry_group_IT_number 62
_symmetry_cell_setting 'orthorhombic'
loop_
_space_group_symop_operation_xyz
x,y,z
1/2-x,-y,1/2+z
1/2+x,1/2-y,1/2-z
-x,1/2+y,-z
-x,-y,-z
1/2+x,y,1/2-z
1/2-x,1/2+y,1/2+z
x,1/2-y,z
loop_
_atom_site_type_symbol
_atom_site_label
_atom_site_fract_x
_atom_site_fract_y
_atom_site_fract_z
Si Si1 0.943695 0.522612 0.137845
Si Si2 0.849069 0.379333 0.430020
Si Si3 0.313738 0.617418 0.462910
Si Si4 0.517131 0.750000 0.185208
Si Si5 0.180114 0.380552 0.179105
Si Si6 0.838001 0.750000 0.201379
Si Si7 0.055389 0.542955 0.392692
Si Si8 0.285127 0.618553 0.812845
O O1 0.922492 0.544490 0.070248
O O2 0.889117 0.637191 0.168333
O O3 0.849885 0.421862 0.159226
O O4 0.084643 0.479995 0.157667
O O5 0.892251 0.250000 0.444585
O O6 0.726367 0.405531 0.471679
O O7 0.801270 0.380229 0.364446
O O8 0.959420 0.474268 0.434123
O O9 0.347630 0.750000 0.458376
O O10 0.179056 0.593189 0.427482
O O11 0.676018 0.750000 0.202529
O O12 0.416324 0.750000 0.238275
O O13 0.492948 0.857452 0.144473
O O14 0.125149 0.250000 0.176305
O O15 0.216703 0.402558 0.244891
O O16 0.107373 0.454525 0.345558
O O17 0.309629 0.750000 0.822387
#
# Coordination Sequence:
#
# PCOD9463748 Si02
#       8
#     8   8   8   4   8   4   8   8
#     4  11  21  38  62  83 117 159 200 238 305 365
#     4  10  23  38  61  87 117 155 202 257 302 362
#     4  10  19  40  61  83 117 156 203 245 306 360
#     4  12  24  38  62  90 132 162 206 248 312 373
#     4  10  23  39  56  88 120 155 197 248 309 360
#     4  12  24  40  60  96 122 172 198 248 310 381
#     4  11  20  38  60  88 117 156 198 249 304 357
#     4  10  21  35  58  85 117 150 191 242 297 358
#
# _framework density 20.030709999999999
#
# number of rings (size 3 to 8) (size 9 to 14) (size 15 to 20)
#    0.000    1.429    4.286    2.143    4.000    0.571 
#    0.000    0.000    3.143    0.000    0.000    0.000 
#    0.000    0.000    0.000    0.000    0.000    0.000 
#
# Total GULP energy -312531.308917 kJ/mol
# GULP energy per Si atom -5580.916231 kJ/mol
# Density = 1.998512 g / cm^3
# Si number density = 20.030710 Si / 1000 Ang^3
#
#
#
# Elastic Constant Matrix: (Units=GPa)
#
#
# Indices 1 2 3 4 5 6 
#
# 1 25.2095 10.7022 -0.0977 0.0000 0.0000 0.0000
# 2 10.7022 52.8454 14.4446 0.0000 0.0000 0.0000
# 3 -0.0977 14.4446 64.6691 0.0000 0.0000 0.0000
# 4 0.0000 0.0000 0.0000 22.5042 0.0000 0.0000
# 5 0.0000 0.0000 0.0000 0.0000 18.0541 0.0000
# 6 0.0000 0.0000 0.0000 0.0000 0.0000 21.6061
#
#
#
# Elastic Compliance Matrix: (Units=1/GPa)
#
#
# Indices 1 2 3 4 5 6 
#
# 1 0.043684 -0.009441 0.002175 0.000000 0.000000 0.000000
# 2 -0.009441 0.022194 -0.004972 0.000000 0.000000 0.000000
# 3 0.002175 -0.004972 0.016577 0.000000 0.000000 0.000000
# 4 0.000000 0.000000 0.000000 0.044436 0.000000 0.000000
# 5 0.000000 0.000000 0.000000 0.000000 0.055389 0.000000
# 6 0.000000 0.000000 0.000000 0.000000 0.000000 0.046283
#
#
# Mechanical properties :
#
#
# Convention : Reuss Voigt Hill
#
# Bulk Modulus (GPa) = 17.24757 21.42469 19.33613
# Shear Modulus (GPa) = 18.35762 20.27786 19.31774
#
# Velocity S-wave (km/s) = 3.03062 3.18518 3.10886
# Velocity P-wave (km/s) = 4.56896 4.92405 4.74983
#
# Compressibility (1/GPa) = 0.05797918
#
# Stress axis : x y z
#
# Youngs Moduli (GPa) = 22.89158 45.05696 60.32418
#
# Poissons Ratio (x) = 0.42540 -0.13120
# Poissons Ratio (y) = 0.21613 0.29991
# Poissons Ratio (z) = -0.04979 0.22401
#
# Static dielectric constant tensor:
#      x y z
#    x 1.736170 0.000000 0.000000 
#    y 0.000000 1.718180 0.000000 
#    z 0.000000 0.000000 1.722620 
# 
# From -- ./inp_files/26656.got.cif
#   From: 2010.05.17/outbox.cif.g08.bks.cpg/sg62_14_cif.got.tgz:26656.got - 2010.06.03 15:25:27.
