data_PCOD9463573
_publ_section_title
;
Structure prediction by ZEFSAII (Michael W. Deem and Ramdas Pophale) SiO2 
 PCOD9463573
Probable space group: P N M A
;
_chemical_formula_sum "Si O2"
_cell_formula_units_Z 48
_cell_length_a 9.456769
_cell_length_b 31.012509
_cell_length_c 8.222692
_cell_angle_alpha 90.000000
_cell_angle_beta 90.000000
_cell_angle_gamma 90.000000
_cell_volume 2411.535764
_symmetry_space_group_name_H-M "P N M A"
_symmetry_group_IT_number 62
_symmetry_cell_setting 'orthorhombic'
loop_
_space_group_symop_operation_xyz
x,y,z
1/2-x,-y,1/2+z
1/2+x,1/2-y,1/2-z
-x,1/2+y,-z
-x,-y,-z
1/2+x,y,1/2-z
1/2-x,1/2+y,1/2+z
x,1/2-y,z
loop_
_atom_site_type_symbol
_atom_site_label
_atom_site_fract_x
_atom_site_fract_y
_atom_site_fract_z
Si Si1 0.264291 0.934355 0.312261
Si Si2 0.359384 0.487724 0.094570
Si Si3 0.577898 0.800557 0.537536
Si Si4 0.918947 0.100407 0.256589
Si Si5 0.667961 0.158103 0.239023
Si Si6 0.536783 0.881869 0.373086
O O1 0.244858 0.963582 0.471353
O O2 0.381002 0.898316 0.340571
O O3 0.128042 0.908577 0.253883
O O4 0.300618 0.969394 0.174752
O O5 0.402863 0.449957 0.217448
O O6 0.500000 0.500000 0.000000
O O7 0.575273 0.750000 0.507600
O O8 0.727978 0.813504 0.625034
O O9 0.441578 0.813790 0.652133
O O10 0.560679 0.830590 0.378386
O O11 0.785113 0.127387 0.324611
O O12 0.058923 0.122371 0.333937
O O13 0.924472 0.106822 0.061240
#
# Coordination Sequence:
#
# PCOD9463573 Si02
#       6
#     8   8   8   8   8   8
#     4  12  25  43  58  88 119 164 204 250 296 348
#     4  12  26  36  63  88 120 159 209 245 284 356
#     4  10  19  36  61  90 117 153 195 246 301 362
#     4  10  21  38  59  90 120 160 192 244 301 341
#     4   8  18  33  59  85 122 147 189 243 294 349
#     4  10  24  41  62  82 125 155 200 249 306 353
#
# _framework density 19.904329000000001
#
# number of rings (size 3 to 8) (size 9 to 14) (size 15 to 20)
#    0.000    2.000    1.667    3.500    9.333    1.333 
#    0.000    0.833    0.000    0.000    0.000    0.000 
#    0.000    0.000    0.000    0.000    0.000    0.000 
#
# Total GULP energy -267475.769661 kJ/mol
# GULP energy per Si atom -5572.411868 kJ/mol
# Density = 1.985903 g / cm^3
# Si number density = 19.904329 Si / 1000 Ang^3
#
#
#
# Elastic Constant Matrix: (Units=GPa)
#
#
# Indices 1 2 3 4 5 6 
#
# 1 101.2501 8.3992 -5.3312 0.0000 0.0000 0.0000
# 2 8.3992 88.7070 -7.1410 0.0000 0.0000 0.0000
# 3 -5.3312 -7.1410 20.1564 0.0000 0.0000 0.0000
# 4 0.0000 0.0000 0.0000 27.2370 0.0000 0.0000
# 5 0.0000 0.0000 0.0000 0.0000 14.7697 0.0000
# 6 0.0000 0.0000 0.0000 0.0000 0.0000 21.7126
#
#
#
# Elastic Compliance Matrix: (Units=1/GPa)
#
#
# Indices 1 2 3 4 5 6 
#
# 1 0.010066 -0.000760 0.002393 0.000000 0.000000 0.000000
# 2 -0.000760 0.011661 0.003930 0.000000 0.000000 0.000000
# 3 0.002393 0.003930 0.051637 0.000000 0.000000 0.000000
# 4 0.000000 0.000000 0.000000 0.036715 0.000000 0.000000
# 5 0.000000 0.000000 0.000000 0.000000 0.067706 0.000000
# 6 0.000000 0.000000 0.000000 0.000000 0.000000 0.046056
#
#
# Mechanical properties :
#
#
# Convention : Reuss Voigt Hill
#
# Bulk Modulus (GPa) = 11.83572 22.44082 17.13827
# Shear Modulus (GPa) = 20.75726 27.02294 23.89010
#
# Velocity S-wave (km/s) = 3.23282 3.68862 3.46822
# Velocity P-wave (km/s) = 4.46028 5.42586 4.96659
#
# Compressibility (1/GPa) = 0.08449001
#
# Stress axis : x y z
#
# Youngs Moduli (GPa) = 99.34816 85.75251 19.36578
#
# Poissons Ratio (x) = 0.06521 -0.04634
# Poissons Ratio (y) = 0.07555 -0.07611
# Poissons Ratio (z) = -0.23773 -0.33703
#
# Static dielectric constant tensor:
#      x y z
#    x 1.719780 0.000000 0.000000 
#    y 0.000000 1.811770 0.000000 
#    z 0.000000 0.000000 1.571480 
# 
# From -- ./inp_files/4545.got.cif
#   From: 2010.05.17/outbox.cif.g08.bks.cpg/sg62_3_cif.got.tgz:4545.got - 2010.06.03 15:25:27.
