data_PCOD9463963
_publ_section_title
;
Structure prediction by ZEFSAII (Michael W. Deem and Ramdas Pophale) SiO2 
 PCOD9463963
Probable space group: P N M A
;
_chemical_formula_sum "Si O2"
_cell_formula_units_Z 64
_cell_length_a 5.948788
_cell_length_b 21.390596
_cell_length_c 26.140240
_cell_angle_alpha 90.000000
_cell_angle_beta 90.000000
_cell_angle_gamma 90.000000
_cell_volume 3326.296417
_symmetry_space_group_name_H-M "P N M A"
_symmetry_group_IT_number 62
_symmetry_cell_setting 'orthorhombic'
loop_
_space_group_symop_operation_xyz
x,y,z
1/2-x,-y,1/2+z
1/2+x,1/2-y,1/2-z
-x,1/2+y,-z
-x,-y,-z
1/2+x,y,1/2-z
1/2-x,1/2+y,1/2+z
x,1/2-y,z
loop_
_atom_site_type_symbol
_atom_site_label
_atom_site_fract_x
_atom_site_fract_y
_atom_site_fract_z
Si Si1 0.213154 0.181593 0.777355
Si Si2 0.514988 0.392264 0.555620
Si Si3 0.910760 0.321845 0.520819
Si Si4 0.656966 0.058470 0.018019
Si Si5 0.315563 0.679663 0.123445
Si Si6 0.047008 0.972598 0.767594
Si Si7 0.012524 0.922338 0.312192
Si Si8 0.773953 0.498876 0.121672
O O1 0.459307 0.180016 0.746431
O O2 0.222375 0.250000 0.803300
O O3 0.262359 0.120235 0.810279
O O4 0.665099 0.350676 0.518531
O O5 0.358312 0.437109 0.522196
O O6 0.392807 0.340775 0.589837
O O7 0.640311 0.440229 0.592117
O O8 0.933772 0.250000 0.505059
O O9 0.050893 0.373042 0.490054
O O10 0.985519 0.324582 0.581069
O O11 0.732196 0.049568 0.076361
O O12 0.500000 0.000000 0.000000
O O13 0.302165 0.750000 0.143661
O O14 0.337618 0.627752 0.166933
O O15 0.294878 0.946325 0.747520
O O16 0.038685 0.040429 0.739316
O O17 0.078093 0.978961 0.828974
O O18 0.041478 0.977582 0.353016
#
# Coordination Sequence:
#
# PCOD9463963 Si02
#       8
#     8   8   8   8   8   8   8   8
#     4  10  21  36  52  70  98 142 198 253 297 338
#     4  11  20  36  57  83 113 152 202 250 315 369
#     4  10  21  38  57  83 119 156 197 253 314 376
#     4  11  22  38  59  93 119 153 203 257 314 378
#     4  10  20  33  52  78 110 154 206 251 297 355
#     4  10  22  37  55  80 115 159 201 249 310 361
#     4  11  20  37  52  76 111 153 199 249 301 354
#     4  11  21  36  58  84 111 155 198 253 306 365
#
# _framework density 19.240618999999999
#
# number of rings (size 3 to 8) (size 9 to 14) (size 15 to 20)
#    0.000    1.500    2.500    4.125    0.000    2.500 
#    0.000    1.250    0.000    1.500    0.000    0.000 
#    0.000    4.000    0.000    0.000    0.000    0.000 
#
# Total GULP energy -356310.031120 kJ/mol
# GULP energy per Si atom -5567.344236 kJ/mol
# Density = 1.919683 g / cm^3
# Si number density = 19.240619 Si / 1000 Ang^3
#
#
#
# Elastic Constant Matrix: (Units=GPa)
#
#
# Indices 1 2 3 4 5 6 
#
# 1 75.4360 27.8787 23.3260 0.0000 0.0000 0.0000
# 2 27.8787 64.8315 35.9203 0.0000 0.0000 0.0000
# 3 23.3260 35.9203 77.2819 0.0000 0.0000 0.0000
# 4 0.0000 0.0000 0.0000 24.8513 0.0000 0.0000
# 5 0.0000 0.0000 0.0000 0.0000 21.6841 0.0000
# 6 0.0000 0.0000 0.0000 0.0000 0.0000 11.9402
#
#
#
# Elastic Compliance Matrix: (Units=1/GPa)
#
#
# Indices 1 2 3 4 5 6 
#
# 1 0.016034 -0.005675 -0.002202 0.000000 0.000000 0.000000
# 2 -0.005675 0.022783 -0.008877 0.000000 0.000000 0.000000
# 3 -0.002202 -0.008877 0.017730 0.000000 0.000000 0.000000
# 4 0.000000 0.000000 0.000000 0.040239 0.000000 0.000000
# 5 0.000000 0.000000 0.000000 0.000000 0.046117 0.000000
# 6 0.000000 0.000000 0.000000 0.000000 0.000000 0.083751
#
#
# Mechanical properties :
#
#
# Convention : Reuss Voigt Hill
#
# Bulk Modulus (GPa) = 43.40200 43.53327 43.46763
# Shear Modulus (GPa) = 18.66773 20.39008 19.52890
#
# Velocity S-wave (km/s) = 3.11822 3.25890 3.18934
# Velocity P-wave (km/s) = 5.96413 6.06922 6.01690
#
# Compressibility (1/GPa) = 0.02304041
#
# Stress axis : x y z
#
# Youngs Moduli (GPa) = 62.36561 43.89208 56.40140
#
# Poissons Ratio (x) = 0.24909 0.12419
# Poissons Ratio (y) = 0.35393 0.50065
# Poissons Ratio (z) = 0.13732 0.38961
#
# Static dielectric constant tensor:
#      x y z
#    x 1.830600 0.000000 0.000000 
#    y 0.000000 1.693470 0.000000 
#    z 0.000000 0.000000 1.912040 
# 
# From -- ./inp_files/28445.got.cif
#   From: 2010.05.17/outbox.cif.g08.bks.cpg/sg62_15_cif.got.tgz:28445.got - 2010.06.03 15:25:27.
