data_PCOD9463309
_publ_section_title
;
Structure prediction by ZEFSAII (Michael W. Deem and Ramdas Pophale) SiO2 
 PCOD9463309
Probable space group: P N M A
;
_chemical_formula_sum "Si O2"
_cell_formula_units_Z 44
_cell_length_a 30.061014
_cell_length_b 7.385976
_cell_length_c 8.281961
_cell_angle_alpha 90.000000
_cell_angle_beta 90.000000
_cell_angle_gamma 90.000000
_cell_volume 1838.843204
_symmetry_space_group_name_H-M "P N M A"
_symmetry_group_IT_number 62
_symmetry_cell_setting 'orthorhombic'
loop_
_space_group_symop_operation_xyz
x,y,z
1/2-x,-y,1/2+z
1/2+x,1/2-y,1/2-z
-x,1/2+y,-z
-x,-y,-z
1/2+x,y,1/2-z
1/2-x,1/2+y,1/2+z
x,1/2-y,z
loop_
_atom_site_type_symbol
_atom_site_label
_atom_site_fract_x
_atom_site_fract_y
_atom_site_fract_z
Si Si1 0.049120 0.250000 0.631591
Si Si2 0.806369 0.459767 0.750166
Si Si3 0.989252 0.544323 0.811701
Si Si4 0.115518 0.533073 0.717872
Si Si5 0.288489 0.032142 0.104404
Si Si6 0.894950 0.031160 0.916239
O O1 0.086860 0.410316 0.599593
O O2 0.013634 0.407256 0.694217
O O3 0.818456 0.250000 0.723554
O O4 0.799453 0.538806 0.573463
O O5 0.759007 0.464913 0.837235
O O6 0.847441 0.534086 0.851882
O O7 0.002962 0.750000 0.775820
O O8 0.935921 0.531840 0.808390
O O9 0.000000 0.500000 0.000000
O O10 0.110732 0.750000 0.693477
O O11 0.168170 0.492020 0.710964
O O12 0.098879 0.476781 0.896818
O O13 0.284193 0.250000 0.100522
O O14 0.895846 0.250000 0.920263
#
# Coordination Sequence:
#
# PCOD9463309 Si02
#       6
#     4   8   8   8   8   8
#     4  12  22  34  58  90 122 160 206 260 312 360
#     4  10  22  39  64  90 124 163 201 250 313 374
#     4  12  20  33  56  89 124 160 208 259 309 361
#     4  10  21  37  59  88 123 162 205 254 310 368
#     4  10  22  41  61  91 124 160 203 252 307 380
#     4  10  19  35  56  89 122 163 203 255 306 364
#
# _framework density 23.928083999999998
#
# number of rings (size 3 to 8) (size 9 to 14) (size 15 to 20)
#    0.000    1.455    3.636    1.636    1.273    2.909 
#    0.000    0.000    0.000    1.091    0.000    0.000 
#    0.000    0.000    0.000    0.000    0.000    0.000 
#
# Total GULP energy -245142.450241 kJ/mol
# GULP energy per Si atom -5571.419324 kJ/mol
# Density = 2.387362 g / cm^3
# Si number density = 23.928084 Si / 1000 Ang^3
#
#
#
# Elastic Constant Matrix: (Units=GPa)
#
#
# Indices 1 2 3 4 5 6 
#
# 1 160.4586 8.0857 5.2845 0.0000 0.0000 0.0000
# 2 8.0857 139.4186 0.7053 0.0000 0.0000 0.0000
# 3 5.2845 0.7053 47.6714 0.0000 0.0000 0.0000
# 4 0.0000 0.0000 0.0000 -3.2164 0.0000 0.0000
# 5 0.0000 0.0000 0.0000 0.0000 14.2020 0.0000
# 6 0.0000 0.0000 0.0000 0.0000 0.0000 35.4230
#
#
#
# Elastic Compliance Matrix: (Units=1/GPa)
#
#
# Indices 1 2 3 4 5 6 
#
# 1 0.006273 -0.000360 -0.000690 0.000000 0.000000 0.000000
# 2 -0.000360 0.007194 -0.000066 0.000000 0.000000 0.000000
# 3 -0.000690 -0.000066 0.021054 0.000000 0.000000 0.000000
# 4 0.000000 0.000000 0.000000 -0.310911 0.000000 0.000000
# 5 0.000000 0.000000 0.000000 0.000000 0.070413 0.000000
# 6 0.000000 0.000000 0.000000 0.000000 0.000000 0.028230
#
#
# Mechanical properties :
#
#
# Convention : Reuss Voigt Hill
#
# Bulk Modulus (GPa) = 30.97165 41.74442 36.35804
# Shear Modulus (GPa) = -30.34897 31.51327 0.58215
#
# Velocity S-wave (km/s) = -3.56524 3.63299 0.49378
# Velocity P-wave (km/s) = 1.99404 5.92299 3.94370
#
# Compressibility (1/GPa) = 0.03228759
#
# Stress axis : x y z
#
# Youngs Moduli (GPa) = 159.41287 139.00710 47.49596
#
# Poissons Ratio (x) = 0.05009 0.03277
# Poissons Ratio (y) = 0.05744 0.00316
# Poissons Ratio (z) = 0.11000 0.00924
#
# Static dielectric constant tensor:
#      x y z
#    x 1.923220 0.000000 0.000000 
#    y 0.000000 1.899060 0.000000 
#    z 0.000000 0.000000 1.980550 
# 
# From -- ./inp_files/10081.got.cif
#   From: 2010.05.17/outbox.cif.g08.bks.cpg/sg62_6_cif.got.tgz:10081.got - 2010.06.03 15:25:27.
