data_PCOD9463280
_publ_section_title
;
Structure prediction by ZEFSAII (Michael W. Deem and Ramdas Pophale) SiO2 
 PCOD9463280
Probable space group: P N M A
;
_chemical_formula_sum "Si O2"
_cell_formula_units_Z 52
_cell_length_a 32.803005
_cell_length_b 9.638834
_cell_length_c 7.012597
_cell_angle_alpha 90.000000
_cell_angle_beta 90.000000
_cell_angle_gamma 90.000000
_cell_volume 2217.261993
_symmetry_space_group_name_H-M "P N M A"
_symmetry_group_IT_number 62
_symmetry_cell_setting 'orthorhombic'
loop_
_space_group_symop_operation_xyz
x,y,z
1/2-x,-y,1/2+z
1/2+x,1/2-y,1/2-z
-x,1/2+y,-z
-x,-y,-z
1/2+x,y,1/2-z
1/2-x,1/2+y,1/2+z
x,1/2-y,z
loop_
_atom_site_type_symbol
_atom_site_label
_atom_site_fract_x
_atom_site_fract_y
_atom_site_fract_z
Si Si1 0.852035 0.909207 0.097515
Si Si2 0.221148 0.593099 0.808855
Si Si3 0.492441 0.250000 0.436480
Si Si4 0.372909 0.910649 0.947016
Si Si5 0.556850 0.029634 0.521067
Si Si6 0.461018 0.590683 0.038168
Si Si7 0.700327 0.592945 0.136242
O O1 0.840394 0.750000 0.050383
O O2 0.894793 0.948578 0.998085
O O3 0.814620 0.015687 0.074210
O O4 0.861729 0.910888 0.326339
O O5 0.230587 0.750000 0.875107
O O6 0.205680 0.604070 0.592639
O O7 0.260688 0.495878 0.801808
O O8 0.527467 0.128170 0.399517
O O9 0.458712 0.372850 0.484245
O O10 0.530182 0.250000 0.007154
O O11 0.340916 0.006188 0.839991
O O12 0.419646 0.959496 0.938165
O O13 0.547868 0.084408 0.736190
O O14 0.370770 0.750000 0.886841
O O15 0.500000 0.500000 0.000000
O O16 0.699068 0.750000 0.211025
#
# Coordination Sequence:
#
# PCOD9463280 Si02
#       7
#     8   8   4   8   8   8   8
#     4   9  16  31  53  77 102 134 178 223 256 305
#     4  10  21  34  56  82 108 137 175 217 265 317
#     4  10  20  32  56  74 106 142 174 218 268 306
#     4   8  16  32  53  75 100 138 175 217 261 303
#     4  10  19  35  53  79 104 140 181 219 262 315
#     4  10  20  34  54  79 108 137 179 224 263 314
#     4  10  20  35  56  82 108 135 175 218 264 318
#
# _framework density 23.452347
#
# number of rings (size 3 to 8) (size 9 to 14) (size 15 to 20)
#    0.000    2.462    1.538    1.846    2.154    2.462 
#    2.769    0.000    6.769    0.000    0.000    0.000 
#    0.000    0.000    0.000    0.000    0.000    0.000 
#
# Total GULP energy -289985.452971 kJ/mol
# GULP energy per Si atom -5576.643326 kJ/mol
# Density = 2.339897 g / cm^3
# Si number density = 23.452347 Si / 1000 Ang^3
#
#
#
# Elastic Constant Matrix: (Units=GPa)
#
#
# Indices 1 2 3 4 5 6 
#
# 1 198.4003 123.3554 11.1600 0.0000 0.0000 0.0000
# 2 123.3554 217.9713 4.1166 0.0000 0.0000 0.0000
# 3 11.1600 4.1166 67.8617 0.0000 0.0000 0.0000
# 4 0.0000 0.0000 0.0000 67.4730 0.0000 0.0000
# 5 0.0000 0.0000 0.0000 0.0000 31.3184 0.0000
# 6 0.0000 0.0000 0.0000 0.0000 0.0000 46.8931
#
#
#
# Elastic Compliance Matrix: (Units=1/GPa)
#
#
# Indices 1 2 3 4 5 6 
#
# 1 0.007847 -0.004421 -0.001022 0.000000 0.000000 0.000000
# 2 -0.004421 0.007084 0.000297 0.000000 0.000000 0.000000
# 3 -0.001022 0.000297 0.014886 0.000000 0.000000 0.000000
# 4 0.000000 0.000000 0.000000 0.014821 0.000000 0.000000
# 5 0.000000 0.000000 0.000000 0.000000 0.031930 0.000000
# 6 0.000000 0.000000 0.000000 0.000000 0.000000 0.021325
#
#
# Mechanical properties :
#
#
# Convention : Reuss Voigt Hill
#
# Bulk Modulus (GPa) = 51.21757 84.61081 67.91419
# Shear Modulus (GPa) = 43.59436 52.17698 47.88567
#
# Velocity S-wave (km/s) = 4.31611 4.72190 4.52356
# Velocity P-wave (km/s) = 6.83556 8.11693 7.50365
#
# Compressibility (1/GPa) = 0.01952455
#
# Stress axis : x y z
#
# Youngs Moduli (GPa) = 127.44003 141.15657 67.17758
#
# Poissons Ratio (x) = 0.62411 0.06867
# Poissons Ratio (y) = 0.56346 -0.01998
# Poissons Ratio (z) = 0.13027 -0.04198
#
# Static dielectric constant tensor:
#      x y z
#    x 1.834660 0.000000 0.000000 
#    y 0.000000 1.789370 0.000000 
#    z 0.000000 0.000000 2.063760 
# 
# From -- ./inp_files/15450.got.cif
#   From: 2010.05.17/outbox.cif.g08.bks.cpg/sg62_8_cif.got.tgz:15450.got - 2010.06.03 15:25:27.
