data_PCOD9463408
_publ_section_title
;
Structure prediction by ZEFSAII (Michael W. Deem and Ramdas Pophale) SiO2 
 PCOD9463408
Probable space group: P N M A
;
_chemical_formula_sum "Si O2"
_cell_formula_units_Z 56
_cell_length_a 19.795309
_cell_length_b 7.783801
_cell_length_c 14.288750
_cell_angle_alpha 90.000000
_cell_angle_beta 90.000000
_cell_angle_gamma 90.000000
_cell_volume 2201.649837
_symmetry_space_group_name_H-M "P N M A"
_symmetry_group_IT_number 62
_symmetry_cell_setting 'orthorhombic'
loop_
_space_group_symop_operation_xyz
x,y,z
1/2-x,-y,1/2+z
1/2+x,1/2-y,1/2-z
-x,1/2+y,-z
-x,-y,-z
1/2+x,y,1/2-z
1/2-x,1/2+y,1/2+z
x,1/2-y,z
loop_
_atom_site_type_symbol
_atom_site_label
_atom_site_fract_x
_atom_site_fract_y
_atom_site_fract_z
Si Si1 0.787630 0.542322 0.075151
Si Si2 0.142050 0.459993 0.222836
Si Si3 0.289435 0.451803 0.206344
Si Si4 0.639404 0.456302 0.062967
Si Si5 0.071408 0.052164 0.614588
Si Si6 0.927246 0.559841 0.033841
Si Si7 0.494186 0.448887 0.296003
O O1 0.791839 0.750000 0.081038
O O2 0.789366 0.468669 0.180565
O O3 0.715799 0.496880 0.030894
O O4 0.854420 0.474820 0.022321
O O5 0.143526 0.250000 0.224171
O O6 0.213751 0.514703 0.181141
O O7 0.136652 0.520393 0.330765
O O8 0.070068 0.508194 0.179770
O O9 0.295329 0.250000 0.182234
O O10 0.354051 0.542481 0.162348
O O11 0.632186 0.250000 0.065270
O O12 0.584741 0.522265 0.988777
O O13 0.050700 0.250000 0.608437
O O14 0.020838 0.961142 0.685916
O O15 0.919174 0.750000 0.995986
O O16 0.940069 0.556081 0.145964
O O17 0.000000 0.500000 0.000000
O O18 0.485262 0.250000 0.322662
#
# Coordination Sequence:
#
# PCOD9463408 Si02
#       7
#     8   8   8   8   8   8   8
#     4  10  20  36  58  83 113 144 187 243 291 345
#     4   8  18  37  58  83 114 151 198 243 289 347
#     4  10  19  35  60  82 109 152 194 239 293 350
#     4   9  20  38  59  83 116 156 196 243 292 343
#     4  11  22  36  56  86 120 154 198 245 291 347
#     4  11  24  40  59  85 119 153 192 242 295 356
#     4  11  22  38  61  86 117 158 198 241 297 358
#
# _framework density 25.435469999999999
#
# number of rings (size 3 to 8) (size 9 to 14) (size 15 to 20)
#    0.000    2.000    1.429    3.000    0.000    4.571 
#    0.000   11.429    0.000    0.000    0.000    0.000 
#    0.000    0.000    0.000    0.000    0.000    0.000 
#
# Total GULP energy -313093.292376 kJ/mol
# GULP energy per Si atom -5590.951650 kJ/mol
# Density = 2.537758 g / cm^3
# Si number density = 25.435470 Si / 1000 Ang^3
#
#
#
# Elastic Constant Matrix: (Units=GPa)
#
#
# Indices 1 2 3 4 5 6 
#
# 1 132.5520 -5.6374 6.4394 0.0000 0.0000 0.0000
# 2 -5.6374 53.5685 -1.6686 0.0000 0.0000 0.0000
# 3 6.4394 -1.6686 63.5188 0.0000 0.0000 0.0000
# 4 0.0000 0.0000 0.0000 17.1227 0.0000 0.0000
# 5 0.0000 0.0000 0.0000 0.0000 46.4376 0.0000
# 6 0.0000 0.0000 0.0000 0.0000 0.0000 22.0103
#
#
#
# Elastic Compliance Matrix: (Units=1/GPa)
#
#
# Indices 1 2 3 4 5 6 
#
# 1 0.007614 0.000778 -0.000751 0.000000 0.000000 0.000000
# 2 0.000778 0.018762 0.000414 0.000000 0.000000 0.000000
# 3 -0.000751 0.000414 0.015830 0.000000 0.000000 0.000000
# 4 0.000000 0.000000 0.000000 0.058402 0.000000 0.000000
# 5 0.000000 0.000000 0.000000 0.000000 0.021534 0.000000
# 6 0.000000 0.000000 0.000000 0.000000 0.000000 0.045433
#
#
# Mechanical properties :
#
#
# Convention : Reuss Voigt Hill
#
# Bulk Modulus (GPa) = 23.20856 27.54511 25.37683
# Shear Modulus (GPa) = 27.61547 33.81451 30.71499
#
# Velocity S-wave (km/s) = 3.29858 3.65008 3.47877
# Velocity P-wave (km/s) = 4.86331 5.34949 5.11218
#
# Compressibility (1/GPa) = 0.04308756
#
# Stress axis : x y z
#
# Youngs Moduli (GPa) = 131.34053 53.29795 63.16948
#
# Poissons Ratio (x) = -0.04146 0.04747
# Poissons Ratio (y) = -0.10216 -0.02615
# Poissons Ratio (z) = 0.09869 -0.02207
#
# Static dielectric constant tensor:
#      x y z
#    x 2.004870 0.000000 0.000000 
#    y 0.000000 1.923700 0.000000 
#    z 0.000000 0.000000 2.105890 
# 
# From -- ./inp_files/20304.got.cif
#   From: 2010.05.17/outbox.cif.g08.bks.cpg/sg62_11_cif.got.tgz:20304.got - 2010.06.03 15:25:27.
