data_PCOD9463159
_publ_section_title
;
Structure prediction by ZEFSAII (Michael W. Deem and Ramdas Pophale) SiO2 
 PCOD9463159
Probable space group: P N M A
;
_chemical_formula_sum "Si O2"
_cell_formula_units_Z 48
_cell_length_a 9.549337
_cell_length_b 8.576886
_cell_length_c 31.866732
_cell_angle_alpha 90.000000
_cell_angle_beta 90.000000
_cell_angle_gamma 90.000000
_cell_volume 2609.999269
_symmetry_space_group_name_H-M "P N M A"
_symmetry_group_IT_number 62
_symmetry_cell_setting 'orthorhombic'
loop_
_space_group_symop_operation_xyz
x,y,z
1/2-x,-y,1/2+z
1/2+x,1/2-y,1/2-z
-x,1/2+y,-z
-x,-y,-z
1/2+x,y,1/2-z
1/2-x,1/2+y,1/2+z
x,1/2-y,z
loop_
_atom_site_type_symbol
_atom_site_label
_atom_site_fract_x
_atom_site_fract_y
_atom_site_fract_z
Si Si1 0.413608 0.564336 0.130077
Si Si2 0.911123 0.563191 0.961670
Si Si3 0.401858 0.560866 0.631921
Si Si4 0.087072 0.940046 0.789127
Si Si5 0.410490 0.939032 0.792439
Si Si6 0.414577 0.436809 0.039227
O O1 0.409902 0.750000 0.130642
O O2 0.256301 0.499608 0.137729
O O3 0.516171 0.501357 0.165834
O O4 0.459495 0.505638 0.084045
O O5 0.920112 0.750000 0.962443
O O6 0.952965 0.512007 0.914549
O O7 0.748411 0.519438 0.966451
O O8 0.000000 0.500000 0.000000
O O9 0.394824 0.750000 0.632437
O O10 0.504166 0.510037 0.669130
O O11 0.087545 0.750000 0.789175
O O12 0.248805 0.989803 0.788604
O O13 0.001160 0.988962 0.747959
O O14 0.412103 0.750000 0.793647
O O15 0.424165 0.250000 0.041253
O O16 0.500000 0.500000 0.000000
#
# Coordination Sequence:
#
# PCOD9463159 Si02
#       6
#     8   8   8   8   8   8
#     4  11  22  36  54  79 109 145 183 222 268 321
#     4   9  19  33  52  78 110 143 178 218 263 314
#     4   9  18  36  57  79 106 140 181 225 268 319
#     4   9  18  33  58  84 106 137 182 227 273 326
#     4  10  19  34  56  82 108 140 180 226 274 325
#     4  10  21  38  58  82 110 143 181 224 269 319
#
# _framework density 18.390809999999998
#
# number of rings (size 3 to 8) (size 9 to 14) (size 15 to 20)
#    0.000    2.333    0.000    4.000    0.000    7.333 
#    0.000    5.833    0.000    0.000    0.000    0.000 
#    0.000    0.000    0.000    0.000    0.000    0.000 
#
# Total GULP energy -267913.630631 kJ/mol
# GULP energy per Si atom -5581.533971 kJ/mol
# Density = 1.834895 g / cm^3
# Si number density = 18.390810 Si / 1000 Ang^3
#
#
#
# Elastic Constant Matrix: (Units=GPa)
#
#
# Indices 1 2 3 4 5 6 
#
# 1 128.9478 30.2178 129.6573 0.0000 0.0000 0.0000
# 2 30.2178 28.1362 39.9026 0.0000 0.0000 0.0000
# 3 129.6573 39.9026 221.2484 0.0000 0.0000 0.0000
# 4 0.0000 0.0000 0.0000 27.9581 0.0000 0.0000
# 5 0.0000 0.0000 0.0000 0.0000 43.1023 0.0000
# 6 0.0000 0.0000 0.0000 0.0000 0.0000 20.0154
#
#
#
# Elastic Compliance Matrix: (Units=1/GPa)
#
#
# Indices 1 2 3 4 5 6 
#
# 1 0.019710 -0.006433 -0.010391 0.000000 0.000000 0.000000
# 2 -0.006433 0.049856 -0.005222 0.000000 0.000000 0.000000
# 3 -0.010391 -0.005222 0.011551 0.000000 0.000000 0.000000
# 4 0.000000 0.000000 0.000000 0.035768 0.000000 0.000000
# 5 0.000000 0.000000 0.000000 0.000000 0.023201 0.000000
# 6 0.000000 0.000000 0.000000 0.000000 0.000000 0.049961
#
#
# Mechanical properties :
#
#
# Convention : Reuss Voigt Hill
#
# Bulk Modulus (GPa) = 27.00772 86.43199 56.71985
# Shear Modulus (GPa) = 20.28571 30.11881 25.20226
#
# Velocity S-wave (km/s) = 3.32480 4.05125 3.70587
# Velocity P-wave (km/s) = 5.42737 8.30560 7.01567
#
# Compressibility (1/GPa) = 0.03702645
#
# Stress axis : x y z
#
# Youngs Moduli (GPa) = 50.73490 20.05790 86.57453
#
# Poissons Ratio (x) = 0.12903 0.89956
# Poissons Ratio (y) = 0.32636 0.45208
# Poissons Ratio (z) = 0.52717 0.10474
#
# Static dielectric constant tensor:
#      x y z
#    x 1.609770 0.000000 0.000000 
#    y 0.000000 1.633240 0.000000 
#    z 0.000000 0.000000 1.624020 
# 
# From -- ./inp_files/31918.got.cif
#   From: 2010.05.17/outbox.cif.g08.bks.cpg/sg62_16_cif.got.tgz:31918.got - 2010.06.03 15:25:27.
