data_PCOD9463242
_publ_section_title
;
Structure prediction by ZEFSAII (Michael W. Deem and Ramdas Pophale) SiO2 
 PCOD9463242
Probable space group: P N M A
;
_chemical_formula_sum "Si O2"
_cell_formula_units_Z 48
_cell_length_a 26.688872
_cell_length_b 13.593573
_cell_length_c 7.048923
_cell_angle_alpha 90.000000
_cell_angle_beta 90.000000
_cell_angle_gamma 90.000000
_cell_volume 2557.329033
_symmetry_space_group_name_H-M "P N M A"
_symmetry_group_IT_number 62
_symmetry_cell_setting 'orthorhombic'
loop_
_space_group_symop_operation_xyz
x,y,z
1/2-x,-y,1/2+z
1/2+x,1/2-y,1/2-z
-x,1/2+y,-z
-x,-y,-z
1/2+x,y,1/2-z
1/2-x,1/2+y,1/2+z
x,1/2-y,z
loop_
_atom_site_type_symbol
_atom_site_label
_atom_site_fract_x
_atom_site_fract_y
_atom_site_fract_z
Si Si1 0.762885 0.635976 0.765839
Si Si2 0.949832 0.861675 0.918186
Si Si3 0.658617 0.140733 0.606602
Si Si4 0.927506 0.496843 0.569315
Si Si5 0.989821 0.864795 0.306582
Si Si6 0.685407 0.498771 0.952798
O O1 0.756858 0.750000 0.707119
O O2 0.779243 0.565179 0.592914
O O3 0.807336 0.631281 0.920301
O O4 0.714641 0.594009 0.876543
O O5 0.955301 0.750000 0.843254
O O6 0.898135 0.866012 0.035778
O O7 0.991603 0.878944 0.078866
O O8 0.944200 0.937925 0.749798
O O9 0.666309 0.250000 0.687966
O O10 0.673075 0.064071 0.765866
O O11 0.958601 0.396533 0.592945
O O12 0.868154 0.482887 0.552862
O O13 0.948865 0.560877 0.394246
O O14 0.977399 0.750000 0.338830
#
# Coordination Sequence:
#
# PCOD9463242 Si02
#       6
#     8   8   8   8   8   8
#     4  11  24  39  59  87 117 152 195 242 295 354
#     4  10  19  34  59  87 113 144 191 242 285 336
#     4  10  20  35  58  87 115 145 189 245 293 340
#     4  11  22  35  60  86 114 154 191 239 289 344
#     4  10  22  38  55  84 120 154 192 234 288 348
#     4  12  22  39  62  86 118 154 197 243 298 352
#
# _framework density 18.769583999999998
#
# number of rings (size 3 to 8) (size 9 to 14) (size 15 to 20)
#    0.000    1.333    5.000    1.500    0.000    2.000 
#    0.000    0.000    0.000    1.000    0.000    0.000 
#    0.000    0.000    0.000    0.000    0.000    0.000 
#
# Total GULP energy -267858.837094 kJ/mol
# GULP energy per Si atom -5580.392439 kJ/mol
# Density = 1.872686 g / cm^3
# Si number density = 18.769584 Si / 1000 Ang^3
#
#
#
# Elastic Constant Matrix: (Units=GPa)
#
#
# Indices 1 2 3 4 5 6 
#
# 1 58.2017 18.2482 -1.2119 0.0000 0.0000 0.0000
# 2 18.2482 40.8447 4.4474 0.0000 0.0000 0.0000
# 3 -1.2119 4.4474 44.3478 0.0000 0.0000 0.0000
# 4 0.0000 0.0000 0.0000 22.2896 0.0000 0.0000
# 5 0.0000 0.0000 0.0000 0.0000 22.4019 0.0000
# 6 0.0000 0.0000 0.0000 0.0000 0.0000 18.8696
#
#
#
# Elastic Compliance Matrix: (Units=1/GPa)
#
#
# Indices 1 2 3 4 5 6 
#
# 1 0.020074 -0.009128 0.001464 0.000000 0.000000 0.000000
# 2 -0.009128 0.028904 -0.003148 0.000000 0.000000 0.000000
# 3 0.001464 -0.003148 0.022905 0.000000 0.000000 0.000000
# 4 0.000000 0.000000 0.000000 0.044864 0.000000 0.000000
# 5 0.000000 0.000000 0.000000 0.000000 0.044639 0.000000
# 6 0.000000 0.000000 0.000000 0.000000 0.000000 0.052995
#
#
# Mechanical properties :
#
#
# Convention : Reuss Voigt Hill
#
# Bulk Modulus (GPa) = 19.89709 20.70686 20.30198
# Shear Modulus (GPa) = 19.78178 20.83959 20.31069
#
# Velocity S-wave (km/s) = 3.24995 3.33571 3.29311
# Velocity P-wave (km/s) = 4.97057 5.08842 5.02984
#
# Compressibility (1/GPa) = 0.05025859
#
# Stress axis : x y z
#
# Youngs Moduli (GPa) = 49.81558 34.59750 43.65907
#
# Poissons Ratio (x) = 0.31580 -0.06392
# Poissons Ratio (y) = 0.45471 0.13744
# Poissons Ratio (z) = -0.07293 0.10892
#
# Static dielectric constant tensor:
#      x y z
#    x 1.657080 0.000000 0.000000 
#    y 0.000000 1.661760 0.000000 
#    z 0.000000 0.000000 1.656310 
# 
# From -- ./inp_files/3175.got.cif
#   From: 2010.05.17/outbox.cif.g08.bks.cpg/sg62_2_cif.got.tgz:3175.got - 2010.06.03 15:25:27.
