data_PCOD9463584
_publ_section_title
;
Structure prediction by ZEFSAII (Michael W. Deem and Ramdas Pophale) SiO2 
 PCOD9463584
Probable space group: P N M A
;
_chemical_formula_sum "Si O2"
_cell_formula_units_Z 64
_cell_length_a 14.630795
_cell_length_b 16.306226
_cell_length_c 10.775255
_cell_angle_alpha 90.000000
_cell_angle_beta 90.000000
_cell_angle_gamma 90.000000
_cell_volume 2570.685448
_symmetry_space_group_name_H-M "P N M A"
_symmetry_group_IT_number 62
_symmetry_cell_setting 'orthorhombic'
loop_
_space_group_symop_operation_xyz
x,y,z
1/2-x,-y,1/2+z
1/2+x,1/2-y,1/2-z
-x,1/2+y,-z
-x,-y,-z
1/2+x,y,1/2-z
1/2-x,1/2+y,1/2+z
x,1/2-y,z
loop_
_atom_site_type_symbol
_atom_site_label
_atom_site_fract_x
_atom_site_fract_y
_atom_site_fract_z
Si Si1 0.730073 0.841891 0.780740
Si Si2 0.569543 0.092127 0.291358
Si Si3 0.625103 0.097163 0.672957
Si Si4 0.102617 0.918707 0.930230
Si Si5 0.207122 0.616529 0.459944
Si Si6 0.043514 0.908007 0.310123
Si Si7 0.226803 0.068245 0.566921
Si Si8 0.940150 0.842224 0.530618
O O1 0.756596 0.750000 0.746257
O O2 0.822849 0.892645 0.807678
O O3 0.665445 0.879901 0.677435
O O4 0.678866 0.841915 0.912652
O O5 0.500763 0.110350 0.405148
O O6 0.556124 0.999401 0.241983
O O7 0.540212 0.147182 0.174708
O O8 0.693944 0.145513 0.586192
O O9 0.531338 0.134955 0.722647
O O10 0.684682 0.068785 0.794736
O O11 0.599965 0.015099 0.598819
O O12 0.165455 0.910361 0.052629
O O13 0.139367 0.630314 0.346041
O O14 0.210551 0.518876 0.496157
O O15 0.994565 0.906171 0.445252
O O16 0.165784 0.134536 0.493291
O O17 0.958850 0.750000 0.488840
#
# Coordination Sequence:
#
# PCOD9463584 Si02
#       8
#     8   8   8   8   8   8   8   8
#     4  12  25  40  61  93 132 165 206 268 330 380
#     4  11  21  38  60  93 129 169 208 263 323 392
#     4   9  20  37  60  94 117 159 213 268 304 367
#     4  10  20  36  60  91 124 162 207 255 320 384
#     4  11  21  39  61  89 127 164 210 258 316 385
#     4  10  21  37  63  91 122 170 220 259 309 382
#     4  10  19  36  62  87 120 160 207 258 307 374
#     4  11  21  34  58  92 124 158 207 272 321 362
#
# _framework density 24.896083000000001
#
# number of rings (size 3 to 8) (size 9 to 14) (size 15 to 20)
#    0.000    1.500    3.750    2.250    1.750    2.500 
#    2.250    4.375    0.000    0.000    0.000    0.000 
#    0.000    0.000    0.000    0.000    0.000    0.000 
#
# Total GULP energy -357843.261380 kJ/mol
# GULP energy per Si atom -5591.300959 kJ/mol
# Density = 2.483942 g / cm^3
# Si number density = 24.896083 Si / 1000 Ang^3
#
#
#
# Elastic Constant Matrix: (Units=GPa)
#
#
# Indices 1 2 3 4 5 6 
#
# 1 124.9330 25.7387 22.8171 0.0000 0.0000 0.0000
# 2 25.7387 71.3031 15.1071 0.0000 0.0000 0.0000
# 3 22.8171 15.1071 76.1586 0.0000 0.0000 0.0000
# 4 0.0000 0.0000 0.0000 8.3289 0.0000 0.0000
# 5 0.0000 0.0000 0.0000 0.0000 46.6408 0.0000
# 6 0.0000 0.0000 0.0000 0.0000 0.0000 9.4174
#
#
#
# Elastic Compliance Matrix: (Units=1/GPa)
#
#
# Indices 1 2 3 4 5 6 
#
# 1 0.008968 -0.002785 -0.002134 0.000000 0.000000 0.000000
# 2 -0.002785 0.015505 -0.002241 0.000000 0.000000 0.000000
# 3 -0.002134 -0.002241 0.014215 0.000000 0.000000 0.000000
# 4 0.000000 0.000000 0.000000 0.120063 0.000000 0.000000
# 5 0.000000 0.000000 0.000000 0.000000 0.021440 0.000000
# 6 0.000000 0.000000 0.000000 0.000000 0.000000 0.106187
#
#
# Mechanical properties :
#
#
# Convention : Reuss Voigt Hill
#
# Bulk Modulus (GPa) = 41.04057 44.41338 42.72697
# Shear Modulus (GPa) = 16.19063 26.79288 21.49176
#
# Velocity S-wave (km/s) = 2.55292 3.28409 2.94131
# Velocity P-wave (km/s) = 5.02100 5.67966 5.36046
#
# Compressibility (1/GPa) = 0.02436614
#
# Stress axis : x y z
#
# Youngs Moduli (GPa) = 111.50944 64.49615 70.35070
#
# Poissons Ratio (x) = 0.17962 0.15015
# Poissons Ratio (y) = 0.31055 0.15767
# Poissons Ratio (z) = 0.23800 0.14455
#
# Static dielectric constant tensor:
#      x y z
#    x 2.072260 0.000000 0.000000 
#    y 0.000000 1.928750 0.000000 
#    z 0.000000 0.000000 1.986690 
# 
# From -- ./inp_files/13600.got.cif
#   From: 2010.05.17/outbox.cif.g08.bks.cpg/sg62_7_cif.got.tgz:13600.got - 2010.06.03 15:25:27.
