data_PCOD9463049
_publ_section_title
;
Structure prediction by ZEFSAII (Michael W. Deem and Ramdas Pophale) SiO2 
 PCOD9463049
Probable space group: P N M A
;
_chemical_formula_sum "Si O2"
_cell_formula_units_Z 44
_cell_length_a 13.541504
_cell_length_b 7.775700
_cell_length_c 21.809292
_cell_angle_alpha 90.000000
_cell_angle_beta 90.000000
_cell_angle_gamma 90.000000
_cell_volume 2296.402262
_symmetry_space_group_name_H-M "P N M A"
_symmetry_group_IT_number 62
_symmetry_cell_setting 'orthorhombic'
loop_
_space_group_symop_operation_xyz
x,y,z
1/2-x,-y,1/2+z
1/2+x,1/2-y,1/2-z
-x,1/2+y,-z
-x,-y,-z
1/2+x,y,1/2-z
1/2-x,1/2+y,1/2+z
x,1/2-y,z
loop_
_atom_site_type_symbol
_atom_site_label
_atom_site_fract_x
_atom_site_fract_y
_atom_site_fract_z
Si Si1 0.794022 0.054731 0.146058
Si Si2 0.202462 0.250000 0.647859
Si Si3 0.783735 0.250000 0.724596
Si Si4 0.484052 0.250000 0.852578
Si Si5 0.106988 0.544645 0.974598
Si Si6 0.795373 0.056121 0.448668
Si Si7 0.590973 0.445248 0.066722
O O1 0.812217 0.250000 0.167782
O O2 0.877596 0.000507 0.097117
O O3 0.694601 0.058166 0.104436
O O4 0.772693 0.917387 0.198355
O O5 0.280462 0.250000 0.702460
O O6 0.210034 0.416036 0.604500
O O7 0.092137 0.250000 0.676051
O O8 0.893316 0.250000 0.695059
O O9 0.472502 0.416271 0.896418
O O10 0.124099 0.750000 0.979081
O O11 0.192166 0.455046 0.014121
O O12 0.000000 0.500000 0.000000
O O13 0.810289 0.250000 0.426679
O O14 0.878833 0.006740 0.498895
O O15 0.553124 0.250000 0.065553
#
# Coordination Sequence:
#
# PCOD9463049 Si02
#       7
#     8   4   4   4   8   8   8
#     4   8  17  33  58  84 110 150 201 247 290 347
#     4  12  26  42  56  90 128 157 207 256 297 361
#     4  10  22  42  62  78 112 168 209 249 287 363
#     4  10  22  40  64  86 112 163 208 239 310 364
#     4  10  19  33  58  95 128 156 199 247 305 372
#     4  11  21  38  58  87 131 159 185 253 319 352
#     4   9  16  34  61  89 119 146 189 245 301 371
#
# _framework density 19.160405999999998
#
# number of rings (size 3 to 8) (size 9 to 14) (size 15 to 20)
#    0.000    2.182    2.727    1.636    5.091    2.182 
#    3.273    0.000    0.000    0.000    0.000    0.000 
#    0.000    0.000    0.000    0.000    0.000    0.000 
#
# Total GULP energy -245728.966049 kJ/mol
# GULP energy per Si atom -5584.749228 kJ/mol
# Density = 1.911680 g / cm^3
# Si number density = 19.160406 Si / 1000 Ang^3
#
#
#
# Elastic Constant Matrix: (Units=GPa)
#
#
# Indices 1 2 3 4 5 6 
#
# 1 63.9576 4.6918 8.2816 0.0000 0.0000 0.0000
# 2 4.6918 140.5993 48.8108 0.0000 0.0000 0.0000
# 3 8.2816 48.8108 89.9315 0.0000 0.0000 0.0000
# 4 0.0000 0.0000 0.0000 16.7928 0.0000 0.0000
# 5 0.0000 0.0000 0.0000 0.0000 23.8538 0.0000
# 6 0.0000 0.0000 0.0000 0.0000 0.0000 -7.0050
#
#
#
# Elastic Compliance Matrix: (Units=1/GPa)
#
#
# Indices 1 2 3 4 5 6 
#
# 1 0.015824 -0.000027 -0.001442 0.000000 0.000000 0.000000
# 2 -0.000027 0.008764 -0.004754 0.000000 0.000000 0.000000
# 3 -0.001442 -0.004754 0.013833 0.000000 0.000000 0.000000
# 4 0.000000 0.000000 0.000000 0.059549 0.000000 0.000000
# 5 0.000000 0.000000 0.000000 0.000000 0.041922 0.000000
# 6 0.000000 0.000000 0.000000 0.000000 0.000000 -0.142756
#
#
# Mechanical properties :
#
#
# Convention : Reuss Voigt Hill
#
# Bulk Modulus (GPa) = 38.50141 46.45075 42.47608
# Shear Modulus (GPa) = 274.10717 22.24194 148.17455
#
# Velocity S-wave (km/s) = 11.97371 3.41079 8.80350
# Velocity P-wave (km/s) = 14.53608 6.30928 11.20501
#
# Compressibility (1/GPa) = 0.02597307
#
# Stress axis : x y z
#
# Youngs Moduli (GPa) = 63.19459 114.10639 72.29255
#
# Poissons Ratio (x) = 0.00312 0.10427
# Poissons Ratio (y) = 0.00173 0.34368
# Poissons Ratio (z) = 0.09115 0.54247
#
# Static dielectric constant tensor:
#      x y z
#    x 1.686350 0.000000 0.000000 
#    y 0.000000 1.675920 0.000000 
#    z 0.000000 0.000000 1.639170 
# 
# From -- ./inp_files/23602.got.cif
#   From: 2010.05.17/outbox.cif.g08.bks.cpg/sg62_12_cif.got.tgz:23602.got - 2010.06.03 15:25:27.
