data_PCOD9463953
_publ_section_title
;
Structure prediction by ZEFSAII (Michael W. Deem and Ramdas Pophale) SiO2 
 PCOD9463953
Probable space group: P N M A
;
_chemical_formula_sum "Si O2"
_cell_formula_units_Z 48
_cell_length_a 16.737778
_cell_length_b 8.883975
_cell_length_c 18.665618
_cell_angle_alpha 90.000000
_cell_angle_beta 90.000000
_cell_angle_gamma 90.000000
_cell_volume 2775.540090
_symmetry_space_group_name_H-M "P N M A"
_symmetry_group_IT_number 62
_symmetry_cell_setting 'orthorhombic'
loop_
_space_group_symop_operation_xyz
x,y,z
1/2-x,-y,1/2+z
1/2+x,1/2-y,1/2-z
-x,1/2+y,-z
-x,-y,-z
1/2+x,y,1/2-z
1/2-x,1/2+y,1/2+z
x,1/2-y,z
loop_
_atom_site_type_symbol
_atom_site_label
_atom_site_fract_x
_atom_site_fract_y
_atom_site_fract_z
Si Si1 0.918610 0.576387 0.796000
Si Si2 0.081252 0.921599 0.701205
Si Si3 0.664856 0.931716 0.658378
Si Si4 0.832903 0.069527 0.666489
Si Si5 0.492194 0.071655 0.922410
Si Si6 0.987669 0.930783 0.078320
O O1 0.896028 0.750000 0.809878
O O2 0.855500 0.493452 0.745160
O O3 0.000308 0.578876 0.749034
O O4 0.943028 0.490351 0.868153
O O5 0.098228 0.750000 0.679579
O O6 0.147088 0.973371 0.758301
O O7 0.061475 0.017770 0.631730
O O8 0.659134 0.750000 0.653008
O O9 0.752068 0.992032 0.639980
O O10 0.595644 0.006866 0.610895
O O11 0.824890 0.250000 0.668578
O O12 0.907736 0.030800 0.615048
O O13 0.494753 0.250000 0.928564
O O14 0.500000 0.000000 0.000000
O O15 0.987039 0.750000 0.076662
O O16 0.000000 0.000000 0.000000
#
# Coordination Sequence:
#
# PCOD9463953 Si02
#       6
#     8   8   8   8   8   8
#     4   9  17  32  53  76 101 133 171 210 253 307
#     4   8  16  31  51  73  98 128 166 206 247 299
#     4  10  20  35  55  79 105 137 175 218 266 314
#     4  10  20  34  53  79 106 136 175 220 266 312
#     4  10  20  33  52  76 104 137 173 211 256 308
#     4  11  21  35  55  79 108 141 176 217 263 318
#
# _framework density 17.293932000000002
#
# number of rings (size 3 to 8) (size 9 to 14) (size 15 to 20)
#    0.000    2.333    0.000    4.500    0.000    6.667 
#    0.000    1.667    0.000    6.000    0.000    0.000 
#    0.000    0.000    0.000    0.000    0.000    0.000 
#
# Total GULP energy -267662.303767 kJ/mol
# GULP energy per Si atom -5576.297995 kJ/mol
# Density = 1.725457 g / cm^3
# Si number density = 17.293932 Si / 1000 Ang^3
#
#
#
# Elastic Constant Matrix: (Units=GPa)
#
#
# Indices 1 2 3 4 5 6 
#
# 1 67.6400 42.9071 42.5359 0.0000 0.0000 0.0000
# 2 42.9071 105.0831 73.9357 0.0000 0.0000 0.0000
# 3 42.5359 73.9357 142.9076 0.0000 0.0000 0.0000
# 4 0.0000 0.0000 0.0000 33.1510 0.0000 0.0000
# 5 0.0000 0.0000 0.0000 0.0000 15.8444 0.0000
# 6 0.0000 0.0000 0.0000 0.0000 0.0000 25.6392
#
#
#
# Elastic Compliance Matrix: (Units=1/GPa)
#
#
# Indices 1 2 3 4 5 6 
#
# 1 0.020643 -0.006456 -0.002804 0.000000 0.000000 0.000000
# 2 -0.006456 0.016982 -0.006864 0.000000 0.000000 0.000000
# 3 -0.002804 -0.006864 0.011384 0.000000 0.000000 0.000000
# 4 0.000000 0.000000 0.000000 0.030165 0.000000 0.000000
# 5 0.000000 0.000000 0.000000 0.000000 0.063114 0.000000
# 6 0.000000 0.000000 0.000000 0.000000 0.000000 0.039003
#
#
# Mechanical properties :
#
#
# Convention : Reuss Voigt Hill
#
# Bulk Modulus (GPa) = 59.66720 70.48756 65.07738
# Shear Modulus (GPa) = 22.81797 25.34370 24.08083
#
# Velocity S-wave (km/s) = 3.63632 3.83230 3.73559
# Velocity P-wave (km/s) = 7.22545 7.77361 7.50454
#
# Compressibility (1/GPa) = 0.01675963
#
# Stress axis : x y z
#
# Youngs Moduli (GPa) = 48.44309 58.88589 87.84543
#
# Poissons Ratio (x) = 0.38015 0.24634
# Poissons Ratio (y) = 0.31273 0.60301
# Poissons Ratio (z) = 0.13585 0.40422
#
# Static dielectric constant tensor:
#      x y z
#    x 1.597100 0.000000 0.000000 
#    y 0.000000 1.580560 0.000000 
#    z 0.000000 0.000000 1.579180 
# 
# From -- ./inp_files/23725.got.cif
#   From: 2010.05.17/outbox.cif.g08.bks.cpg/sg62_12_cif.got.tgz:23725.got - 2010.06.03 15:25:27.
