data_PCOD9463236
_publ_section_title
;
Structure prediction by ZEFSAII (Michael W. Deem and Ramdas Pophale) SiO2 
 PCOD9463236
Probable space group: P N M A
;
_chemical_formula_sum "Si O2"
_cell_formula_units_Z 64
_cell_length_a 12.508356
_cell_length_b 7.516117
_cell_length_c 28.890671
_cell_angle_alpha 90.000000
_cell_angle_beta 90.000000
_cell_angle_gamma 90.000000
_cell_volume 2716.135262
_symmetry_space_group_name_H-M "P N M A"
_symmetry_group_IT_number 62
_symmetry_cell_setting 'orthorhombic'
loop_
_space_group_symop_operation_xyz
x,y,z
1/2-x,-y,1/2+z
1/2+x,1/2-y,1/2-z
-x,1/2+y,-z
-x,-y,-z
1/2+x,y,1/2-z
1/2-x,1/2+y,1/2+z
x,1/2-y,z
loop_
_atom_site_type_symbol
_atom_site_label
_atom_site_fract_x
_atom_site_fract_y
_atom_site_fract_z
Si Si1 0.513051 0.963698 0.568173
Si Si2 0.599804 0.532900 0.090837
Si Si3 0.281886 0.458698 0.477583
Si Si4 0.088479 0.042667 0.207764
Si Si5 0.624124 0.963090 0.667239
Si Si6 0.381800 0.544096 0.051684
Si Si7 0.799457 0.966152 0.884629
Si Si8 0.639379 0.550630 0.189718
O O1 0.507023 0.750000 0.562523
O O2 0.598636 0.033775 0.530417
O O3 0.573461 0.996188 0.616946
O O4 0.392321 0.025561 0.578707
O O5 0.600523 0.750000 0.091398
O O6 0.711548 0.471638 0.069194
O O7 0.499914 0.470502 0.059778
O O8 0.586424 0.469749 0.143688
O O9 0.295979 0.250000 0.488405
O O10 0.200214 0.540342 0.514904
O O11 0.078147 0.250000 0.195550
O O12 0.164111 0.972683 0.166530
O O13 0.968207 0.973165 0.202174
O O14 0.127726 0.031330 0.259860
O O15 0.642603 0.750000 0.671538
O O16 0.736098 0.052375 0.676569
O O17 0.396363 0.750000 0.038174
O O18 0.314544 0.535389 0.099054
O O19 0.795382 0.750000 0.885842
O O20 0.597210 0.750000 0.194528
#
# Coordination Sequence:
#
# PCOD9463236 Si02
#       8
#     8   8   8   8   8   8   8   8
#     4   8  15  31  56  81 105 134 176 231 274 308
#     4  10  22  38  52  75 114 148 180 227 277 324
#     4  10  19  34  59  84 105 142 190 229 272 325
#     4   9  20  37  57  80 105 139 183 228 275 326
#     4   9  17  34  57  77 103 139 179 229 274 315
#     4  10  22  37  53  79 117 152 181 221 275 330
#     4   9  19  37  57  78 107 143 180 223 277 329
#     4  11  22  34  53  81 110 142 178 223 280 335
#
# _framework density 23.562889999999999
#
# number of rings (size 3 to 8) (size 9 to 14) (size 15 to 20)
#    0.000    2.500    1.250    2.250    0.000    4.000 
#    0.000    5.000    0.000    0.000    0.000    0.000 
#    0.000    0.000    0.000    0.000    0.000    0.000 
#
# Total GULP energy -357284.897806 kJ/mol
# GULP energy per Si atom -5582.576528 kJ/mol
# Density = 2.350926 g / cm^3
# Si number density = 23.562890 Si / 1000 Ang^3
#
#
#
# Elastic Constant Matrix: (Units=GPa)
#
#
# Indices 1 2 3 4 5 6 
#
# 1 104.2081 -4.2454 10.3135 0.0000 0.0000 0.0000
# 2 -4.2454 63.7365 2.1444 0.0000 0.0000 0.0000
# 3 10.3135 2.1444 85.3056 0.0000 0.0000 0.0000
# 4 0.0000 0.0000 0.0000 8.5569 0.0000 0.0000
# 5 0.0000 0.0000 0.0000 0.0000 34.0358 0.0000
# 6 0.0000 0.0000 0.0000 0.0000 0.0000 2.7507
#
#
#
# Elastic Compliance Matrix: (Units=1/GPa)
#
#
# Indices 1 2 3 4 5 6 
#
# 1 0.009743 0.000689 -0.001195 0.000000 0.000000 0.000000
# 2 0.000689 0.015752 -0.000479 0.000000 0.000000 0.000000
# 3 -0.001195 -0.000479 0.011879 0.000000 0.000000 0.000000
# 4 0.000000 0.000000 0.000000 0.116865 0.000000 0.000000
# 5 0.000000 0.000000 0.000000 0.000000 0.029381 0.000000
# 6 0.000000 0.000000 0.000000 0.000000 0.000000 0.363539
#
#
# Mechanical properties :
#
#
# Convention : Reuss Voigt Hill
#
# Bulk Modulus (GPa) = 28.24648 29.96389 29.10518
# Shear Modulus (GPa) = 8.91377 25.40454 17.15916
#
# Velocity S-wave (km/s) = 1.94710 3.28710 2.70150
# Velocity P-wave (km/s) = 4.13142 5.21065 4.70210
#
# Compressibility (1/GPa) = 0.03540265
#
# Stress axis : x y z
#
# Youngs Moduli (GPa) = 102.64253 63.48548 84.18144
#
# Poissons Ratio (x) = -0.04375 0.10061
# Poissons Ratio (y) = -0.07074 0.04035
# Poissons Ratio (z) = 0.12268 0.03043
#
# Static dielectric constant tensor:
#      x y z
#    x 1.867480 0.000000 0.000000 
#    y 0.000000 1.879210 0.000000 
#    z 0.000000 0.000000 1.940830 
# 
# From -- ./inp_files/32587.got.cif
#   From: 2010.05.17/outbox.cif.g08.bks.cpg/sg62_17_cif.got.tgz:32587.got - 2010.06.03 15:25:27.
