data_PCOD9463950
_publ_section_title
;
Structure prediction by ZEFSAII (Michael W. Deem and Ramdas Pophale) SiO2 
 PCOD9463950
Probable space group: P N M A
;
_chemical_formula_sum "Si O2"
_cell_formula_units_Z 52
_cell_length_a 5.085015
_cell_length_b 32.837708
_cell_length_c 18.667455
_cell_angle_alpha 90.000000
_cell_angle_beta 90.000000
_cell_angle_gamma 90.000000
_cell_volume 3117.096074
_symmetry_space_group_name_H-M "P N M A"
_symmetry_group_IT_number 62
_symmetry_cell_setting 'orthorhombic'
loop_
_space_group_symop_operation_xyz
x,y,z
1/2-x,-y,1/2+z
1/2+x,1/2-y,1/2-z
-x,1/2+y,-z
-x,-y,-z
1/2+x,y,1/2-z
1/2-x,1/2+y,1/2+z
x,1/2-y,z
loop_
_atom_site_type_symbol
_atom_site_label
_atom_site_fract_x
_atom_site_fract_y
_atom_site_fract_z
Si Si1 0.584069 0.750000 0.297384
Si Si2 0.881894 0.920516 0.941595
Si Si3 0.876097 0.543088 0.511951
Si Si4 0.809518 0.161463 0.799935
Si Si5 0.926660 0.410136 0.909233
Si Si6 0.609233 0.571225 0.704271
Si Si7 0.137998 0.473352 0.797253
O O1 0.282423 0.750000 0.271377
O O2 0.649380 0.793247 0.332620
O O3 0.398267 0.919881 0.766662
O O4 0.004032 0.906260 0.866914
O O5 0.580139 0.933370 0.936919
O O6 0.927958 0.896778 0.016563
O O7 0.838304 0.568650 0.439359
O O8 0.579469 0.541711 0.540786
O O9 0.000000 0.500000 0.500000
O O10 0.523435 0.157980 0.764116
O O11 0.866101 0.126695 0.857015
O O12 0.077653 0.445407 0.865535
O O13 0.606734 0.522002 0.690645
O O14 0.421225 0.464010 0.763827
#
# Coordination Sequence:
#
# PCOD9463950 Si02
#       7
#     4   8   8   8   8   8   8
#     4   8  16  32  50  72  94 130 164 190 228 286
#     4  10  22  33  47  66  84 115 155 194 238 286
#     4  10  21  31  46  63  86 118 155 192 239 285
#     4  10  20  33  52  72 101 130 164 199 236 282
#     4  10  23  30  50  65  95 118 157 196 245 273
#     4  10  20  34  47  60  80 112 150 194 232 275
#     4  10  21  30  42  60  84 112 150 190 231 265
#
# _framework density 16.682193999999999
#
# number of rings (size 3 to 8) (size 9 to 14) (size 15 to 20)
#    0.923    1.231    0.000    3.231    6.462    1.231 
#    0.000    0.000    0.000    0.000    0.000    0.000 
#    0.000    0.000    0.000    1.385    0.000    0.231 
#
# Total GULP energy -289505.934926 kJ/mol
# GULP energy per Si atom -5567.421826 kJ/mol
# Density = 1.664423 g / cm^3
# Si number density = 16.682194 Si / 1000 Ang^3
#
#
#
# Elastic Constant Matrix: (Units=GPa)
#
#
# Indices 1 2 3 4 5 6 
#
# 1 46.5241 2.1755 -9.6813 0.0000 0.0000 0.0000
# 2 2.1755 35.6426 14.4420 0.0000 0.0000 0.0000
# 3 -9.6813 14.4420 65.3385 0.0000 0.0000 0.0000
# 4 0.0000 0.0000 0.0000 10.5555 0.0000 0.0000
# 5 0.0000 0.0000 0.0000 0.0000 18.1433 0.0000
# 6 0.0000 0.0000 0.0000 0.0000 0.0000 9.6678
#
#
#
# Elastic Compliance Matrix: (Units=1/GPa)
#
#
# Indices 1 2 3 4 5 6 
#
# 1 0.022464 -0.002987 0.003989 0.000000 0.000000 0.000000
# 2 -0.002987 0.031213 -0.007342 0.000000 0.000000 0.000000
# 3 0.003989 -0.007342 0.017519 0.000000 0.000000 0.000000
# 4 0.000000 0.000000 0.000000 0.094737 0.000000 0.000000
# 5 0.000000 0.000000 0.000000 0.000000 0.055117 0.000000
# 6 0.000000 0.000000 0.000000 0.000000 0.000000 0.103436
#
#
# Mechanical properties :
#
#
# Convention : Reuss Voigt Hill
#
# Bulk Modulus (GPa) = 17.08951 17.93084 17.51017
# Shear Modulus (GPa) = 14.01845 17.04458 15.53152
#
# Velocity S-wave (km/s) = 2.90198 3.19991 3.05458
# Velocity P-wave (km/s) = 4.63628 4.94210 4.79163
#
# Compressibility (1/GPa) = 0.05851543
#
# Stress axis : x y z
#
# Youngs Moduli (GPa) = 44.51569 32.03744 57.08175
#
# Poissons Ratio (x) = 0.09571 -0.22769
# Poissons Ratio (y) = 0.13298 0.41909
# Poissons Ratio (z) = -0.17757 0.23521
#
# Static dielectric constant tensor:
#      x y z
#    x 1.573200 0.000000 0.000000 
#    y 0.000000 1.546180 0.000000 
#    z 0.000000 0.000000 1.638580 
# 
# From -- ./inp_files/21665.got.cif
#   From: 2010.05.17/outbox.cif.g08.bks.cpg/sg62_11_cif.got.tgz:21665.got - 2010.06.03 15:25:27.
