data_PCOD9463058
_publ_section_title
;
Structure prediction by ZEFSAII (Michael W. Deem and Ramdas Pophale) SiO2 
 PCOD9463058
Probable space group: P N M A
;
_chemical_formula_sum "Si O2"
_cell_formula_units_Z 64
_cell_length_a 5.886492
_cell_length_b 17.974940
_cell_length_c 23.946151
_cell_angle_alpha 90.000000
_cell_angle_beta 90.000000
_cell_angle_gamma 90.000000
_cell_volume 2533.726445
_symmetry_space_group_name_H-M "P N M A"
_symmetry_group_IT_number 62
_symmetry_cell_setting 'orthorhombic'
loop_
_space_group_symop_operation_xyz
x,y,z
1/2-x,-y,1/2+z
1/2+x,1/2-y,1/2-z
-x,1/2+y,-z
-x,-y,-z
1/2+x,y,1/2-z
1/2-x,1/2+y,1/2+z
x,1/2-y,z
loop_
_atom_site_type_symbol
_atom_site_label
_atom_site_fract_x
_atom_site_fract_y
_atom_site_fract_z
Si Si1 0.460657 0.665319 0.877443
Si Si2 0.713448 0.866413 0.730221
Si Si3 0.665869 0.330792 0.568217
Si Si4 0.965039 0.920893 0.384002
Si Si5 0.091169 0.666893 0.183089
Si Si6 0.654945 0.024767 0.699531
Si Si7 0.379563 0.162371 0.465611
Si Si8 0.168220 0.053523 0.109818
O O1 0.536320 0.750000 0.873691
O O2 0.252069 0.651912 0.835304
O O3 0.369321 0.649617 0.939826
O O4 0.659512 0.610397 0.860729
O O5 0.459810 0.838817 0.746205
O O6 0.709202 0.956015 0.739769
O O7 0.754691 0.250000 0.550728
O O8 0.869490 0.387797 0.569347
O O9 0.587646 0.327499 0.632257
O O10 0.446291 0.345643 0.530179
O O11 0.120769 0.956264 0.335459
O O12 0.814578 0.860805 0.349904
O O13 0.816611 0.985100 0.411943
O O14 0.118125 0.750000 0.208115
O O15 0.980640 0.599323 0.219230
O O16 0.493499 0.987600 0.653058
O O17 0.426692 0.250000 0.451171
O O18 0.539288 0.102905 0.435154
#
# Coordination Sequence:
#
# PCOD9463058 Si02
#       8
#     8   8   8   8   8   8   8   8
#     4  11  24  42  63  89 124 167 214 266 326 392
#     4  12  26  44  72  99 127 166 212 273 334 397
#     4   9  19  35  52  87 126 161 214 263 309 368
#     4  10  19  33  61  84 122 164 207 263 315 379
#     4   9  19  35  62  92 126 168 214 264 312 377
#     4  10  21  40  62  91 127 163 207 261 327 396
#     4  10  21  36  57  81 123 171 208 261 319 377
#     4  11  19  37  60  84 119 168 215 257 319 390
#
# _framework density 25.259236999999999
#
# number of rings (size 3 to 8) (size 9 to 14) (size 15 to 20)
#    0.000    1.750    2.500    1.500    1.750    2.500 
#    0.000   11.250    0.000    0.750    0.000    0.000 
#    0.000    0.000    0.000    0.000    0.000    0.000 
#
# Total GULP energy -357751.875641 kJ/mol
# GULP energy per Si atom -5589.873057 kJ/mol
# Density = 2.520175 g / cm^3
# Si number density = 25.259237 Si / 1000 Ang^3
#
#
#
# Elastic Constant Matrix: (Units=GPa)
#
#
# Indices 1 2 3 4 5 6 
#
# 1 88.5193 41.9863 -3.3703 0.0000 0.0000 0.0000
# 2 41.9863 145.9486 9.8346 0.0000 0.0000 0.0000
# 3 -3.3703 9.8346 53.8891 0.0000 0.0000 0.0000
# 4 0.0000 0.0000 0.0000 -247.2373 0.0000 0.0000
# 5 0.0000 0.0000 0.0000 0.0000 29.8516 0.0000
# 6 0.0000 0.0000 0.0000 0.0000 0.0000 30.2977
#
#
#
# Elastic Compliance Matrix: (Units=1/GPa)
#
#
# Indices 1 2 3 4 5 6 
#
# 1 0.013207 -0.003903 0.001538 0.000000 0.000000 0.000000
# 2 -0.003903 0.008090 -0.001721 0.000000 0.000000 0.000000
# 3 0.001538 -0.001721 0.018967 0.000000 0.000000 0.000000
# 4 0.000000 0.000000 0.000000 -0.004045 0.000000 0.000000
# 5 0.000000 0.000000 0.000000 0.000000 0.033499 0.000000
# 6 0.000000 0.000000 0.000000 0.000000 0.000000 0.033006
#
#
# Mechanical properties :
#
#
# Convention : Reuss Voigt Hill
#
# Bulk Modulus (GPa) = 31.15897 42.80647 36.98272
# Shear Modulus (GPa) = 41.12094 -21.42382 9.84856
#
# Velocity S-wave (km/s) = 4.03917 -2.91547 1.97673
# Velocity P-wave (km/s) = 5.84086 2.37704 4.45904
#
# Compressibility (1/GPa) = 0.03209349
#
# Stress axis : x y z
#
# Youngs Moduli (GPa) = 75.71868 123.60225 52.72363
#
# Poissons Ratio (x) = 0.48242 -0.08110
# Poissons Ratio (y) = 0.29553 0.09072
# Poissons Ratio (z) = -0.11647 0.21267
#
# Static dielectric constant tensor:
#      x y z
#    x 2.019000 0.000000 0.000000 
#    y 0.000000 2.035090 0.000000 
#    z 0.000000 0.000000 1.997810 
# 
# From -- ./inp_files/31690.got.cif
#   From: 2010.05.17/outbox.cif.g08.bks.cpg/sg62_16_cif.got.tgz:31690.got - 2010.06.03 15:25:27.
