data_PCOD9463107
_publ_section_title
;
Structure prediction by ZEFSAII (Michael W. Deem and Ramdas Pophale) SiO2 
 PCOD9463107
Probable space group: P N M A
;
_chemical_formula_sum "Si O2"
_cell_formula_units_Z 56
_cell_length_a 34.021162
_cell_length_b 15.123909
_cell_length_c 5.043765
_cell_angle_alpha 90.000000
_cell_angle_beta 90.000000
_cell_angle_gamma 90.000000
_cell_volume 2595.183326
_symmetry_space_group_name_H-M "P N M A"
_symmetry_group_IT_number 62
_symmetry_cell_setting 'orthorhombic'
loop_
_space_group_symop_operation_xyz
x,y,z
1/2-x,-y,1/2+z
1/2+x,1/2-y,1/2-z
-x,1/2+y,-z
-x,-y,-z
1/2+x,y,1/2-z
1/2-x,1/2+y,1/2+z
x,1/2-y,z
loop_
_atom_site_type_symbol
_atom_site_label
_atom_site_fract_x
_atom_site_fract_y
_atom_site_fract_z
Si Si1 0.529228 0.570957 0.631606
Si Si2 0.167948 0.583343 0.535450
Si Si3 0.578482 0.083647 0.539133
Si Si4 0.057778 0.750000 0.087099
Si Si5 0.747526 0.059594 0.573527
Si Si6 0.388370 0.250000 0.081007
Si Si7 0.031075 0.352687 0.467366
Si Si8 0.336494 0.957937 0.535480
O O1 0.500000 0.500000 0.500000
O O2 0.570228 0.519003 0.620409
O O3 0.533207 0.662092 0.474923
O O4 0.509843 0.595956 0.912656
O O5 0.212831 0.613986 0.476503
O O6 0.137653 0.663378 0.527675
O O7 0.166787 0.536443 0.820049
O O8 0.159231 0.506977 0.317747
O O9 0.560261 0.108153 0.255917
O O10 0.624803 0.097560 0.530095
O O11 0.553370 0.135224 0.757613
O O12 0.093700 0.750000 0.875965
O O13 0.075229 0.750000 0.379052
O O14 0.752573 0.974900 0.375373
O O15 0.704636 0.094315 0.492704
O O16 0.023895 0.250000 0.420614
#
# Coordination Sequence:
#
# PCOD9463107 Si02
#       8
#     8   8   8   4   8   4   8   8
#     4  10  23  43  64  89 121 160 207 249 307 375
#     4  10  19  34  54  83 122 154 194 233 302 367
#     4  11  22  36  63  88 113 150 204 249 295 355
#     4  12  26  42  62  94 126 160 202 260 314 368
#     4   8  16  30  53  80 107 148 190 233 282 349
#     4  12  24  36  58  88 128 164 188 250 324 360
#     4  11  23  41  59  81 115 158 195 244 306 355
#     4  10  19  35  58  86 114 149 200 255 287 344
#
# _framework density 21.578436
#
# number of rings (size 3 to 8) (size 9 to 14) (size 15 to 20)
#    0.000    1.714    0.714    4.286    0.000    5.714 
#    0.000    0.000    3.143    0.000    0.000    0.000 
#    0.000    0.000    0.000    0.000    0.000    0.000 
#
# Total GULP energy -312892.213893 kJ/mol
# GULP energy per Si atom -5587.360962 kJ/mol
# Density = 2.152932 g / cm^3
# Si number density = 21.578436 Si / 1000 Ang^3
#
#
#
# Elastic Constant Matrix: (Units=GPa)
#
#
# Indices 1 2 3 4 5 6 
#
# 1 113.0252 18.1642 19.0865 0.0000 0.0000 0.0000
# 2 18.1642 74.4908 -8.1175 0.0000 0.0000 0.0000
# 3 19.0865 -8.1175 66.8356 0.0000 0.0000 0.0000
# 4 0.0000 0.0000 0.0000 20.7291 0.0000 0.0000
# 5 0.0000 0.0000 0.0000 0.0000 29.0028 0.0000
# 6 0.0000 0.0000 0.0000 0.0000 0.0000 24.9564
#
#
#
# Elastic Compliance Matrix: (Units=1/GPa)
#
#
# Indices 1 2 3 4 5 6 
#
# 1 0.009817 -0.002735 -0.003136 0.000000 0.000000 0.000000
# 2 -0.002735 0.014367 0.002526 0.000000 0.000000 0.000000
# 3 -0.003136 0.002526 0.016164 0.000000 0.000000 0.000000
# 4 0.000000 0.000000 0.000000 0.048241 0.000000 0.000000
# 5 0.000000 0.000000 0.000000 0.000000 0.034479 0.000000
# 6 0.000000 0.000000 0.000000 0.000000 0.000000 0.040070
#
#
# Mechanical properties :
#
#
# Convention : Reuss Voigt Hill
#
# Bulk Modulus (GPa) = 29.71078 34.73535 32.22306
# Shear Modulus (GPa) = 27.61701 29.95221 28.78461
#
# Velocity S-wave (km/s) = 3.58137 3.72971 3.65629
# Velocity P-wave (km/s) = 5.55880 5.88896 5.72626
#
# Compressibility (1/GPa) = 0.03365782
#
# Stress axis : x y z
#
# Youngs Moduli (GPa) = 101.86711 69.60502 61.86459
#
# Poissons Ratio (x) = 0.19040 0.19398
# Poissons Ratio (y) = 0.27865 -0.15628
# Poissons Ratio (z) = 0.31942 -0.17583
#
# Static dielectric constant tensor:
#      x y z
#    x 1.860640 0.000000 0.000000 
#    y 0.000000 1.756920 0.000000 
#    z 0.000000 0.000000 1.781880 
# 
# From -- ./inp_files/3644.got.cif
#   From: 2010.05.17/outbox.cif.g08.bks.cpg/sg62_2_cif.got.tgz:3644.got - 2010.06.03 15:25:27.
