data_PCOD9463172
_publ_section_title
;
Structure prediction by ZEFSAII (Michael W. Deem and Ramdas Pophale) SiO2 
 PCOD9463172
Probable space group: P N M A
;
_chemical_formula_sum "Si O2"
_cell_formula_units_Z 48
_cell_length_a 15.577510
_cell_length_b 8.371691
_cell_length_c 19.600105
_cell_angle_alpha 90.000000
_cell_angle_beta 90.000000
_cell_angle_gamma 90.000000
_cell_volume 2556.051658
_symmetry_space_group_name_H-M "P N M A"
_symmetry_group_IT_number 62
_symmetry_cell_setting 'orthorhombic'
loop_
_space_group_symop_operation_xyz
x,y,z
1/2-x,-y,1/2+z
1/2+x,1/2-y,1/2-z
-x,1/2+y,-z
-x,-y,-z
1/2+x,y,1/2-z
1/2-x,1/2+y,1/2+z
x,1/2-y,z
loop_
_atom_site_type_symbol
_atom_site_label
_atom_site_fract_x
_atom_site_fract_y
_atom_site_fract_z
Si Si1 0.780797 0.441612 0.924248
Si Si2 0.123830 0.443099 0.828736
Si Si3 0.527354 0.439774 0.424986
Si Si4 0.125372 0.445225 0.672452
Si Si5 0.528148 0.943112 0.074743
Si Si6 0.222959 0.556614 0.426528
O O1 0.783101 0.250000 0.923994
O O2 0.875935 0.504725 0.910438
O O3 0.710213 0.495060 0.868951
O O4 0.750939 0.498162 0.998907
O O5 0.125401 0.250000 0.827874
O O6 0.124526 0.499119 0.750630
O O7 0.207419 0.497680 0.871026
O O8 0.039787 0.495398 0.869827
O O9 0.500000 0.500000 0.500000
O O10 0.523968 0.250000 0.425637
O O11 0.125046 0.250000 0.672814
O O12 0.041438 0.497400 0.630310
O O13 0.527366 0.750000 0.074757
O O14 0.625681 0.995939 0.088454
O O15 0.500000 0.000000 0.000000
O O16 0.223983 0.750000 0.427353
#
# Coordination Sequence:
#
# PCOD9463172 Si02
#       6
#     8   8   8   8   8   8
#     4  11  21  36  61  89 117 153 196 241 288 346
#     4  10  21  39  60  86 119 154 194 243 296 349
#     4  12  24  39  60  88 118 154 199 245 296 351
#     4   9  20  37  59  88 120 153 195 240 289 351
#     4  10  19  34  56  85 115 151 195 241 289 345
#     4  10  20  33  56  85 114 150 193 242 294 344
#
# _framework density 18.778963999999998
#
# number of rings (size 3 to 8) (size 9 to 14) (size 15 to 20)
#    0.000    1.667    3.333    2.000    0.000    1.333 
#    0.000    7.500    0.000    2.000    0.000    0.000 
#    0.000    0.000    0.000    0.000    0.000    0.000 
#
# Total GULP energy -268145.090590 kJ/mol
# GULP energy per Si atom -5586.356054 kJ/mol
# Density = 1.873622 g / cm^3
# Si number density = 18.778964 Si / 1000 Ang^3
#
#
#
# Elastic Constant Matrix: (Units=GPa)
#
#
# Indices 1 2 3 4 5 6 
#
# 1 220.4979 22.2678 125.0324 0.0000 0.0000 0.0000
# 2 22.2678 16.2828 20.3825 0.0000 0.0000 0.0000
# 3 125.0324 20.3825 202.5012 0.0000 0.0000 0.0000
# 4 0.0000 0.0000 0.0000 25.6284 0.0000 0.0000
# 5 0.0000 0.0000 0.0000 0.0000 34.4001 0.0000
# 6 0.0000 0.0000 0.0000 0.0000 0.0000 23.5006
#
#
#
# Elastic Compliance Matrix: (Units=1/GPa)
#
#
# Indices 1 2 3 4 5 6 
#
# 1 0.007315 -0.004977 -0.004015 0.000000 0.000000 0.000000
# 2 -0.004977 0.073654 -0.004341 0.000000 0.000000 0.000000
# 3 -0.004015 -0.004341 0.007854 0.000000 0.000000 0.000000
# 4 0.000000 0.000000 0.000000 0.039019 0.000000 0.000000
# 5 0.000000 0.000000 0.000000 0.000000 0.029070 0.000000
# 6 0.000000 0.000000 0.000000 0.000000 0.000000 0.042552
#
#
# Mechanical properties :
#
#
# Convention : Reuss Voigt Hill
#
# Bulk Modulus (GPa) = 16.08818 86.07194 51.08006
# Shear Modulus (GPa) = 20.25523 34.81242 27.53382
#
# Velocity S-wave (km/s) = 3.28779 4.31025 3.83326
# Velocity P-wave (km/s) = 4.79567 8.40861 6.84482
#
# Compressibility (1/GPa) = 0.06215744
#
# Stress axis : x y z
#
# Youngs Moduli (GPa) = 136.70975 13.57694 127.31602
#
# Poissons Ratio (x) = 0.06757 0.51124
# Poissons Ratio (y) = 0.68039 0.55263
# Poissons Ratio (z) = 0.54896 0.05893
#
# Static dielectric constant tensor:
#      x y z
#    x 1.644560 0.000000 0.000000 
#    y 0.000000 1.656010 0.000000 
#    z 0.000000 0.000000 1.612560 
# 
# From -- ./inp_files/23752.got.cif
#   From: 2010.05.17/outbox.cif.g08.bks.cpg/sg62_12_cif.got.tgz:23752.got - 2010.06.03 15:25:27.
