data_PCOD9463614
_publ_section_title
;
Structure prediction by ZEFSAII (Michael W. Deem and Ramdas Pophale) SiO2 
 PCOD9463614
Probable space group: P N M A
;
_chemical_formula_sum "Si O2"
_cell_formula_units_Z 64
_cell_length_a 9.367282
_cell_length_b 22.857647
_cell_length_c 15.507699
_cell_angle_alpha 90.000000
_cell_angle_beta 90.000000
_cell_angle_gamma 90.000000
_cell_volume 3320.415856
_symmetry_space_group_name_H-M "P N M A"
_symmetry_group_IT_number 62
_symmetry_cell_setting 'orthorhombic'
loop_
_space_group_symop_operation_xyz
x,y,z
1/2-x,-y,1/2+z
1/2+x,1/2-y,1/2-z
-x,1/2+y,-z
-x,-y,-z
1/2+x,y,1/2-z
1/2-x,1/2+y,1/2+z
x,1/2-y,z
loop_
_atom_site_type_symbol
_atom_site_label
_atom_site_fract_x
_atom_site_fract_y
_atom_site_fract_z
Si Si1 0.975788 0.986186 0.205013
Si Si2 0.455977 0.135486 0.487614
Si Si3 0.106738 0.179687 0.342249
Si Si4 0.204918 0.083686 0.932872
Si Si5 0.473831 0.919922 0.115902
Si Si6 0.664789 0.315625 0.961738
Si Si7 0.702013 0.521332 0.441088
Si Si8 0.406050 0.376851 0.293968
O O1 0.859333 0.951659 0.147975
O O2 0.992067 0.951626 0.293398
O O3 0.123467 0.982657 0.150869
O O4 0.928125 0.053471 0.217152
O O5 0.600107 0.136710 0.542916
O O6 0.333976 0.179167 0.520326
O O7 0.380205 0.072129 0.505949
O O8 0.479001 0.140692 0.385485
O O9 0.127621 0.250000 0.333027
O O10 0.096503 0.167746 0.444976
O O11 0.243174 0.143491 0.307499
O O12 0.974877 0.157212 0.285995
O O13 0.370842 0.094295 0.920393
O O14 0.186118 0.039810 0.012687
O O15 0.383898 0.860079 0.111777
O O16 0.368082 0.962298 0.062749
O O17 0.624286 0.250000 0.940860
#
# Coordination Sequence:
#
# PCOD9463614 Si02
#       8
#     8   8   8   8   8   8   8   8
#     4  11  22  36  56  89 126 162 194 241 303 364
#     4   9  18  36  61  82 109 160 198 239 285 355
#     4  10  23  39  58  83 119 158 205 250 294 352
#     4  11  20  37  58  86 127 156 196 238 301 358
#     4  11  24  33  59  91 124 152 198 258 301 352
#     4   9  21  44  62  79 111 163 206 247 306 362
#     4  10  19  37  55  82 128 163 189 227 302 361
#     4  11  21  35  59  84 118 158 200 241 298 356
#
# _framework density 19.274694
#
# number of rings (size 3 to 8) (size 9 to 14) (size 15 to 20)
#    0.000    1.750    2.500    2.250    3.500    2.500 
#    0.000    0.625    0.000   12.000    0.000    0.000 
#    0.000    0.000    0.000    0.000    0.000    0.000 
#
# Total GULP energy -357169.764799 kJ/mol
# GULP energy per Si atom -5580.777575 kJ/mol
# Density = 1.923082 g / cm^3
# Si number density = 19.274694 Si / 1000 Ang^3
#
#
#
# Elastic Constant Matrix: (Units=GPa)
#
#
# Indices 1 2 3 4 5 6 
#
# 1 74.0202 -10.8886 10.4714 0.0000 0.0000 0.0000
# 2 -10.8886 46.5164 10.6601 0.0000 0.0000 0.0000
# 3 10.4714 10.6601 39.3201 0.0000 0.0000 0.0000
# 4 0.0000 0.0000 0.0000 18.0572 0.0000 0.0000
# 5 0.0000 0.0000 0.0000 0.0000 13.6291 0.0000
# 6 0.0000 0.0000 0.0000 0.0000 0.0000 5.5158
#
#
#
# Elastic Compliance Matrix: (Units=1/GPa)
#
#
# Indices 1 2 3 4 5 6 
#
# 1 0.014945 0.004703 -0.005255 0.000000 0.000000 0.000000
# 2 0.004703 0.024402 -0.007868 0.000000 0.000000 0.000000
# 3 -0.005255 -0.007868 0.028965 0.000000 0.000000 0.000000
# 4 0.000000 0.000000 0.000000 0.055380 0.000000 0.000000
# 5 0.000000 0.000000 0.000000 0.000000 0.073372 0.000000
# 6 0.000000 0.000000 0.000000 0.000000 0.000000 0.181298
#
#
# Mechanical properties :
#
#
# Convention : Reuss Voigt Hill
#
# Bulk Modulus (GPa) = 19.42841 20.03804 19.73322
# Shear Modulus (GPa) = 12.12536 17.41467 14.77001
#
# Velocity S-wave (km/s) = 2.51087 3.00909 2.77120
# Velocity P-wave (km/s) = 4.30205 4.74251 4.52764
#
# Compressibility (1/GPa) = 0.05147101
#
# Stress axis : x y z
#
# Youngs Moduli (GPa) = 66.91200 40.98081 34.52463
#
# Poissons Ratio (x) = -0.19272 0.18143
# Poissons Ratio (y) = -0.31466 0.27164
# Poissons Ratio (z) = 0.35162 0.32243
#
# Static dielectric constant tensor:
#      x y z
#    x 1.702320 0.000000 0.000000 
#    y 0.000000 1.660030 0.000000 
#    z 0.000000 0.000000 1.682230 
# 
# From -- ./inp_files/17365.got.cif
#   From: 2010.05.17/outbox.cif.g08.bks.cpg/sg62_9_cif.got.tgz:17365.got - 2010.06.03 15:25:27.
