data_PCOD9463002
_publ_section_title
;
Structure prediction by ZEFSAII (Michael W. Deem and Ramdas Pophale) SiO2 
 PCOD9463002
Probable space group: P N M A
;
_chemical_formula_sum "Si O2"
_cell_formula_units_Z 64
_cell_length_a 22.789424
_cell_length_b 14.706333
_cell_length_c 8.459081
_cell_angle_alpha 90.000000
_cell_angle_beta 90.000000
_cell_angle_gamma 90.000000
_cell_volume 2835.051339
_symmetry_space_group_name_H-M "P N M A"
_symmetry_group_IT_number 62
_symmetry_cell_setting 'orthorhombic'
loop_
_space_group_symop_operation_xyz
x,y,z
1/2-x,-y,1/2+z
1/2+x,1/2-y,1/2-z
-x,1/2+y,-z
-x,-y,-z
1/2+x,y,1/2-z
1/2-x,1/2+y,1/2+z
x,1/2-y,z
loop_
_atom_site_type_symbol
_atom_site_label
_atom_site_fract_x
_atom_site_fract_y
_atom_site_fract_z
Si Si1 0.167457 0.138676 0.305900
Si Si2 0.907790 0.859971 0.379919
Si Si3 0.960549 0.071017 0.651740
Si Si4 0.113005 0.355181 0.975221
Si Si5 0.098134 0.850808 0.620085
Si Si6 0.599352 0.856312 0.440299
Si Si7 0.497688 0.401410 0.349138
Si Si8 0.298055 0.358978 0.362769
O O1 0.165953 0.250000 0.297770
O O2 0.128097 0.116532 0.460374
O O3 0.146443 0.106521 0.131081
O O4 0.233440 0.103920 0.337089
O O5 0.907043 0.750000 0.371714
O O6 0.975674 0.889484 0.389241
O O7 0.884463 0.892861 0.205190
O O8 0.919826 0.070308 0.498901
O O9 0.924012 0.136470 0.765855
O O10 0.972892 0.979413 0.746229
O O11 0.132092 0.250000 0.961286
O O12 0.045612 0.357010 0.036978
O O13 0.108957 0.750000 0.551850
O O14 0.039123 0.843215 0.724838
O O15 0.154498 0.876032 0.724540
O O16 0.592334 0.750000 0.491943
O O17 0.556511 0.924996 0.535420
O O18 0.665937 0.882651 0.478651
O O19 0.290175 0.250000 0.366590
#
# Coordination Sequence:
#
# PCOD9463002 Si02
#       8
#     8   8   8   8   8   8   8   8
#     4   9  18  35  56  81 110 145 195 248 290 336
#     4  10  20  33  54  85 117 151 191 239 293 350
#     4  12  22  33  53  88 120 147 187 245 296 350
#     4  10  19  33  56  81 112 153 194 238 293 355
#     4  10  20  35  56  82 112 150 190 235 289 352
#     4  10  19  34  56  79 110 151 188 232 289 348
#     4  11  21  34  54  81 114 152 185 231 294 355
#     4   8  17  35  56  77 105 145 191 234 285 343
#
# _framework density 22.574546999999999
#
# number of rings (size 3 to 8) (size 9 to 14) (size 15 to 20)
#    0.000    2.000    1.250    4.500    0.000    1.000 
#    2.250    0.000    0.000    4.500    0.000    0.000 
#    0.000    0.000    0.000    0.000    0.000    0.750 
#
# Total GULP energy -356775.970992 kJ/mol
# GULP energy per Si atom -5574.624547 kJ/mol
# Density = 2.252317 g / cm^3
# Si number density = 22.574547 Si / 1000 Ang^3
#
#
#
# Elastic Constant Matrix: (Units=GPa)
#
#
# Indices 1 2 3 4 5 6 
#
# 1 134.1156 9.8331 54.0815 0.0000 0.0000 0.0000
# 2 9.8331 51.9912 20.6622 0.0000 0.0000 0.0000
# 3 54.0815 20.6622 117.5976 0.0000 0.0000 0.0000
# 4 0.0000 0.0000 0.0000 23.6103 0.0000 0.0000
# 5 0.0000 0.0000 0.0000 0.0000 16.6429 0.0000
# 6 0.0000 0.0000 0.0000 0.0000 0.0000 4.6967
#
#
#
# Elastic Compliance Matrix: (Units=1/GPa)
#
#
# Indices 1 2 3 4 5 6 
#
# 1 0.009154 -0.000063 -0.004199 0.000000 0.000000 0.000000
# 2 -0.000063 0.020678 -0.003604 0.000000 0.000000 0.000000
# 3 -0.004199 -0.003604 0.011068 0.000000 0.000000 0.000000
# 4 0.000000 0.000000 0.000000 0.042354 0.000000 0.000000
# 5 0.000000 0.000000 0.000000 0.000000 0.060086 0.000000
# 6 0.000000 0.000000 0.000000 0.000000 0.000000 0.212917
#
#
# Mechanical properties :
#
#
# Convention : Reuss Voigt Hill
#
# Bulk Modulus (GPa) = 39.73225 52.53978 46.13601
# Shear Modulus (GPa) = 13.14479 23.59848 18.37164
#
# Velocity S-wave (km/s) = 2.41567 3.23671 2.85585
# Velocity P-wave (km/s) = 5.04176 6.10678 5.59965
#
# Compressibility (1/GPa) = 0.02516847
#
# Stress axis : x y z
#
# Youngs Moduli (GPa) = 109.24204 48.35980 90.35178
#
# Poissons Ratio (x) = 0.00303 0.37937
# Poissons Ratio (y) = 0.00684 0.32567
# Poissons Ratio (z) = 0.45868 0.17431
#
# Static dielectric constant tensor:
#      x y z
#    x 1.800950 0.000000 0.000000 
#    y 0.000000 1.902610 0.000000 
#    z 0.000000 0.000000 1.922880 
# 
# From -- ./inp_files/8857.got.cif
#   From: 2010.05.17/outbox.cif.g08.bks.cpg/sg62_5_cif.got.tgz:8857.got - 2010.06.03 15:25:27.
