data_PCOD9463363
_publ_section_title
;
Structure prediction by ZEFSAII (Michael W. Deem and Ramdas Pophale) SiO2 
 PCOD9463363
Probable space group: P N M A
;
_chemical_formula_sum "Si O2"
_cell_formula_units_Z 64
_cell_length_a 24.975067
_cell_length_b 7.419938
_cell_length_c 14.006362
_cell_angle_alpha 90.000000
_cell_angle_beta 90.000000
_cell_angle_gamma 90.000000
_cell_volume 2595.567246
_symmetry_space_group_name_H-M "P N M A"
_symmetry_group_IT_number 62
_symmetry_cell_setting 'orthorhombic'
loop_
_space_group_symop_operation_xyz
x,y,z
1/2-x,-y,1/2+z
1/2+x,1/2-y,1/2-z
-x,1/2+y,-z
-x,-y,-z
1/2+x,y,1/2-z
1/2-x,1/2+y,1/2+z
x,1/2-y,z
loop_
_atom_site_type_symbol
_atom_site_label
_atom_site_fract_x
_atom_site_fract_y
_atom_site_fract_z
Si Si1 0.758752 0.968754 0.536294
Si Si2 0.365226 0.530981 0.870520
Si Si3 0.139381 0.955045 0.162308
Si Si4 0.031445 0.966568 0.096911
Si Si5 0.940999 0.534974 0.459714
Si Si6 0.552837 0.457960 0.746441
Si Si7 0.162032 0.954626 0.849958
Si Si8 0.760012 0.968376 0.323030
O O1 0.756245 0.750000 0.540621
O O2 0.804069 0.026879 0.610188
O O3 0.699710 0.032884 0.566294
O O4 0.778148 0.013250 0.430383
O O5 0.367057 0.750000 0.865681
O O6 0.384238 0.457185 0.769546
O O7 0.399916 0.468294 0.960312
O O8 0.149442 0.750000 0.129345
O O9 0.092385 0.036063 0.098417
O O10 0.198456 0.034405 0.175439
O O11 0.035909 0.750000 0.107512
O O12 0.995219 0.037940 0.184036
O O13 0.000000 0.000000 0.000000
O O14 0.931059 0.750000 0.454923
O O15 0.936724 0.463123 0.351622
O O16 0.000000 0.500000 0.500000
O O17 0.538136 0.250000 0.763421
O O18 0.606883 0.459860 0.683826
O O19 0.148213 0.750000 0.876075
O O20 0.202061 0.956152 0.758706
O O21 0.761421 0.750000 0.311682
#
# Coordination Sequence:
#
# PCOD9463363 Si02
#       8
#     8   8   8   8   8   8   8   8
#     4   9  19  35  56  81 111 150 191 231 284 347
#     4  10  19  35  58  84 116 151 187 232 289 344
#     4  10  21  37  60  86 114 151 195 238 285 348
#     4  10  23  41  61  86 116 155 200 245 289 340
#     4  10  21  37  61  87 114 151 190 233 286 347
#     4  10  22  41  60  82 119 161 196 235 292 355
#     4  11  22  37  60  89 118 149 193 247 289 334
#     4  10  20  37  60  84 116 158 194 231 292 358
#
# _framework density 24.657423000000001
#
# number of rings (size 3 to 8) (size 9 to 14) (size 15 to 20)
#    0.000    2.000    1.250    1.875    1.750    5.000 
#    0.000    3.125    0.000    0.000    0.000    0.000 
#    0.000    0.000    0.000    0.000    0.000    0.000 
#
# Total GULP energy -357814.118442 kJ/mol
# GULP energy per Si atom -5590.845601 kJ/mol
# Density = 2.460130 g / cm^3
# Si number density = 24.657423 Si / 1000 Ang^3
#
#
#
# Elastic Constant Matrix: (Units=GPa)
#
#
# Indices 1 2 3 4 5 6 
#
# 1 97.2841 -9.9904 -14.4625 0.0000 0.0000 0.0000
# 2 -9.9904 84.7325 -7.1933 0.0000 0.0000 0.0000
# 3 -14.4625 -7.1933 52.9149 0.0000 0.0000 0.0000
# 4 0.0000 0.0000 0.0000 14.9707 0.0000 0.0000
# 5 0.0000 0.0000 0.0000 0.0000 45.8581 0.0000
# 6 0.0000 0.0000 0.0000 0.0000 0.0000 -6.4137
#
#
#
# Elastic Compliance Matrix: (Units=1/GPa)
#
#
# Indices 1 2 3 4 5 6 
#
# 1 0.010914 0.001558 0.003195 0.000000 0.000000 0.000000
# 2 0.001558 0.012162 0.002079 0.000000 0.000000 0.000000
# 3 0.003195 0.002079 0.020054 0.000000 0.000000 0.000000
# 4 0.000000 0.000000 0.000000 0.066797 0.000000 0.000000
# 5 0.000000 0.000000 0.000000 0.000000 0.021806 0.000000
# 6 0.000000 0.000000 0.000000 0.000000 0.000000 -0.155916
#
#
# Mechanical properties :
#
#
# Convention : Reuss Voigt Hill
#
# Bulk Modulus (GPa) = 17.60738 19.07100 18.33919
# Shear Modulus (GPa) = -264.33803 28.65488 -117.84158
#
# Velocity S-wave (km/s) = -10.36518 3.41269 -6.92064
# Velocity P-wave (km/s) = 11.66589 4.82491 7.51043
#
# Compressibility (1/GPa) = 0.05679437
#
# Stress axis : x y z
#
# Youngs Moduli (GPa) = 91.62440 82.22295 49.86507
#
# Poissons Ratio (x) = -0.12811 -0.15931
# Poissons Ratio (y) = -0.14276 -0.10368
# Poissons Ratio (z) = -0.29272 -0.17096
#
# Static dielectric constant tensor:
#      x y z
#    x 1.940540 0.000000 0.000000 
#    y 0.000000 1.990670 0.000000 
#    z 0.000000 0.000000 1.952080 
# 
# From -- ./inp_files/20853.got.cif
#   From: 2010.05.17/outbox.cif.g08.bks.cpg/sg62_11_cif.got.tgz:20853.got - 2010.06.03 15:25:27.
