data_PCOD9463951
_publ_section_title
;
Structure prediction by ZEFSAII (Michael W. Deem and Ramdas Pophale) SiO2 
 PCOD9463951
Probable space group: P N M A
;
_chemical_formula_sum "Si O2"
_cell_formula_units_Z 48
_cell_length_a 15.075174
_cell_length_b 13.794093
_cell_length_c 12.358156
_cell_angle_alpha 90.000000
_cell_angle_beta 90.000000
_cell_angle_gamma 90.000000
_cell_volume 2569.858176
_symmetry_space_group_name_H-M "P N M A"
_symmetry_group_IT_number 62
_symmetry_cell_setting 'orthorhombic'
loop_
_space_group_symop_operation_xyz
x,y,z
1/2-x,-y,1/2+z
1/2+x,1/2-y,1/2-z
-x,1/2+y,-z
-x,-y,-z
1/2+x,y,1/2-z
1/2-x,1/2+y,1/2+z
x,1/2-y,z
loop_
_atom_site_type_symbol
_atom_site_label
_atom_site_fract_x
_atom_site_fract_y
_atom_site_fract_z
Si Si1 0.107319 0.997213 0.369224
Si Si2 0.253871 0.136220 0.968892
Si Si3 0.025145 0.359674 0.520047
Si Si4 0.542961 0.359092 0.544667
Si Si5 0.128435 0.859610 0.663797
Si Si6 0.500483 0.546075 0.675956
O O1 0.194049 0.932659 0.385603
O O2 0.024044 0.923598 0.389683
O O3 0.102200 0.076782 0.465397
O O4 0.083469 0.048622 0.257195
O O5 0.279488 0.250000 0.953273
O O6 0.288241 0.110162 0.090087
O O7 0.149264 0.128851 0.957834
O O8 0.048111 0.250000 0.551439
O O9 0.950916 0.354988 0.425119
O O10 0.521174 0.250000 0.577948
O O11 0.504748 0.440192 0.623481
O O12 0.509826 0.380345 0.423312
O O13 0.143196 0.750000 0.704686
O O14 0.089112 0.927104 0.756889
#
# Coordination Sequence:
#
# PCOD9463951 Si02
#       6
#     8   8   8   8   8   8
#     4   9  16  28  49  74  97 124 161 199 234 279
#     4   9  18  33  52  74 100 125 152 194 244 288
#     4   8  14  25  44  74 105 126 151 194 243 285
#     4  10  22  37  49  67  98 131 161 196 240 286
#     4   8  14  28  52  76  95 121 158 197 237 280
#     4  10  20  33  52  72  93 127 165 199 232 278
#
# _framework density 18.678073999999999
#
# number of rings (size 3 to 8) (size 9 to 14) (size 15 to 20)
#    0.000    3.000    0.000    3.000    0.000    3.333 
#    0.000    0.000    0.000    5.000    0.000    0.000 
#    0.000    0.000    0.000    0.000    0.000    0.000 
#
# Total GULP energy -267348.727834 kJ/mol
# GULP energy per Si atom -5569.765163 kJ/mol
# Density = 1.863556 g / cm^3
# Si number density = 18.678074 Si / 1000 Ang^3
#
#
#
# Elastic Constant Matrix: (Units=GPa)
#
#
# Indices 1 2 3 4 5 6 
#
# 1 17.1444 -8.1281 -12.0737 0.0000 0.0000 0.0000
# 2 -8.1281 62.7218 -9.5827 0.0000 0.0000 0.0000
# 3 -12.0737 -9.5827 39.5455 0.0000 0.0000 0.0000
# 4 0.0000 0.0000 0.0000 0.9256 0.0000 0.0000
# 5 0.0000 0.0000 0.0000 0.0000 26.9532 0.0000
# 6 0.0000 0.0000 0.0000 0.0000 0.0000 15.0765
#
#
#
# Elastic Compliance Matrix: (Units=1/GPa)
#
#
# Indices 1 2 3 4 5 6 
#
# 1 0.087449 0.016004 0.030577 0.000000 0.000000 0.000000
# 2 0.016004 0.019485 0.009608 0.000000 0.000000 0.000000
# 3 0.030577 0.009608 0.036951 0.000000 0.000000 0.000000
# 4 0.000000 0.000000 0.000000 1.080396 0.000000 0.000000
# 5 0.000000 0.000000 0.000000 0.000000 0.037101 0.000000
# 6 0.000000 0.000000 0.000000 0.000000 0.000000 0.066328
#
#
# Mechanical properties :
#
#
# Convention : Reuss Voigt Hill
#
# Bulk Modulus (GPa) = 3.90223 6.64919 5.27571
# Shear Modulus (GPa) = 3.84393 18.53748 11.19070
#
# Velocity S-wave (km/s) = 1.43613 3.15377 2.45038
# Velocity P-wave (km/s) = 2.20084 4.10235 3.29188
#
# Compressibility (1/GPa) = 0.25626405
#
# Stress axis : x y z
#
# Youngs Moduli (GPa) = 11.43524 51.32074 27.06276
#
# Poissons Ratio (x) = -0.82134 -0.82751
# Poissons Ratio (y) = -0.18301 -0.26002
# Poissons Ratio (z) = -0.34966 -0.49309
#
# Static dielectric constant tensor:
#      x y z
#    x 1.638440 0.000000 0.000000 
#    y 0.000000 1.674760 0.000000 
#    z 0.000000 0.000000 1.669380 
# 
# From -- ./inp_files/13238.got.cif
#   From: 2010.05.17/outbox.cif.g08.bks.cpg/sg62_7_cif.got.tgz:13238.got - 2010.06.03 15:25:27.
