data_PCOD9463940
_publ_section_title
;
Structure prediction by ZEFSAII (Michael W. Deem and Ramdas Pophale) SiO2 
 PCOD9463940
Probable space group: P N M A
;
_chemical_formula_sum "Si O2"
_cell_formula_units_Z 64
_cell_length_a 17.506553
_cell_length_b 9.508229
_cell_length_c 19.457860
_cell_angle_alpha 90.000000
_cell_angle_beta 90.000000
_cell_angle_gamma 90.000000
_cell_volume 3238.883672
_symmetry_space_group_name_H-M "P N M A"
_symmetry_group_IT_number 62
_symmetry_cell_setting 'orthorhombic'
loop_
_space_group_symop_operation_xyz
x,y,z
1/2-x,-y,1/2+z
1/2+x,1/2-y,1/2-z
-x,1/2+y,-z
-x,-y,-z
1/2+x,y,1/2-z
1/2-x,1/2+y,1/2+z
x,1/2-y,z
loop_
_atom_site_type_symbol
_atom_site_label
_atom_site_fract_x
_atom_site_fract_y
_atom_site_fract_z
Si Si1 0.840597 0.078624 0.332188
Si Si2 0.914090 0.905164 0.790907
Si Si3 0.345722 0.413699 0.903597
Si Si4 0.989342 0.912112 0.642040
Si Si5 0.752553 0.913610 0.963221
Si Si6 0.110846 0.908109 0.973586
Si Si7 0.257108 0.584602 0.790205
Si Si8 0.000968 0.092589 0.896185
O O1 0.841914 0.250000 0.331184
O O2 0.779073 0.037753 0.389835
O O3 0.814913 0.036592 0.255490
O O4 0.924178 0.033643 0.357109
O O5 0.920840 0.750000 0.823714
O O6 0.964094 0.907247 0.721756
O O7 0.828292 0.922392 0.763347
O O8 0.944953 0.022141 0.841426
O O9 0.352300 0.250000 0.883053
O O10 0.426148 0.493138 0.894941
O O11 0.283977 0.492334 0.854611
O O12 0.315437 0.418895 0.981174
O O13 0.986766 0.750000 0.616358
O O14 0.777293 0.750000 0.957656
O O15 0.819959 0.007251 0.992994
O O16 0.132630 0.750000 0.953428
O O17 0.046783 0.898533 0.033059
O O18 0.073293 0.993717 0.911169
O O19 0.249476 0.750000 0.809426
O O20 0.023856 0.250000 0.876255
#
# Coordination Sequence:
#
# PCOD9463940 Si02
#       8
#     8   8   8   8   8   8   8   8
#     4   9  18  35  59  82 104 136 180 224 262 308
#     4   9  17  30  50  76 104 136 175 215 258 310
#     4  10  21  36  54  79 111 143 174 216 272 323
#     4   9  19  36  56  78 104 138 180 219 258 311
#     4  10  21  37  56  78 106 140 178 223 273 318
#     4  10  21  35  51  74 104 138 176 215 258 316
#     4   9  18  34  57  81 105 139 180 219 261 314
#     4  10  20  33  51  76 106 139 173 213 264 318
#
# _framework density 19.759893000000002
#
# number of rings (size 3 to 8) (size 9 to 14) (size 15 to 20)
#    0.000    2.500    0.000    2.625    0.000    7.000 
#    0.000    3.125    0.000    0.000    0.000    0.000 
#    0.000    0.000    0.000    0.000    0.000    0.000 
#
# Total GULP energy -357142.008159 kJ/mol
# GULP energy per Si atom -5580.343877 kJ/mol
# Density = 1.971492 g / cm^3
# Si number density = 19.759893 Si / 1000 Ang^3
#
#
#
# Elastic Constant Matrix: (Units=GPa)
#
#
# Indices 1 2 3 4 5 6 
#
# 1 49.5450 14.5848 -1.0735 0.0000 0.0000 0.0000
# 2 14.5848 79.4221 7.9477 0.0000 0.0000 0.0000
# 3 -1.0735 7.9477 36.0802 0.0000 0.0000 0.0000
# 4 0.0000 0.0000 0.0000 19.9271 0.0000 0.0000
# 5 0.0000 0.0000 0.0000 0.0000 -962.0349 0.0000
# 6 0.0000 0.0000 0.0000 0.0000 0.0000 21.1858
#
#
#
# Elastic Compliance Matrix: (Units=1/GPa)
#
#
# Indices 1 2 3 4 5 6 
#
# 1 0.021420 -0.004087 0.001538 0.000000 0.000000 0.000000
# 2 -0.004087 0.013655 -0.003129 0.000000 0.000000 0.000000
# 3 0.001538 -0.003129 0.028451 0.000000 0.000000 0.000000
# 4 0.000000 0.000000 0.000000 0.050183 0.000000 0.000000
# 5 0.000000 0.000000 0.000000 0.000000 -0.001039 0.000000
# 6 0.000000 0.000000 0.000000 0.000000 0.000000 0.047201
#
#
# Mechanical properties :
#
#
# Convention : Reuss Voigt Hill
#
# Bulk Modulus (GPa) = 19.16894 23.10725 21.13810
# Shear Modulus (GPa) = 26.50854 -174.61184 -74.05165
#
# Velocity S-wave (km/s) = 3.66667 -9.41056 -6.12838
# Velocity P-wave (km/s) = 5.25813 10.31304 6.27339
#
# Compressibility (1/GPa) = 0.05216772
#
# Stress axis : x y z
#
# Youngs Moduli (GPa) = 46.68492 73.23484 35.14795
#
# Poissons Ratio (x) = 0.29934 -0.05405
# Poissons Ratio (y) = 0.19082 0.10999
# Poissons Ratio (z) = -0.07179 0.22919
#
# Static dielectric constant tensor:
#      x y z
#    x 1.715210 0.000000 0.000000 
#    y 0.000000 1.693240 0.000000 
#    z 0.000000 0.000000 1.688750 
# 
# From -- ./inp_files/27631.got.cif
#   From: 2010.05.17/outbox.cif.g08.bks.cpg/sg62_14_cif.got.tgz:27631.got - 2010.06.03 15:25:27.
