data_PCOD9463702
_publ_section_title
;
Structure prediction by ZEFSAII (Michael W. Deem and Ramdas Pophale) SiO2 
 PCOD9463702
Probable space group: P N M A
;
_chemical_formula_sum "Si O2"
_cell_formula_units_Z 44
_cell_length_a 15.299858
_cell_length_b 14.802841
_cell_length_c 8.887647
_cell_angle_alpha 90.000000
_cell_angle_beta 90.000000
_cell_angle_gamma 90.000000
_cell_volume 2012.886427
_symmetry_space_group_name_H-M "P N M A"
_symmetry_group_IT_number 62
_symmetry_cell_setting 'orthorhombic'
loop_
_space_group_symop_operation_xyz
x,y,z
1/2-x,-y,1/2+z
1/2+x,1/2-y,1/2-z
-x,1/2+y,-z
-x,-y,-z
1/2+x,y,1/2-z
1/2-x,1/2+y,1/2+z
x,1/2-y,z
loop_
_atom_site_type_symbol
_atom_site_label
_atom_site_fract_x
_atom_site_fract_y
_atom_site_fract_z
Si Si1 0.058998 0.411014 0.990658
Si Si2 0.789533 0.601056 0.432849
Si Si3 0.208145 0.750000 0.598085
Si Si4 0.932415 0.750000 0.444114
Si Si5 0.260803 0.074514 0.907277
Si Si6 0.089172 0.250000 0.207175
Si Si7 0.026587 0.750000 0.176994
Si Si8 0.173372 0.750000 0.923187
O O1 0.159035 0.436498 0.956482
O O2 0.055681 0.343467 0.133606
O O3 0.024684 0.341253 0.865763
O O4 0.000000 0.500000 0.000000
O O5 0.872870 0.663564 0.401798
O O6 0.810660 0.510584 0.523215
O O7 0.729498 0.660779 0.542972
O O8 0.741157 0.582131 0.273732
O O9 0.204588 0.836764 0.491000
O O10 0.306843 0.750000 0.670380
O O11 0.147665 0.750000 0.747487
O O12 0.936389 0.750000 0.621459
O O13 0.024071 0.750000 0.356939
O O14 0.105731 0.750000 0.061188
#
# Coordination Sequence:
#
# PCOD9463702 Si02
#       8
#     8   8   4   4   8   4   4   4
#     4  10  21  39  62  90 126 168 212 251 323 392
#     4  11  22  37  62  94 128 159 221 265 319 369
#     4  10  19  38  62  88 120 158 221 261 327 361
#     4  11  21  43  62  91 128 174 208 268 321 384
#     4  11  22  37  63  94 123 168 210 273 310 385
#     4   9  20  37  66  86 122 169 213 263 306 378
#     4  11  22  42  61  88 131 173 207 251 335 391
#     4  11  22  38  63  91 123 164 211 279 307 378
#
# _framework density 21.859155999999999
#
# number of rings (size 3 to 8) (size 9 to 14) (size 15 to 20)
#    0.000    1.455    3.636    3.818    2.545    0.000 
#    0.000    6.364    0.000    0.000    0.000    0.000 
#    0.000    0.000    0.000    0.000    0.000    0.000 
#
# Total GULP energy -245710.030174 kJ/mol
# GULP energy per Si atom -5584.318868 kJ/mol
# Density = 2.180940 g / cm^3
# Si number density = 21.859156 Si / 1000 Ang^3
#
#
#
# Elastic Constant Matrix: (Units=GPa)
#
#
# Indices 1 2 3 4 5 6 
#
# 1 36.0117 22.4585 -22.6575 0.0000 0.0000 0.0000
# 2 22.4585 169.5140 44.7024 0.0000 0.0000 0.0000
# 3 -22.6575 44.7024 135.8402 0.0000 0.0000 0.0000
# 4 0.0000 0.0000 0.0000 14.1499 0.0000 0.0000
# 5 0.0000 0.0000 0.0000 0.0000 25.6752 0.0000
# 6 0.0000 0.0000 0.0000 0.0000 0.0000 160.9066
#
#
#
# Elastic Compliance Matrix: (Units=1/GPa)
#
#
# Indices 1 2 3 4 5 6 
#
# 1 0.037805 -0.007305 0.008710 0.000000 0.000000 0.000000
# 2 -0.007305 0.007872 -0.003809 0.000000 0.000000 0.000000
# 3 0.008710 -0.003809 0.010068 0.000000 0.000000 0.000000
# 4 0.000000 0.000000 0.000000 0.070672 0.000000 0.000000
# 5 0.000000 0.000000 0.000000 0.000000 0.038948 0.000000
# 6 0.000000 0.000000 0.000000 0.000000 0.000000 0.006215
#
#
# Mechanical properties :
#
#
# Convention : Reuss Voigt Hill
#
# Bulk Modulus (GPa) = 19.63299 47.81922 33.72610
# Shear Modulus (GPa) = 25.85768 59.93718 42.89743
#
# Velocity S-wave (km/s) = 3.44309 5.24206 4.43476
# Velocity P-wave (km/s) = 4.98072 7.65262 6.45640
#
# Compressibility (1/GPa) = 0.05093467
#
# Stress axis : x y z
#
# Youngs Moduli (GPa) = 26.45175 127.03980 99.32687
#
# Poissons Ratio (x) = 0.92809 -0.86511
# Poissons Ratio (y) = 0.19324 0.37833
# Poissons Ratio (z) = -0.23039 0.48388
#
# Static dielectric constant tensor:
#      x y z
#    x 1.869570 0.000000 0.000000 
#    y 0.000000 1.772860 0.000000 
#    z 0.000000 0.000000 1.816920 
# 
# From -- ./inp_files/7591.got.cif
#   From: 2010.05.17/outbox.cif.g08.bks.cpg/sg62_4_cif.got.tgz:7591.got - 2010.06.03 15:25:27.
