data_PCOD9463800
_publ_section_title
;
Structure prediction by ZEFSAII (Michael W. Deem and Ramdas Pophale) SiO2 
 PCOD9463800
Probable space group: P N M A
;
_chemical_formula_sum "Si O2"
_cell_formula_units_Z 64
_cell_length_a 14.709086
_cell_length_b 8.952234
_cell_length_c 30.817323
_cell_angle_alpha 90.000000
_cell_angle_beta 90.000000
_cell_angle_gamma 90.000000
_cell_volume 4057.999816
_symmetry_space_group_name_H-M "P N M A"
_symmetry_group_IT_number 62
_symmetry_cell_setting 'orthorhombic'
loop_
_space_group_symop_operation_xyz
x,y,z
1/2-x,-y,1/2+z
1/2+x,1/2-y,1/2-z
-x,1/2+y,-z
-x,-y,-z
1/2+x,y,1/2-z
1/2-x,1/2+y,1/2+z
x,1/2-y,z
loop_
_atom_site_type_symbol
_atom_site_label
_atom_site_fract_x
_atom_site_fract_y
_atom_site_fract_z
Si Si1 0.311737 0.929340 0.296626
Si Si2 0.502537 0.075971 0.277107
Si Si3 0.398401 0.428305 0.949801
Si Si4 0.802517 0.430444 0.790043
Si Si5 0.097387 0.572399 0.550054
Si Si6 0.810442 0.925377 0.630252
Si Si7 0.173324 0.073991 0.631017
Si Si8 0.492126 0.080925 0.173392
O O1 0.312861 0.750000 0.297607
O O2 0.255684 0.975172 0.252873
O O3 0.413597 0.992286 0.294404
O O4 0.261126 0.993490 0.338745
O O5 0.501018 0.250000 0.289865
O O6 0.496355 0.068568 0.224914
O O7 0.598003 0.001544 0.289498
O O8 0.402561 0.250000 0.943695
O O9 0.498884 0.496888 0.941980
O O10 0.327748 0.500120 0.916370
O O11 0.376446 0.460189 0.000232
O O12 0.809410 0.250000 0.788940
O O13 0.748723 0.473058 0.833825
O O14 0.086609 0.750000 0.554393
O O15 0.167652 0.511189 0.585423
O O16 0.789001 0.750000 0.626102
O O17 0.907829 0.938524 0.654291
O O18 0.182042 0.250000 0.623374
O O19 0.077680 0.036846 0.654144
O O20 0.460949 0.250000 0.162042
#
# Coordination Sequence:
#
# PCOD9463800 Si02
#       8
#     8   8   8   8   8   8   8   8
#     4  11  22  36  53  74 104 139 175 214 256 305
#     4  11  22  36  53  73 101 137 176 219 259 298
#     4  10  20  33  50  73 102 137 173 210 257 309
#     4  10  22  36  51  74 102 136 175 213 254 304
#     4  10  20  33  49  73 104 136 171 212 258 308
#     4  11  21  34  51  76 105 137 177 214 256 305
#     4  11  21  33  51  75 102 137 178 213 254 308
#     4  10  20  31  47  72 104 137 171 213 255 298
#
# _framework density 15.771316000000001
#
# number of rings (size 3 to 8) (size 9 to 14) (size 15 to 20)
#    0.000    1.500    3.750    2.250    0.000    4.000 
#    0.000    0.000    0.000    0.000    0.000    0.875 
#    0.000    0.000    0.000    0.000    0.000    0.000 
#
# Total GULP energy -357290.789784 kJ/mol
# GULP energy per Si atom -5582.668590 kJ/mol
# Density = 1.573542 g / cm^3
# Si number density = 15.771316 Si / 1000 Ang^3
#
#
#
# Elastic Constant Matrix: (Units=GPa)
#
#
# Indices 1 2 3 4 5 6 
#
# 1 96.4494 48.3620 58.3017 0.0000 0.0000 0.0000
# 2 48.3620 65.2847 50.2992 0.0000 0.0000 0.0000
# 3 58.3017 50.2992 120.0929 0.0000 0.0000 0.0000
# 4 0.0000 0.0000 0.0000 26.1562 0.0000 0.0000
# 5 0.0000 0.0000 0.0000 0.0000 24.5826 0.0000
# 6 0.0000 0.0000 0.0000 0.0000 0.0000 22.5627
#
#
#
# Elastic Compliance Matrix: (Units=1/GPa)
#
#
# Indices 1 2 3 4 5 6 
#
# 1 0.018122 -0.009813 -0.004688 0.000000 0.000000 0.000000
# 2 -0.009813 0.027929 -0.006934 0.000000 0.000000 0.000000
# 3 -0.004688 -0.006934 0.013507 0.000000 0.000000 0.000000
# 4 0.000000 0.000000 0.000000 0.038232 0.000000 0.000000
# 5 0.000000 0.000000 0.000000 0.000000 0.040679 0.000000
# 6 0.000000 0.000000 0.000000 0.000000 0.000000 0.044321
#
#
# Mechanical properties :
#
#
# Convention : Reuss Voigt Hill
#
# Bulk Modulus (GPa) = 59.91971 66.19477 63.05724
# Shear Modulus (GPa) = 21.62424 22.98459 22.30442
#
# Velocity S-wave (km/s) = 3.70687 3.82169 3.76472
# Velocity P-wave (km/s) = 7.50976 7.84452 7.67896
#
# Compressibility (1/GPa) = 0.01668900
#
# Stress axis : x y z
#
# Youngs Moduli (GPa) = 55.18069 35.80509 74.03674
#
# Poissons Ratio (x) = 0.35135 0.34707
# Poissons Ratio (y) = 0.54148 0.51335
# Poissons Ratio (z) = 0.25868 0.24826
#
# Static dielectric constant tensor:
#      x y z
#    x 1.492200 0.000000 0.000000 
#    y 0.000000 1.998640 0.000000 
#    z 0.000000 0.000000 1.539570 
# 
# From -- ./inp_files/32519.got.cif
#   From: 2010.05.17/outbox.cif.g08.bks.cpg/sg62_17_cif.got.tgz:32519.got - 2010.06.03 15:25:27.
