data_PCOD9463221
_publ_section_title
;
Structure prediction by ZEFSAII (Michael W. Deem and Ramdas Pophale) SiO2 
 PCOD9463221
Probable space group: P N M A
;
_chemical_formula_sum "Si O2"
_cell_formula_units_Z 64
_cell_length_a 13.037277
_cell_length_b 22.269541
_cell_length_c 11.458460
_cell_angle_alpha 90.000000
_cell_angle_beta 90.000000
_cell_angle_gamma 90.000000
_cell_volume 3326.782527
_symmetry_space_group_name_H-M "P N M A"
_symmetry_group_IT_number 62
_symmetry_cell_setting 'orthorhombic'
loop_
_space_group_symop_operation_xyz
x,y,z
1/2-x,-y,1/2+z
1/2+x,1/2-y,1/2-z
-x,1/2+y,-z
-x,-y,-z
1/2+x,y,1/2-z
1/2-x,1/2+y,1/2+z
x,1/2-y,z
loop_
_atom_site_type_symbol
_atom_site_label
_atom_site_fract_x
_atom_site_fract_y
_atom_site_fract_z
Si Si1 0.224702 0.609041 0.964044
Si Si2 0.966338 0.990030 0.369320
Si Si3 0.769321 0.819859 0.293764
Si Si4 0.022933 0.680479 0.876017
Si Si5 0.723378 0.504263 0.370953
Si Si6 0.035195 0.317664 0.871516
Si Si7 0.896847 0.398298 0.736940
Si Si8 0.392057 0.909626 0.760064
O O1 0.314396 0.602911 0.867376
O O2 0.127096 0.643794 0.908650
O O3 0.263095 0.643717 0.083013
O O4 0.199162 0.541282 0.010387
O O5 0.023519 0.040258 0.293586
O O6 0.845230 0.995961 0.357478
O O7 0.000000 0.000000 0.500000
O O8 0.013302 0.924830 0.340452
O O9 0.755721 0.750000 0.320917
O O10 0.871896 0.826505 0.217636
O O11 0.679988 0.844699 0.207725
O O12 0.048678 0.750000 0.851072
O O13 0.956924 0.648139 0.777129
O O14 0.949549 0.680157 0.990660
O O15 0.675911 0.546512 0.270067
O O16 0.672933 0.439773 0.346464
O O17 0.993918 0.250000 0.848111
O O18 0.954893 0.370086 0.846956
#
# Coordination Sequence:
#
# PCOD9463221 Si02
#       8
#     8   8   8   8   8   8   8   8
#     4  11  21  42  66  89 126 167 213 252 318 383
#     4  11  22  39  60  88 129 157 199 257 312 368
#     4  10  20  35  62  94 122 162 211 260 313 370
#     4  11  24  43  65  91 125 167 213 263 310 370
#     4  10  21  39  59  91 119 161 203 250 307 374
#     4  10  20  36  59  89 121 155 208 262 304 361
#     4  10  19  34  58  85 116 159 199 244 305 367
#     4  11  25  41  64  94 124 166 210 259 314 379
#
# _framework density 19.237805999999999
#
# number of rings (size 3 to 8) (size 9 to 14) (size 15 to 20)
#    0.000    1.500    3.750    3.000    0.000    2.500 
#    4.500    0.000    0.000    0.000    0.000    0.000 
#    0.000    0.000    0.000    0.000    0.000    0.000 
#
# Total GULP energy -356374.255035 kJ/mol
# GULP energy per Si atom -5568.347735 kJ/mol
# Density = 1.919402 g / cm^3
# Si number density = 19.237806 Si / 1000 Ang^3
#
#
#
# Elastic Constant Matrix: (Units=GPa)
#
#
# Indices 1 2 3 4 5 6 
#
# 1 103.4390 44.3778 25.4145 0.0000 0.0000 0.0000
# 2 44.3778 88.0459 28.7242 0.0000 0.0000 0.0000
# 3 25.4145 28.7242 41.3914 0.0000 0.0000 0.0000
# 4 0.0000 0.0000 0.0000 31.4156 0.0000 0.0000
# 5 0.0000 0.0000 0.0000 0.0000 21.1407 0.0000
# 6 0.0000 0.0000 0.0000 0.0000 0.0000 25.8390
#
#
#
# Elastic Compliance Matrix: (Units=1/GPa)
#
#
# Indices 1 2 3 4 5 6 
#
# 1 0.012931 -0.005077 -0.004416 0.000000 0.000000 0.000000
# 2 -0.005077 0.016675 -0.008455 0.000000 0.000000 0.000000
# 3 -0.004416 -0.008455 0.032739 0.000000 0.000000 0.000000
# 4 0.000000 0.000000 0.000000 0.031831 0.000000 0.000000
# 5 0.000000 0.000000 0.000000 0.000000 0.047302 0.000000
# 6 0.000000 0.000000 0.000000 0.000000 0.000000 0.038701
#
#
# Mechanical properties :
#
#
# Convention : Reuss Voigt Hill
#
# Bulk Modulus (GPa) = 37.80932 47.76772 42.78852
# Shear Modulus (GPa) = 22.23306 24.63637 23.43472
#
# Velocity S-wave (km/s) = 3.40324 3.58246 3.49400
# Velocity P-wave (km/s) = 5.92782 6.48044 6.21028
#
# Compressibility (1/GPa) = 0.02644850
#
# Stress axis : x y z
#
# Youngs Moduli (GPa) = 77.33583 59.97100 30.54499
#
# Poissons Ratio (x) = 0.30445 0.13490
# Poissons Ratio (y) = 0.39260 0.25825
# Poissons Ratio (z) = 0.34155 0.50703
#
# Static dielectric constant tensor:
#      x y z
#    x 1.722450 0.000000 0.000000 
#    y 0.000000 1.761480 0.000000 
#    z 0.000000 0.000000 1.546650 
# 
# From -- ./inp_files/12562.got.cif
#   From: 2010.05.17/outbox.cif.g08.bks.cpg/sg62_7_cif.got.tgz:12562.got - 2010.06.03 15:25:27.
