data_PCOD9463359
_publ_section_title
;
Structure prediction by ZEFSAII (Michael W. Deem and Ramdas Pophale) SiO2 
 PCOD9463359
Probable space group: P N M A
;
_chemical_formula_sum "Si O2"
_cell_formula_units_Z 48
_cell_length_a 12.806867
_cell_length_b 21.850081
_cell_length_c 7.934730
_cell_angle_alpha 90.000000
_cell_angle_beta 90.000000
_cell_angle_gamma 90.000000
_cell_volume 2220.384076
_symmetry_space_group_name_H-M "P N M A"
_symmetry_group_IT_number 62
_symmetry_cell_setting 'orthorhombic'
loop_
_space_group_symop_operation_xyz
x,y,z
1/2-x,-y,1/2+z
1/2+x,1/2-y,1/2-z
-x,1/2+y,-z
-x,-y,-z
1/2+x,y,1/2-z
1/2-x,1/2+y,1/2+z
x,1/2-y,z
loop_
_atom_site_type_symbol
_atom_site_label
_atom_site_fract_x
_atom_site_fract_y
_atom_site_fract_z
Si Si1 0.408512 0.136407 0.842242
Si Si2 0.710180 0.180883 0.482073
Si Si3 0.118710 0.180956 0.649331
Si Si4 0.876382 0.009743 0.525905
Si Si5 0.263399 0.418570 0.267220
Si Si6 0.653970 0.680798 0.514555
O O1 0.331074 0.175010 0.959863
O O2 0.526395 0.137483 0.906855
O O3 0.366775 0.067453 0.845753
O O4 0.406976 0.164891 0.656103
O O5 0.688268 0.250000 0.422720
O O6 0.649824 0.169307 0.656540
O O7 0.694613 0.128168 0.346049
O O8 0.076895 0.250000 0.638929
O O9 0.224570 0.179420 0.543821
O O10 0.822174 0.033845 0.354740
O O11 0.309357 0.954453 0.897869
O O12 0.000000 0.000000 0.500000
O O13 0.349515 0.374035 0.353065
O O14 0.628947 0.750000 0.572245
#
# Coordination Sequence:
#
# PCOD9463359 Si02
#       6
#     8   8   8   8   8   8
#     4  10  19  35  58  83 116 151 188 233 282 346
#     4   9  19  35  58  87 115 147 185 233 294 347
#     4   9  17  32  56  85 116 147 183 231 289 352
#     4  11  25  42  61  85 117 160 205 243 287 343
#     4  11  23  41  59  82 116 154 197 248 291 345
#     4  10  20  35  59  88 115 147 187 236 298 353
#
# _framework density 21.617882999999999
#
# number of rings (size 3 to 8) (size 9 to 14) (size 15 to 20)
#    0.000    2.000    0.000    5.000    0.000    4.000 
#    0.000    2.500    0.000    6.000    0.000    0.000 
#    0.000    0.000    0.000    0.000    0.000    0.000 
#
# Total GULP energy -268029.504374 kJ/mol
# GULP energy per Si atom -5583.948008 kJ/mol
# Density = 2.156868 g / cm^3
# Si number density = 21.617883 Si / 1000 Ang^3
#
#
#
# Elastic Constant Matrix: (Units=GPa)
#
#
# Indices 1 2 3 4 5 6 
#
# 1 80.6236 24.9767 12.9141 0.0000 0.0000 0.0000
# 2 24.9767 120.1684 47.5391 0.0000 0.0000 0.0000
# 3 12.9141 47.5391 75.7059 0.0000 0.0000 0.0000
# 4 0.0000 0.0000 0.0000 48.2450 0.0000 0.0000
# 5 0.0000 0.0000 0.0000 0.0000 3.5338 0.0000
# 6 0.0000 0.0000 0.0000 0.0000 0.0000 21.6480
#
#
#
# Elastic Compliance Matrix: (Units=1/GPa)
#
#
# Indices 1 2 3 4 5 6 
#
# 1 0.013285 -0.002481 -0.000708 0.000000 0.000000 0.000000
# 2 -0.002481 0.011536 -0.006820 0.000000 0.000000 0.000000
# 3 -0.000708 -0.006820 0.017613 0.000000 0.000000 0.000000
# 4 0.000000 0.000000 0.000000 0.020728 0.000000 0.000000
# 5 0.000000 0.000000 0.000000 0.000000 0.282981 0.000000
# 6 0.000000 0.000000 0.000000 0.000000 0.000000 0.046194
#
#
# Mechanical properties :
#
#
# Convention : Reuss Voigt Hill
#
# Bulk Modulus (GPa) = 44.61502 49.70642 47.16072
# Shear Modulus (GPa) = 11.90968 27.42323 19.66645
#
# Velocity S-wave (km/s) = 2.34971 3.56553 3.01945
# Velocity P-wave (km/s) = 5.29569 6.32406 5.83258
#
# Compressibility (1/GPa) = 0.02241398
#
# Stress axis : x y z
#
# Youngs Moduli (GPa) = 75.27056 86.68844 56.77723
#
# Poissons Ratio (x) = 0.21509 0.04021
# Poissons Ratio (y) = 0.18676 0.38725
# Poissons Ratio (z) = 0.05331 0.59125
#
# Static dielectric constant tensor:
#      x y z
#    x 1.762600 0.000000 0.000000 
#    y 0.000000 1.839760 0.000000 
#    z 0.000000 0.000000 1.804560 
# 
# From -- ./inp_files/6821.got.cif
#   From: 2010.05.17/outbox.cif.g08.bks.cpg/sg62_4_cif.got.tgz:6821.got - 2010.06.03 15:25:27.
