data_PCOD9463899
_publ_section_title
;
Structure prediction by ZEFSAII (Michael W. Deem and Ramdas Pophale) SiO2 
 PCOD9463899
Probable space group: P N M A
;
_chemical_formula_sum "Si O2"
_cell_formula_units_Z 40
_cell_length_a 12.203447
_cell_length_b 13.900891
_cell_length_c 9.726906
_cell_angle_alpha 90.000000
_cell_angle_beta 90.000000
_cell_angle_gamma 90.000000
_cell_volume 1650.060531
_symmetry_space_group_name_H-M "P N M A"
_symmetry_group_IT_number 62
_symmetry_cell_setting 'orthorhombic'
loop_
_space_group_symop_operation_xyz
x,y,z
1/2-x,-y,1/2+z
1/2+x,1/2-y,1/2-z
-x,1/2+y,-z
-x,-y,-z
1/2+x,y,1/2-z
1/2-x,1/2+y,1/2+z
x,1/2-y,z
loop_
_atom_site_type_symbol
_atom_site_label
_atom_site_fract_x
_atom_site_fract_y
_atom_site_fract_z
Si Si1 0.420562 0.855938 0.618921
Si Si2 0.437687 0.366163 0.015420
Si Si3 0.873318 0.043512 0.198279
Si Si4 0.824718 0.859674 0.576067
Si Si5 0.232871 0.140270 0.851883
O O1 0.477265 0.750000 0.608968
O O2 0.508319 0.940473 0.630825
O O3 0.356698 0.855562 0.762237
O O4 0.337325 0.861522 0.493165
O O5 0.442981 0.250000 0.018584
O O6 0.384926 0.397622 0.160017
O O7 0.563525 0.400058 0.008847
O O8 0.356446 0.390281 0.890751
O O9 0.786908 0.081576 0.084132
O O10 0.828703 0.938480 0.237138
O O11 0.806039 0.750000 0.528842
O O12 0.232626 0.250000 0.801110
#
# Coordination Sequence:
#
# PCOD9463899 Si02
#       5
#     8   8   8   8   8
#     4   9  17  30  49  75 101 120 153 203 246 279
#     4   9  18  33  51  74  99 122 156 203 245 279
#     4  11  18  28  52  75  95 124 166 195 234 287
#     4   9  16  28  50  75  97 121 155 202 241 275
#     4  10  20  33  48  70 102 131 157 195 242 285
#
# _framework density 24.241537000000001
#
# number of rings (size 3 to 8) (size 9 to 14) (size 15 to 20)
#    0.000    2.400    2.000    3.600    0.000    0.800 
#    0.000    0.000    0.000    8.400    0.000    0.000 
#    0.000    0.000    0.000    0.000    0.000    0.000 
#
# Total GULP energy -223539.872314 kJ/mol
# GULP energy per Si atom -5588.496808 kJ/mol
# Density = 2.418636 g / cm^3
# Si number density = 24.241537 Si / 1000 Ang^3
#
#
#
# Elastic Constant Matrix: (Units=GPa)
#
#
# Indices 1 2 3 4 5 6 
#
# 1 88.0460 23.2950 25.4300 0.0000 0.0000 0.0000
# 2 23.2950 63.4549 2.2399 0.0000 0.0000 0.0000
# 3 25.4300 2.2399 59.7704 0.0000 0.0000 0.0000
# 4 0.0000 0.0000 0.0000 12.3180 0.0000 0.0000
# 5 0.0000 0.0000 0.0000 0.0000 20.0195 0.0000
# 6 0.0000 0.0000 0.0000 0.0000 0.0000 37.3815
#
#
#
# Elastic Compliance Matrix: (Units=1/GPa)
#
#
# Indices 1 2 3 4 5 6 
#
# 1 0.014420 -0.005084 -0.005945 0.000000 0.000000 0.000000
# 2 -0.005084 0.017572 0.001504 0.000000 0.000000 0.000000
# 3 -0.005945 0.001504 0.019203 0.000000 0.000000 0.000000
# 4 0.000000 0.000000 0.000000 0.081182 0.000000 0.000000
# 5 0.000000 0.000000 0.000000 0.000000 0.049951 0.000000
# 6 0.000000 0.000000 0.000000 0.000000 0.000000 0.026751
#
#
# Mechanical properties :
#
#
# Convention : Reuss Voigt Hill
#
# Bulk Modulus (GPa) = 31.10626 34.80011 32.95318
# Shear Modulus (GPa) = 20.93418 24.63091 22.78254
#
# Velocity S-wave (km/s) = 2.94184 3.19103 3.06896
# Velocity P-wave (km/s) = 4.93952 5.28807 5.11676
#
# Compressibility (1/GPa) = 0.03214787
#
# Stress axis : x y z
#
# Youngs Moduli (GPa) = 69.34968 56.90737 52.07390
#
# Poissons Ratio (x) = 0.28930 0.30955
# Poissons Ratio (y) = 0.35256 -0.07834
# Poissons Ratio (z) = 0.41225 -0.08561
#
# Static dielectric constant tensor:
#      x y z
#    x 1.921540 0.000000 0.000000 
#    y 0.000000 2.032840 0.000000 
#    z 0.000000 0.000000 1.891620 
# 
# From -- ./inp_files/12035.got.cif
#   From: 2010.05.17/outbox.cif.g08.bks.cpg/sg62_7_cif.got.tgz:12035.got - 2010.06.03 15:25:27.
