data_PCOD9463545
_publ_section_title
;
Structure prediction by ZEFSAII (Michael W. Deem and Ramdas Pophale) SiO2 
 PCOD9463545
Probable space group: P N M A
;
_chemical_formula_sum "Si O2"
_cell_formula_units_Z 48
_cell_length_a 10.425890
_cell_length_b 8.579744
_cell_length_c 30.136196
_cell_angle_alpha 90.000000
_cell_angle_beta 90.000000
_cell_angle_gamma 90.000000
_cell_volume 2695.726947
_symmetry_space_group_name_H-M "P N M A"
_symmetry_group_IT_number 62
_symmetry_cell_setting 'orthorhombic'
loop_
_space_group_symop_operation_xyz
x,y,z
1/2-x,-y,1/2+z
1/2+x,1/2-y,1/2-z
-x,1/2+y,-z
-x,-y,-z
1/2+x,y,1/2-z
1/2-x,1/2+y,1/2+z
x,1/2-y,z
loop_
_atom_site_type_symbol
_atom_site_label
_atom_site_fract_x
_atom_site_fract_y
_atom_site_fract_z
Si Si1 0.772358 0.938676 0.383851
Si Si2 0.124424 0.438189 0.524326
Si Si3 0.380455 0.436866 0.471865
Si Si4 0.016977 0.564057 0.784130
Si Si5 0.974725 0.563166 0.118163
Si Si6 0.770314 0.561985 0.283293
O O1 0.779032 0.750000 0.383581
O O2 0.857605 0.994323 0.424881
O O3 0.623301 0.978048 0.392568
O O4 0.803234 0.989660 0.333865
O O5 0.120146 0.250000 0.525195
O O6 0.250450 0.484149 0.496672
O O7 0.000000 0.500000 0.500000
O O8 0.500000 0.500000 0.500000
O O9 0.386631 0.250000 0.471091
O O10 0.389867 0.501282 0.422067
O O11 0.010282 0.750000 0.782539
O O12 0.875003 0.495362 0.774203
O O13 0.052916 0.508712 0.833835
O O14 0.124494 0.502784 0.750377
O O15 0.966236 0.750000 0.121053
O O16 0.770217 0.750000 0.281802
#
# Coordination Sequence:
#
# PCOD9463545 Si02
#       6
#     8   8   8   8   8   8
#     4   8  16  34  58  80 108 145 189 232 273 333
#     4  10  21  38  55  80 115 151 187 231 280 334
#     4  11  21  35  58  85 115 147 188 237 284 336
#     4  11  22  38  59  88 121 150 188 244 298 343
#     4  10  19  36  60  85 112 148 193 237 285 345
#     4  10  20  38  63  86 112 154 198 236 286 351
#
# _framework density 17.805956999999999
#
# number of rings (size 3 to 8) (size 9 to 14) (size 15 to 20)
#    0.000    2.000    1.667    4.000    0.000    1.333 
#    3.000    1.667    0.000    0.000    0.000    0.000 
#    0.000    0.000    0.000    0.000    0.000    0.000 
#
# Total GULP energy -267899.200523 kJ/mol
# GULP energy per Si atom -5581.233344 kJ/mol
# Density = 1.776543 g / cm^3
# Si number density = 17.805957 Si / 1000 Ang^3
#
#
#
# Elastic Constant Matrix: (Units=GPa)
#
#
# Indices 1 2 3 4 5 6 
#
# 1 120.9498 41.7003 97.8713 0.0000 0.0000 0.0000
# 2 41.7003 69.4572 47.0324 0.0000 0.0000 0.0000
# 3 97.8713 47.0324 165.1315 0.0000 0.0000 0.0000
# 4 0.0000 0.0000 0.0000 29.8860 0.0000 0.0000
# 5 0.0000 0.0000 0.0000 0.0000 36.8992 0.0000
# 6 0.0000 0.0000 0.0000 0.0000 0.0000 29.4747
#
#
#
# Elastic Compliance Matrix: (Units=1/GPa)
#
#
# Indices 1 2 3 4 5 6 
#
# 1 0.016797 -0.004142 -0.008776 0.000000 0.000000 0.000000
# 2 -0.004142 0.018859 -0.002916 0.000000 0.000000 0.000000
# 3 -0.008776 -0.002916 0.012088 0.000000 0.000000 0.000000
# 4 0.000000 0.000000 0.000000 0.033461 0.000000 0.000000
# 5 0.000000 0.000000 0.000000 0.000000 0.027101 0.000000
# 6 0.000000 0.000000 0.000000 0.000000 0.000000 0.033927
#
#
# Mechanical properties :
#
#
# Convention : Reuss Voigt Hill
#
# Bulk Modulus (GPa) = 62.20708 80.97184 71.58946
# Shear Modulus (GPa) = 27.89247 30.51426 29.20337
#
# Velocity S-wave (km/s) = 3.96216 4.14419 4.05420
# Velocity P-wave (km/s) = 7.47954 8.27480 7.88720
#
# Compressibility (1/GPa) = 0.01607534
#
# Stress axis : x y z
#
# Youngs Moduli (GPa) = 59.53347 53.02502 82.72884
#
# Poissons Ratio (x) = 0.21964 0.72601
# Poissons Ratio (y) = 0.24660 0.24127
# Poissons Ratio (z) = 0.52245 0.15464
#
# Static dielectric constant tensor:
#      x y z
#    x 1.576680 0.000000 0.000000 
#    y 0.000000 1.605790 0.000000 
#    z 0.000000 0.000000 1.616760 
# 
# From -- ./inp_files/31944.got.cif
#   From: 2010.05.17/outbox.cif.g08.bks.cpg/sg62_16_cif.got.tgz:31944.got - 2010.06.03 15:25:27.
