data_PCOD9463594
_publ_section_title
;
Structure prediction by ZEFSAII (Michael W. Deem and Ramdas Pophale) SiO2 
 PCOD9463594
Probable space group: P N M A
;
_chemical_formula_sum "Si O2"
_cell_formula_units_Z 56
_cell_length_a 12.003445
_cell_length_b 14.470940
_cell_length_c 16.616071
_cell_angle_alpha 90.000000
_cell_angle_beta 90.000000
_cell_angle_gamma 90.000000
_cell_volume 2886.230349
_symmetry_space_group_name_H-M "P N M A"
_symmetry_group_IT_number 62
_symmetry_cell_setting 'orthorhombic'
loop_
_space_group_symop_operation_xyz
x,y,z
1/2-x,-y,1/2+z
1/2+x,1/2-y,1/2-z
-x,1/2+y,-z
-x,-y,-z
1/2+x,y,1/2-z
1/2-x,1/2+y,1/2+z
x,1/2-y,z
loop_
_atom_site_type_symbol
_atom_site_label
_atom_site_fract_x
_atom_site_fract_y
_atom_site_fract_z
Si Si1 0.903294 0.967030 0.819747
Si Si2 0.243618 0.643281 0.317830
Si Si3 0.487791 0.856585 0.380944
Si Si4 0.812960 0.859040 0.526830
Si Si5 0.313971 0.556368 0.147126
Si Si6 0.436417 0.140044 0.438633
Si Si7 0.066821 0.487768 0.355729
O O1 0.986358 0.909913 0.874830
O O2 0.951830 0.071990 0.822188
O O3 0.779033 0.975494 0.854334
O O4 0.905074 0.935118 0.727807
O O5 0.207765 0.750000 0.315290
O O6 0.355474 0.636152 0.371220
O O7 0.284744 0.610746 0.229263
O O8 0.148590 0.576502 0.352333
O O9 0.520004 0.750000 0.365276
O O10 0.524159 0.882364 0.470938
O O11 0.833648 0.750000 0.537299
O O12 0.801513 0.881547 0.432334
O O13 0.693891 0.883615 0.567281
O O14 0.904196 0.923325 0.568917
O O15 0.438762 0.517982 0.147367
O O16 0.446702 0.250000 0.429528
#
# Coordination Sequence:
#
# PCOD9463594 Si02
#       7
#     8   8   8   8   8   8   8
#     4  11  22  38  66  87 120 159 199 253 303 355
#     4  10  22  38  63  95 126 159 197 251 310 367
#     4  10  19  36  62  94 119 146 196 251 306 359
#     4  11  24  42  64  88 122 165 209 251 301 363
#     4  11  23  40  61  90 126 163 201 248 307 371
#     4  10  22  39  64  92 117 155 207 258 300 350
#     4  11  25  41  60  90 128 162 207 245 306 370
#
# _framework density 19.402470999999998
#
# number of rings (size 3 to 8) (size 9 to 14) (size 15 to 20)
#    0.000    1.429    2.857    2.143    4.000    4.000 
#    0.000    0.714    0.000    0.000    0.000    0.000 
#    0.000    0.000    0.000    0.000    0.000    0.000 
#
# Total GULP energy -312924.825159 kJ/mol
# GULP energy per Si atom -5587.943306 kJ/mol
# Density = 1.935831 g / cm^3
# Si number density = 19.402471 Si / 1000 Ang^3
#
#
#
# Elastic Constant Matrix: (Units=GPa)
#
#
# Indices 1 2 3 4 5 6 
#
# 1 119.7944 34.9525 5.8414 0.0000 0.0000 0.0000
# 2 34.9525 48.0015 13.6817 0.0000 0.0000 0.0000
# 3 5.8414 13.6817 24.8693 0.0000 0.0000 0.0000
# 4 0.0000 0.0000 0.0000 10.1975 0.0000 0.0000
# 5 0.0000 0.0000 0.0000 0.0000 31.7115 0.0000
# 6 0.0000 0.0000 0.0000 0.0000 0.0000 9.8827
#
#
#
# Elastic Compliance Matrix: (Units=1/GPa)
#
#
# Indices 1 2 3 4 5 6 
#
# 1 0.010691 -0.008384 0.002101 0.000000 0.000000 0.000000
# 2 -0.008384 0.031281 -0.015240 0.000000 0.000000 0.000000
# 3 0.002101 -0.015240 0.048101 0.000000 0.000000 0.000000
# 4 0.000000 0.000000 0.000000 0.098063 0.000000 0.000000
# 5 0.000000 0.000000 0.000000 0.000000 0.031534 0.000000
# 6 0.000000 0.000000 0.000000 0.000000 0.000000 0.101187
#
#
# Mechanical properties :
#
#
# Convention : Reuss Voigt Hill
#
# Bulk Modulus (GPa) = 21.26388 33.51293 27.38841
# Shear Modulus (GPa) = 13.17249 19.57099 16.37174
#
# Velocity S-wave (km/s) = 2.60841 3.17943 2.90797
# Velocity P-wave (km/s) = 4.47827 5.54872 5.04199
#
# Compressibility (1/GPa) = 0.04702810
#
# Stress axis : x y z
#
# Youngs Moduli (GPa) = 93.53373 31.96810 20.78960
#
# Poissons Ratio (x) = 0.26801 -0.04368
# Poissons Ratio (y) = 0.78417 0.31683
# Poissons Ratio (z) = -0.19652 0.48719
#
# Static dielectric constant tensor:
#      x y z
#    x 1.684940 0.000000 0.000000 
#    y 0.000000 1.670150 0.000000 
#    z 0.000000 0.000000 1.687410 
# 
# From -- ./inp_files/18067.got.cif
#   From: 2010.05.17/outbox.cif.g08.bks.cpg/sg62_10_cif.got.tgz:18067.got - 2010.06.03 15:25:27.
