data_PCOD9463786
_publ_section_title
;
Structure prediction by ZEFSAII (Michael W. Deem and Ramdas Pophale) SiO2 
 PCOD9463786
Probable space group: P N M A
;
_chemical_formula_sum "Si O2"
_cell_formula_units_Z 28
_cell_length_a 12.015386
_cell_length_b 7.440848
_cell_length_c 13.611732
_cell_angle_alpha 90.000000
_cell_angle_beta 90.000000
_cell_angle_gamma 90.000000
_cell_volume 1216.952284
_symmetry_space_group_name_H-M "P N M A"
_symmetry_group_IT_number 62
_symmetry_cell_setting 'orthorhombic'
loop_
_space_group_symop_operation_xyz
x,y,z
1/2-x,-y,1/2+z
1/2+x,1/2-y,1/2-z
-x,1/2+y,-z
-x,-y,-z
1/2+x,y,1/2-z
1/2-x,1/2+y,1/2+z
x,1/2-y,z
loop_
_atom_site_type_symbol
_atom_site_label
_atom_site_fract_x
_atom_site_fract_y
_atom_site_fract_z
Si Si1 0.759619 0.750000 0.477325
Si Si2 0.775634 0.750000 0.699981
Si Si3 0.079891 0.538674 0.593576
Si Si4 0.448752 0.250000 0.397879
Si Si5 0.069332 0.540778 0.215628
O O1 0.815290 0.750000 0.586560
O O2 0.808562 0.576641 0.423716
O O3 0.629841 0.750000 0.507000
O O4 0.644479 0.750000 0.688365
O O5 0.824500 0.573917 0.749869
O O6 0.103559 0.750000 0.595486
O O7 0.016096 0.477043 0.692076
O O8 0.000000 0.500000 0.500000
O O9 0.519072 0.428722 0.376048
O O10 0.091187 0.750000 0.199904
#
# Coordination Sequence:
#
# PCOD9463786 Si02
#       5
#     4   4   8   4   8
#     4  10  20  30  48  70 110 134 159 203 252 311
#     4   9  19  34  47  73 111 135 163 211 251 307
#     4  12  17  27  48  77 103 129 162 205 258 309
#     4   9  21  36  43  75 115 139 164 210 253 316
#     4  11  19  31  53  75 104 141 172 206 257 311
#
# _framework density 23.008298
#
# number of rings (size 3 to 8) (size 9 to 14) (size 15 to 20)
#    0.857    0.571    8.571    0.000    0.000    2.286 
#    0.000    0.000    0.000    0.000    0.000    8.000 
#    0.000    0.000    0.000    0.000    0.000    0.000 
#
# Total GULP energy -156547.555898 kJ/mol
# GULP energy per Si atom -5590.984139 kJ/mol
# Density = 2.295593 g / cm^3
# Si number density = 23.008298 Si / 1000 Ang^3
#
#
#
# Elastic Constant Matrix: (Units=GPa)
#
#
# Indices 1 2 3 4 5 6 
#
# 1 38.8127 37.7316 20.6011 0.0000 0.0000 0.0000
# 2 37.7316 244.9528 41.7301 0.0000 0.0000 0.0000
# 3 20.6011 41.7301 111.9655 0.0000 0.0000 0.0000
# 4 0.0000 0.0000 0.0000 8.6224 0.0000 0.0000
# 5 0.0000 0.0000 0.0000 0.0000 47.8751 0.0000
# 6 0.0000 0.0000 0.0000 0.0000 0.0000 23.6266
#
#
#
# Elastic Compliance Matrix: (Units=1/GPa)
#
#
# Indices 1 2 3 4 5 6 
#
# 1 0.032170 -0.004215 -0.004348 0.000000 0.000000 0.000000
# 2 -0.004215 0.004911 -0.001055 0.000000 0.000000 0.000000
# 3 -0.004348 -0.001055 0.010125 0.000000 0.000000 0.000000
# 4 0.000000 0.000000 0.000000 0.115976 0.000000 0.000000
# 5 0.000000 0.000000 0.000000 0.000000 0.020888 0.000000
# 6 0.000000 0.000000 0.000000 0.000000 0.000000 0.042325
#
#
# Mechanical properties :
#
#
# Convention : Reuss Voigt Hill
#
# Bulk Modulus (GPa) = 35.75247 66.20628 50.97938
# Shear Modulus (GPa) = 19.61136 35.73603 27.67369
#
# Velocity S-wave (km/s) = 2.92269 3.94532 3.47186
# Velocity P-wave (km/s) = 5.19251 7.04212 6.18682
#
# Compressibility (1/GPa) = 0.02797009
#
# Stress axis : x y z
#
# Youngs Moduli (GPa) = 31.08491 203.61009 98.76923
#
# Poissons Ratio (x) = 0.85813 0.42948
# Poissons Ratio (y) = 0.13101 0.10420
# Poissons Ratio (z) = 0.13517 0.21481
#
# Static dielectric constant tensor:
#      x y z
#    x 1.878590 0.000000 0.000000 
#    y 0.000000 1.792680 0.000000 
#    z 0.000000 0.000000 1.874130 
# 
# From -- ./inp_files/18415.got.cif
#   From: 2010.05.17/outbox.cif.g08.bks.cpg/sg62_10_cif.got.tgz:18415.got - 2010.06.03 15:25:27.
