data_PCOD9463685
_publ_section_title
;
Structure prediction by ZEFSAII (Michael W. Deem and Ramdas Pophale) SiO2 
 PCOD9463685
Probable space group: P N M A
;
_chemical_formula_sum "Si O2"
_cell_formula_units_Z 56
_cell_length_a 14.119028
_cell_length_b 22.481816
_cell_length_c 8.609789
_cell_angle_alpha 90.000000
_cell_angle_beta 90.000000
_cell_angle_gamma 90.000000
_cell_volume 2732.931188
_symmetry_space_group_name_H-M "P N M A"
_symmetry_group_IT_number 62
_symmetry_cell_setting 'orthorhombic'
loop_
_space_group_symop_operation_xyz
x,y,z
1/2-x,-y,1/2+z
1/2+x,1/2-y,1/2-z
-x,1/2+y,-z
-x,-y,-z
1/2+x,y,1/2-z
1/2-x,1/2+y,1/2+z
x,1/2-y,z
loop_
_atom_site_type_symbol
_atom_site_label
_atom_site_fract_x
_atom_site_fract_y
_atom_site_fract_z
Si Si1 0.191138 0.614668 0.513453
Si Si2 0.520875 0.682445 0.857506
Si Si3 0.584484 0.507760 0.122475
Si Si4 0.011182 0.902715 0.117668
Si Si5 0.605232 0.182273 0.833396
Si Si6 0.892572 0.601982 0.829970
Si Si7 0.680531 0.820162 0.317960
O O1 0.109385 0.638392 0.627757
O O2 0.164907 0.548211 0.457071
O O3 0.292216 0.615789 0.593947
O O4 0.185219 0.656463 0.360314
O O5 0.551824 0.750000 0.830772
O O6 0.446051 0.660167 0.731736
O O7 0.465573 0.679364 0.021697
O O8 0.545541 0.546207 0.266665
O O9 0.617112 0.444730 0.189450
O O10 0.500000 0.500000 0.000000
O O11 0.931966 0.863958 0.207781
O O12 0.100783 0.858676 0.096553
O O13 0.963179 0.924136 0.960458
O O14 0.603167 0.250000 0.771338
O O15 0.713437 0.170527 0.882055
O O16 0.657943 0.750000 0.320806
#
# Coordination Sequence:
#
# PCOD9463685 Si02
#       7
#     8   8   8   8   8   8   8
#     4  11  23  43  68  97 129 177 225 274 336 401
#     4  11  24  44  68  96 138 180 216 271 340 405
#     4  11  23  47  70  89 130 179 220 276 337 399
#     4  11  22  39  65  97 131 168 225 280 332 393
#     4  10  19  37  65  93 130 179 223 265 329 402
#     4  12  26  44  65 104 132 171 226 283 338 392
#     4  10  20  37  65  98 132 176 224 272 329 402
#
# _framework density 20.490818999999998
#
# number of rings (size 3 to 8) (size 9 to 14) (size 15 to 20)
#    0.000    1.143    5.714    1.286    0.000    4.571 
#    7.714    1.429    0.000    0.000    0.000    0.000 
#    0.000    0.000    0.000    0.000    0.000    0.000 
#
# Total GULP energy -313073.618093 kJ/mol
# GULP energy per Si atom -5590.600323 kJ/mol
# Density = 2.044418 g / cm^3
# Si number density = 20.490819 Si / 1000 Ang^3
#
#
#
# Elastic Constant Matrix: (Units=GPa)
#
#
# Indices 1 2 3 4 5 6 
#
# 1 124.1428 24.1998 19.7370 0.0000 0.0000 0.0000
# 2 24.1998 60.1867 6.2746 0.0000 0.0000 0.0000
# 3 19.7370 6.2746 37.7219 0.0000 0.0000 0.0000
# 4 0.0000 0.0000 0.0000 22.3256 0.0000 0.0000
# 5 0.0000 0.0000 0.0000 0.0000 27.3587 0.0000
# 6 0.0000 0.0000 0.0000 0.0000 0.0000 15.1029
#
#
#
# Elastic Compliance Matrix: (Units=1/GPa)
#
#
# Indices 1 2 3 4 5 6 
#
# 1 0.009397 -0.003323 -0.004364 0.000000 0.000000 0.000000
# 2 -0.003323 0.018084 -0.001269 0.000000 0.000000 0.000000
# 3 -0.004364 -0.001269 0.029004 0.000000 0.000000 0.000000
# 4 0.000000 0.000000 0.000000 0.044792 0.000000 0.000000
# 5 0.000000 0.000000 0.000000 0.000000 0.036551 0.000000
# 6 0.000000 0.000000 0.000000 0.000000 0.000000 0.066212
#
#
# Mechanical properties :
#
#
# Convention : Reuss Voigt Hill
#
# Bulk Modulus (GPa) = 25.92560 35.83048 30.87804
# Shear Modulus (GPa) = 21.29381 24.41343 22.85362
#
# Velocity S-wave (km/s) = 3.22714 3.45546 3.34325
# Velocity P-wave (km/s) = 5.15419 5.78311 5.47768
#
# Compressibility (1/GPa) = 0.03857192
#
# Stress axis : x y z
#
# Youngs Moduli (GPa) = 106.41834 55.29897 34.47777
#
# Poissons Ratio (x) = 0.18378 0.15046
# Poissons Ratio (y) = 0.35367 0.04376
# Poissons Ratio (z) = 0.46440 0.07018
#
# Static dielectric constant tensor:
#      x y z
#    x 1.712730 0.000000 0.000000 
#    y 0.000000 1.727160 0.000000 
#    z 0.000000 0.000000 1.734890 
# 
# From -- ./inp_files/6804.got.cif
#   From: 2010.05.17/outbox.cif.g08.bks.cpg/sg62_4_cif.got.tgz:6804.got - 2010.06.03 15:25:27.
