data_PCOD9463715
_publ_section_title
;
Structure prediction by ZEFSAII (Michael W. Deem and Ramdas Pophale) SiO2 
 PCOD9463715
Probable space group: P N M A
;
_chemical_formula_sum "Si O2"
_cell_formula_units_Z 48
_cell_length_a 10.356320
_cell_length_b 8.477681
_cell_length_c 27.956195
_cell_angle_alpha 90.000000
_cell_angle_beta 90.000000
_cell_angle_gamma 90.000000
_cell_volume 2454.486191
_symmetry_space_group_name_H-M "P N M A"
_symmetry_group_IT_number 62
_symmetry_cell_setting 'orthorhombic'
loop_
_space_group_symop_operation_xyz
x,y,z
1/2-x,-y,1/2+z
1/2+x,1/2-y,1/2-z
-x,1/2+y,-z
-x,-y,-z
1/2+x,y,1/2-z
1/2-x,1/2+y,1/2+z
x,1/2-y,z
loop_
_atom_site_type_symbol
_atom_site_label
_atom_site_fract_x
_atom_site_fract_y
_atom_site_fract_z
Si Si1 0.890956 0.060851 0.964321
Si Si2 0.752576 0.441149 0.677675
Si Si3 0.107630 0.939017 0.536369
Si Si4 0.524763 0.561274 0.857462
Si Si5 0.026631 0.557805 0.141691
Si Si6 0.745717 0.440588 0.788318
O O1 0.889854 0.250000 0.964812
O O2 0.925265 0.006900 0.910397
O O3 0.749334 0.999283 0.977272
O O4 0.000000 0.000000 0.000000
O O5 0.757209 0.250000 0.676636
O O6 0.879737 0.504775 0.652150
O O7 0.618839 0.492602 0.653236
O O8 0.750542 0.491504 0.733276
O O9 0.107413 0.750000 0.535916
O O10 0.074726 0.993403 0.590474
O O11 0.000000 0.000000 0.500000
O O12 0.528871 0.750000 0.856738
O O13 0.619528 0.497186 0.816445
O O14 0.026771 0.750000 0.142161
O O15 0.128288 0.506331 0.182088
O O16 0.744211 0.250000 0.788407
#
# Coordination Sequence:
#
# PCOD9463715 Si02
#       6
#     8   8   8   8   8   8
#     4  11  23  41  64  91 124 161 202 251 305 366
#     4  10  21  37  62  92 121 159 206 249 290 352
#     4  11  25  44  65  91 122 162 206 254 311 372
#     4  11  24  40  59  90 128 161 197 247 310 366
#     4   9  19  36  59  89 119 154 198 246 298 347
#     4  10  19  38  65  89 118 159 207 251 294 353
#
# _framework density 19.556027
#
# number of rings (size 3 to 8) (size 9 to 14) (size 15 to 20)
#    0.000    1.667    1.667    2.500    2.333    5.333 
#    0.000    1.667    0.000    0.000    0.000    0.000 
#    0.000    0.000    0.000    0.000    0.000    0.000 
#
# Total GULP energy -268326.768855 kJ/mol
# GULP energy per Si atom -5590.141018 kJ/mol
# Density = 1.951152 g / cm^3
# Si number density = 19.556027 Si / 1000 Ang^3
#
#
#
# Elastic Constant Matrix: (Units=GPa)
#
#
# Indices 1 2 3 4 5 6 
#
# 1 187.9990 21.9712 55.7673 0.0000 0.0000 0.0000
# 2 21.9712 25.1022 20.7122 0.0000 0.0000 0.0000
# 3 55.7673 20.7122 85.6995 0.0000 0.0000 0.0000
# 4 0.0000 0.0000 0.0000 21.5560 0.0000 0.0000
# 5 0.0000 0.0000 0.0000 0.0000 43.4626 0.0000
# 6 0.0000 0.0000 0.0000 0.0000 0.0000 26.7443
#
#
#
# Elastic Compliance Matrix: (Units=1/GPa)
#
#
# Indices 1 2 3 4 5 6 
#
# 1 0.006751 -0.002853 -0.003704 0.000000 0.000000 0.000000
# 2 -0.002853 0.050966 -0.010461 0.000000 0.000000 0.000000
# 3 -0.003704 -0.010461 0.016607 0.000000 0.000000 0.000000
# 4 0.000000 0.000000 0.000000 0.046391 0.000000 0.000000
# 5 0.000000 0.000000 0.000000 0.000000 0.023008 0.000000
# 6 0.000000 0.000000 0.000000 0.000000 0.000000 0.037391
#
#
# Mechanical properties :
#
#
# Convention : Reuss Voigt Hill
#
# Bulk Modulus (GPa) = 24.82097 55.07800 39.94949
# Shear Modulus (GPa) = 21.87421 31.70926 26.79173
#
# Velocity S-wave (km/s) = 3.34809 4.03110 3.70536
# Velocity P-wave (km/s) = 5.25985 7.06341 6.22727
#
# Compressibility (1/GPa) = 0.04028851
#
# Stress axis : x y z
#
# Youngs Moduli (GPa) = 148.12021 19.62094 60.21546
#
# Poissons Ratio (x) = 0.05598 0.22302
# Poissons Ratio (y) = 0.42262 0.62991
# Poissons Ratio (z) = 0.54859 0.20525
#
# Static dielectric constant tensor:
#      x y z
#    x 1.644530 0.000000 0.000000 
#    y 0.000000 1.673340 0.000000 
#    z 0.000000 0.000000 1.671270 
# 
# From -- ./inp_files/31982.got.cif
#   From: 2010.05.17/outbox.cif.g08.bks.cpg/sg62_16_cif.got.tgz:31982.got - 2010.06.03 15:25:27.
