data_PCOD9463528
_publ_section_title
;
Structure prediction by ZEFSAII (Michael W. Deem and Ramdas Pophale) SiO2 
 PCOD9463528
Probable space group: P N M A
;
_chemical_formula_sum "Si O2"
_cell_formula_units_Z 48
_cell_length_a 18.339332
_cell_length_b 14.682163
_cell_length_c 8.421326
_cell_angle_alpha 90.000000
_cell_angle_beta 90.000000
_cell_angle_gamma 90.000000
_cell_volume 2267.535180
_symmetry_space_group_name_H-M "P N M A"
_symmetry_group_IT_number 62
_symmetry_cell_setting 'orthorhombic'
loop_
_space_group_symop_operation_xyz
x,y,z
1/2-x,-y,1/2+z
1/2+x,1/2-y,1/2-z
-x,1/2+y,-z
-x,-y,-z
1/2+x,y,1/2-z
1/2-x,1/2+y,1/2+z
x,1/2-y,z
loop_
_atom_site_type_symbol
_atom_site_label
_atom_site_fract_x
_atom_site_fract_y
_atom_site_fract_z
Si Si1 0.032682 0.904482 0.437279
Si Si2 0.587260 0.642386 0.410180
Si Si3 0.388042 0.650724 0.923694
Si Si4 0.676522 0.965911 0.932994
Si Si5 0.061897 0.355006 0.061524
Si Si6 0.326633 0.991991 0.433489
O O1 0.051409 0.894125 0.252604
O O2 0.965064 0.842755 0.484729
O O3 0.110840 0.897757 0.523143
O O4 0.000000 0.000000 0.500000
O O5 0.603380 0.750000 0.395323
O O6 0.524552 0.629972 0.544066
O O7 0.654789 0.579135 0.456788
O O8 0.350992 0.750000 0.934239
O O9 0.409195 0.632482 0.740197
O O10 0.344229 0.565009 0.992179
O O11 0.682284 0.976185 0.745600
O O12 0.754281 0.941825 0.006287
O O13 0.074774 0.250000 0.014752
O O14 0.105525 0.423912 0.951140
#
# Coordination Sequence:
#
# PCOD9463528 Si02
#       6
#     8   8   8   8   8   8
#     4  10  19  36  59  86 116 150 193 241 291 344
#     4  11  23  39  62  91 122 159 203 247 296 357
#     4  10  20  37  61  88 119 152 193 245 297 355
#     4  11  24  39  60  85 116 157 201 244 301 362
#     4  10  21  38  62  91 119 153 198 245 296 355
#     4  12  23  41  61  83 120 159 196 248 301 357
#
# _framework density 21.168358999999999
#
# number of rings (size 3 to 8) (size 9 to 14) (size 15 to 20)
#    0.000    1.333    0.000    8.000    0.000    2.667 
#    0.000    5.000    0.000    0.000    0.000    0.000 
#    0.000    0.000    0.000    0.000    0.000    0.000 
#
# Total GULP energy -268156.499764 kJ/mol
# GULP energy per Si atom -5586.593745 kJ/mol
# Density = 2.112018 g / cm^3
# Si number density = 21.168359 Si / 1000 Ang^3
#
#
#
# Elastic Constant Matrix: (Units=GPa)
#
#
# Indices 1 2 3 4 5 6 
#
# 1 58.9863 -10.6611 -10.4873 0.0000 0.0000 0.0000
# 2 -10.6611 60.6236 -14.7461 0.0000 0.0000 0.0000
# 3 -10.4873 -14.7461 74.8242 0.0000 0.0000 0.0000
# 4 0.0000 0.0000 0.0000 282.4862 0.0000 0.0000
# 5 0.0000 0.0000 0.0000 0.0000 34.2148 0.0000
# 6 0.0000 0.0000 0.0000 0.0000 0.0000 5.4800
#
#
#
# Elastic Compliance Matrix: (Units=1/GPa)
#
#
# Indices 1 2 3 4 5 6 
#
# 1 0.018278 0.004031 0.003356 0.000000 0.000000 0.000000
# 2 0.004031 0.018215 0.004155 0.000000 0.000000 0.000000
# 3 0.003356 0.004155 0.014654 0.000000 0.000000 0.000000
# 4 0.000000 0.000000 0.000000 0.003540 0.000000 0.000000
# 5 0.000000 0.000000 0.000000 0.000000 0.029227 0.000000
# 6 0.000000 0.000000 0.000000 0.000000 0.000000 0.182482
#
#
# Mechanical properties :
#
#
# Convention : Reuss Voigt Hill
#
# Bulk Modulus (GPa) = 13.47165 13.62725 13.54945
# Shear Modulus (GPa) = 18.65280 79.79144 49.22212
#
# Velocity S-wave (km/s) = 2.97166 6.14618 4.82734
# Velocity P-wave (km/s) = 4.26054 7.53783 6.12255
#
# Compressibility (1/GPa) = 0.07422994
#
# Stress axis : x y z
#
# Youngs Moduli (GPa) = 54.70965 54.90096 68.24145
#
# Poissons Ratio (x) = -0.22129 -0.22903
# Poissons Ratio (y) = -0.22052 -0.28352
# Poissons Ratio (z) = -0.18362 -0.22809
#
# Static dielectric constant tensor:
#      x y z
#    x 1.752510 0.000000 0.000000 
#    y 0.000000 1.796470 0.000000 
#    z 0.000000 0.000000 1.750970 
# 
# From -- ./inp_files/7792.got.cif
#   From: 2010.05.17/outbox.cif.g08.bks.cpg/sg62_4_cif.got.tgz:7792.got - 2010.06.03 15:25:27.
