data_PCOD9463647
_publ_section_title
;
Structure prediction by ZEFSAII (Michael W. Deem and Ramdas Pophale) SiO2 
 PCOD9463647
Probable space group: P N M A
;
_chemical_formula_sum "Si O2"
_cell_formula_units_Z 56
_cell_length_a 15.984047
_cell_length_b 12.972508
_cell_length_c 13.860667
_cell_angle_alpha 90.000000
_cell_angle_beta 90.000000
_cell_angle_gamma 90.000000
_cell_volume 2874.053346
_symmetry_space_group_name_H-M "P N M A"
_symmetry_group_IT_number 62
_symmetry_cell_setting 'orthorhombic'
loop_
_space_group_symop_operation_xyz
x,y,z
1/2-x,-y,1/2+z
1/2+x,1/2-y,1/2-z
-x,1/2+y,-z
-x,-y,-z
1/2+x,y,1/2-z
1/2-x,1/2+y,1/2+z
x,1/2-y,z
loop_
_atom_site_type_symbol
_atom_site_label
_atom_site_fract_x
_atom_site_fract_y
_atom_site_fract_z
Si Si1 0.737717 0.040384 0.111260
Si Si2 0.572732 0.363152 0.038781
Si Si3 0.993381 0.637228 0.917236
Si Si4 0.363780 0.372770 0.764382
Si Si5 0.970145 0.963124 0.348527
Si Si6 0.869396 0.455650 0.942604
Si Si7 0.128594 0.633353 0.748768
O O1 0.666968 0.113539 0.067637
O O2 0.790152 0.105400 0.189069
O O3 0.693265 0.941963 0.162813
O O4 0.799923 0.016130 0.022323
O O5 0.546063 0.250000 0.069230
O O6 0.520027 0.448760 0.093798
O O7 0.559361 0.379179 0.925427
O O8 0.958692 0.750000 0.934005
O O9 0.049027 0.636287 0.820933
O O10 0.918832 0.557284 0.910682
O O11 0.059102 0.609888 0.001804
O O12 0.357932 0.250000 0.782897
O O13 0.460685 0.411308 0.778694
O O14 0.339154 0.398365 0.653731
O O15 0.891905 0.029704 0.310714
O O16 0.136188 0.750000 0.706418
#
# Coordination Sequence:
#
# PCOD9463647 Si02
#       7
#     8   8   8   8   8   8   8
#     4  10  24  39  58  88 127 160 205 251 302 373
#     4  10  21  39  61  83 116 159 201 251 304 361
#     4   9  18  34  60  85 112 152 194 242 300 355
#     4  11  23  41  63  89 125 166 205 258 314 364
#     4  10  21  38  62  90 116 152 210 254 298 368
#     4  10  20  38  58  87 124 157 200 254 301 369
#     4  10  19  37  61  87 118 152 194 250 304 355
#
# _framework density 19.484676
#
# number of rings (size 3 to 8) (size 9 to 14) (size 15 to 20)
#    0.000    2.000    1.429    1.714    2.000    2.286 
#    0.000    2.143    0.000    0.000    0.000    0.000 
#    0.000    0.000    0.000    0.000    0.000    0.000 
#
# Total GULP energy -312177.691709 kJ/mol
# GULP energy per Si atom -5574.601638 kJ/mol
# Density = 1.944033 g / cm^3
# Si number density = 19.484676 Si / 1000 Ang^3
#
#
#
# Elastic Constant Matrix: (Units=GPa)
#
#
# Indices 1 2 3 4 5 6 
#
# 1 61.8209 5.5680 10.6294 0.0000 0.0000 0.0000
# 2 5.5680 108.7870 13.3589 0.0000 0.0000 0.0000
# 3 10.6294 13.3589 48.2076 0.0000 0.0000 0.0000
# 4 0.0000 0.0000 0.0000 6.5572 0.0000 0.0000
# 5 0.0000 0.0000 0.0000 0.0000 24.0274 0.0000
# 6 0.0000 0.0000 0.0000 0.0000 0.0000 10.2764
#
#
#
# Elastic Compliance Matrix: (Units=1/GPa)
#
#
# Indices 1 2 3 4 5 6 
#
# 1 0.016832 -0.000420 -0.003595 0.000000 0.000000 0.000000
# 2 -0.000420 0.009527 -0.002547 0.000000 0.000000 0.000000
# 3 -0.003595 -0.002547 0.022242 0.000000 0.000000 0.000000
# 4 0.000000 0.000000 0.000000 0.152505 0.000000 0.000000
# 5 0.000000 0.000000 0.000000 0.000000 0.041619 0.000000
# 6 0.000000 0.000000 0.000000 0.000000 0.000000 0.097310
#
#
# Mechanical properties :
#
#
# Convention : Reuss Voigt Hill
#
# Bulk Modulus (GPa) = 28.18807 30.88088 29.53447
# Shear Modulus (GPa) = 13.69923 20.78948 17.24436
#
# Velocity S-wave (km/s) = 2.65444 3.26999 2.97816
# Velocity P-wave (km/s) = 4.88804 5.49002 5.19775
#
# Compressibility (1/GPa) = 0.03547600
#
# Stress axis : x y z
#
# Youngs Moduli (GPa) = 59.41176 104.96943 44.95968
#
# Poissons Ratio (x) = 0.04409 0.16162
# Poissons Ratio (y) = 0.02496 0.11453
# Poissons Ratio (z) = 0.21358 0.26739
#
# Static dielectric constant tensor:
#      x y z
#    x 1.680850 0.000000 0.000000 
#    y 0.000000 1.735130 0.000000 
#    z 0.000000 0.000000 1.727700 
# 
# From -- ./inp_files/18997.got.cif
#   From: 2010.05.17/outbox.cif.g08.bks.cpg/sg62_10_cif.got.tgz:18997.got - 2010.06.03 15:25:27.
