data_PCOD9463351
_publ_section_title
;
Structure prediction by ZEFSAII (Michael W. Deem and Ramdas Pophale) SiO2 
 PCOD9463351
Probable space group: P N M A
;
_chemical_formula_sum "Si O2"
_cell_formula_units_Z 64
_cell_length_a 22.977596
_cell_length_b 7.519996
_cell_length_c 17.151924
_cell_angle_alpha 90.000000
_cell_angle_beta 90.000000
_cell_angle_gamma 90.000000
_cell_volume 2963.705475
_symmetry_space_group_name_H-M "P N M A"
_symmetry_group_IT_number 62
_symmetry_cell_setting 'orthorhombic'
loop_
_space_group_symop_operation_xyz
x,y,z
1/2-x,-y,1/2+z
1/2+x,1/2-y,1/2-z
-x,1/2+y,-z
-x,-y,-z
1/2+x,y,1/2-z
1/2-x,1/2+y,1/2+z
x,1/2-y,z
loop_
_atom_site_type_symbol
_atom_site_label
_atom_site_fract_x
_atom_site_fract_y
_atom_site_fract_z
Si Si1 0.267510 0.032477 0.412395
Si Si2 0.068250 0.037168 0.502466
Si Si3 0.858390 0.967785 0.646490
Si Si4 0.384547 0.537975 0.681029
Si Si5 0.615645 0.960384 0.670782
Si Si6 0.359488 0.535043 0.151661
Si Si7 0.501827 0.463675 0.408350
Si Si8 0.235021 0.963653 0.092138
O O1 0.267661 0.250000 0.412062
O O2 0.208054 0.978108 0.370077
O O3 0.325412 0.968867 0.368784
O O4 0.266534 0.974804 0.502497
O O5 0.075641 0.250000 0.502733
O O6 0.101364 0.972262 0.425166
O O7 0.099337 0.971421 0.581232
O O8 0.000000 0.000000 0.500000
O O9 0.859130 0.750000 0.647001
O O10 0.879994 0.030328 0.730651
O O11 0.392215 0.750000 0.687123
O O12 0.439312 0.467360 0.632163
O O13 0.323899 0.508536 0.636849
O O14 0.615688 0.750000 0.654079
O O15 0.556451 0.033108 0.633446
O O16 0.618665 0.982640 0.763355
O O17 0.359038 0.750000 0.149883
O O18 0.293524 0.472523 0.135023
O O19 0.500000 0.500000 0.500000
O O20 0.502264 0.250000 0.399352
O O21 0.238920 0.750000 0.089202
#
# Coordination Sequence:
#
# PCOD9463351 Si02
#       8
#     8   8   8   8   8   8   8   8
#     4   9  16  31  55  80 105 139 183 223 264 320
#     4  10  21  37  58  82 110 146 183 221 273 331
#     4   9  17  33  56  78 104 142 181 219 265 320
#     4  10  21  35  55  82 111 142 183 231 276 321
#     4  10  21  35  57  85 110 143 190 232 270 325
#     4  10  21  37  56  83 115 146 181 225 280 334
#     4  10  22  39  57  83 114 147 187 229 277 333
#     4  10  19  35  58  82 110 144 183 225 273 330
#
# _framework density 21.59459
#
# number of rings (size 3 to 8) (size 9 to 14) (size 15 to 20)
#    0.000    2.250    1.250    1.500    1.750    4.000 
#    0.000    1.250    0.000    1.500    0.000    0.000 
#    0.000    0.000    0.000    0.000    0.000    0.000 
#
# Total GULP energy -357697.727925 kJ/mol
# GULP energy per Si atom -5589.026999 kJ/mol
# Density = 2.154544 g / cm^3
# Si number density = 21.594590 Si / 1000 Ang^3
#
#
#
# Elastic Constant Matrix: (Units=GPa)
#
#
# Indices 1 2 3 4 5 6 
#
# 1 233.9328 0.5310 133.1865 0.0000 0.0000 0.0000
# 2 0.5310 52.9578 -6.2266 0.0000 0.0000 0.0000
# 3 133.1865 -6.2266 207.6066 0.0000 0.0000 0.0000
# 4 0.0000 0.0000 0.0000 19.5796 0.0000 0.0000
# 5 0.0000 0.0000 0.0000 0.0000 22.9724 0.0000
# 6 0.0000 0.0000 0.0000 0.0000 0.0000 16.9431
#
#
#
# Elastic Compliance Matrix: (Units=1/GPa)
#
#
# Indices 1 2 3 4 5 6 
#
# 1 0.006752 -0.000579 -0.004349 0.000000 0.000000 0.000000
# 2 -0.000579 0.018999 0.000941 0.000000 0.000000 0.000000
# 3 -0.004349 0.000941 0.007635 0.000000 0.000000 0.000000
# 4 0.000000 0.000000 0.000000 0.051074 0.000000 0.000000
# 5 0.000000 0.000000 0.000000 0.000000 0.043530 0.000000
# 6 0.000000 0.000000 0.000000 0.000000 0.000000 0.059021
#
#
# Mechanical properties :
#
#
# Convention : Reuss Voigt Hill
#
# Bulk Modulus (GPa) = 39.34983 83.27544 61.31264
# Shear Modulus (GPa) = 24.57525 36.36609 30.47067
#
# Velocity S-wave (km/s) = 3.37713 4.10815 3.76045
# Velocity P-wave (km/s) = 5.78518 7.81981 6.87814
#
# Compressibility (1/GPa) = 0.02541307
#
# Stress axis : x y z
#
# Youngs Moduli (GPa) = 148.10120 52.63308 130.97373
#
# Poissons Ratio (x) = 0.03048 0.56962
# Poissons Ratio (y) = 0.08576 -0.12329
# Poissons Ratio (z) = 0.64411 -0.04954
#
# Static dielectric constant tensor:
#      x y z
#    x 1.761640 0.000000 0.000000 
#    y 0.000000 1.835600 0.000000 
#    z 0.000000 0.000000 1.735630 
# 
# From -- ./inp_files/20870.got.cif
#   From: 2010.05.17/outbox.cif.g08.bks.cpg/sg62_11_cif.got.tgz:20870.got - 2010.06.03 15:25:27.
