data_PCOD9463297
_publ_section_title
;
Structure prediction by ZEFSAII (Michael W. Deem and Ramdas Pophale) SiO2 
 PCOD9463297
Probable space group: P N M A
;
_chemical_formula_sum "Si O2"
_cell_formula_units_Z 56
_cell_length_a 19.881181
_cell_length_b 8.581363
_cell_length_c 19.502937
_cell_angle_alpha 90.000000
_cell_angle_beta 90.000000
_cell_angle_gamma 90.000000
_cell_volume 3327.349880
_symmetry_space_group_name_H-M "P N M A"
_symmetry_group_IT_number 62
_symmetry_cell_setting 'orthorhombic'
loop_
_space_group_symop_operation_xyz
x,y,z
1/2-x,-y,1/2+z
1/2+x,1/2-y,1/2-z
-x,1/2+y,-z
-x,-y,-z
1/2+x,y,1/2-z
1/2-x,1/2+y,1/2+z
x,1/2-y,z
loop_
_atom_site_type_symbol
_atom_site_label
_atom_site_fract_x
_atom_site_fract_y
_atom_site_fract_z
Si Si1 0.220399 0.938833 0.638675
Si Si2 0.522141 0.437506 0.211700
Si Si3 0.699622 0.938020 0.017889
Si Si4 0.451955 0.062513 0.940125
Si Si5 0.666475 0.061119 0.260334
Si Si6 0.273795 0.436545 0.355102
Si Si7 0.880115 0.935379 0.246271
O O1 0.216501 0.750000 0.641002
O O2 0.210908 0.988495 0.560478
O O3 0.291615 0.986645 0.672532
O O4 0.162587 0.002669 0.688558
O O5 0.520475 0.250000 0.211437
O O6 0.526496 0.495559 0.133314
O O7 0.590439 0.492124 0.249602
O O8 0.455185 0.500741 0.246844
O O9 0.702862 0.750000 0.019817
O O10 0.624973 0.984267 0.042979
O O11 0.754392 0.005170 0.069952
O O12 0.455278 0.250000 0.938370
O O13 0.500000 0.000000 0.000000
O O14 0.664799 0.250000 0.260435
O O15 0.712506 0.014010 0.195527
O O16 0.277549 0.250000 0.353586
O O17 0.340716 0.504663 0.320812
O O18 0.880267 0.750000 0.247207
#
# Coordination Sequence:
#
# PCOD9463297 Si02
#       7
#     8   8   8   8   8   8   8
#     4   9  18  35  55  78 107 141 177 217 265 318
#     4  11  20  34  53  75 103 140 180 222 266 317
#     4  10  20  33  52  78 109 140 173 218 267 314
#     4  11  22  33  48  76 112 148 179 213 263 323
#     4   8  16  31  53  76  98 133 178 218 260 311
#     4  10  19  35  56  77 102 138 180 219 263 320
#     4  11  22  35  52  78 107 138 176 222 270 319
#
# _framework density 16.830212
#
# number of rings (size 3 to 8) (size 9 to 14) (size 15 to 20)
#    0.000    2.000    1.429    4.286    0.000    2.286 
#    0.000    0.714    0.000    0.857    0.000    0.000 
#    0.000    0.000    0.000    0.000    0.000    0.000 
#
# Total GULP energy -312570.608113 kJ/mol
# GULP energy per Si atom -5581.618002 kJ/mol
# Density = 1.679191 g / cm^3
# Si number density = 16.830212 Si / 1000 Ang^3
#
#
#
# Elastic Constant Matrix: (Units=GPa)
#
#
# Indices 1 2 3 4 5 6 
#
# 1 120.3351 20.5595 21.1252 0.0000 0.0000 0.0000
# 2 20.5595 38.4664 10.8421 0.0000 0.0000 0.0000
# 3 21.1252 10.8421 28.5306 0.0000 0.0000 0.0000
# 4 0.0000 0.0000 0.0000 24.0727 0.0000 0.0000
# 5 0.0000 0.0000 0.0000 0.0000 25.6656 0.0000
# 6 0.0000 0.0000 0.0000 0.0000 0.0000 14.5616
#
#
#
# Elastic Compliance Matrix: (Units=1/GPa)
#
#
# Indices 1 2 3 4 5 6 
#
# 1 0.009988 -0.003644 -0.006011 0.000000 0.000000 0.000000
# 2 -0.003644 0.030445 -0.008871 0.000000 0.000000 0.000000
# 3 -0.006011 -0.008871 0.042872 0.000000 0.000000 0.000000
# 4 0.000000 0.000000 0.000000 0.041541 0.000000 0.000000
# 5 0.000000 0.000000 0.000000 0.000000 0.038963 0.000000
# 6 0.000000 0.000000 0.000000 0.000000 0.000000 0.068674
#
#
# Mechanical properties :
#
#
# Convention : Reuss Voigt Hill
#
# Bulk Modulus (GPa) = 21.62045 32.48731 27.05388
# Shear Modulus (GPa) = 17.54682 21.84698 19.69690
#
# Velocity S-wave (km/s) = 3.23240 3.60680 3.42472
# Velocity P-wave (km/s) = 5.17739 6.05724 5.63452
#
# Compressibility (1/GPa) = 0.04625251
#
# Stress axis : x y z
#
# Youngs Moduli (GPa) = 100.12079 32.84615 23.32532
#
# Poissons Ratio (x) = 0.11970 0.14020
# Poissons Ratio (y) = 0.36486 0.20693
# Poissons Ratio (z) = 0.60179 0.29139
#
# Static dielectric constant tensor:
#      x y z
#    x 1.565400 0.000000 0.000000 
#    y 0.000000 1.568620 0.000000 
#    z 0.000000 0.000000 1.550200 
# 
# From -- ./inp_files/24634.got.cif
#   From: 2010.05.17/outbox.cif.g08.bks.cpg/sg62_13_cif.got.tgz:24634.got - 2010.06.03 15:25:27.
