data_PCOD9463026
_publ_section_title
;
Structure prediction by ZEFSAII (Michael W. Deem and Ramdas Pophale) SiO2 
 PCOD9463026
Probable space group: P N M A
;
_chemical_formula_sum "Si O2"
_cell_formula_units_Z 56
_cell_length_a 9.646832
_cell_length_b 18.313860
_cell_length_c 18.057862
_cell_angle_alpha 90.000000
_cell_angle_beta 90.000000
_cell_angle_gamma 90.000000
_cell_volume 3190.295674
_symmetry_space_group_name_H-M "P N M A"
_symmetry_group_IT_number 62
_symmetry_cell_setting 'orthorhombic'
loop_
_space_group_symop_operation_xyz
x,y,z
1/2-x,-y,1/2+z
1/2+x,1/2-y,1/2-z
-x,1/2+y,-z
-x,-y,-z
1/2+x,y,1/2-z
1/2-x,1/2+y,1/2+z
x,1/2-y,z
loop_
_atom_site_type_symbol
_atom_site_label
_atom_site_fract_x
_atom_site_fract_y
_atom_site_fract_z
Si Si1 0.652391 0.020177 0.373468
Si Si2 0.963426 0.664036 0.320732
Si Si3 0.811727 0.663232 0.960479
Si Si4 0.506881 0.333313 0.994424
Si Si5 0.718365 0.915132 0.251360
Si Si6 0.155320 0.030411 0.496003
Si Si7 0.634132 0.063063 0.596596
O O1 0.645543 0.105992 0.395620
O O2 0.690539 0.993088 0.290889
O O3 0.769746 0.986380 0.426921
O O4 0.509835 0.979887 0.395787
O O5 0.969301 0.750000 0.304820
O O6 0.073081 0.621377 0.270130
O O7 0.006318 0.652894 0.406243
O O8 0.809606 0.633944 0.306835
O O9 0.842124 0.750000 0.951279
O O10 0.644530 0.655576 0.970003
O O11 0.873992 0.629523 0.037179
O O12 0.545773 0.250000 0.005061
O O13 0.628056 0.385625 0.021759
O O14 0.808920 0.916103 0.176782
O O15 0.250074 0.990612 0.436828
O O16 0.000000 0.000000 0.500000
#
# Coordination Sequence:
#
# PCOD9463026 Si02
#       7
#     8   8   8   8   8   8   8
#     4  11  23  38  56  86 119 149 201 236 284 346
#     4  11  22  36  54  84 122 153 186 234 291 351
#     4  10  20  37  61  83 113 153 190 239 291 343
#     4  10  19  33  56  87 112 140 187 233 281 342
#     4  12  22  37  57  84 115 160 191 232 288 345
#     4  11  18  35  59  81 109 150 189 232 275 336
#     4  11  23  37  57  87 116 147 195 241 285 345
#
# _framework density 17.553232000000001
#
# number of rings (size 3 to 8) (size 9 to 14) (size 15 to 20)
#    0.000    1.143    7.143    2.143    0.000    0.571 
#    0.000    2.857    0.000    1.714    0.000    0.000 
#    0.000    0.000    0.000    0.000    0.000    0.000 
#
# Total GULP energy -312226.958037 kJ/mol
# GULP energy per Si atom -5575.481394 kJ/mol
# Density = 1.751328 g / cm^3
# Si number density = 17.553232 Si / 1000 Ang^3
#
#
#
# Elastic Constant Matrix: (Units=GPa)
#
#
# Indices 1 2 3 4 5 6 
#
# 1 66.3905 19.7604 -5.4529 0.0000 0.0000 0.0000
# 2 19.7604 124.1710 27.3808 0.0000 0.0000 0.0000
# 3 -5.4529 27.3808 42.8768 0.0000 0.0000 0.0000
# 4 0.0000 0.0000 0.0000 21.8636 0.0000 0.0000
# 5 0.0000 0.0000 0.0000 0.0000 20.7528 0.0000
# 6 0.0000 0.0000 0.0000 0.0000 0.0000 29.4449
#
#
#
# Elastic Compliance Matrix: (Units=1/GPa)
#
#
# Indices 1 2 3 4 5 6 
#
# 1 0.016493 -0.003593 0.004392 0.000000 0.000000 0.000000
# 2 -0.003593 0.010156 -0.006943 0.000000 0.000000 0.000000
# 3 0.004392 -0.006943 0.028315 0.000000 0.000000 0.000000
# 4 0.000000 0.000000 0.000000 0.045738 0.000000 0.000000
# 5 0.000000 0.000000 0.000000 0.000000 0.048186 0.000000
# 6 0.000000 0.000000 0.000000 0.000000 0.000000 0.033962
#
#
# Mechanical properties :
#
#
# Convention : Reuss Voigt Hill
#
# Bulk Modulus (GPa) = 23.43238 35.20166 29.31702
# Shear Modulus (GPa) = 23.88208 27.19560 25.53884
#
# Velocity S-wave (km/s) = 3.69257 3.94041 3.81850
# Velocity P-wave (km/s) = 5.61768 6.38751 6.01492
#
# Compressibility (1/GPa) = 0.04267599
#
# Stress axis : x y z
#
# Youngs Moduli (GPa) = 60.63339 98.46302 35.31739
#
# Poissons Ratio (x) = 0.35378 -0.15511
# Poissons Ratio (y) = 0.21786 0.24519
# Poissons Ratio (z) = -0.26630 0.68358
#
# Static dielectric constant tensor:
#      x y z
#    x 1.583510 0.000000 0.000000 
#    y 0.000000 1.650350 0.000000 
#    z 0.000000 0.000000 1.624230 
# 
# From -- ./inp_files/26117.got.cif
#   From: 2010.05.17/outbox.cif.g08.bks.cpg/sg62_14_cif.got.tgz:26117.got - 2010.06.03 15:25:27.
