data_PCOD9463809
_publ_section_title
;
Structure prediction by ZEFSAII (Michael W. Deem and Ramdas Pophale) SiO2 
 PCOD9463809
Probable space group: P N M A
;
_chemical_formula_sum "Si O2"
_cell_formula_units_Z 64
_cell_length_a 5.430532
_cell_length_b 26.938356
_cell_length_c 19.294910
_cell_angle_alpha 90.000000
_cell_angle_beta 90.000000
_cell_angle_gamma 90.000000
_cell_volume 2822.644749
_symmetry_space_group_name_H-M "P N M A"
_symmetry_group_IT_number 62
_symmetry_cell_setting 'orthorhombic'
loop_
_space_group_symop_operation_xyz
x,y,z
1/2-x,-y,1/2+z
1/2+x,1/2-y,1/2-z
-x,1/2+y,-z
-x,-y,-z
1/2+x,y,1/2-z
1/2-x,1/2+y,1/2+z
x,1/2-y,z
loop_
_atom_site_type_symbol
_atom_site_label
_atom_site_fract_x
_atom_site_fract_y
_atom_site_fract_z
Si Si1 0.142701 0.694397 0.205491
Si Si2 0.843595 0.190907 0.282530
Si Si3 0.234020 0.008710 0.907816
Si Si4 0.270810 0.040726 0.069655
Si Si5 0.625904 0.696388 0.048638
Si Si6 0.076844 0.114921 0.891777
Si Si7 0.052561 0.137291 0.039421
Si Si8 0.655047 0.305574 0.087523
O O1 0.903757 0.691643 0.255651
O O2 0.131969 0.750000 0.172414
O O3 0.102566 0.648282 0.154144
O O4 0.580656 0.170603 0.259087
O O5 0.825818 0.250000 0.268206
O O6 0.922813 0.187106 0.362491
O O7 0.492742 0.982021 0.892095
O O8 0.992324 0.975130 0.899195
O O9 0.170843 0.060948 0.870585
O O10 0.263453 0.021498 0.989974
O O11 0.265370 0.100258 0.064205
O O12 0.629688 0.750000 0.082956
O O13 0.681898 0.650321 0.097753
O O14 0.850284 0.688481 0.994286
O O15 0.405640 0.693408 0.994424
O O16 0.957894 0.109616 0.968971
O O17 0.852515 0.151286 0.095191
O O18 0.747534 0.250000 0.104675
#
# Coordination Sequence:
#
# PCOD9463809 Si02
#       8
#     8   8   8   8   8   8   8   8
#     4  10  22  39  58  82 114 153 195 242 285 335
#     4   9  19  33  50  70  96 134 177 219 255 291
#     4   9  18  32  51  76 104 137 169 222 266 324
#     4   9  18  31  50  75 109 134 172 213 271 327
#     4   9  19  32  47  75 111 146 177 216 270 335
#     4   9  20  35  55  81 109 146 187 226 285 349
#     4   9  20  31  51  77 111 149 174 222 281 343
#     4  10  20  31  50  76 108 142 182 222 265 327
#
# _framework density 22.673770000000001
#
# number of rings (size 3 to 8) (size 9 to 14) (size 15 to 20)
#    0.750    2.000    0.000    0.750    3.500    4.000 
#    0.000    2.500    0.000    0.000    0.000    5.250 
#    0.000    0.000    0.000    0.000    0.000    0.000 
#
# Total GULP energy -356480.609072 kJ/mol
# GULP energy per Si atom -5570.009517 kJ/mol
# Density = 2.262216 g / cm^3
# Si number density = 22.673770 Si / 1000 Ang^3
#
#
#
# Elastic Constant Matrix: (Units=GPa)
#
#
# Indices 1 2 3 4 5 6 
#
# 1 107.7992 23.3768 23.7011 0.0000 0.0000 0.0000
# 2 23.3768 85.3736 12.3684 0.0000 0.0000 0.0000
# 3 23.7011 12.3684 31.2644 0.0000 0.0000 0.0000
# 4 0.0000 0.0000 0.0000 18.3677 0.0000 0.0000
# 5 0.0000 0.0000 0.0000 0.0000 31.0497 0.0000
# 6 0.0000 0.0000 0.0000 0.0000 0.0000 21.2380
#
#
#
# Elastic Compliance Matrix: (Units=1/GPa)
#
#
# Indices 1 2 3 4 5 6 
#
# 1 0.011442 -0.001990 -0.007887 0.000000 0.000000 0.000000
# 2 -0.001990 0.012772 -0.003544 0.000000 0.000000 0.000000
# 3 -0.007887 -0.003544 0.039366 0.000000 0.000000 0.000000
# 4 0.000000 0.000000 0.000000 0.054443 0.000000 0.000000
# 5 0.000000 0.000000 0.000000 0.000000 0.032206 0.000000
# 6 0.000000 0.000000 0.000000 0.000000 0.000000 0.047085
#
#
# Mechanical properties :
#
#
# Convention : Reuss Voigt Hill
#
# Bulk Modulus (GPa) = 27.21964 38.14775 32.68369
# Shear Modulus (GPa) = 21.15039 25.13049 23.14044
#
# Velocity S-wave (km/s) = 3.05751 3.33280 3.19812
# Velocity P-wave (km/s) = 4.94929 5.62772 5.29937
#
# Compressibility (1/GPa) = 0.03673818
#
# Stress axis : x y z
#
# Youngs Moduli (GPa) = 87.39625 78.29863 25.40273
#
# Poissons Ratio (x) = 0.15585 0.20034
# Poissons Ratio (y) = 0.17396 0.09002
# Poissons Ratio (z) = 0.68926 0.27746
#
# Static dielectric constant tensor:
#      x y z
#    x 1.917040 0.000000 0.000000 
#    y 0.000000 1.873670 0.000000 
#    z 0.000000 0.000000 1.905140 
# 
# From -- ./inp_files/28443.got.cif
#   From: 2010.05.17/outbox.cif.g08.bks.cpg/sg62_15_cif.got.tgz:28443.got - 2010.06.03 15:25:27.
