data_PCOD9463130
_publ_section_title
;
Structure prediction by ZEFSAII (Michael W. Deem and Ramdas Pophale) SiO2 
 PCOD9463130
Probable space group: P N M A
;
_chemical_formula_sum "Si O2"
_cell_formula_units_Z 64
_cell_length_a 30.975459
_cell_length_b 7.426114
_cell_length_c 11.663680
_cell_angle_alpha 90.000000
_cell_angle_beta 90.000000
_cell_angle_gamma 90.000000
_cell_volume 2682.964699
_symmetry_space_group_name_H-M "P N M A"
_symmetry_group_IT_number 62
_symmetry_cell_setting 'orthorhombic'
loop_
_space_group_symop_operation_xyz
x,y,z
1/2-x,-y,1/2+z
1/2+x,1/2-y,1/2-z
-x,1/2+y,-z
-x,-y,-z
1/2+x,y,1/2-z
1/2-x,1/2+y,1/2+z
x,1/2-y,z
loop_
_atom_site_type_symbol
_atom_site_label
_atom_site_fract_x
_atom_site_fract_y
_atom_site_fract_z
Si Si1 0.642162 0.460898 0.818121
Si Si2 0.475968 0.544457 0.810724
Si Si3 0.439390 0.469038 0.562017
Si Si4 0.055987 0.966941 0.807996
Si Si5 0.657813 0.957350 0.469916
Si Si6 0.608090 0.470428 0.062851
Si Si7 0.717749 0.541876 0.663998
Si Si8 0.688226 0.468725 0.222692
O O1 0.649724 0.250000 0.834036
O O2 0.605022 0.486882 0.722695
O O3 0.687780 0.538318 0.776981
O O4 0.621807 0.531120 0.936363
O O5 0.482222 0.750000 0.850038
O O6 0.458161 0.544032 0.679834
O O7 0.523374 0.462457 0.789906
O O8 0.438413 0.465374 0.890408
O O9 0.441789 0.250000 0.570430
O O10 0.457012 0.525586 0.436660
O O11 0.389585 0.530510 0.554333
O O12 0.053094 0.750000 0.808303
O O13 0.649594 0.750000 0.505673
O O14 0.687513 0.043010 0.566871
O O15 0.682708 0.964029 0.351070
O O16 0.606345 0.250000 0.063767
O O17 0.646713 0.523557 0.148454
O O18 0.724553 0.750000 0.630724
O O19 0.765543 0.466779 0.676822
O O20 0.688404 0.250000 0.225349
#
# Coordination Sequence:
#
# PCOD9463130 Si02
#       8
#     8   8   8   8   8   8   8   8
#     4  11  23  38  59  82 111 149 189 236 277 326
#     4  10  20  36  60  83 110 149 188 230 278 336
#     4  10  19  34  55  82 116 146 178 228 285 334
#     4  10  21  38  58  82 114 150 184 227 286 339
#     4  10  20  36  59  83 114 148 180 229 285 328
#     4   9  20  38  56  81 113 145 185 230 281 329
#     4  10  22  40  60  83 115 153 186 227 285 335
#     4  10  21  38  61  84 112 150 188 229 277 334
#
# _framework density 23.854209000000001
#
# number of rings (size 3 to 8) (size 9 to 14) (size 15 to 20)
#    0.000    2.000    2.500    0.750    1.750    2.500 
#    0.000    2.500    0.000    0.000    0.000    0.000 
#    0.000    0.000    0.000    0.000    0.000    0.000 
#
# Total GULP energy -357613.938041 kJ/mol
# GULP energy per Si atom -5587.717782 kJ/mol
# Density = 2.379992 g / cm^3
# Si number density = 23.854209 Si / 1000 Ang^3
#
#
#
# Elastic Constant Matrix: (Units=GPa)
#
#
# Indices 1 2 3 4 5 6 
#
# 1 72.8320 -8.2535 -24.8434 0.0000 0.0000 0.0000
# 2 -8.2535 82.0774 -14.2686 0.0000 0.0000 0.0000
# 3 -24.8434 -14.2686 54.4263 0.0000 0.0000 0.0000
# 4 0.0000 0.0000 0.0000 26.2473 0.0000 0.0000
# 5 0.0000 0.0000 0.0000 0.0000 30.7279 0.0000
# 6 0.0000 0.0000 0.0000 0.0000 0.0000 10.1006
#
#
#
# Elastic Compliance Matrix: (Units=1/GPa)
#
#
# Indices 1 2 3 4 5 6 
#
# 1 0.017033 0.003211 0.008617 0.000000 0.000000 0.000000
# 2 0.003211 0.013371 0.004971 0.000000 0.000000 0.000000
# 3 0.008617 0.004971 0.023610 0.000000 0.000000 0.000000
# 4 0.000000 0.000000 0.000000 0.038099 0.000000 0.000000
# 5 0.000000 0.000000 0.000000 0.000000 0.032544 0.000000
# 6 0.000000 0.000000 0.000000 0.000000 0.000000 0.099004
#
#
# Mechanical properties :
#
#
# Convention : Reuss Voigt Hill
#
# Bulk Modulus (GPa) = 11.41412 12.73386 12.07399
# Shear Modulus (GPa) = 22.80316 30.52855 26.66585
#
# Velocity S-wave (km/s) = 3.09518 3.58131 3.34708
# Velocity P-wave (km/s) = 4.19152 4.73823 4.47323
#
# Compressibility (1/GPa) = 0.08761075
#
# Stress axis : x y z
#
# Youngs Moduli (GPa) = 58.70850 74.79069 42.35516
#
# Poissons Ratio (x) = -0.24014 -0.36496
# Poissons Ratio (y) = -0.18850 -0.21054
# Poissons Ratio (z) = -0.50588 -0.37178
#
# Static dielectric constant tensor:
#      x y z
#    x 1.917980 0.000000 0.000000 
#    y 0.000000 1.877010 0.000000 
#    z 0.000000 0.000000 1.892170 
# 
# From -- ./inp_files/15858.got.cif
#   From: 2010.05.17/outbox.cif.g08.bks.cpg/sg62_8_cif.got.tgz:15858.got - 2010.06.03 15:25:27.
