data_PCOD9463813
_publ_section_title
;
Structure prediction by ZEFSAII (Michael W. Deem and Ramdas Pophale) SiO2 
 PCOD9463813
Probable space group: P N M A
;
_chemical_formula_sum "Si O2"
_cell_formula_units_Z 48
_cell_length_a 7.277306
_cell_length_b 34.099657
_cell_length_c 7.066459
_cell_angle_alpha 90.000000
_cell_angle_beta 90.000000
_cell_angle_gamma 90.000000
_cell_volume 1753.567512
_symmetry_space_group_name_H-M "P N M A"
_symmetry_group_IT_number 62
_symmetry_cell_setting 'orthorhombic'
loop_
_space_group_symop_operation_xyz
x,y,z
1/2-x,-y,1/2+z
1/2+x,1/2-y,1/2-z
-x,1/2+y,-z
-x,-y,-z
1/2+x,y,1/2-z
1/2-x,1/2+y,1/2+z
x,1/2-y,z
loop_
_atom_site_type_symbol
_atom_site_label
_atom_site_fract_x
_atom_site_fract_y
_atom_site_fract_z
Si Si1 0.654450 0.622786 0.617448
Si Si2 0.247919 0.791508 0.464007
Si Si3 0.170169 0.792376 0.900651
Si Si4 0.156510 0.458306 0.339517
Si Si5 0.246358 0.625289 0.452377
Si Si6 0.273580 0.457382 0.943925
O O1 0.753447 0.664190 0.565129
O O2 0.747375 0.580901 0.585071
O O3 0.457897 0.626015 0.518695
O O4 0.637038 0.622526 0.847852
O O5 0.200855 0.750000 0.370190
O O6 0.155394 0.791992 0.671556
O O7 0.465967 0.791553 0.511175
O O8 0.201134 0.832514 0.364260
O O9 0.260361 0.750000 0.948021
O O10 0.130200 0.452907 0.115138
O O11 0.255168 0.500961 0.347244
O O12 0.969749 0.460538 0.454324
O O13 0.221199 0.584633 0.340583
#
# Coordination Sequence:
#
# PCOD9463813 Si02
#       6
#     8   8   8   8   8   8
#     4   9  15  23  37  55  77 107 138 169 206 246
#     4   8  13  20  30  47  72 101 132 163 196 238
#     4   8  13  20  30  47  72 101 132 163 196 238
#     4  10  20  32  46  64  86 113 144 178 215 254
#     4   9  15  23  37  55  77 107 138 169 206 246
#     4  10  20  32  46  64  86 113 144 178 215 254
#
# _framework density 27.372769000000002
#
# number of rings (size 3 to 8) (size 9 to 14) (size 15 to 20)
#    0.000    3.000    0.000    4.000    0.000    4.000 
#    0.000    0.000    0.000    0.000    0.000    0.000 
#    0.000    1.333    0.000    3.000    0.000   15.667 
#
# Total GULP energy -268041.036634 kJ/mol
# GULP energy per Si atom -5584.188263 kJ/mol
# Density = 2.731047 g / cm^3
# Si number density = 27.372769 Si / 1000 Ang^3
#
#
#
# Elastic Constant Matrix: (Units=GPa)
#
#
# Indices 1 2 3 4 5 6 
#
# 1 80.9143 31.8342 -2.1754 0.0000 0.0000 0.0000
# 2 31.8342 380.7638 24.9507 0.0000 0.0000 0.0000
# 3 -2.1754 24.9507 87.0684 0.0000 0.0000 0.0000
# 4 0.0000 0.0000 0.0000 -5.0198 0.0000 0.0000
# 5 0.0000 0.0000 0.0000 0.0000 4.3932 0.0000
# 6 0.0000 0.0000 0.0000 0.0000 0.0000 27.4223
#
#
#
# Elastic Compliance Matrix: (Units=1/GPa)
#
#
# Indices 1 2 3 4 5 6 
#
# 1 0.012814 -0.001113 0.000639 0.000000 0.000000 0.000000
# 2 -0.001113 0.002773 -0.000823 0.000000 0.000000 0.000000
# 3 0.000639 -0.000823 0.011737 0.000000 0.000000 0.000000
# 4 0.000000 0.000000 0.000000 -0.199212 0.000000 0.000000
# 5 0.000000 0.000000 0.000000 0.000000 0.227624 0.000000
# 6 0.000000 0.000000 0.000000 0.000000 0.000000 0.036467
#
#
# Mechanical properties :
#
#
# Convention : Reuss Voigt Hill
#
# Bulk Modulus (GPa) = 40.43519 73.10727 56.77123
# Shear Modulus (GPa) = 48.52516 38.30161 43.41338
#
# Velocity S-wave (km/s) = 4.21497 3.74473 3.98679
# Velocity P-wave (km/s) = 6.20420 6.74265 6.47902
#
# Compressibility (1/GPa) = 0.02473093
#
# Stress axis : x y z
#
# Youngs Moduli (GPa) = 78.04017 360.58515 85.20139
#
# Poissons Ratio (x) = 0.40141 -0.05446
# Poissons Ratio (y) = 0.08687 0.07008
# Poissons Ratio (z) = -0.04988 0.29659
#
# Static dielectric constant tensor:
#      x y z
#    x 2.128000 0.000000 0.000000 
#    y 0.000000 2.240290 0.000000 
#    z 0.000000 0.000000 2.145260 
# 
# From -- ./inp_files/11476.got.cif
#   From: 2010.05.17/outbox.cif.g08.bks.cpg/sg62_6_cif.got.tgz:11476.got - 2010.06.03 15:25:27.
