data_PCOD9463372
_publ_section_title
;
Structure prediction by ZEFSAII (Michael W. Deem and Ramdas Pophale) SiO2 
 PCOD9463372
Probable space group: P N M A
;
_chemical_formula_sum "Si O2"
_cell_formula_units_Z 40
_cell_length_a 7.927673
_cell_length_b 8.123884
_cell_length_c 23.880885
_cell_angle_alpha 90.000000
_cell_angle_beta 90.000000
_cell_angle_gamma 90.000000
_cell_volume 1538.012478
_symmetry_space_group_name_H-M "P N M A"
_symmetry_group_IT_number 62
_symmetry_cell_setting 'orthorhombic'
loop_
_space_group_symop_operation_xyz
x,y,z
1/2-x,-y,1/2+z
1/2+x,1/2-y,1/2-z
-x,1/2+y,-z
-x,-y,-z
1/2+x,y,1/2-z
1/2-x,1/2+y,1/2+z
x,1/2-y,z
loop_
_atom_site_type_symbol
_atom_site_label
_atom_site_fract_x
_atom_site_fract_y
_atom_site_fract_z
Si Si1 0.071437 0.433587 0.168636
Si Si2 0.448080 0.949006 0.867274
Si Si3 0.881647 0.943567 0.065567
Si Si4 0.168982 0.947625 0.533060
Si Si5 0.372686 0.936677 0.238966
O O1 0.140592 0.250000 0.170857
O O2 0.020730 0.472775 0.105020
O O3 0.903739 0.448551 0.207369
O O4 0.204127 0.542384 0.202488
O O5 0.429176 0.750000 0.867629
O O6 0.615328 0.992527 0.904203
O O7 0.290079 0.030474 0.898154
O O8 0.482773 0.017186 0.806025
O O9 0.918249 0.750000 0.062089
O O10 0.824236 0.013330 0.004574
O O11 0.183671 0.750000 0.531100
O O12 0.000000 0.000000 0.500000
O O13 0.385165 0.750000 0.258599
#
# Coordination Sequence:
#
# PCOD9463372 Si02
#       5
#     8   8   8   8   8
#     4  12  25  42  61  84 112 147 187 233 283 337
#     4  10  19  35  58  87 118 152 190 232 277 329
#     4  10  19  35  58  87 118 152 190 232 277 329
#     4   8  16  30  53  82 115 150 188 228 272 324
#     4  12  25  42  61  84 112 147 187 233 283 337
#
# _framework density 26.007591999999999
#
# number of rings (size 3 to 8) (size 9 to 14) (size 15 to 20)
#    0.000    1.600    0.000    6.000    0.000    1.600 
#    0.000    1.000    0.000    0.000    0.000    0.000 
#    0.000    0.000    0.000    0.000    0.000    0.000 
#
# Total GULP energy -223927.918238 kJ/mol
# GULP energy per Si atom -5598.197956 kJ/mol
# Density = 2.594840 g / cm^3
# Si number density = 26.007592 Si / 1000 Ang^3
#
#
#
# Elastic Constant Matrix: (Units=GPa)
#
#
# Indices 1 2 3 4 5 6 
#
# 1 88.0381 -5.5167 -12.4729 0.0000 0.0000 0.0000
# 2 -5.5167 85.9602 6.2433 0.0000 0.0000 0.0000
# 3 -12.4729 6.2433 162.4908 0.0000 0.0000 0.0000
# 4 0.0000 0.0000 0.0000 30.0687 0.0000 0.0000
# 5 0.0000 0.0000 0.0000 0.0000 48.8342 0.0000
# 6 0.0000 0.0000 0.0000 0.0000 0.0000 32.3559
#
#
#
# Elastic Compliance Matrix: (Units=1/GPa)
#
#
# Indices 1 2 3 4 5 6 
#
# 1 0.011523 0.000677 0.000858 0.000000 0.000000 0.000000
# 2 0.000677 0.011706 -0.000398 0.000000 0.000000 0.000000
# 3 0.000858 -0.000398 0.006235 0.000000 0.000000 0.000000
# 4 0.000000 0.000000 0.000000 0.033257 0.000000 0.000000
# 5 0.000000 0.000000 0.000000 0.000000 0.020477 0.000000
# 6 0.000000 0.000000 0.000000 0.000000 0.000000 0.030906
#
#
# Mechanical properties :
#
#
# Convention : Reuss Voigt Hill
#
# Bulk Modulus (GPa) = 31.50651 34.77740 33.14195
# Shear Modulus (GPa) = 40.84673 45.46745 43.15709
#
# Velocity S-wave (km/s) = 3.96734 4.18573 4.07800
# Velocity P-wave (km/s) = 5.75561 6.06312 5.91137
#
# Compressibility (1/GPa) = 0.03173947
#
# Stress axis : x y z
#
# Youngs Moduli (GPa) = 86.78469 85.42888 160.37528
#
# Poissons Ratio (x) = -0.05785 -0.13768
# Poissons Ratio (y) = -0.05877 0.06379
# Poissons Ratio (z) = -0.07450 0.03398
#
# Static dielectric constant tensor:
#      x y z
#    x 2.093830 0.000000 0.000000 
#    y 0.000000 1.874680 0.000000 
#    z 0.000000 0.000000 2.035710 
# 
# From -- ./inp_files/28576.got.cif
#   From: 2010.05.17/outbox.cif.g08.bks.cpg/sg62_15_cif.got.tgz:28576.got - 2010.06.03 15:25:27.
