data_PCOD9463210
_publ_section_title
;
Structure prediction by ZEFSAII (Michael W. Deem and Ramdas Pophale) SiO2 
 PCOD9463210
Probable space group: P N M A
;
_chemical_formula_sum "Si O2"
_cell_formula_units_Z 64
_cell_length_a 15.891205
_cell_length_b 7.662398
_cell_length_c 24.538445
_cell_angle_alpha 90.000000
_cell_angle_beta 90.000000
_cell_angle_gamma 90.000000
_cell_volume 2987.917312
_symmetry_space_group_name_H-M "P N M A"
_symmetry_group_IT_number 62
_symmetry_cell_setting 'orthorhombic'
loop_
_space_group_symop_operation_xyz
x,y,z
1/2-x,-y,1/2+z
1/2+x,1/2-y,1/2-z
-x,1/2+y,-z
-x,-y,-z
1/2+x,y,1/2-z
1/2-x,1/2+y,1/2+z
x,1/2-y,z
loop_
_atom_site_type_symbol
_atom_site_label
_atom_site_fract_x
_atom_site_fract_y
_atom_site_fract_z
Si Si1 0.866909 0.960811 0.932274
Si Si2 0.198133 0.035118 0.185850
Si Si3 0.068378 0.048603 0.578900
Si Si4 0.473070 0.549317 0.731378
Si Si5 0.890027 0.543599 0.541383
Si Si6 0.958374 0.543746 0.115301
Si Si7 0.381364 0.451016 0.196262
Si Si8 0.298554 0.539285 0.451681
O O1 0.866054 0.750000 0.932873
O O2 0.820316 0.017414 0.876747
O O3 0.823086 0.023103 0.987488
O O4 0.963938 0.017160 0.926246
O O5 0.197930 0.250000 0.185816
O O6 0.288921 0.972857 0.205190
O O7 0.119707 0.973482 0.222114
O O8 0.094013 0.250000 0.583857
O O9 0.102917 0.978034 0.521257
O O10 0.101348 0.953107 0.631953
O O11 0.967144 0.037542 0.574470
O O12 0.459467 0.750000 0.748965
O O13 0.515015 0.545988 0.671514
O O14 0.539546 0.466521 0.772715
O O15 0.906874 0.750000 0.539818
O O16 0.796308 0.512710 0.562255
O O17 0.951239 0.750000 0.126375
O O18 0.871353 0.479642 0.089469
O O19 0.376956 0.250000 0.215345
O O20 0.301855 0.750000 0.452431
#
# Coordination Sequence:
#
# PCOD9463210 Si02
#       8
#     8   8   8   8   8   8   8   8
#     4   9  17  31  52  75 103 140 181 221 268 325
#     4   8  15  30  52  76 101 131 173 225 270 310
#     4  10  21  37  56  79 110 139 170 220 273 318
#     4   9  19  36  54  75 105 142 184 227 271 321
#     4  10  21  36  55  80 109 144 181 215 257 321
#     4  10  20  33  50  74 108 143 178 223 276 323
#     4  10  19  34  58  81 102 138 185 227 269 320
#     4  10  20  33  51  78 110 145 178 218 273 325
#
# _framework density 21.419602999999999
#
# number of rings (size 3 to 8) (size 9 to 14) (size 15 to 20)
#    0.000    2.500    0.000    3.000    0.000    4.500 
#    2.250    3.750    0.000    0.000    0.000    0.000 
#    0.000    0.000    0.000    0.000    0.000    0.000 
#
# Total GULP energy -357301.239865 kJ/mol
# GULP energy per Si atom -5582.831873 kJ/mol
# Density = 2.137085 g / cm^3
# Si number density = 21.419603 Si / 1000 Ang^3
#
#
#
# Elastic Constant Matrix: (Units=GPa)
#
#
# Indices 1 2 3 4 5 6 
#
# 1 151.1392 -6.9369 41.0981 0.0000 0.0000 0.0000
# 2 -6.9369 44.8008 -1.2443 0.0000 0.0000 0.0000
# 3 41.0981 -1.2443 26.4528 0.0000 0.0000 0.0000
# 4 0.0000 0.0000 0.0000 0.1893 0.0000 0.0000
# 5 0.0000 0.0000 0.0000 0.0000 19.9603 0.0000
# 6 0.0000 0.0000 0.0000 0.0000 0.0000 10.5476
#
#
#
# Elastic Compliance Matrix: (Units=1/GPa)
#
#
# Indices 1 2 3 4 5 6 
#
# 1 0.011530 0.001289 -0.017853 0.000000 0.000000 0.000000
# 2 0.001289 0.022494 -0.000945 0.000000 0.000000 0.000000
# 3 -0.017853 -0.000945 0.065496 0.000000 0.000000 0.000000
# 4 0.000000 0.000000 0.000000 5.283914 0.000000 0.000000
# 5 0.000000 0.000000 0.000000 0.000000 0.050099 0.000000
# 6 0.000000 0.000000 0.000000 0.000000 0.000000 0.094809
#
#
# Mechanical properties :
#
#
# Convention : Reuss Voigt Hill
#
# Bulk Modulus (GPa) = 15.50322 32.02520 23.76421
# Shear Modulus (GPa) = 0.89528 18.77114 9.83321
#
# Velocity S-wave (km/s) = 0.64721 2.96354 2.14493
# Velocity P-wave (km/s) = 2.79501 5.16661 4.15367
#
# Compressibility (1/GPa) = 0.06450274
#
# Stress axis : x y z
#
# Youngs Moduli (GPa) = 86.72794 44.45542 15.26805
#
# Poissons Ratio (x) = -0.05732 0.27258
# Poissons Ratio (y) = -0.11183 0.01443
# Poissons Ratio (z) = 1.54838 0.04203
#
# Static dielectric constant tensor:
#      x y z
#    x 1.789270 0.000000 0.000000 
#    y 0.000000 1.789990 0.000000 
#    z 0.000000 0.000000 1.749370 
# 
# From -- ./inp_files/29926.got.cif
#   From: 2010.05.17/outbox.cif.g08.bks.cpg/sg62_15_cif.got.tgz:29926.got - 2010.06.03 15:25:27.
