data_PCOD9463835
_publ_section_title
;
Structure prediction by ZEFSAII (Michael W. Deem and Ramdas Pophale) SiO2 
 PCOD9463835
Probable space group: P N M A
;
_chemical_formula_sum "Si O2"
_cell_formula_units_Z 48
_cell_length_a 13.070886
_cell_length_b 19.859614
_cell_length_c 8.258283
_cell_angle_alpha 90.000000
_cell_angle_beta 90.000000
_cell_angle_gamma 90.000000
_cell_volume 2143.707816
_symmetry_space_group_name_H-M "P N M A"
_symmetry_group_IT_number 62
_symmetry_cell_setting 'orthorhombic'
loop_
_space_group_symop_operation_xyz
x,y,z
1/2-x,-y,1/2+z
1/2+x,1/2-y,1/2-z
-x,1/2+y,-z
-x,-y,-z
1/2+x,y,1/2-z
1/2-x,1/2+y,1/2+z
x,1/2-y,z
loop_
_atom_site_type_symbol
_atom_site_label
_atom_site_fract_x
_atom_site_fract_y
_atom_site_fract_z
Si Si1 0.974679 0.322639 0.015101
Si Si2 0.655620 0.420205 0.093181
Si Si3 0.318720 0.064351 0.972728
Si Si4 0.300250 0.675567 0.642228
Si Si5 0.478231 0.596999 0.225079
Si Si6 0.550164 0.547567 0.704039
O O1 0.920660 0.250000 0.028327
O O2 0.011328 0.337280 0.832926
O O3 0.078951 0.317318 0.116592
O O4 0.926815 0.392648 0.078753
O O5 0.711603 0.359655 0.183368
O O6 0.561742 0.440071 0.213586
O O7 0.719323 0.489546 0.073365
O O8 0.603134 0.401162 0.922156
O O9 0.240606 0.124438 0.005005
O O10 0.374063 0.054863 0.144842
O O11 0.409713 0.084669 0.851957
O O12 0.252881 0.750000 0.631829
O O13 0.450422 0.531821 0.336418
#
# Coordination Sequence:
#
# PCOD9463835 Si02
#       6
#     8   8   8   8   8   8
#     4  10  20  32  48  73 105 139 168 201 258 319
#     4   8  17  34  54  74  97 132 173 209 256 313
#     4   9  18  33  55  78  98 130 178 222 257 301
#     4  10  21  35  50  74 109 141 168 207 263 320
#     4   9  17  33  56  78  98 129 178 224 253 293
#     4   8  16  33  53  73  98 127 167 215 257 304
#
# _framework density 22.391110999999999
#
# number of rings (size 3 to 8) (size 9 to 14) (size 15 to 20)
#    0.000    3.000    0.000    2.500    0.000    4.667 
#    0.000    5.000    0.000    0.000    0.000    0.000 
#    0.000    0.000    0.000    0.000    0.000    0.000 
#
# Total GULP energy -267583.640513 kJ/mol
# GULP energy per Si atom -5574.659177 kJ/mol
# Density = 2.234015 g / cm^3
# Si number density = 22.391111 Si / 1000 Ang^3
#
#
#
# Elastic Constant Matrix: (Units=GPa)
#
#
# Indices 1 2 3 4 5 6 
#
# 1 29.8878 11.5158 -0.2472 0.0000 0.0000 0.0000
# 2 11.5158 156.2814 60.4443 0.0000 0.0000 0.0000
# 3 -0.2472 60.4443 72.1420 0.0000 0.0000 0.0000
# 4 0.0000 0.0000 0.0000 -10.4276 0.0000 0.0000
# 5 0.0000 0.0000 0.0000 0.0000 21.3754 0.0000
# 6 0.0000 0.0000 0.0000 0.0000 0.0000 18.8032
#
#
#
# Elastic Compliance Matrix: (Units=1/GPa)
#
#
# Indices 1 2 3 4 5 6 
#
# 1 0.034982 -0.003882 0.003372 0.000000 0.000000 0.000000
# 2 -0.003882 0.009897 -0.008306 0.000000 0.000000 0.000000
# 3 0.003372 -0.008306 0.020832 0.000000 0.000000 0.000000
# 4 0.000000 0.000000 0.000000 -0.095900 0.000000 0.000000
# 5 0.000000 0.000000 0.000000 0.000000 0.046783 0.000000
# 6 0.000000 0.000000 0.000000 0.000000 0.000000 0.053183
#
#
# Mechanical properties :
#
#
# Convention : Reuss Voigt Hill
#
# Bulk Modulus (GPa) = 20.79836 44.63746 32.71791
# Shear Modulus (GPa) = 48.34003 18.39009 33.36506
#
# Velocity S-wave (km/s) = 4.65143 2.86896 3.86437
# Velocity P-wave (km/s) = 6.17710 5.56356 5.87834
#
# Compressibility (1/GPa) = 0.04808072
#
# Stress axis : x y z
#
# Youngs Moduli (GPa) = 28.58608 101.03981 48.00315
#
# Poissons Ratio (x) = 0.39224 -0.16189
# Poissons Ratio (y) = 0.11097 0.39869
# Poissons Ratio (z) = -0.09640 0.83920
#
# Static dielectric constant tensor:
#      x y z
#    x 1.911800 0.000000 0.000000 
#    y 0.000000 1.890610 0.000000 
#    z 0.000000 0.000000 1.827430 
# 
# From -- ./inp_files/7828.got.cif
#   From: 2010.05.17/outbox.cif.g08.bks.cpg/sg62_4_cif.got.tgz:7828.got - 2010.06.03 15:25:27.
