data_PCOD9463552
_publ_section_title
;
Structure prediction by ZEFSAII (Michael W. Deem and Ramdas Pophale) SiO2 
 PCOD9463552
Probable space group: P N M A
;
_chemical_formula_sum "Si O2"
_cell_formula_units_Z 56
_cell_length_a 20.606222
_cell_length_b 9.088871
_cell_length_c 15.771608
_cell_angle_alpha 90.000000
_cell_angle_beta 90.000000
_cell_angle_gamma 90.000000
_cell_volume 2953.821777
_symmetry_space_group_name_H-M "P N M A"
_symmetry_group_IT_number 62
_symmetry_cell_setting 'orthorhombic'
loop_
_space_group_symop_operation_xyz
x,y,z
1/2-x,-y,1/2+z
1/2+x,1/2-y,1/2-z
-x,1/2+y,-z
-x,-y,-z
1/2+x,y,1/2-z
1/2-x,1/2+y,1/2+z
x,1/2-y,z
loop_
_atom_site_type_symbol
_atom_site_label
_atom_site_fract_x
_atom_site_fract_y
_atom_site_fract_z
Si Si1 0.833836 0.428182 0.813576
Si Si2 0.690238 0.572564 0.505143
Si Si3 0.096494 0.085202 0.473493
Si Si4 0.295973 0.426388 0.872098
Si Si5 0.458395 0.414215 0.118269
Si Si6 0.443366 0.919488 0.449543
Si Si7 0.517949 0.918548 0.274766
O O1 0.833841 0.250000 0.814959
O O2 0.796525 0.472414 0.727324
O O3 0.909981 0.471213 0.802668
O O4 0.805838 0.473500 0.905250
O O5 0.692587 0.750000 0.508827
O O6 0.743546 0.502729 0.567139
O O7 0.621477 0.511760 0.537499
O O8 0.124923 0.250000 0.474107
O O9 0.023647 0.096568 0.438196
O O10 0.135785 0.978271 0.411762
O O11 0.091211 0.016476 0.566877
O O12 0.289309 0.250000 0.875810
O O13 0.432098 0.250000 0.129615
O O14 0.484232 0.483599 0.204263
O O15 0.434015 0.750000 0.477532
O O16 0.469955 0.915963 0.354230
O O17 0.500000 0.000000 0.500000
O O18 0.525924 0.750000 0.243097
#
# Coordination Sequence:
#
# PCOD9463552 Si02
#       7
#     8   8   8   8   8   8   8
#     4   9  19  38  64  87 114 156 199 239 299 367
#     4  11  23  43  64  88 121 160 202 251 309 368
#     4  10  20  35  56  84 118 158 195 241 301 356
#     4  11  22  40  64  89 118 158 208 255 300 362
#     4  10  20  33  54  87 120 152 197 248 295 346
#     4  11  22  38  62  91 121 154 195 248 308 363
#     4  10  19  36  60  86 116 155 195 237 300 366
#
# _framework density 18.958490000000001
#
# number of rings (size 3 to 8) (size 9 to 14) (size 15 to 20)
#    0.000    1.714    2.857    2.143    0.000    2.286 
#    2.571    2.857    0.000    0.000    0.000    0.000 
#    0.000    0.000    0.000    0.000    0.000    0.000 
#
# Total GULP energy -312360.170594 kJ/mol
# GULP energy per Si atom -5577.860189 kJ/mol
# Density = 1.891534 g / cm^3
# Si number density = 18.958490 Si / 1000 Ang^3
#
#
#
# Elastic Constant Matrix: (Units=GPa)
#
#
# Indices 1 2 3 4 5 6 
#
# 1 43.7977 17.8006 36.6901 0.0000 0.0000 0.0000
# 2 17.8006 94.3147 51.5864 0.0000 0.0000 0.0000
# 3 36.6901 51.5864 135.7363 0.0000 0.0000 0.0000
# 4 0.0000 0.0000 0.0000 26.6903 0.0000 0.0000
# 5 0.0000 0.0000 0.0000 0.0000 28.6511 0.0000
# 6 0.0000 0.0000 0.0000 0.0000 0.0000 31.7542
#
#
#
# Elastic Compliance Matrix: (Units=1/GPa)
#
#
# Indices 1 2 3 4 5 6 
#
# 1 0.029690 -0.001533 -0.007443 0.000000 0.000000 0.000000
# 2 -0.001533 0.013464 -0.004703 0.000000 0.000000 0.000000
# 3 -0.007443 -0.004703 0.011166 0.000000 0.000000 0.000000
# 4 0.000000 0.000000 0.000000 0.037467 0.000000 0.000000
# 5 0.000000 0.000000 0.000000 0.000000 0.034903 0.000000
# 6 0.000000 0.000000 0.000000 0.000000 0.000000 0.031492
#
#
# Mechanical properties :
#
#
# Convention : Reuss Voigt Hill
#
# Bulk Modulus (GPa) = 37.08630 54.00036 45.54333
# Shear Modulus (GPa) = 25.70337 28.60390 27.15364
#
# Velocity S-wave (km/s) = 3.68607 3.88850 3.78864
# Velocity P-wave (km/s) = 6.14170 6.97896 6.57367
#
# Compressibility (1/GPa) = 0.02696414
#
# Stress axis : x y z
#
# Youngs Moduli (GPa) = 33.68114 74.27040 89.55456
#
# Poissons Ratio (x) = 0.11383 0.66655
# Poissons Ratio (y) = 0.05162 0.42116
# Poissons Ratio (z) = 0.25069 0.34928
#
# Static dielectric constant tensor:
#      x y z
#    x 1.618350 0.000000 0.000000 
#    y 0.000000 1.668320 0.000000 
#    z 0.000000 0.000000 1.736760 
# 
# From -- ./inp_files/20378.got.cif
#   From: 2010.05.17/outbox.cif.g08.bks.cpg/sg62_11_cif.got.tgz:20378.got - 2010.06.03 15:25:27.
