data_PCOD9463424
_publ_section_title
;
Structure prediction by ZEFSAII (Michael W. Deem and Ramdas Pophale) SiO2 
 PCOD9463424
Probable space group: P N M A
;
_chemical_formula_sum "Si O2"
_cell_formula_units_Z 48
_cell_length_a 14.521228
_cell_length_b 8.981786
_cell_length_c 20.434990
_cell_angle_alpha 90.000000
_cell_angle_beta 90.000000
_cell_angle_gamma 90.000000
_cell_volume 2665.265497
_symmetry_space_group_name_H-M "P N M A"
_symmetry_group_IT_number 62
_symmetry_cell_setting 'orthorhombic'
loop_
_space_group_symop_operation_xyz
x,y,z
1/2-x,-y,1/2+z
1/2+x,1/2-y,1/2-z
-x,1/2+y,-z
-x,-y,-z
1/2+x,y,1/2-z
1/2-x,1/2+y,1/2+z
x,1/2-y,z
loop_
_atom_site_type_symbol
_atom_site_label
_atom_site_fract_x
_atom_site_fract_y
_atom_site_fract_z
Si Si1 0.669273 0.572526 0.080507
Si Si2 0.218287 0.572032 0.566719
Si Si3 0.984853 0.427839 0.380285
Si Si4 0.518509 0.573282 0.725623
Si Si5 0.840687 0.426913 0.826625
Si Si6 0.233210 0.572186 0.795057
O O1 0.670484 0.750000 0.090385
O O2 0.564224 0.515287 0.082034
O O3 0.721714 0.491890 0.139443
O O4 0.714150 0.539602 0.010278
O O5 0.230623 0.750000 0.575776
O O6 0.295954 0.486565 0.606675
O O7 0.117823 0.533977 0.596433
O O8 0.997092 0.250000 0.389714
O O9 0.994089 0.459338 0.302875
O O10 0.501965 0.750000 0.716933
O O11 0.444588 0.482482 0.684390
O O12 0.624152 0.542310 0.707509
O O13 0.835683 0.250000 0.823232
O O14 0.781829 0.498375 0.767387
O O15 0.247205 0.750000 0.791530
#
# Coordination Sequence:
#
# PCOD9463424 Si02
#       6
#     8   8   8   8   8   8
#     4  11  23  37  58  90 123 154 192 244 296 343
#     4  10  22  41  60  83 121 161 197 236 289 352
#     4  10  19  35  60  86 117 158 196 234 286 351
#     4  10  21  38  62  87 113 153 199 239 284 344
#     4  12  24  37  60  90 119 150 193 247 293 341
#     4  11  22  40  63  84 116 159 199 237 285 351
#
# _framework density 18.009461999999999
#
# number of rings (size 3 to 8) (size 9 to 14) (size 15 to 20)
#    0.000    1.333    3.333    3.000    0.000    3.333 
#    0.000    0.833    0.000    0.000    0.000    0.000 
#    0.000    0.000    0.000    0.000    0.000    0.000 
#
# Total GULP energy -268347.628824 kJ/mol
# GULP energy per Si atom -5590.575601 kJ/mol
# Density = 1.796847 g / cm^3
# Si number density = 18.009462 Si / 1000 Ang^3
#
#
#
# Elastic Constant Matrix: (Units=GPa)
#
#
# Indices 1 2 3 4 5 6 
#
# 1 54.6293 26.9498 3.7084 0.0000 0.0000 0.0000
# 2 26.9498 43.1777 15.9858 0.0000 0.0000 0.0000
# 3 3.7084 15.9858 38.0700 0.0000 0.0000 0.0000
# 4 0.0000 0.0000 0.0000 27.0832 0.0000 0.0000
# 5 0.0000 0.0000 0.0000 0.0000 29.2491 0.0000
# 6 0.0000 0.0000 0.0000 0.0000 0.0000 5.7296
#
#
#
# Elastic Compliance Matrix: (Units=1/GPa)
#
#
# Indices 1 2 3 4 5 6 
#
# 1 0.027333 -0.019033 0.005330 0.000000 0.000000 0.000000
# 2 -0.019033 0.040677 -0.015227 0.000000 0.000000 0.000000
# 3 0.005330 -0.015227 0.032142 0.000000 0.000000 0.000000
# 4 0.000000 0.000000 0.000000 0.036923 0.000000 0.000000
# 5 0.000000 0.000000 0.000000 0.000000 0.034189 0.000000
# 6 0.000000 0.000000 0.000000 0.000000 0.000000 0.174533
#
#
# Mechanical properties :
#
#
# Convention : Reuss Voigt Hill
#
# Bulk Modulus (GPa) = 23.64529 25.46278 24.55404
# Shear Modulus (GPa) = 11.96872 18.36123 15.16497
#
# Velocity S-wave (km/s) = 2.58074 3.19648 2.90497
# Velocity P-wave (km/s) = 4.69448 5.27186 4.99153
#
# Compressibility (1/GPa) = 0.04229172
#
# Stress axis : x y z
#
# Youngs Moduli (GPa) = 36.58587 24.58369 31.11198
#
# Poissons Ratio (x) = 0.46791 -0.16582
# Poissons Ratio (y) = 0.69635 0.47373
# Poissons Ratio (z) = -0.19499 0.37433
#
# Static dielectric constant tensor:
#      x y z
#    x 1.603350 0.000000 0.000000 
#    y 0.000000 1.598210 0.000000 
#    z 0.000000 0.000000 1.598910 
# 
# From -- ./inp_files/23681.got.cif
#   From: 2010.05.17/outbox.cif.g08.bks.cpg/sg62_12_cif.got.tgz:23681.got - 2010.06.03 15:25:27.
