data_PCOD9463765
_publ_section_title
;
Structure prediction by ZEFSAII (Michael W. Deem and Ramdas Pophale) SiO2 
 PCOD9463765
Probable space group: P N M A
;
_chemical_formula_sum "Si O2"
_cell_formula_units_Z 64
_cell_length_a 7.376614
_cell_length_b 31.676751
_cell_length_c 11.443456
_cell_angle_alpha 90.000000
_cell_angle_beta 90.000000
_cell_angle_gamma 90.000000
_cell_volume 2673.959920
_symmetry_space_group_name_H-M "P N M A"
_symmetry_group_IT_number 62
_symmetry_cell_setting 'orthorhombic'
loop_
_space_group_symop_operation_xyz
x,y,z
1/2-x,-y,1/2+z
1/2+x,1/2-y,1/2-z
-x,1/2+y,-z
-x,-y,-z
1/2+x,y,1/2-z
1/2-x,1/2+y,1/2+z
x,1/2-y,z
loop_
_atom_site_type_symbol
_atom_site_label
_atom_site_fract_x
_atom_site_fract_y
_atom_site_fract_z
Si Si1 0.616859 0.702331 0.947412
Si Si2 0.160731 0.883000 0.118175
Si Si3 0.506858 0.472186 0.700157
Si Si4 0.702606 0.058812 0.342121
Si Si5 0.018643 0.200760 0.209199
Si Si6 0.858637 0.112906 0.128101
Si Si7 0.366964 0.449843 0.925731
Si Si8 0.765817 0.857433 0.137079
O O1 0.589363 0.750000 0.985540
O O2 0.465444 0.692938 0.849191
O O3 0.797943 0.699412 0.866364
O O4 0.652029 0.675562 0.062502
O O5 0.094884 0.929735 0.157120
O O6 0.265273 0.859768 0.222033
O O7 0.975827 0.856302 0.101327
O O8 0.252882 0.886879 0.992328
O O9 0.396755 0.515048 0.684864
O O10 0.527009 0.463996 0.839741
O O11 0.690380 0.474690 0.625029
O O12 0.770853 0.085248 0.231108
O O13 0.548286 0.088601 0.398585
O O14 0.861767 0.048906 0.434984
O O15 0.950475 0.250000 0.197646
O O16 0.906111 0.160188 0.166677
O O17 0.322799 0.401778 0.896464
#
# Coordination Sequence:
#
# PCOD9463765 Si02
#       8
#     8   8   8   8   8   8   8   8
#     4  10  20  38  65  94 129 163 203 253 314 374
#     4  10  22  40  66  83 126 161 211 251 316 370
#     4  10  21  37  62  84 117 167 202 253 312 356
#     4  12  24  39  62  88 127 156 207 265 301 369
#     4  10  20  37  64  92 126 164 198 251 313 369
#     4  12  23  42  59  98 119 164 204 261 311 367
#     4  10  20  39  59  82 118 161 205 251 304 366
#     4  10  19  42  60  88 115 167 205 254 303 372
#
# _framework density 23.934540999999999
#
# number of rings (size 3 to 8) (size 9 to 14) (size 15 to 20)
#    0.000    1.500    3.750    2.625    1.750    0.000 
#   13.500    2.500    0.000    0.000    0.000    0.000 
#    0.000    0.000    0.000    0.000    0.000    0.000 
#
# Total GULP energy -357751.925267 kJ/mol
# GULP energy per Si atom -5589.873832 kJ/mol
# Density = 2.388006 g / cm^3
# Si number density = 23.934541 Si / 1000 Ang^3
#
#
#
# Elastic Constant Matrix: (Units=GPa)
#
#
# Indices 1 2 3 4 5 6 
#
# 1 44.2628 11.8225 16.8873 0.0000 0.0000 0.0000
# 2 11.8225 103.5499 42.0356 0.0000 0.0000 0.0000
# 3 16.8873 42.0356 181.6054 0.0000 0.0000 0.0000
# 4 0.0000 0.0000 0.0000 17.1850 0.0000 0.0000
# 5 0.0000 0.0000 0.0000 0.0000 28.8241 0.0000
# 6 0.0000 0.0000 0.0000 0.0000 0.0000 22.5490
#
#
#
# Elastic Compliance Matrix: (Units=1/GPa)
#
#
# Indices 1 2 3 4 5 6 
#
# 1 0.023795 -0.002007 -0.001748 0.000000 0.000000 0.000000
# 2 -0.002007 0.010828 -0.002320 0.000000 0.000000 0.000000
# 3 -0.001748 -0.002320 0.006206 0.000000 0.000000 0.000000
# 4 0.000000 0.000000 0.000000 0.058190 0.000000 0.000000
# 5 0.000000 0.000000 0.000000 0.000000 0.034693 0.000000
# 6 0.000000 0.000000 0.000000 0.000000 0.000000 0.044348
#
#
# Mechanical properties :
#
#
# Convention : Reuss Voigt Hill
#
# Bulk Modulus (GPa) = 34.86818 52.32322 43.59570
# Shear Modulus (GPa) = 25.02875 30.95648 27.99261
#
# Velocity S-wave (km/s) = 3.23726 3.60026 3.42358
# Velocity P-wave (km/s) = 5.34536 6.26027 5.82082
#
# Compressibility (1/GPa) = 0.02867944
#
# Stress axis : x y z
#
# Youngs Moduli (GPa) = 42.02495 92.35318 161.13630
#
# Poissons Ratio (x) = 0.18537 0.28169
# Poissons Ratio (y) = 0.08435 0.37378
# Poissons Ratio (z) = 0.07346 0.21423
#
# Static dielectric constant tensor:
#      x y z
#    x 2.046230 0.000000 0.000000 
#    y 0.000000 1.864470 0.000000 
#    z 0.000000 0.000000 2.012100 
# 
# From -- ./inp_files/11543.got.cif
#   From: 2010.05.17/outbox.cif.g08.bks.cpg/sg62_6_cif.got.tgz:11543.got - 2010.06.03 15:25:27.
