data_PCOD9463443
_publ_section_title
;
Structure prediction by ZEFSAII (Michael W. Deem and Ramdas Pophale) SiO2 
 PCOD9463443
Probable space group: P N M A
;
_chemical_formula_sum "Si O2"
_cell_formula_units_Z 64
_cell_length_a 16.525994
_cell_length_b 8.656111
_cell_length_c 22.902944
_cell_angle_alpha 90.000000
_cell_angle_beta 90.000000
_cell_angle_gamma 90.000000
_cell_volume 3276.285342
_symmetry_space_group_name_H-M "P N M A"
_symmetry_group_IT_number 62
_symmetry_cell_setting 'orthorhombic'
loop_
_space_group_symop_operation_xyz
x,y,z
1/2-x,-y,1/2+z
1/2+x,1/2-y,1/2-z
-x,1/2+y,-z
-x,-y,-z
1/2+x,y,1/2-z
1/2-x,1/2+y,1/2+z
x,1/2-y,z
loop_
_atom_site_type_symbol
_atom_site_label
_atom_site_fract_x
_atom_site_fract_y
_atom_site_fract_z
Si Si1 0.930530 0.065154 0.456726
Si Si2 0.813708 0.569938 0.843498
Si Si3 0.252032 0.932136 0.042902
Si Si4 0.186362 0.930244 0.750603
Si Si5 0.378786 0.427697 0.363088
Si Si6 0.588598 0.430316 0.515613
Si Si7 0.454657 0.568365 0.173269
Si Si8 0.035105 0.429823 0.218959
O O1 0.930292 0.250000 0.459498
O O2 0.839495 0.005543 0.472722
O O3 0.949467 0.013709 0.389693
O O4 0.000000 0.000000 0.500000
O O5 0.816336 0.750000 0.863775
O O6 0.763434 0.472786 0.889444
O O7 0.771023 0.565389 0.781237
O O8 0.901803 0.507138 0.828656
O O9 0.256680 0.750000 0.032738
O O10 0.169016 0.996700 0.013985
O O11 0.158733 0.750000 0.747238
O O12 0.192712 0.971778 0.818711
O O13 0.125879 0.029019 0.710743
O O14 0.369912 0.250000 0.384244
O O15 0.396406 0.538170 0.416173
O O16 0.451942 0.432891 0.316942
O O17 0.500000 0.500000 0.500000
O O18 0.586063 0.250000 0.500992
O O19 0.461307 0.750000 0.163337
O O20 0.523625 0.511038 0.218807
O O21 0.056364 0.250000 0.229165
#
# Coordination Sequence:
#
# PCOD9463443 Si02
#       8
#     8   8   8   8   8   8   8   8
#     4  12  25  45  69  93 124 166 217 271 327 385
#     4  10  19  35  61  91 121 158 203 252 308 371
#     4  12  25  42  66  97 129 170 219 269 322 385
#     4   9  18  34  59  85 116 156 194 243 304 364
#     4   9  18  35  56  82 119 161 202 248 306 373
#     4  12  25  42  64  92 128 173 217 269 325 385
#     4  11  21  36  59  88 121 159 202 251 308 370
#     4   9  19  35  58  88 122 160 201 248 308 372
#
# _framework density 19.534320000000001
#
# number of rings (size 3 to 8) (size 9 to 14) (size 15 to 20)
#    0.000    1.500    1.250    6.000    0.000    3.500 
#    2.250    0.000    0.000    0.000    0.000    0.000 
#    0.000    0.000    0.000    0.000    0.000    0.000 
#
# Total GULP energy -356776.839305 kJ/mol
# GULP energy per Si atom -5574.638114 kJ/mol
# Density = 1.948986 g / cm^3
# Si number density = 19.534320 Si / 1000 Ang^3
#
#
#
# Elastic Constant Matrix: (Units=GPa)
#
#
# Indices 1 2 3 4 5 6 
#
# 1 87.1228 40.0224 26.9345 0.0000 0.0000 0.0000
# 2 40.0224 126.5071 29.9232 0.0000 0.0000 0.0000
# 3 26.9345 29.9232 75.3185 0.0000 0.0000 0.0000
# 4 0.0000 0.0000 0.0000 31.4712 0.0000 0.0000
# 5 0.0000 0.0000 0.0000 0.0000 25.9069 0.0000
# 6 0.0000 0.0000 0.0000 0.0000 0.0000 24.9496
#
#
#
# Elastic Compliance Matrix: (Units=1/GPa)
#
#
# Indices 1 2 3 4 5 6 
#
# 1 0.014288 -0.003655 -0.003657 0.000000 0.000000 0.000000
# 2 -0.003655 0.009660 -0.002531 0.000000 0.000000 0.000000
# 3 -0.003657 -0.002531 0.015590 0.000000 0.000000 0.000000
# 4 0.000000 0.000000 0.000000 0.031775 0.000000 0.000000
# 5 0.000000 0.000000 0.000000 0.000000 0.038600 0.000000
# 6 0.000000 0.000000 0.000000 0.000000 0.000000 0.040081
#
#
# Mechanical properties :
#
#
# Convention : Reuss Voigt Hill
#
# Bulk Modulus (GPa) = 50.37356 53.63429 52.00392
# Shear Modulus (GPa) = 28.36133 29.27009 28.81571
#
# Velocity S-wave (km/s) = 3.81448 3.87511 3.84491
# Velocity P-wave (km/s) = 6.72633 6.89478 6.81108
#
# Compressibility (1/GPa) = 0.01985168
#
# Stress axis : x y z
#
# Youngs Moduli (GPa) = 69.98977 103.52398 64.14287
#
# Poissons Ratio (x) = 0.37839 0.23459
# Poissons Ratio (y) = 0.25582 0.16232
# Poissons Ratio (z) = 0.25597 0.26197
#
# Static dielectric constant tensor:
#      x y z
#    x 1.756580 0.000000 0.000000 
#    y 0.000000 1.685980 0.000000 
#    z 0.000000 0.000000 1.724420 
# 
# From -- ./inp_files/27752.got.cif
#   From: 2010.05.17/outbox.cif.g08.bks.cpg/sg62_14_cif.got.tgz:27752.got - 2010.06.03 15:25:27.
