data_PCOD9463069
_publ_section_title
;
Structure prediction by ZEFSAII (Michael W. Deem and Ramdas Pophale) SiO2 
 PCOD9463069
Probable space group: P N M A
;
_chemical_formula_sum "Si O2"
_cell_formula_units_Z 40
_cell_length_a 7.692828
_cell_length_b 8.428287
_cell_length_c 26.617473
_cell_angle_alpha 90.000000
_cell_angle_beta 90.000000
_cell_angle_gamma 90.000000
_cell_volume 1725.806738
_symmetry_space_group_name_H-M "P N M A"
_symmetry_group_IT_number 62
_symmetry_cell_setting 'orthorhombic'
loop_
_space_group_symop_operation_xyz
x,y,z
1/2-x,-y,1/2+z
1/2+x,1/2-y,1/2-z
-x,1/2+y,-z
-x,-y,-z
1/2+x,y,1/2-z
1/2-x,1/2+y,1/2+z
x,1/2-y,z
loop_
_atom_site_type_symbol
_atom_site_label
_atom_site_fract_x
_atom_site_fract_y
_atom_site_fract_z
Si Si1 0.183216 0.435480 0.582182
Si Si2 0.916742 0.561330 0.121243
Si Si3 0.892230 0.067338 0.317570
Si Si4 0.043967 0.563681 0.224056
Si Si5 0.309625 0.559135 0.482506
O O1 0.142763 0.250000 0.581910
O O2 0.384423 0.457035 0.600851
O O3 0.071432 0.519642 0.625229
O O4 0.180572 0.499380 0.525598
O O5 0.884978 0.750000 0.125751
O O6 0.920580 0.501051 0.178481
O O7 0.797140 0.501986 0.075415
O O8 0.838408 0.250000 0.316473
O O9 0.735799 0.956747 0.298127
O O10 0.033844 0.032682 0.275374
O O11 0.010025 0.750000 0.232875
O O12 0.500000 0.500000 0.500000
O O13 0.308058 0.750000 0.482317
#
# Coordination Sequence:
#
# PCOD9463069 Si02
#       5
#     8   8   8   8   8
#     4   9  16  27  41  61  89 123 157 192 236 288
#     4   7  13  24  40  61  87 117 152 189 231 279
#     4  11  21  33  49  73 100 128 163 206 246 285
#     4  10  19  34  52  71  97 132 166 199 240 292
#     4   9  14  22  37  60  88 118 150 190 236 284
#
# _framework density 23.177568000000001
#
# number of rings (size 3 to 8) (size 9 to 14) (size 15 to 20)
#    0.000    2.800    0.000    6.000    0.000    0.000 
#    0.000    3.000    0.000    0.000    0.000    1.400 
#    0.000    0.000    0.000    0.000    0.000    0.000 
#
# Total GULP energy -223091.714115 kJ/mol
# GULP energy per Si atom -5577.292853 kJ/mol
# Density = 2.312481 g / cm^3
# Si number density = 23.177568 Si / 1000 Ang^3
#
#
#
# Elastic Constant Matrix: (Units=GPa)
#
#
# Indices 1 2 3 4 5 6 
#
# 1 18.7520 3.8168 111.7289 0.0000 0.0000 0.0000
# 2 3.8168 72.9139 39.8520 0.0000 0.0000 0.0000
# 3 111.7289 39.8520 -60.5233 0.0000 0.0000 0.0000
# 4 0.0000 0.0000 0.0000 32.8727 0.0000 0.0000
# 5 0.0000 0.0000 0.0000 0.0000 24.7549 0.0000
# 6 0.0000 0.0000 0.0000 0.0000 0.0000 0.5527
#
#
#
# Elastic Compliance Matrix: (Units=1/GPa)
#
#
# Indices 1 2 3 4 5 6 
#
# 1 0.006075 -0.004741 0.008093 0.000000 0.000000 0.000000
# 2 -0.004741 0.013785 0.000325 0.000000 0.000000 0.000000
# 3 0.008093 0.000325 -0.001369 0.000000 0.000000 0.000000
# 4 0.000000 0.000000 0.000000 0.030420 0.000000 0.000000
# 5 0.000000 0.000000 0.000000 0.000000 0.040396 0.000000
# 6 0.000000 0.000000 0.000000 0.000000 0.000000 1.809288
#
#
# Mechanical properties :
#
#
# Convention : Reuss Voigt Hill
#
# Bulk Modulus (GPa) = 38.69431 37.99310 38.34371
# Shear Modulus (GPa) = 2.63178 3.35240 2.99209
#
# Velocity S-wave (km/s) = 1.06675 1.20397 1.13743
# Velocity P-wave (km/s) = 4.27179 4.28491 4.27836
#
# Compressibility (1/GPa) = 0.02584359
#
# Stress axis : x y z
#
# Youngs Moduli (GPa) = 164.61315 72.54018 -730.28729
#
# Poissons Ratio (x) = 0.34392 5.90994
# Poissons Ratio (y) = 0.78045 0.23720
# Poissons Ratio (z) = -1.33215 -0.02356
#
# Static dielectric constant tensor:
#      x y z
#    x 1.988010 0.000000 0.000000 
#    y 0.000000 1.777110 0.000000 
#    z 0.000000 0.000000 1.982260 
# 
# From -- ./inp_files/30670.got.cif
#   From: 2010.05.17/outbox.cif.g08.bks.cpg/sg62_16_cif.got.tgz:30670.got - 2010.06.03 15:25:27.
