data_PCOD9463066
_publ_section_title
;
Structure prediction by ZEFSAII (Michael W. Deem and Ramdas Pophale) SiO2 
 PCOD9463066
Probable space group: P N M A
;
_chemical_formula_sum "Si O2"
_cell_formula_units_Z 48
_cell_length_a 6.755135
_cell_length_b 7.823195
_cell_length_c 33.893019
_cell_angle_alpha 90.000000
_cell_angle_beta 90.000000
_cell_angle_gamma 90.000000
_cell_volume 1791.135507
_symmetry_space_group_name_H-M "P N M A"
_symmetry_group_IT_number 62
_symmetry_cell_setting 'orthorhombic'
loop_
_space_group_symop_operation_xyz
x,y,z
1/2-x,-y,1/2+z
1/2+x,1/2-y,1/2-z
-x,1/2+y,-z
-x,-y,-z
1/2+x,y,1/2-z
1/2-x,1/2+y,1/2+z
x,1/2-y,z
loop_
_atom_site_type_symbol
_atom_site_label
_atom_site_fract_x
_atom_site_fract_y
_atom_site_fract_z
Si Si1 0.872971 0.453349 0.115003
Si Si2 0.908189 0.043209 0.362933
Si Si3 0.224765 0.956512 0.968725
Si Si4 0.825845 0.455014 0.447417
Si Si5 0.088524 0.056798 0.802716
Si Si6 0.497097 0.941609 0.780411
O O1 0.906430 0.250000 0.113728
O O2 0.639835 0.483969 0.124993
O O3 0.893617 0.518456 0.070102
O O4 0.989079 0.518771 0.153506
O O5 0.881271 0.250000 0.359566
O O6 0.794920 0.982294 0.402448
O O7 0.888508 0.976280 0.317850
O O8 0.218068 0.750000 0.967762
O O9 0.452031 0.012295 0.959399
O O10 0.193821 0.007944 0.014117
O O11 0.828435 0.250000 0.444033
O O12 0.162285 0.250000 0.803534
O O13 0.274684 0.934176 0.796411
O O14 0.974639 0.032636 0.761662
O O15 0.575007 0.750000 0.774033
#
# Coordination Sequence:
#
# PCOD9463066 Si02
#       6
#     8   8   8   8   8   8
#     4   8  14  26  40  54  78 115 151 178 214 269
#     4   7  12  23  39  56  76 107 147 182 211 258
#     4   8  13  20  31  49  74 105 141 175 207 255
#     4   8  12  19  31  49  74 103 135 173 215 254
#     4  11  21  32  47  71  97 118 150 199 242 269
#     4  10  19  34  52  67  89 126 162 187 225 283
#
# _framework density 26.798645
#
# number of rings (size 3 to 8) (size 9 to 14) (size 15 to 20)
#    0.000    3.333    0.000    5.000    0.000    0.667 
#    0.000    9.167    0.000    0.000    0.000    0.000 
#    0.000    1.333    0.000    4.000    0.000   11.833 
#
# Total GULP energy -267865.145294 kJ/mol
# GULP energy per Si atom -5580.523860 kJ/mol
# Density = 2.673765 g / cm^3
# Si number density = 26.798645 Si / 1000 Ang^3
#
#
#
# Elastic Constant Matrix: (Units=GPa)
#
#
# Indices 1 2 3 4 5 6 
#
# 1 67.0750 -9.2512 73.8869 0.0000 0.0000 0.0000
# 2 -9.2512 57.4474 34.2404 0.0000 0.0000 0.0000
# 3 73.8869 34.2404 375.0689 0.0000 0.0000 0.0000
# 4 0.0000 0.0000 0.0000 23.2722 0.0000 0.0000
# 5 0.0000 0.0000 0.0000 0.0000 70.2253 0.0000
# 6 0.0000 0.0000 0.0000 0.0000 0.0000 -14.2861
#
#
#
# Elastic Compliance Matrix: (Units=1/GPa)
#
#
# Indices 1 2 3 4 5 6 
#
# 1 0.020917 0.006159 -0.004683 0.000000 0.000000 0.000000
# 2 0.006159 0.020223 -0.003060 0.000000 0.000000 0.000000
# 3 -0.004683 -0.003060 0.003868 0.000000 0.000000 0.000000
# 4 0.000000 0.000000 0.000000 0.042970 0.000000 0.000000
# 5 0.000000 0.000000 0.000000 0.000000 0.014240 0.000000
# 6 0.000000 0.000000 0.000000 0.000000 0.000000 -0.069998
#
#
# Mechanical properties :
#
#
# Convention : Reuss Voigt Hill
#
# Bulk Modulus (GPa) = 23.89972 77.48260 50.69116
# Shear Modulus (GPa) = 101.35520 42.55664 71.95592
#
# Velocity S-wave (km/s) = 6.15655 3.98931 5.18738
# Velocity P-wave (km/s) = 7.71201 7.08485 7.40507
#
# Compressibility (1/GPa) = 0.04184149
#
# Stress axis : x y z
#
# Youngs Moduli (GPa) = 47.80902 49.44939 258.53365
#
# Poissons Ratio (x) = -0.30458 1.21065
# Poissons Ratio (y) = -0.29448 0.79099
# Poissons Ratio (z) = 0.22388 0.15129
#
# Static dielectric constant tensor:
#      x y z
#    x 2.241450 0.000000 0.000000 
#    y 0.000000 1.965220 0.000000 
#    z 0.000000 0.000000 2.187650 
# 
# From -- ./inp_files/32344.got.cif
#   From: 2010.05.17/outbox.cif.g08.bks.cpg/sg62_17_cif.got.tgz:32344.got - 2010.06.03 15:25:27.
