data_PCOD9463937
_publ_section_title
;
Structure prediction by ZEFSAII (Michael W. Deem and Ramdas Pophale) SiO2 
 PCOD9463937
Probable space group: P N M A
;
_chemical_formula_sum "Si O2"
_cell_formula_units_Z 56
_cell_length_a 22.156388
_cell_length_b 7.506693
_cell_length_c 15.057901
_cell_angle_alpha 90.000000
_cell_angle_beta 90.000000
_cell_angle_gamma 90.000000
_cell_volume 2504.448205
_symmetry_space_group_name_H-M "P N M A"
_symmetry_group_IT_number 62
_symmetry_cell_setting 'orthorhombic'
loop_
_space_group_symop_operation_xyz
x,y,z
1/2-x,-y,1/2+z
1/2+x,1/2-y,1/2-z
-x,1/2+y,-z
-x,-y,-z
1/2+x,y,1/2-z
1/2-x,1/2+y,1/2+z
x,1/2-y,z
loop_
_atom_site_type_symbol
_atom_site_label
_atom_site_fract_x
_atom_site_fract_y
_atom_site_fract_z
Si Si1 0.454093 0.967465 0.625992
Si Si2 0.587892 0.536839 0.642904
Si Si3 0.428751 0.964159 0.991022
Si Si4 0.771974 0.034699 0.817830
Si Si5 0.615049 0.461402 0.199179
Si Si6 0.863931 0.536564 0.331541
Si Si7 0.659343 0.547635 0.488862
O O1 0.451272 0.750000 0.620666
O O2 0.522348 0.028300 0.612687
O O3 0.430222 0.023797 0.723353
O O4 0.406472 0.046000 0.557327
O O5 0.588203 0.750000 0.630238
O O6 0.595531 0.502686 0.746475
O O7 0.643856 0.465167 0.584383
O O8 0.421774 0.750000 0.990808
O O9 0.392984 0.032307 0.077414
O O10 0.401322 0.033062 0.897949
O O11 0.500000 0.000000 0.000000
O O12 0.772610 0.250000 0.822089
O O13 0.703609 0.970840 0.810756
O O14 0.798906 0.966846 0.912144
O O15 0.817797 0.989436 0.738274
O O16 0.606292 0.250000 0.194084
O O17 0.859660 0.750000 0.339865
O O18 0.681455 0.750000 0.502715
#
# Coordination Sequence:
#
# PCOD9463937 Si02
#       7
#     8   8   8   8   8   8   8
#     4   9  17  30  49  76 107 132 160 202 249 300
#     4  10  20  33  51  76 103 133 168 206 251 301
#     4  10  21  37  57  81 109 142 180 222 269 319
#     4   9  19  36  53  73 103 135 172 216 260 310
#     4   9  18  33  54  77 102 136 174 213 259 311
#     4  10  22  37  52  73 103 138 174 216 263 308
#     4   9  18  32  52  76 101 132 167 203 247 301
#
# _framework density 22.360216000000001
#
# number of rings (size 3 to 8) (size 9 to 14) (size 15 to 20)
#    0.000    2.571    0.000    1.286    0.000    5.143 
#    0.000    5.714    0.000    0.000    0.000    0.000 
#    0.000    0.000    0.000    0.000    0.000    0.000 
#
# Total GULP energy -312564.343844 kJ/mol
# GULP energy per Si atom -5581.506140 kJ/mol
# Density = 2.230932 g / cm^3
# Si number density = 22.360216 Si / 1000 Ang^3
#
#
#
# Elastic Constant Matrix: (Units=GPa)
#
#
# Indices 1 2 3 4 5 6 
#
# 1 64.9843 -13.5346 -5.0985 0.0000 0.0000 0.0000
# 2 -13.5346 60.8640 -2.9750 0.0000 0.0000 0.0000
# 3 -5.0985 -2.9750 104.7388 0.0000 0.0000 0.0000
# 4 0.0000 0.0000 0.0000 12.8770 0.0000 0.0000
# 5 0.0000 0.0000 0.0000 0.0000 13.1653 0.0000
# 6 0.0000 0.0000 0.0000 0.0000 0.0000 16.4685
#
#
#
# Elastic Compliance Matrix: (Units=1/GPa)
#
#
# Indices 1 2 3 4 5 6 
#
# 1 0.016219 0.003650 0.000893 0.000000 0.000000 0.000000
# 2 0.003650 0.017274 0.000668 0.000000 0.000000 0.000000
# 3 0.000893 0.000668 0.009610 0.000000 0.000000 0.000000
# 4 0.000000 0.000000 0.000000 0.077658 0.000000 0.000000
# 5 0.000000 0.000000 0.000000 0.000000 0.075957 0.000000
# 6 0.000000 0.000000 0.000000 0.000000 0.000000 0.060722
#
#
# Mechanical properties :
#
#
# Convention : Reuss Voigt Hill
#
# Bulk Modulus (GPa) = 18.68224 20.81899 19.75062
# Shear Modulus (GPa) = 18.87801 25.31519 22.09660
#
# Velocity S-wave (km/s) = 2.90878 3.36840 3.14699
# Velocity P-wave (km/s) = 4.43335 4.94561 4.69647
#
# Compressibility (1/GPa) = 0.05352676
#
# Stress axis : x y z
#
# Youngs Moduli (GPa) = 61.65734 57.88890 104.05802
#
# Poissons Ratio (x) = -0.21131 -0.09294
# Poissons Ratio (y) = -0.22507 -0.06955
# Poissons Ratio (z) = -0.05507 -0.03869
#
# Static dielectric constant tensor:
#      x y z
#    x 1.802680 0.000000 0.000000 
#    y 0.000000 1.892780 0.000000 
#    z 0.000000 0.000000 1.862260 
# 
# From -- ./inp_files/20423.got.cif
#   From: 2010.05.17/outbox.cif.g08.bks.cpg/sg62_11_cif.got.tgz:20423.got - 2010.06.03 15:25:27.
