data_PCOD9463093
_publ_section_title
;
Structure prediction by ZEFSAII (Michael W. Deem and Ramdas Pophale) SiO2 
 PCOD9463093
Probable space group: P N M A
;
_chemical_formula_sum "Si O2"
_cell_formula_units_Z 48
_cell_length_a 5.075273
_cell_length_b 14.938624
_cell_length_c 35.154084
_cell_angle_alpha 90.000000
_cell_angle_beta 90.000000
_cell_angle_gamma 90.000000
_cell_volume 2665.298105
_symmetry_space_group_name_H-M "P N M A"
_symmetry_group_IT_number 62
_symmetry_cell_setting 'orthorhombic'
loop_
_space_group_symop_operation_xyz
x,y,z
1/2-x,-y,1/2+z
1/2+x,1/2-y,1/2-z
-x,1/2+y,-z
-x,-y,-z
1/2+x,y,1/2-z
1/2-x,1/2+y,1/2+z
x,1/2-y,z
loop_
_atom_site_type_symbol
_atom_site_label
_atom_site_fract_x
_atom_site_fract_y
_atom_site_fract_z
Si Si1 0.482524 0.041063 0.041803
Si Si2 0.019119 0.643450 0.925776
Si Si3 0.084558 0.452471 0.773934
Si Si4 0.945181 0.978207 0.855577
Si Si5 0.623787 0.250000 0.697596
Si Si6 0.445047 0.432688 0.885818
Si Si7 0.876676 0.750000 0.351417
O O1 0.214416 0.092915 0.051801
O O2 0.715284 0.108408 0.054241
O O3 0.510376 0.958417 0.070866
O O4 0.500000 0.000000 0.000000
O O5 0.995307 0.750000 0.927279
O O6 0.007686 0.608352 0.881753
O O7 0.876527 0.471455 0.740721
O O8 0.012035 0.510109 0.811249
O O9 0.067010 0.345216 0.782466
O O10 0.639197 0.001472 0.862168
O O11 0.142880 0.051178 0.874585
O O12 0.423485 0.250000 0.661964
O O13 0.929171 0.250000 0.685232
O O14 0.544759 0.336178 0.874952
#
# Coordination Sequence:
#
# PCOD9463093 Si02
#       7
#     8   8   8   8   4   8   4
#     4  10  21  38  61  86 123 146 179 228 291 328
#     4  10  21  39  65  87 110 148 195 233 270 333
#     4  12  22  34  50  75 108 143 181 230 285 332
#     4  10  20  37  55  76 104 143 186 226 275 327
#     4  12  22  33  50  72 110 146 190 230 264 328
#     4  10  19  34  54  75 103 151 182 220 263 324
#     4  12  18  33  52  72 108 144 194 218 256 326
#
# _framework density 18.009243000000001
#
# number of rings (size 3 to 8) (size 9 to 14) (size 15 to 20)
#    0.000    1.333    3.333    3.500    0.000    0.000 
#    3.000    0.000    0.000    1.000    0.000    0.000 
#    0.000    0.000    0.000    0.000    0.000    0.000 
#
# Total GULP energy -267795.806769 kJ/mol
# GULP energy per Si atom -5579.079308 kJ/mol
# Density = 1.796825 g / cm^3
# Si number density = 18.009243 Si / 1000 Ang^3
#
#
#
# Elastic Constant Matrix: (Units=GPa)
#
#
# Indices 1 2 3 4 5 6 
#
# 1 61.8933 -9.3658 -3.3600 0.0000 0.0000 0.0000
# 2 -9.3658 51.0526 26.4477 0.0000 0.0000 0.0000
# 3 -3.3600 26.4477 100.2236 0.0000 0.0000 0.0000
# 4 0.0000 0.0000 0.0000 13.0276 0.0000 0.0000
# 5 0.0000 0.0000 0.0000 0.0000 20.3625 0.0000
# 6 0.0000 0.0000 0.0000 0.0000 0.0000 10.7779
#
#
#
# Elastic Compliance Matrix: (Units=1/GPa)
#
#
# Indices 1 2 3 4 5 6 
#
# 1 0.016625 0.003198 -0.000287 0.000000 0.000000 0.000000
# 2 0.003198 0.023305 -0.006043 0.000000 0.000000 0.000000
# 3 -0.000287 -0.006043 0.011563 0.000000 0.000000 0.000000
# 4 0.000000 0.000000 0.000000 0.076760 0.000000 0.000000
# 5 0.000000 0.000000 0.000000 0.000000 0.049110 0.000000
# 6 0.000000 0.000000 0.000000 0.000000 0.000000 0.092783
#
#
# Mechanical properties :
#
#
# Convention : Reuss Voigt Hill
#
# Bulk Modulus (GPa) = 22.10867 26.73480 24.42174
# Shear Modulus (GPa) = 17.15359 22.13010 19.64184
#
# Velocity S-wave (km/s) = 3.08959 3.50925 3.30609
# Velocity P-wave (km/s) = 5.00303 5.59438 5.30695
#
# Compressibility (1/GPa) = 0.04523112
#
# Stress axis : x y z
#
# Youngs Moduli (GPa) = 60.14939 42.90965 86.48548
#
# Poissons Ratio (x) = -0.13725 0.02479
# Poissons Ratio (y) = -0.19239 0.52260
# Poissons Ratio (z) = 0.01724 0.25929
#
# Static dielectric constant tensor:
#      x y z
#    x 1.624100 0.000000 0.000000 
#    y 0.000000 1.564570 0.000000 
#    z 0.000000 0.000000 1.625600 
# 
# From -- ./inp_files/31587.got.cif
#   From: 2010.05.17/outbox.cif.g08.bks.cpg/sg62_16_cif.got.tgz:31587.got - 2010.06.03 15:25:27.
