data_PCOD9463454
_publ_section_title
;
Structure prediction by ZEFSAII (Michael W. Deem and Ramdas Pophale) SiO2 
 PCOD9463454
Probable space group: P N M A
;
_chemical_formula_sum "Si O2"
_cell_formula_units_Z 32
_cell_length_a 10.980180
_cell_length_b 5.276040
_cell_length_c 30.506231
_cell_angle_alpha 90.000000
_cell_angle_beta 90.000000
_cell_angle_gamma 90.000000
_cell_volume 1767.282975
_symmetry_space_group_name_H-M "P N M A"
_symmetry_group_IT_number 62
_symmetry_cell_setting 'orthorhombic'
loop_
_space_group_symop_operation_xyz
x,y,z
1/2-x,-y,1/2+z
1/2+x,1/2-y,1/2-z
-x,1/2+y,-z
-x,-y,-z
1/2+x,y,1/2-z
1/2-x,1/2+y,1/2+z
x,1/2-y,z
loop_
_atom_site_type_symbol
_atom_site_label
_atom_site_fract_x
_atom_site_fract_y
_atom_site_fract_z
Si Si1 0.433942 0.750000 0.681550
Si Si2 0.699009 0.750000 0.638699
Si Si3 0.886349 0.750000 0.347275
Si Si4 0.329623 0.250000 0.826370
Si Si5 0.280879 0.250000 0.110719
Si Si6 0.870488 0.250000 0.037052
Si Si7 0.158367 0.250000 0.017832
Si Si8 0.672664 0.750000 0.276709
O O1 0.571127 0.750000 0.664653
O O2 0.343104 0.750000 0.639718
O O3 0.401832 0.499885 0.709232
O O4 0.772347 0.499691 0.652104
O O5 0.671141 0.750000 0.587068
O O6 0.853498 0.500383 0.375079
O O7 0.796641 0.750000 0.305175
O O8 0.025489 0.750000 0.332898
O O9 0.302057 0.250000 0.774625
O O10 0.244407 0.250000 0.060046
O O11 0.018018 0.250000 0.034647
O O12 0.826617 0.499944 0.011529
#
# Coordination Sequence:
#
# PCOD9463454 Si02
#       8
#     4   4   4   4   4   4   4   4
#     4  10  21  38  62  89 119 151 197 251 302 361
#     4  12  24  40  62  91 127 163 190 252 313 360
#     4  10  23  39  61  85 120 159 207 248 285 366
#     4  12  26  41  61  87 122 172 200 245 303 358
#     4  10  19  39  63  88 117 156 198 249 305 345
#     4  10  21  35  58  93 128 148 193 251 308 371
#     4  10  19  35  62  92 120 154 192 251 309 358
#     4  10  23  41  61  87 115 155 207 257 289 345
#
# _framework density 18.106892999999999
#
# number of rings (size 3 to 8) (size 9 to 14) (size 15 to 20)
#    0.000    1.500    1.250    3.750    3.500    0.000 
#    0.000    0.000    0.000   15.000    0.000    0.000 
#    0.000    0.000    0.000    0.000    0.000    0.000 
#
# Total GULP energy -178904.366231 kJ/mol
# GULP energy per Si atom -5590.761445 kJ/mol
# Density = 1.806568 g / cm^3
# Si number density = 18.106893 Si / 1000 Ang^3
#
#
#
# Elastic Constant Matrix: (Units=GPa)
#
#
# Indices 1 2 3 4 5 6 
#
# 1 100.5545 68.4556 57.5255 0.0000 0.0000 0.0000
# 2 68.4556 208.8407 99.3719 0.0000 0.0000 0.0000
# 3 57.5255 99.3719 185.8149 0.0000 0.0000 0.0000
# 4 0.0000 0.0000 0.0000 11.7448 0.0000 0.0000
# 5 0.0000 0.0000 0.0000 0.0000 18.6214 0.0000
# 6 0.0000 0.0000 0.0000 0.0000 0.0000 13.2637
#
#
#
# Elastic Compliance Matrix: (Units=1/GPa)
#
#
# Indices 1 2 3 4 5 6 
#
# 1 0.013583 -0.003288 -0.002447 0.000000 0.000000 0.000000
# 2 -0.003288 0.007219 -0.002843 0.000000 0.000000 0.000000
# 3 -0.002447 -0.002843 0.007659 0.000000 0.000000 0.000000
# 4 0.000000 0.000000 0.000000 0.085144 0.000000 0.000000
# 5 0.000000 0.000000 0.000000 0.000000 0.053702 0.000000
# 6 0.000000 0.000000 0.000000 0.000000 0.000000 0.075394
#
#
# Mechanical properties :
#
#
# Convention : Reuss Voigt Hill
#
# Bulk Modulus (GPa) = 88.44551 105.10178 96.77365
# Shear Modulus (GPa) = 18.96642 26.71646 22.84144
#
# Velocity S-wave (km/s) = 3.23997 3.84537 3.55558
# Velocity P-wave (km/s) = 7.93404 8.82536 8.39154
#
# Compressibility (1/GPa) = 0.01130640
#
# Stress axis : x y z
#
# Youngs Moduli (GPa) = 73.62098 138.52869 130.56057
#
# Poissons Ratio (x) = 0.45551 0.31943
# Poissons Ratio (y) = 0.24208 0.37112
# Poissons Ratio (z) = 0.18012 0.39377
#
# Static dielectric constant tensor:
#      x y z
#    x 1.591140 0.000000 0.000000 
#    y 0.000000 1.601110 0.000000 
#    z 0.000000 0.000000 1.582600 
# 
# From -- ./inp_files/30616.got.cif
#   From: 2010.05.17/outbox.cif.g08.bks.cpg/sg62_16_cif.got.tgz:30616.got - 2010.06.03 15:25:27.
