data_PCOD9463085
_publ_section_title
;
Structure prediction by ZEFSAII (Michael W. Deem and Ramdas Pophale) SiO2 
 PCOD9463085
Probable space group: P N M A
;
_chemical_formula_sum "Si O2"
_cell_formula_units_Z 64
_cell_length_a 11.277008
_cell_length_b 27.454748
_cell_length_c 8.653325
_cell_angle_alpha 90.000000
_cell_angle_beta 90.000000
_cell_angle_gamma 90.000000
_cell_volume 2679.133566
_symmetry_space_group_name_H-M "P N M A"
_symmetry_group_IT_number 62
_symmetry_cell_setting 'orthorhombic'
loop_
_space_group_symop_operation_xyz
x,y,z
1/2-x,-y,1/2+z
1/2+x,1/2-y,1/2-z
-x,1/2+y,-z
-x,-y,-z
1/2+x,y,1/2-z
1/2-x,1/2+y,1/2+z
x,1/2-y,z
loop_
_atom_site_type_symbol
_atom_site_label
_atom_site_fract_x
_atom_site_fract_y
_atom_site_fract_z
Si Si1 0.382463 0.195268 0.096931
Si Si2 0.083143 0.861421 0.909052
Si Si3 0.749705 0.873675 0.318656
Si Si4 0.971999 0.945743 0.708701
Si Si5 0.635258 0.306343 0.569992
Si Si6 0.774936 0.954861 0.915385
Si Si7 0.074336 0.896021 0.431172
Si Si8 0.884927 0.532254 0.242682
O O1 0.424837 0.250000 0.078577
O O2 0.402070 0.175790 0.268143
O O3 0.451635 0.158823 0.981820
O O4 0.243204 0.193846 0.053261
O O5 0.052893 0.913158 0.824778
O O6 0.202385 0.863993 0.010748
O O7 0.972061 0.840887 0.011008
O O8 0.799153 0.827701 0.222982
O O9 0.854918 0.912800 0.290852
O O10 0.627462 0.895322 0.240302
O O11 0.991060 0.931365 0.532245
O O12 0.843344 0.934646 0.769227
O O13 0.992399 0.003357 0.734816
O O14 0.595952 0.250000 0.590911
O O15 0.695717 0.911950 0.981403
O O16 0.699179 0.999284 0.850266
O O17 0.853334 0.971027 0.061256
#
# Coordination Sequence:
#
# PCOD9463085 Si02
#       8
#     8   8   8   8   8   8   8   8
#     4   9  18  35  60  86 112 146 193 246 293 348
#     4  11  21  37  63  92 117 153 200 248 300 354
#     4  10  21  38  56  83 123 154 189 240 292 350
#     4  10  19  34  57  80 110 153 196 241 292 346
#     4  10  22  41  62  85 118 157 194 240 300 358
#     4  10  19  34  53  76 111 146 188 241 289 343
#     4   8  18  35  52  77 110 148 186 227 285 350
#     4  10  20  34  53  81 111 147 192 235 287 351
#
# _framework density 23.888321000000001
#
# number of rings (size 3 to 8) (size 9 to 14) (size 15 to 20)
#    0.000    2.250    0.000    3.750    0.000    2.000 
#    0.000   15.625    0.000    0.000    0.000    0.000 
#    0.000    0.000    0.000    0.000    0.000    0.000 
#
# Total GULP energy -357394.459618 kJ/mol
# GULP energy per Si atom -5584.288432 kJ/mol
# Density = 2.383395 g / cm^3
# Si number density = 23.888321 Si / 1000 Ang^3
#
#
#
# Elastic Constant Matrix: (Units=GPa)
#
#
# Indices 1 2 3 4 5 6 
#
# 1 30.4747 -5.2182 16.3498 0.0000 0.0000 0.0000
# 2 -5.2182 117.4891 26.2532 0.0000 0.0000 0.0000
# 3 16.3498 26.2532 74.3117 0.0000 0.0000 0.0000
# 4 0.0000 0.0000 0.0000 25.8414 0.0000 0.0000
# 5 0.0000 0.0000 0.0000 0.0000 39.7650 0.0000
# 6 0.0000 0.0000 0.0000 0.0000 0.0000 28.2105
#
#
#
# Elastic Compliance Matrix: (Units=1/GPa)
#
#
# Indices 1 2 3 4 5 6 
#
# 1 0.038819 0.003944 -0.009934 0.000000 0.000000 0.000000
# 2 0.003944 0.009642 -0.004274 0.000000 0.000000 0.000000
# 3 -0.009934 -0.004274 0.017152 0.000000 0.000000 0.000000
# 4 0.000000 0.000000 0.000000 0.038698 0.000000 0.000000
# 5 0.000000 0.000000 0.000000 0.000000 0.025148 0.000000
# 6 0.000000 0.000000 0.000000 0.000000 0.000000 0.035448
#
#
# Mechanical properties :
#
#
# Convention : Reuss Voigt Hill
#
# Bulk Modulus (GPa) = 22.18046 33.00502 27.59274
# Shear Modulus (GPa) = 24.94229 31.08946 28.01587
#
# Velocity S-wave (km/s) = 3.23479 3.61148 3.42831
# Velocity P-wave (km/s) = 4.82256 5.58898 5.21985
#
# Compressibility (1/GPa) = 0.04508473
#
# Stress axis : x y z
#
# Youngs Moduli (GPa) = 25.76052 103.71705 58.30081
#
# Poissons Ratio (x) = -0.40905 0.57917
# Poissons Ratio (y) = -0.10160 0.24918
# Poissons Ratio (z) = 0.25591 0.44328
#
# Static dielectric constant tensor:
#      x y z
#    x 2.095980 0.000000 0.000000 
#    y 0.000000 1.996180 0.000000 
#    z 0.000000 0.000000 1.894740 
# 
# From -- ./inp_files/5527.got.cif
#   From: 2010.05.17/outbox.cif.g08.bks.cpg/sg62_3_cif.got.tgz:5527.got - 2010.06.03 15:25:27.
