data_PCOD9463567
_publ_section_title
;
Structure prediction by ZEFSAII (Michael W. Deem and Ramdas Pophale) SiO2 
 PCOD9463567
Probable space group: P N M A
;
_chemical_formula_sum "Si O2"
_cell_formula_units_Z 64
_cell_length_a 14.977926
_cell_length_b 8.788652
_cell_length_c 25.143492
_cell_angle_alpha 90.000000
_cell_angle_beta 90.000000
_cell_angle_gamma 90.000000
_cell_volume 3309.783164
_symmetry_space_group_name_H-M "P N M A"
_symmetry_group_IT_number 62
_symmetry_cell_setting 'orthorhombic'
loop_
_space_group_symop_operation_xyz
x,y,z
1/2-x,-y,1/2+z
1/2+x,1/2-y,1/2-z
-x,1/2+y,-z
-x,-y,-z
1/2+x,y,1/2-z
1/2-x,1/2+y,1/2+z
x,1/2-y,z
loop_
_atom_site_type_symbol
_atom_site_label
_atom_site_fract_x
_atom_site_fract_y
_atom_site_fract_z
Si Si1 0.334819 0.570218 0.733165
Si Si2 0.743328 0.566586 0.058333
Si Si3 0.935115 0.573223 0.364861
Si Si4 0.905411 0.567305 0.481416
Si Si5 0.871515 0.431168 0.256792
Si Si6 0.134771 0.573803 0.341980
Si Si7 0.994607 0.067500 0.830641
Si Si8 0.949200 0.933617 0.050652
O O1 0.336027 0.750000 0.722959
O O2 0.231915 0.518584 0.738255
O O3 0.373801 0.531115 0.791002
O O4 0.398886 0.489598 0.690758
O O5 0.735151 0.750000 0.054288
O O6 0.713249 0.527408 0.118367
O O7 0.845025 0.522526 0.048395
O O8 0.674314 0.491463 0.017974
O O9 0.912116 0.750000 0.353608
O O10 0.890195 0.523573 0.419691
O O11 0.913036 0.475511 0.313508
O O12 0.041776 0.568456 0.373631
O O13 0.910997 0.750000 0.483498
O O14 0.000000 0.500000 0.500000
O O15 0.873313 0.250000 0.248827
O O16 0.928858 0.506158 0.209489
O O17 0.147692 0.750000 0.324844
O O18 0.997144 0.250000 0.828325
O O19 0.012620 0.019194 0.891547
O O20 0.954021 0.750000 0.048715
O O21 0.000000 0.000000 0.000000
#
# Coordination Sequence:
#
# PCOD9463567 Si02
#       8
#     8   8   8   8   8   8   8   8
#     4  11  24  39  59  91 126 160 199 248 306 359
#     4  10  21  40  63  89 121 159 204 253 305 359
#     4  10  21  37  58  85 119 159 198 242 295 354
#     4  11  22  37  58  87 122 159 199 245 296 356
#     4  11  24  40  60  90 126 161 198 247 305 360
#     4  10  19  36  61  87 118 158 202 247 296 356
#     4  11  23  42  67  92 119 161 208 249 300 360
#     4  10  24  44  67  91 120 159 203 254 305 356
#
# _framework density 19.336614000000001
#
# number of rings (size 3 to 8) (size 9 to 14) (size 15 to 20)
#    0.000    1.500    2.500    2.250    0.000    7.000 
#    0.000    5.000    0.000    0.000    0.000    0.000 
#    0.000    0.000    0.000    0.000    0.000    0.000 
#
# Total GULP energy -357485.772404 kJ/mol
# GULP energy per Si atom -5585.715194 kJ/mol
# Density = 1.929260 g / cm^3
# Si number density = 19.336614 Si / 1000 Ang^3
#
#
#
# Elastic Constant Matrix: (Units=GPa)
#
#
# Indices 1 2 3 4 5 6 
#
# 1 97.4484 28.5417 55.5712 0.0000 0.0000 0.0000
# 2 28.5417 32.1468 33.6453 0.0000 0.0000 0.0000
# 3 55.5712 33.6453 137.1926 0.0000 0.0000 0.0000
# 4 0.0000 0.0000 0.0000 31.6094 0.0000 0.0000
# 5 0.0000 0.0000 0.0000 0.0000 33.3478 0.0000
# 6 0.0000 0.0000 0.0000 0.0000 0.0000 26.5853
#
#
#
# Elastic Compliance Matrix: (Units=1/GPa)
#
#
# Indices 1 2 3 4 5 6 
#
# 1 0.015237 -0.009509 -0.003840 0.000000 0.000000 0.000000
# 2 -0.009509 0.047783 -0.007867 0.000000 0.000000 0.000000
# 3 -0.003840 -0.007867 0.010774 0.000000 0.000000 0.000000
# 4 0.000000 0.000000 0.000000 0.031636 0.000000 0.000000
# 5 0.000000 0.000000 0.000000 0.000000 0.029987 0.000000
# 6 0.000000 0.000000 0.000000 0.000000 0.000000 0.037615
#
#
# Mechanical properties :
#
#
# Convention : Reuss Voigt Hill
#
# Bulk Modulus (GPa) = 31.88526 55.81157 43.84842
# Shear Modulus (GPa) = 22.13204 28.24383 25.18794
#
# Velocity S-wave (km/s) = 3.38681 3.82598 3.61308
# Velocity P-wave (km/s) = 5.64087 6.96012 6.33493
#
# Compressibility (1/GPa) = 0.03136245
#
# Stress axis : x y z
#
# Youngs Moduli (GPa) = 65.63132 20.92775 92.81999
#
# Poissons Ratio (x) = 0.19901 0.35640
# Poissons Ratio (y) = 0.62410 0.73018
# Poissons Ratio (z) = 0.25200 0.16463
#
# Static dielectric constant tensor:
#      x y z
#    x 1.719430 0.000000 0.000000 
#    y 0.000000 1.663600 0.000000 
#    z 0.000000 0.000000 1.657720 
# 
# From -- ./inp_files/29933.got.cif
#   From: 2010.05.17/outbox.cif.g08.bks.cpg/sg62_15_cif.got.tgz:29933.got - 2010.06.03 15:25:27.
