data_PCOD9463303
_publ_section_title
;
Structure prediction by ZEFSAII (Michael W. Deem and Ramdas Pophale) SiO2 
 PCOD9463303
Probable space group: P N M A
;
_chemical_formula_sum "Si O2"
_cell_formula_units_Z 32
_cell_length_a 16.321119
_cell_length_b 14.871235
_cell_length_c 5.758003
_cell_angle_alpha 90.000000
_cell_angle_beta 90.000000
_cell_angle_gamma 90.000000
_cell_volume 1397.554827
_symmetry_space_group_name_H-M "P N M A"
_symmetry_group_IT_number 62
_symmetry_cell_setting 'orthorhombic'
loop_
_space_group_symop_operation_xyz
x,y,z
1/2-x,-y,1/2+z
1/2+x,1/2-y,1/2-z
-x,1/2+y,-z
-x,-y,-z
1/2+x,y,1/2-z
1/2-x,1/2+y,1/2+z
x,1/2-y,z
loop_
_atom_site_type_symbol
_atom_site_label
_atom_site_fract_x
_atom_site_fract_y
_atom_site_fract_z
Si Si1 0.066116 0.998026 0.699675
Si Si2 0.743010 0.082549 0.831325
Si Si3 0.517349 0.350885 0.435191
Si Si4 0.697072 0.108831 0.321286
O O1 0.056234 0.897623 0.797910
O O2 0.158088 0.026094 0.649458
O O3 0.000000 0.000000 0.500000
O O4 0.035137 0.077854 0.864896
O O5 0.735539 0.130887 0.578561
O O6 0.808404 0.001259 0.830443
O O7 0.743964 0.132424 0.080675
O O8 0.499671 0.250000 0.509954
O O9 0.605325 0.352385 0.303529
#
# Coordination Sequence:
#
# PCOD9463303 Si02
#       4
#     8   8   8   8
#     4  10  19  35  56  81 110 151 191 231 288 340
#     4   9  17  31  55  79 106 140 187 223 277 336
#     4  10  21  35  54  82 114 148 192 238 284 340
#     4   9  17  32  52  80 106 142 182 230 275 335
#
# _framework density 22.897133
#
# number of rings (size 3 to 8) (size 9 to 14) (size 15 to 20)
#    0.000    2.500    2.500    0.000    0.000    1.000 
#    0.000    1.250    0.000    0.000    0.000    0.000 
#    0.000    0.000    0.000    0.000    0.000    0.000 
#
# Total GULP energy -178161.382347 kJ/mol
# GULP energy per Si atom -5567.543198 kJ/mol
# Density = 2.284502 g / cm^3
# Si number density = 22.897133 Si / 1000 Ang^3
#
#
#
# Elastic Constant Matrix: (Units=GPa)
#
#
# Indices 1 2 3 4 5 6 
#
# 1 59.1867 24.4602 8.3154 0.0000 0.0000 0.0000
# 2 24.4602 112.0868 17.5712 0.0000 0.0000 0.0000
# 3 8.3154 17.5712 156.6628 0.0000 0.0000 0.0000
# 4 0.0000 0.0000 0.0000 -1.8102 0.0000 0.0000
# 5 0.0000 0.0000 0.0000 0.0000 33.3691 0.0000
# 6 0.0000 0.0000 0.0000 0.0000 0.0000 8.0370
#
#
#
# Elastic Compliance Matrix: (Units=1/GPa)
#
#
# Indices 1 2 3 4 5 6 
#
# 1 0.018616 -0.003977 -0.000542 0.000000 0.000000 0.000000
# 2 -0.003977 0.009931 -0.000903 0.000000 0.000000 0.000000
# 3 -0.000542 -0.000903 0.006513 0.000000 0.000000 0.000000
# 4 0.000000 0.000000 0.000000 -0.552428 0.000000 0.000000
# 5 0.000000 0.000000 0.000000 0.000000 0.029968 0.000000
# 6 0.000000 0.000000 0.000000 0.000000 0.000000 0.124425
#
#
# Mechanical properties :
#
#
# Convention : Reuss Voigt Hill
#
# Bulk Modulus (GPa) = 41.29574 47.62553 44.46064
# Shear Modulus (GPa) = -14.53239 26.42516 5.94638
#
# Velocity S-wave (km/s) = -2.52202 3.40086 1.61327
# Velocity P-wave (km/s) = 3.09737 6.02213 4.78852
#
# Compressibility (1/GPa) = 0.02421557
#
# Stress axis : x y z
#
# Youngs Moduli (GPa) = 53.71846 100.69329 153.53544
#
# Poissons Ratio (x) = 0.40050 0.08321
# Poissons Ratio (y) = 0.21366 0.13860
# Poissons Ratio (z) = 0.02911 0.09090
#
# Static dielectric constant tensor:
#      x y z
#    x 1.958980 0.000000 0.000000 
#    y 0.000000 1.798030 0.000000 
#    z 0.000000 0.000000 2.034580 
# 
# From -- ./inp_files/1440.got.cif
#   From: 2010.05.17/outbox.cif.g08.bks.cpg/sg62_1_cif.got.tgz:1440.got - 2010.06.03 15:25:27.
