data_PCOD9463095
_publ_section_title
;
Structure prediction by ZEFSAII (Michael W. Deem and Ramdas Pophale) SiO2 
 PCOD9463095
Probable space group: P N M A
;
_chemical_formula_sum "Si O2"
_cell_formula_units_Z 64
_cell_length_a 11.704698
_cell_length_b 14.054468
_cell_length_c 23.024796
_cell_angle_alpha 90.000000
_cell_angle_beta 90.000000
_cell_angle_gamma 90.000000
_cell_volume 3787.655004
_symmetry_space_group_name_H-M "P N M A"
_symmetry_group_IT_number 62
_symmetry_cell_setting 'orthorhombic'
loop_
_space_group_symop_operation_xyz
x,y,z
1/2-x,-y,1/2+z
1/2+x,1/2-y,1/2-z
-x,1/2+y,-z
-x,-y,-z
1/2+x,y,1/2-z
1/2-x,1/2+y,1/2+z
x,1/2-y,z
loop_
_atom_site_type_symbol
_atom_site_label
_atom_site_fract_x
_atom_site_fract_y
_atom_site_fract_z
Si Si1 0.659863 0.362354 0.857255
Si Si2 0.036779 0.965924 0.418256
Si Si3 0.417806 0.362145 0.038610
Si Si4 0.907456 0.456697 0.859325
Si Si5 0.074852 0.360541 0.772083
Si Si6 0.843107 0.860857 0.920531
Si Si7 0.068211 0.139534 0.952003
Si Si8 0.225267 0.857946 0.361711
O O1 0.662614 0.250000 0.868848
O O2 0.583983 0.416766 0.904287
O O3 0.786928 0.403357 0.855137
O O4 0.598071 0.377175 0.795203
O O5 0.082791 0.916736 0.477032
O O6 0.127182 0.934816 0.369710
O O7 0.011497 0.077315 0.425750
O O8 0.442568 0.250000 0.031475
O O9 0.292669 0.370259 0.067423
O O10 0.883279 0.567379 0.870908
O O11 0.984860 0.428127 0.804224
O O12 0.976243 0.419365 0.915923
O O13 0.037600 0.250000 0.780671
O O14 0.196054 0.369473 0.805328
O O15 0.866320 0.750000 0.908118
O O16 0.905457 0.885872 0.981613
O O17 0.032360 0.250000 0.950691
O O18 0.185879 0.134518 0.915260
O O19 0.176638 0.750000 0.362068
#
# Coordination Sequence:
#
# PCOD9463095 Si02
#       8
#     8   8   8   8   8   8   8   8
#     4  11  22  33  50  81 109 135 168 215 269 311
#     4  11  20  32  54  78 102 137 178 211 253 306
#     4  10  20  35  51  75 110 140 173 212 256 318
#     4  11  20  35  52  78 108 138 175 218 260 308
#     4   9  21  36  53  76 107 142 169 211 266 318
#     4  10  19  34  54  76 104 142 184 213 253 311
#     4   9  17  31  53  77 104 139 170 208 256 312
#     4   9  16  30  51  74 101 139 177 208 250 312
#
# _framework density 16.896998
#
# number of rings (size 3 to 8) (size 9 to 14) (size 15 to 20)
#    0.000    2.000    2.500    3.375    1.750    0.000 
#    0.000    0.000    0.000    4.500    0.000    0.000 
#    0.000    0.000    0.000    0.000    0.000    0.000 
#
# Total GULP energy -356971.902453 kJ/mol
# GULP energy per Si atom -5577.685976 kJ/mol
# Density = 1.685854 g / cm^3
# Si number density = 16.896998 Si / 1000 Ang^3
#
#
#
# Elastic Constant Matrix: (Units=GPa)
#
#
# Indices 1 2 3 4 5 6 
#
# 1 58.5580 34.1538 6.6470 0.0000 0.0000 0.0000
# 2 34.1538 93.5991 21.9078 0.0000 0.0000 0.0000
# 3 6.6470 21.9078 23.3315 0.0000 0.0000 0.0000
# 4 0.0000 0.0000 0.0000 16.5698 0.0000 0.0000
# 5 0.0000 0.0000 0.0000 0.0000 13.8850 0.0000
# 6 0.0000 0.0000 0.0000 0.0000 0.0000 29.5359
#
#
#
# Elastic Compliance Matrix: (Units=1/GPa)
#
#
# Indices 1 2 3 4 5 6 
#
# 1 0.021741 -0.008310 0.001609 0.000000 0.000000 0.000000
# 2 -0.008310 0.016869 -0.013473 0.000000 0.000000 0.000000
# 3 0.001609 -0.013473 0.055053 0.000000 0.000000 0.000000
# 4 0.000000 0.000000 0.000000 0.060351 0.000000 0.000000
# 5 0.000000 0.000000 0.000000 0.000000 0.072020 0.000000
# 6 0.000000 0.000000 0.000000 0.000000 0.000000 0.033857
#
#
# Mechanical properties :
#
#
# Convention : Reuss Voigt Hill
#
# Bulk Modulus (GPa) = 18.75605 33.43396 26.09500
# Shear Modulus (GPa) = 15.72275 19.51682 17.61979
#
# Velocity S-wave (km/s) = 3.05373 3.40229 3.23271
# Velocity P-wave (km/s) = 4.85366 5.93834 5.42319
#
# Compressibility (1/GPa) = 0.05331613
#
# Stress axis : x y z
#
# Youngs Moduli (GPa) = 45.99577 59.27863 18.16436
#
# Poissons Ratio (x) = 0.49259 -0.02922
# Poissons Ratio (y) = 0.38222 0.24472
# Poissons Ratio (z) = -0.07400 0.79864
#
# Static dielectric constant tensor:
#      x y z
#    x 1.578320 0.000000 0.000000 
#    y 0.000000 1.564830 0.000000 
#    z 0.000000 0.000000 1.585560 
# 
# From -- ./inp_files/29484.got.cif
#   From: 2010.05.17/outbox.cif.g08.bks.cpg/sg62_15_cif.got.tgz:29484.got - 2010.06.03 15:25:27.
