data_PCOD9463355
_publ_section_title
;
Structure prediction by ZEFSAII (Michael W. Deem and Ramdas Pophale) SiO2 
 PCOD9463355
Probable space group: P N M A
;
_chemical_formula_sum "Si O2"
_cell_formula_units_Z 64
_cell_length_a 19.823641
_cell_length_b 8.659942
_cell_length_c 20.375665
_cell_angle_alpha 90.000000
_cell_angle_beta 90.000000
_cell_angle_gamma 90.000000
_cell_volume 3497.922630
_symmetry_space_group_name_H-M "P N M A"
_symmetry_group_IT_number 62
_symmetry_cell_setting 'orthorhombic'
loop_
_space_group_symop_operation_xyz
x,y,z
1/2-x,-y,1/2+z
1/2+x,1/2-y,1/2-z
-x,1/2+y,-z
-x,-y,-z
1/2+x,y,1/2-z
1/2-x,1/2+y,1/2+z
x,1/2-y,z
loop_
_atom_site_type_symbol
_atom_site_label
_atom_site_fract_x
_atom_site_fract_y
_atom_site_fract_z
Si Si1 0.792404 0.935205 0.511487
Si Si2 0.220655 0.434592 0.859812
Si Si3 0.249304 0.934211 0.721812
Si Si4 0.466806 0.063694 0.565486
Si Si5 0.596508 0.564608 0.816491
Si Si6 0.316270 0.436292 0.598273
Si Si7 0.934006 0.064260 0.464158
Si Si8 0.431261 0.563997 0.321916
O O1 0.798013 0.750000 0.511310
O O2 0.742613 0.982646 0.452091
O O3 0.757237 0.989365 0.578523
O O4 0.865749 0.007201 0.499357
O O5 0.222047 0.250000 0.866921
O O6 0.255622 0.485094 0.791999
O O7 0.142111 0.484165 0.850724
O O8 0.251293 0.750000 0.729927
O O9 0.175448 0.977275 0.692637
O O10 0.302631 0.990683 0.668793
O O11 0.468881 0.250000 0.563497
O O12 0.389127 0.016172 0.571453
O O13 0.510371 0.013535 0.628529
O O14 0.500000 0.000000 0.500000
O O15 0.591968 0.750000 0.814501
O O16 0.570295 0.512825 0.887579
O O17 0.561066 0.498200 0.751779
O O18 0.315019 0.250000 0.603836
O O19 0.935423 0.250000 0.465048
O O20 0.000000 0.000000 0.500000
O O21 0.430777 0.750000 0.318920
#
# Coordination Sequence:
#
# PCOD9463355 Si02
#       8
#     8   8   8   8   8   8   8   8
#     4  11  22  37  59  87 115 150 192 237 288 347
#     4  10  20  35  57  85 116 151 190 237 288 341
#     4  10  19  35  58  83 110 144 189 237 284 342
#     4  10  21  37  55  82 117 153 192 235 283 339
#     4   9  19  36  59  83 110 144 188 235 282 338
#     4  10  21  36  57  83 116 152 190 237 287 341
#     4  11  23  41  61  85 114 149 190 239 294 350
#     4   9  19  35  57  84 115 153 196 235 281 340
#
# _framework density 18.296574
#
# number of rings (size 3 to 8) (size 9 to 14) (size 15 to 20)
#    0.000    2.000    1.250    2.250    0.000    3.500 
#    2.250    0.000    0.000    0.000    0.000    0.000 
#    0.000    0.000    0.000    0.000    0.000    0.000 
#
# Total GULP energy -357366.414717 kJ/mol
# GULP energy per Si atom -5583.850230 kJ/mol
# Density = 1.825493 g / cm^3
# Si number density = 18.296574 Si / 1000 Ang^3
#
#
#
# Elastic Constant Matrix: (Units=GPa)
#
#
# Indices 1 2 3 4 5 6 
#
# 1 105.4403 26.1665 51.1988 0.0000 0.0000 0.0000
# 2 26.1665 23.6488 23.4936 0.0000 0.0000 0.0000
# 3 51.1988 23.4936 115.6513 0.0000 0.0000 0.0000
# 4 0.0000 0.0000 0.0000 34.3142 0.0000 0.0000
# 5 0.0000 0.0000 0.0000 0.0000 32.8795 0.0000
# 6 0.0000 0.0000 0.0000 0.0000 0.0000 22.1262
#
#
#
# Elastic Compliance Matrix: (Units=1/GPa)
#
#
# Indices 1 2 3 4 5 6 
#
# 1 0.014366 -0.011999 -0.003922 0.000000 0.000000 0.000000
# 2 -0.011999 0.062999 -0.007486 0.000000 0.000000 0.000000
# 3 -0.003922 -0.007486 0.011904 0.000000 0.000000 0.000000
# 4 0.000000 0.000000 0.000000 0.029142 0.000000 0.000000
# 5 0.000000 0.000000 0.000000 0.000000 0.030414 0.000000
# 6 0.000000 0.000000 0.000000 0.000000 0.000000 0.045195
#
#
# Mechanical properties :
#
#
# Convention : Reuss Voigt Hill
#
# Bulk Modulus (GPa) = 23.55476 49.60647 36.58062
# Shear Modulus (GPa) = 19.60887 27.45608 23.53248
#
# Velocity S-wave (km/s) = 3.27727 3.87798 3.59021
# Velocity P-wave (km/s) = 5.21752 6.87189 6.10104
#
# Compressibility (1/GPa) = 0.04245427
#
# Stress axis : x y z
#
# Youngs Moduli (GPa) = 69.60662 15.87338 84.00683
#
# Poissons Ratio (x) = 0.19047 0.32952
# Poissons Ratio (y) = 0.83522 0.62884
# Poissons Ratio (z) = 0.27303 0.11882
#
# Static dielectric constant tensor:
#      x y z
#    x 1.617370 0.000000 0.000000 
#    y 0.000000 1.617250 0.000000 
#    z 0.000000 0.000000 1.606370 
# 
# From -- ./inp_files/24807.got.cif
#   From: 2010.05.17/outbox.cif.g08.bks.cpg/sg62_13_cif.got.tgz:24807.got - 2010.06.03 15:25:27.
