data_PCOD9463773
_publ_section_title
;
Structure prediction by ZEFSAII (Michael W. Deem and Ramdas Pophale) SiO2 
 PCOD9463773
Probable space group: P N M A
;
_chemical_formula_sum "Si O2"
_cell_formula_units_Z 48
_cell_length_a 13.989091
_cell_length_b 18.627849
_cell_length_c 9.005267
_cell_angle_alpha 90.000000
_cell_angle_beta 90.000000
_cell_angle_gamma 90.000000
_cell_volume 2346.652583
_symmetry_space_group_name_H-M "P N M A"
_symmetry_group_IT_number 62
_symmetry_cell_setting 'orthorhombic'
loop_
_space_group_symop_operation_xyz
x,y,z
1/2-x,-y,1/2+z
1/2+x,1/2-y,1/2-z
-x,1/2+y,-z
-x,-y,-z
1/2+x,y,1/2-z
1/2-x,1/2+y,1/2+z
x,1/2-y,z
loop_
_atom_site_type_symbol
_atom_site_label
_atom_site_fract_x
_atom_site_fract_y
_atom_site_fract_z
Si Si1 0.434657 0.406669 0.364262
Si Si2 0.727116 0.250000 0.845952
Si Si3 0.760581 0.750000 0.695417
Si Si4 0.842440 0.358987 0.646269
Si Si5 0.461769 0.250000 0.262394
Si Si6 0.507234 0.250000 0.919730
Si Si7 0.248752 0.111410 0.163966
Si Si8 0.100887 0.512982 0.168997
O O1 0.475036 0.325398 0.348858
O O2 0.335852 0.409131 0.273273
O O3 0.418640 0.432325 0.533123
O O4 0.507725 0.465262 0.299396
O O5 0.775007 0.317863 0.763923
O O6 0.611872 0.250000 0.847425
O O7 0.752678 0.250000 0.019646
O O8 0.653395 0.750000 0.763349
O O9 0.805867 0.676618 0.753580
O O10 0.790269 0.359070 0.489233
O O11 0.864015 0.439329 0.695547
O O12 0.942692 0.317317 0.629908
O O13 0.511065 0.250000 0.100280
O O14 0.182158 0.044337 0.129943
#
# Coordination Sequence:
#
# PCOD9463773 Si02
#       8
#     8   4   4   8   4   4   8   8
#     4  10  23  43  64  98 129 180 227 270 337 404
#     4  11  26  39  71 102 125 173 235 275 342 395
#     4  10  20  40  67  93 128 169 225 279 325 399
#     4  11  23  45  63  98 139 170 221 292 330 396
#     4  10  19  44  67  88 124 173 226 273 321 398
#     4  11  23  43  69  97 131 175 230 279 336 398
#     4  11  22  41  67  91 133 180 222 271 339 404
#     4  11  25  40  64  99 139 173 218 277 342 401
#
# _framework density 20.454668000000002
#
# number of rings (size 3 to 8) (size 9 to 14) (size 15 to 20)
#    0.000    1.333    3.333    3.500    2.333    5.333 
#    0.000    0.000    0.000    0.000    0.000    0.000 
#    0.000    0.000    0.000    0.000    0.000    0.000 
#
# Total GULP energy -268165.175878 kJ/mol
# GULP energy per Si atom -5586.774497 kJ/mol
# Density = 2.040811 g / cm^3
# Si number density = 20.454668 Si / 1000 Ang^3
#
#
#
# Elastic Constant Matrix: (Units=GPa)
#
#
# Indices 1 2 3 4 5 6 
#
# 1 103.0353 44.6293 21.1007 0.0000 0.0000 0.0000
# 2 44.6293 133.0956 53.5948 0.0000 0.0000 0.0000
# 3 21.1007 53.5948 84.5598 0.0000 0.0000 0.0000
# 4 0.0000 0.0000 0.0000 -377.7392 0.0000 0.0000
# 5 0.0000 0.0000 0.0000 0.0000 22.4599 0.0000
# 6 0.0000 0.0000 0.0000 0.0000 0.0000 -14.2531
#
#
#
# Elastic Compliance Matrix: (Units=1/GPa)
#
#
# Indices 1 2 3 4 5 6 
#
# 1 0.011375 -0.003587 -0.000565 0.000000 0.000000 0.000000
# 2 -0.003587 0.011219 -0.006216 0.000000 0.000000 0.000000
# 3 -0.000565 -0.006216 0.015907 0.000000 0.000000 0.000000
# 4 0.000000 0.000000 0.000000 -0.002647 0.000000 0.000000
# 5 0.000000 0.000000 0.000000 0.000000 0.044524 0.000000
# 6 0.000000 0.000000 0.000000 0.000000 0.000000 -0.070160
#
#
# Mechanical properties :
#
#
# Convention : Reuss Voigt Hill
#
# Bulk Modulus (GPa) = 56.28960 62.14893 59.21926
# Shear Modulus (GPa) = 135.60063 -60.48208 37.55928
#
# Velocity S-wave (km/s) = 8.15090 -5.44362 4.28976
# Velocity P-wave (km/s) = 10.77784 3.01015 7.31781
#
# Compressibility (1/GPa) = 0.01776527
#
# Stress axis : x y z
#
# Youngs Moduli (GPa) = 87.91483 89.13483 62.86712
#
# Poissons Ratio (x) = 0.31968 0.03553
# Poissons Ratio (y) = 0.31531 0.39076
# Poissons Ratio (z) = 0.04969 0.55404
#
# Static dielectric constant tensor:
#      x y z
#    x 1.744370 0.000000 0.000000 
#    y 0.000000 1.752500 0.000000 
#    z 0.000000 0.000000 1.694340 
# 
# From -- ./inp_files/6561.got.cif
#   From: 2010.05.17/outbox.cif.g08.bks.cpg/sg62_4_cif.got.tgz:6561.got - 2010.06.03 15:25:27.
