data_PCOD9463259
_publ_section_title
;
Structure prediction by ZEFSAII (Michael W. Deem and Ramdas Pophale) SiO2 
 PCOD9463259
Probable space group: P N M A
;
_chemical_formula_sum "Si O2"
_cell_formula_units_Z 44
_cell_length_a 13.273283
_cell_length_b 13.344316
_cell_length_c 13.164277
_cell_angle_alpha 90.000000
_cell_angle_beta 90.000000
_cell_angle_gamma 90.000000
_cell_volume 2331.694691
_symmetry_space_group_name_H-M "P N M A"
_symmetry_group_IT_number 62
_symmetry_cell_setting 'orthorhombic'
loop_
_space_group_symop_operation_xyz
x,y,z
1/2-x,-y,1/2+z
1/2+x,1/2-y,1/2-z
-x,1/2+y,-z
-x,-y,-z
1/2+x,y,1/2-z
1/2-x,1/2+y,1/2+z
x,1/2-y,z
loop_
_atom_site_type_symbol
_atom_site_label
_atom_site_fract_x
_atom_site_fract_y
_atom_site_fract_z
Si Si1 0.013429 0.750000 0.551734
Si Si2 0.592288 0.567954 0.823160
Si Si3 0.910392 0.250000 0.662456
Si Si4 0.258982 0.061410 0.579898
Si Si5 0.605175 0.966305 0.242285
Si Si6 0.864709 0.750000 0.372867
Si Si7 0.244718 0.631015 0.849762
O O1 0.030470 0.846703 0.619067
O O2 0.093475 0.750000 0.459580
O O3 0.910129 0.750000 0.488209
O O4 0.674949 0.524381 0.902066
O O5 0.510881 0.487577 0.784282
O O6 0.651817 0.611000 0.726554
O O7 0.868969 0.144526 0.700995
O O8 0.031169 0.250000 0.689187
O O9 0.360084 0.033364 0.640386
O O10 0.204356 0.153761 0.637001
O O11 0.276755 0.096206 0.465096
O O12 0.669166 0.055160 0.190085
O O13 0.268107 0.750000 0.843853
#
# Coordination Sequence:
#
# PCOD9463259 Si02
#       7
#     4   8   4   8   8   4   8
#     4  10  20  33  64  87 121 155 198 260 317 358
#     4  11  22  40  59  92 126 160 210 264 310 377
#     4  10  21  37  61  94 119 161 207 260 314 363
#     4  11  22  39  60  89 126 161 209 257 310 373
#     4  11  24  39  65  91 125 167 212 257 318 375
#     4  10  19  34  61  85 114 154 197 252 305 355
#     4  11  24  39  63  95 125 167 206 257 323 377
#
# _framework density 18.870394999999998
#
# number of rings (size 3 to 8) (size 9 to 14) (size 15 to 20)
#    0.545    0.727    3.636    2.727    1.273    2.909 
#    0.000    0.000    0.000    0.000    0.000    0.000 
#    0.000    0.000    0.000    0.000    0.000    0.000 
#
# Total GULP energy -245241.302153 kJ/mol
# GULP energy per Si atom -5573.665958 kJ/mol
# Density = 1.882745 g / cm^3
# Si number density = 18.870395 Si / 1000 Ang^3
#
#
#
# Elastic Constant Matrix: (Units=GPa)
#
#
# Indices 1 2 3 4 5 6 
#
# 1 58.8048 25.9723 33.4302 0.0000 0.0000 0.0000
# 2 25.9723 128.9756 44.2422 0.0000 0.0000 0.0000
# 3 33.4302 44.2422 86.5319 0.0000 0.0000 0.0000
# 4 0.0000 0.0000 0.0000 29.7226 0.0000 0.0000
# 5 0.0000 0.0000 0.0000 0.0000 23.7256 0.0000
# 6 0.0000 0.0000 0.0000 0.0000 0.0000 -82.3931
#
#
#
# Elastic Compliance Matrix: (Units=1/GPa)
#
#
# Indices 1 2 3 4 5 6 
#
# 1 0.022149 -0.001849 -0.007611 0.000000 0.000000 0.000000
# 2 -0.001849 0.009557 -0.004172 0.000000 0.000000 0.000000
# 3 -0.007611 -0.004172 0.016630 0.000000 0.000000 0.000000
# 4 0.000000 0.000000 0.000000 0.033644 0.000000 0.000000
# 5 0.000000 0.000000 0.000000 0.000000 0.042149 0.000000
# 6 0.000000 0.000000 0.000000 0.000000 0.000000 -0.012137
#
#
# Mechanical properties :
#
#
# Convention : Reuss Voigt Hill
#
# Bulk Modulus (GPa) = 47.45885 53.51130 50.48508
# Shear Modulus (GPa) = 34.18080 5.58886 19.88483
#
# Velocity S-wave (km/s) = 4.26061 1.72283 3.24969
# Velocity P-wave (km/s) = 7.02910 5.69002 6.39471
#
# Compressibility (1/GPa) = 0.02107088
#
# Stress axis : x y z
#
# Youngs Moduli (GPa) = 45.14818 104.63702 60.13243
#
# Poissons Ratio (x) = 0.19351 0.45770
# Poissons Ratio (y) = 0.08349 0.25086
# Poissons Ratio (z) = 0.34364 0.43652
#
# Static dielectric constant tensor:
#      x y z
#    x 1.660970 0.000000 0.000000 
#    y 0.000000 1.696000 0.000000 
#    z 0.000000 0.000000 1.642870 
# 
# From -- ./inp_files/18855.got.cif
#   From: 2010.05.17/outbox.cif.g08.bks.cpg/sg62_10_cif.got.tgz:18855.got - 2010.06.03 15:25:27.
