data_PCOD9463675
_publ_section_title
;
Structure prediction by ZEFSAII (Michael W. Deem and Ramdas Pophale) SiO2 
 PCOD9463675
Probable space group: P N M A
;
_chemical_formula_sum "Si O2"
_cell_formula_units_Z 64
_cell_length_a 9.228105
_cell_length_b 27.713115
_cell_length_c 11.884542
_cell_angle_alpha 90.000000
_cell_angle_beta 90.000000
_cell_angle_gamma 90.000000
_cell_volume 3039.347246
_symmetry_space_group_name_H-M "P N M A"
_symmetry_group_IT_number 62
_symmetry_cell_setting 'orthorhombic'
loop_
_space_group_symop_operation_xyz
x,y,z
1/2-x,-y,1/2+z
1/2+x,1/2-y,1/2-z
-x,1/2+y,-z
-x,-y,-z
1/2+x,y,1/2-z
1/2-x,1/2+y,1/2+z
x,1/2-y,z
loop_
_atom_site_type_symbol
_atom_site_label
_atom_site_fract_x
_atom_site_fract_y
_atom_site_fract_z
Si Si1 0.260308 0.803956 0.069148
Si Si2 0.601700 0.072906 0.320032
Si Si3 0.086766 0.906884 0.615592
Si Si4 0.551215 0.026998 0.663031
Si Si5 0.982872 0.378362 0.967492
Si Si6 0.919138 0.302117 0.470365
Si Si7 0.759863 0.835807 0.176167
Si Si8 0.125603 0.938594 0.363269
O O1 0.197658 0.750000 0.052494
O O2 0.161217 0.847326 0.025526
O O3 0.280215 0.812527 0.202756
O O4 0.413917 0.805673 0.007501
O O5 0.548961 0.084840 0.195283
O O6 0.773771 0.068978 0.326690
O O7 0.553935 0.113181 0.410715
O O8 0.521456 0.024208 0.358584
O O9 0.115175 0.849776 0.600459
O O10 0.078230 0.929038 0.491011
O O11 0.475771 0.068818 0.588734
O O12 0.503910 0.039712 0.790629
O O13 0.724055 0.031016 0.643026
O O14 0.090254 0.349384 0.884406
O O15 0.892802 0.250000 0.415651
O O16 0.828916 0.305056 0.586106
O O17 0.672600 0.886404 0.186409
#
# Coordination Sequence:
#
# PCOD9463675 Si02
#       8
#     8   8   8   8   8   8   8   8
#     4  11  23  37  64 103 131 166 214 264 338 406
#     4  12  25  47  65  93 131 181 228 269 321 390
#     4  11  26  45  65  94 130 173 225 274 326 386
#     4  11  22  42  69  96 134 171 215 276 335 394
#     4  11  23  40  65  95 136 173 213 268 325 394
#     4  10  22  42  64  91 129 166 213 274 328 386
#     4  10  19  37  63  94 134 168 200 264 333 395
#     4  10  22  40  64 100 134 165 216 267 338 389
#
# _framework density 21.057153
#
# number of rings (size 3 to 8) (size 9 to 14) (size 15 to 20)
#    0.000    1.250    5.000    2.250    7.000    2.500 
#    0.000    1.250    0.000    0.000    0.000    0.000 
#    0.000    0.000    0.000    0.000    0.000    0.000 
#
# Total GULP energy -357824.078311 kJ/mol
# GULP energy per Si atom -5591.001224 kJ/mol
# Density = 2.100923 g / cm^3
# Si number density = 21.057153 Si / 1000 Ang^3
#
#
#
# Elastic Constant Matrix: (Units=GPa)
#
#
# Indices 1 2 3 4 5 6 
#
# 1 34.2189 15.4286 22.1508 0.0000 0.0000 0.0000
# 2 15.4286 50.9699 13.4646 0.0000 0.0000 0.0000
# 3 22.1508 13.4646 68.4957 0.0000 0.0000 0.0000
# 4 0.0000 0.0000 0.0000 26.2463 0.0000 0.0000
# 5 0.0000 0.0000 0.0000 0.0000 27.9937 0.0000
# 6 0.0000 0.0000 0.0000 0.0000 0.0000 22.3897
#
#
#
# Elastic Compliance Matrix: (Units=1/GPa)
#
#
# Indices 1 2 3 4 5 6 
#
# 1 0.040787 -0.009347 -0.011353 0.000000 0.000000 0.000000
# 2 -0.009347 0.022836 -0.001466 0.000000 0.000000 0.000000
# 3 -0.011353 -0.001466 0.018559 0.000000 0.000000 0.000000
# 4 0.000000 0.000000 0.000000 0.038101 0.000000 0.000000
# 5 0.000000 0.000000 0.000000 0.000000 0.035722 0.000000
# 6 0.000000 0.000000 0.000000 0.000000 0.000000 0.044663
#
#
# Mechanical properties :
#
#
# Convention : Reuss Voigt Hill
#
# Bulk Modulus (GPa) = 26.42015 28.41917 27.41966
# Shear Modulus (GPa) = 19.40863 22.16862 20.78863
#
# Velocity S-wave (km/s) = 3.03926 3.24818 3.14546
# Velocity P-wave (km/s) = 4.98902 5.25291 5.12266
#
# Compressibility (1/GPa) = 0.03784989
#
# Stress axis : x y z
#
# Youngs Moduli (GPa) = 24.51766 43.79020 53.88223
#
# Poissons Ratio (x) = 0.40932 0.61170
# Poissons Ratio (y) = 0.22917 0.07900
# Poissons Ratio (z) = 0.27834 0.06421
#
# Static dielectric constant tensor:
#      x y z
#    x 1.760410 0.000000 0.000000 
#    y 0.000000 1.793640 0.000000 
#    z 0.000000 0.000000 1.749930 
# 
# From -- ./inp_files/11551.got.cif
#   From: 2010.05.17/outbox.cif.g08.bks.cpg/sg62_6_cif.got.tgz:11551.got - 2010.06.03 15:25:27.
