data_PCOD9463565
_publ_section_title
;
Structure prediction by ZEFSAII (Michael W. Deem and Ramdas Pophale) SiO2 
 PCOD9463565
Probable space group: P N M A
;
_chemical_formula_sum "Si O2"
_cell_formula_units_Z 36
_cell_length_a 11.978782
_cell_length_b 10.339861
_cell_length_c 12.832400
_cell_angle_alpha 90.000000
_cell_angle_beta 90.000000
_cell_angle_gamma 90.000000
_cell_volume 1589.407472
_symmetry_space_group_name_H-M "P N M A"
_symmetry_group_IT_number 62
_symmetry_cell_setting 'orthorhombic'
loop_
_space_group_symop_operation_xyz
x,y,z
1/2-x,-y,1/2+z
1/2+x,1/2-y,1/2-z
-x,1/2+y,-z
-x,-y,-z
1/2+x,y,1/2-z
1/2-x,1/2+y,1/2+z
x,1/2-y,z
loop_
_atom_site_type_symbol
_atom_site_label
_atom_site_fract_x
_atom_site_fract_y
_atom_site_fract_z
Si Si1 0.631675 0.750000 0.365249
Si Si2 0.348439 0.750000 0.057233
Si Si3 0.112736 0.750000 0.459488
Si Si4 0.892979 0.979618 0.574112
Si Si5 0.781620 0.250000 0.321347
Si Si6 0.079832 0.750000 0.890434
Si Si7 0.910387 0.544102 0.810099
O O1 0.765997 0.750000 0.346418
O O2 0.614013 0.750000 0.489646
O O3 0.588566 0.610550 0.326303
O O4 0.482021 0.750000 0.075656
O O5 0.323447 0.625189 0.987260
O O6 0.164694 0.618473 0.417226
O O7 0.128935 0.750000 0.584429
O O8 0.928108 0.932673 0.686890
O O9 0.000000 0.000000 0.500000
O O10 0.704923 0.378758 0.334522
O O11 0.832083 0.250000 0.205256
O O12 0.004769 0.621962 0.871415
#
# Coordination Sequence:
#
# PCOD9463565 Si02
#       7
#     4   4   4   8   4   4   8
#     4  12  24  40  60  91 134 171 204 264 325 383
#     4  10  20  36  60  87 116 156 205 250 308 373
#     4  10  20  36  61  91 119 155 200 267 323 365
#     4  10  19  36  61  87 116 152 201 260 309 361
#     4  11  23  41  67  91 122 166 216 269 324 389
#     4  11  23  43  64  84 123 182 219 244 312 406
#     4  11  24  41  62  95 127 163 216 268 322 386
#
# _framework density 22.64995
#
# number of rings (size 3 to 8) (size 9 to 14) (size 15 to 20)
#    0.000    1.333    0.000    8.000    0.000    1.778 
#    0.000    1.111    0.000    0.000    0.000    0.000 
#    0.000    0.000    0.000    0.000    0.000    0.000 
#
# Total GULP energy -200988.140701 kJ/mol
# GULP energy per Si atom -5583.003908 kJ/mol
# Density = 2.259840 g / cm^3
# Si number density = 22.649950 Si / 1000 Ang^3
#
#
#
# Elastic Constant Matrix: (Units=GPa)
#
#
# Indices 1 2 3 4 5 6 
#
# 1 54.7937 18.2489 10.3327 0.0000 0.0000 0.0000
# 2 18.2489 176.9542 -22.4148 0.0000 0.0000 0.0000
# 3 10.3327 -22.4148 63.8203 0.0000 0.0000 0.0000
# 4 0.0000 0.0000 0.0000 27.8034 0.0000 0.0000
# 5 0.0000 0.0000 0.0000 0.0000 22.9579 0.0000
# 6 0.0000 0.0000 0.0000 0.0000 0.0000 -6.4580
#
#
#
# Elastic Compliance Matrix: (Units=1/GPa)
#
#
# Indices 1 2 3 4 5 6 
#
# 1 0.019885 -0.002573 -0.004123 0.000000 0.000000 0.000000
# 2 -0.002573 0.006247 0.002611 0.000000 0.000000 0.000000
# 3 -0.004123 0.002611 0.017253 0.000000 0.000000 0.000000
# 4 0.000000 0.000000 0.000000 0.035967 0.000000 0.000000
# 5 0.000000 0.000000 0.000000 0.000000 0.043558 0.000000
# 6 0.000000 0.000000 0.000000 0.000000 0.000000 -0.154847
#
#
# Mechanical properties :
#
#
# Convention : Reuss Voigt Hill
#
# Bulk Modulus (GPa) = 28.39715 34.21130 31.30423
# Shear Modulus (GPa) = -415.71447 28.15408 -193.78020
#
# Velocity S-wave (km/s) = -13.56235 3.52946 -9.25959
# Velocity P-wave (km/s) = 15.25402 5.63441 10.02343
#
# Compressibility (1/GPa) = 0.03521480
#
# Stress axis : x y z
#
# Youngs Moduli (GPa) = 50.28991 160.07117 57.95937
#
# Poissons Ratio (x) = 0.41185 0.23897
# Poissons Ratio (y) = 0.12939 -0.15131
# Poissons Ratio (z) = 0.20735 -0.41790
#
# Static dielectric constant tensor:
#      x y z
#    x 1.918160 0.000000 0.000000 
#    y 0.000000 1.838050 0.000000 
#    z 0.000000 0.000000 1.801100 
# 
# From -- ./inp_files/11921.got.cif
#   From: 2010.05.17/outbox.cif.g08.bks.cpg/sg62_6_cif.got.tgz:11921.got - 2010.06.03 15:25:27.
