data_PCOD9463136
_publ_section_title
;
Structure prediction by ZEFSAII (Michael W. Deem and Ramdas Pophale) SiO2 
 PCOD9463136
Probable space group: P N M A
;
_chemical_formula_sum "Si O2"
_cell_formula_units_Z 56
_cell_length_a 15.104050
_cell_length_b 8.105806
_cell_length_c 22.134079
_cell_angle_alpha 90.000000
_cell_angle_beta 90.000000
_cell_angle_gamma 90.000000
_cell_volume 2709.886339
_symmetry_space_group_name_H-M "P N M A"
_symmetry_group_IT_number 62
_symmetry_cell_setting 'orthorhombic'
loop_
_space_group_symop_operation_xyz
x,y,z
1/2-x,-y,1/2+z
1/2+x,1/2-y,1/2-z
-x,1/2+y,-z
-x,-y,-z
1/2+x,y,1/2-z
1/2-x,1/2+y,1/2+z
x,1/2-y,z
loop_
_atom_site_type_symbol
_atom_site_label
_atom_site_fract_x
_atom_site_fract_y
_atom_site_fract_z
Si Si1 0.853633 0.558419 0.348991
Si Si2 0.175326 0.059148 0.102903
Si Si3 0.826560 0.055355 0.214387
Si Si4 0.710546 0.945187 0.110370
Si Si5 0.631583 0.557023 0.526493
Si Si6 0.010428 0.951167 0.866081
Si Si7 0.515365 0.949301 0.069387
O O1 0.871477 0.750000 0.336540
O O2 0.764657 0.540119 0.387820
O O3 0.833477 0.474822 0.285150
O O4 0.936163 0.489762 0.387282
O O5 0.192562 0.250000 0.118584
O O6 0.090695 0.995077 0.140575
O O7 0.145329 0.045610 0.033680
O O8 0.819630 0.250000 0.202642
O O9 0.918280 0.995125 0.183493
O O10 0.744818 0.974057 0.178656
O O11 0.716206 0.750000 0.097285
O O12 0.611230 0.001161 0.094917
O O13 0.781110 0.037183 0.067923
O O14 0.619495 0.750000 0.511593
O O15 0.551551 0.498886 0.569351
O O16 0.008573 0.750000 0.866046
O O17 0.513106 0.750000 0.070745
O O18 0.500000 0.000000 0.000000
#
# Coordination Sequence:
#
# PCOD9463136 Si02
#       7
#     8   8   8   8   8   8   8
#     4  11  24  41  57  80 113 149 187 235 284 335
#     4  11  21  35  55  82 112 146 183 224 272 326
#     4  10  21  40  61  84 111 145 186 231 281 338
#     4  10  20  37  60  86 113 148 189 233 281 336
#     4  10  19  34  55  84 117 148 180 222 272 328
#     4   8  18  35  56  81 112 144 180 222 270 327
#     4  10  23  40  60  85 116 152 194 239 290 342
#
# _framework density 20.665073
#
# number of rings (size 3 to 8) (size 9 to 14) (size 15 to 20)
#    0.000    2.000    0.000    4.286    0.000    5.714 
#    0.000   10.714    0.000    0.000    0.000    0.000 
#    0.000    0.000    0.000    0.000    0.000    0.000 
#
# Total GULP energy -312755.125248 kJ/mol
# GULP energy per Si atom -5584.912951 kJ/mol
# Density = 2.061804 g / cm^3
# Si number density = 20.665073 Si / 1000 Ang^3
#
#
#
# Elastic Constant Matrix: (Units=GPa)
#
#
# Indices 1 2 3 4 5 6 
#
# 1 141.2669 2.9559 34.8540 0.0000 0.0000 0.0000
# 2 2.9559 32.3605 -4.1901 0.0000 0.0000 0.0000
# 3 34.8540 -4.1901 80.0562 0.0000 0.0000 0.0000
# 4 0.0000 0.0000 0.0000 26.3449 0.0000 0.0000
# 5 0.0000 0.0000 0.0000 0.0000 15.9068 0.0000
# 6 0.0000 0.0000 0.0000 0.0000 0.0000 17.5455
#
#
#
# Elastic Compliance Matrix: (Units=1/GPa)
#
#
# Indices 1 2 3 4 5 6 
#
# 1 0.007976 -0.001186 -0.003534 0.000000 0.000000 0.000000
# 2 -0.001186 0.031289 0.002154 0.000000 0.000000 0.000000
# 3 -0.003534 0.002154 0.014143 0.000000 0.000000 0.000000
# 4 0.000000 0.000000 0.000000 0.037958 0.000000 0.000000
# 5 0.000000 0.000000 0.000000 0.000000 0.062866 0.000000
# 6 0.000000 0.000000 0.000000 0.000000 0.000000 0.056995
#
#
# Mechanical properties :
#
#
# Convention : Reuss Voigt Hill
#
# Bulk Modulus (GPa) = 20.71488 35.65813 28.18651
# Shear Modulus (GPa) = 21.50992 26.63036 24.07014
#
# Velocity S-wave (km/s) = 3.22977 3.59369 3.41658
# Velocity P-wave (km/s) = 4.89433 5.87471 5.40679
#
# Compressibility (1/GPa) = 0.04827448
#
# Stress axis : x y z
#
# Youngs Moduli (GPa) = 125.38162 31.95995 70.70762
#
# Poissons Ratio (x) = 0.03791 0.24991
# Poissons Ratio (y) = 0.14872 -0.15231
# Poissons Ratio (z) = 0.44315 -0.06884
#
# Static dielectric constant tensor:
#      x y z
#    x 1.755950 0.000000 0.000000 
#    y 0.000000 1.722370 0.000000 
#    z 0.000000 0.000000 1.738830 
# 
# From -- ./inp_files/27201.got.cif
#   From: 2010.05.17/outbox.cif.g08.bks.cpg/sg62_14_cif.got.tgz:27201.got - 2010.06.03 15:25:27.
