data_PCOD9463812
_publ_section_title
;
Structure prediction by ZEFSAII (Michael W. Deem and Ramdas Pophale) SiO2 
 PCOD9463812
Probable space group: P N M A
;
_chemical_formula_sum "Si O2"
_cell_formula_units_Z 60
_cell_length_a 33.096885
_cell_length_b 14.761109
_cell_length_c 5.202884
_cell_angle_alpha 90.000000
_cell_angle_beta 90.000000
_cell_angle_gamma 90.000000
_cell_volume 2541.851949
_symmetry_space_group_name_H-M "P N M A"
_symmetry_group_IT_number 62
_symmetry_cell_setting 'orthorhombic'
loop_
_space_group_symop_operation_xyz
x,y,z
1/2-x,-y,1/2+z
1/2+x,1/2-y,1/2-z
-x,1/2+y,-z
-x,-y,-z
1/2+x,y,1/2-z
1/2-x,1/2+y,1/2+z
x,1/2-y,z
loop_
_atom_site_type_symbol
_atom_site_label
_atom_site_fract_x
_atom_site_fract_y
_atom_site_fract_z
Si Si1 0.905107 0.100100 0.534073
Si Si2 0.142632 0.141640 0.989891
Si Si3 0.224475 0.860220 0.207179
Si Si4 0.566192 0.750000 0.330927
Si Si5 0.677455 0.639822 0.788531
Si Si6 0.311202 0.639140 0.991739
Si Si7 0.026797 0.608442 0.841318
Si Si8 0.059783 0.057621 0.143797
O O1 0.900336 0.170249 0.766594
O O2 0.865253 0.098691 0.367340
O O3 0.941519 0.145019 0.368189
O O4 0.920939 0.006039 0.639494
O O5 0.146209 0.250000 0.993486
O O6 0.172622 0.107289 0.215542
O O7 0.096507 0.116614 0.043403
O O8 0.157092 0.111850 0.710497
O O9 0.226270 0.750000 0.210851
O O10 0.192116 0.887471 0.992225
O O11 0.210204 0.886270 0.491966
O O12 0.267739 0.890843 0.098042
O O13 0.533564 0.828861 0.413801
O O14 0.673593 0.750000 0.794563
O O15 0.309570 0.750000 0.978383
O O16 0.980563 0.606683 0.757202
O O17 0.042599 0.508902 0.920632
#
# Coordination Sequence:
#
# PCOD9463812 Si02
#       8
#     8   8   8   4   8   8   8   8
#     4  11  22  38  61  89 128 166 206 262 320 382
#     4  10  21  38  63  93 121 164 216 273 311 378
#     4   9  18  32  55  91 124 159 199 261 306 373
#     4  10  22  38  62  94 120 164 202 268 316 372
#     4  10  20  31  57  91 125 157 208 248 307 377
#     4   9  18  36  60  89 126 158 208 262 326 365
#     4  10  23  42  63  86 127 165 210 259 319 388
#     4  10  24  41  60  90 120 169 216 254 324 382
#
# _framework density 23.604838000000001
#
# number of rings (size 3 to 8) (size 9 to 14) (size 15 to 20)
#    0.000    2.133    0.667    1.600    6.533    3.200 
#    0.000    0.000    0.000    3.200    0.000    0.000 
#    0.000    0.000    0.000    0.000    0.000    0.000 
#
# Total GULP energy -334567.806826 kJ/mol
# GULP energy per Si atom -5576.130114 kJ/mol
# Density = 2.355111 g / cm^3
# Si number density = 23.604838 Si / 1000 Ang^3
#
#
#
# Elastic Constant Matrix: (Units=GPa)
#
#
# Indices 1 2 3 4 5 6 
#
# 1 90.0004 13.8640 -7.5239 0.0000 0.0000 0.0000
# 2 13.8640 43.0650 13.6780 0.0000 0.0000 0.0000
# 3 -7.5239 13.6780 45.9244 0.0000 0.0000 0.0000
# 4 0.0000 0.0000 0.0000 0.4855 0.0000 0.0000
# 5 0.0000 0.0000 0.0000 0.0000 33.9110 0.0000
# 6 0.0000 0.0000 0.0000 0.0000 0.0000 47.4701
#
#
#
# Elastic Compliance Matrix: (Units=1/GPa)
#
#
# Indices 1 2 3 4 5 6 
#
# 1 0.012178 -0.005030 0.003493 0.000000 0.000000 0.000000
# 2 -0.005030 0.027724 -0.009081 0.000000 0.000000 0.000000
# 3 0.003493 -0.009081 0.025052 0.000000 0.000000 0.000000
# 4 0.000000 0.000000 0.000000 2.059549 0.000000 0.000000
# 5 0.000000 0.000000 0.000000 0.000000 0.029489 0.000000
# 6 0.000000 0.000000 0.000000 0.000000 0.000000 0.021066
#
#
# Mechanical properties :
#
#
# Convention : Reuss Voigt Hill
#
# Bulk Modulus (GPa) = 22.87385 24.33623 23.60504
# Shear Modulus (GPa) = 2.26156 26.97145 14.61650
#
# Velocity S-wave (km/s) = 0.97988 3.38394 2.49111
# Velocity P-wave (km/s) = 3.31536 5.05967 4.27738
#
# Compressibility (1/GPa) = 0.04371804
#
# Stress axis : x y z
#
# Youngs Moduli (GPa) = 82.11580 36.06932 39.91696
#
# Poissons Ratio (x) = 0.18143 -0.13944
# Poissons Ratio (y) = 0.41304 0.36250
# Poissons Ratio (z) = -0.28685 0.32756
#
# Static dielectric constant tensor:
#      x y z
#    x 1.901870 0.000000 0.000000 
#    y 0.000000 1.906970 0.000000 
#    z 0.000000 0.000000 2.026520 
# 
# From -- ./inp_files/3273.got.cif
#   From: 2010.05.17/outbox.cif.g08.bks.cpg/sg62_2_cif.got.tgz:3273.got - 2010.06.03 15:25:27.
