data_PCOD9463285
_publ_section_title
;
Structure prediction by ZEFSAII (Michael W. Deem and Ramdas Pophale) SiO2 
 PCOD9463285
Probable space group: P N M A
;
_chemical_formula_sum "Si O2"
_cell_formula_units_Z 64
_cell_length_a 19.042640
_cell_length_b 7.397641
_cell_length_c 19.874588
_cell_angle_alpha 90.000000
_cell_angle_beta 90.000000
_cell_angle_gamma 90.000000
_cell_volume 2799.745423
_symmetry_space_group_name_H-M "P N M A"
_symmetry_group_IT_number 62
_symmetry_cell_setting 'orthorhombic'
loop_
_space_group_symop_operation_xyz
x,y,z
1/2-x,-y,1/2+z
1/2+x,1/2-y,1/2-z
-x,1/2+y,-z
-x,-y,-z
1/2+x,y,1/2-z
1/2-x,1/2+y,1/2+z
x,1/2-y,z
loop_
_atom_site_type_symbol
_atom_site_label
_atom_site_fract_x
_atom_site_fract_y
_atom_site_fract_z
Si Si1 0.509432 0.536203 0.370043
Si Si2 0.114752 0.543286 0.528650
Si Si3 0.270778 0.030883 0.132695
Si Si4 0.351769 0.528019 0.397417
Si Si5 0.590952 0.529131 0.238926
Si Si6 0.532815 0.530364 0.095678
Si Si7 0.858813 0.533568 0.951768
Si Si8 0.748757 0.960387 0.218641
O O1 0.501621 0.750000 0.359404
O O2 0.430885 0.467059 0.380066
O O3 0.551077 0.463223 0.305231
O O4 0.561537 0.511691 0.432852
O O5 0.137240 0.750000 0.516031
O O6 0.173421 0.464658 0.577453
O O7 0.041409 0.539558 0.569110
O O8 0.093636 0.467059 0.455901
O O9 0.272573 0.250000 0.133987
O O10 0.194487 0.969207 0.106128
O O11 0.285544 0.971261 0.208554
O O12 0.351539 0.750000 0.396719
O O13 0.336799 0.471530 0.474059
O O14 0.296162 0.465441 0.341625
O O15 0.593263 0.750000 0.242637
O O16 0.549259 0.480498 0.171571
O O17 0.670837 0.463292 0.230451
O O18 0.530215 0.750000 0.091160
O O19 0.853747 0.750000 0.952218
O O20 0.738243 0.750000 0.201683
#
# Coordination Sequence:
#
# PCOD9463285 Si02
#       8
#     8   8   8   8   8   8   8   8
#     4  10  19  35  54  79 108 135 172 221 265 302
#     4   9  19  34  51  75 105 137 171 214 259 306
#     4  10  21  35  52  74 107 141 172 210 258 312
#     4   9  20  34  56  82 105 132 175 224 258 302
#     4   9  18  31  52  78 104 133 170 214 258 302
#     4   9  18  33  54  77 102 135 175 216 257 305
#     4  10  20  36  55  78 105 141 178 211 259 315
#     4  10  20  36  56  78 102 135 177 216 256 305
#
# _framework density 22.859221999999999
#
# number of rings (size 3 to 8) (size 9 to 14) (size 15 to 20)
#    0.000    2.500    1.250    0.375    3.500    0.500 
#    0.000    2.500    0.000    0.000    0.000    0.000 
#    0.000    0.000    0.000    0.000    0.000    0.000 
#
# Total GULP energy -357490.409245 kJ/mol
# GULP energy per Si atom -5585.787644 kJ/mol
# Density = 2.280719 g / cm^3
# Si number density = 22.859222 Si / 1000 Ang^3
#
#
#
# Elastic Constant Matrix: (Units=GPa)
#
#
# Indices 1 2 3 4 5 6 
#
# 1 28.7320 -7.3497 21.8335 0.0000 0.0000 0.0000
# 2 -7.3497 76.6033 -5.7485 0.0000 0.0000 0.0000
# 3 21.8335 -5.7485 130.9767 0.0000 0.0000 0.0000
# 4 0.0000 0.0000 0.0000 12.9732 0.0000 0.0000
# 5 0.0000 0.0000 0.0000 0.0000 38.3999 0.0000
# 6 0.0000 0.0000 0.0000 0.0000 0.0000 16.6280
#
#
#
# Elastic Compliance Matrix: (Units=1/GPa)
#
#
# Indices 1 2 3 4 5 6 
#
# 1 0.040721 0.003409 -0.006638 0.000000 0.000000 0.000000
# 2 0.003409 0.013383 0.000019 0.000000 0.000000 0.000000
# 3 -0.006638 0.000019 0.008742 0.000000 0.000000 0.000000
# 4 0.000000 0.000000 0.000000 0.077082 0.000000 0.000000
# 5 0.000000 0.000000 0.000000 0.000000 0.026042 0.000000
# 6 0.000000 0.000000 0.000000 0.000000 0.000000 0.060139
#
#
# Mechanical properties :
#
#
# Convention : Reuss Voigt Hill
#
# Bulk Modulus (GPa) = 17.72265 28.19807 22.96036
# Shear Modulus (GPa) = 19.89348 28.77201 24.33275
#
# Velocity S-wave (km/s) = 2.95322 3.55161 3.26615
# Velocity P-wave (km/s) = 4.40437 5.40193 4.92846
#
# Compressibility (1/GPa) = 0.05642497
#
# Stress axis : x y z
#
# Youngs Moduli (GPa) = 24.55742 74.72302 114.38511
#
# Poissons Ratio (x) = -0.25471 0.75934
# Poissons Ratio (y) = -0.08371 -0.00219
# Poissons Ratio (z) = 0.16302 -0.00143
#
# Static dielectric constant tensor:
#      x y z
#    x 1.827070 0.000000 0.000000 
#    y 0.000000 1.879860 0.000000 
#    z 0.000000 0.000000 1.823460 
# 
# From -- ./inp_files/24457.got.cif
#   From: 2010.05.17/outbox.cif.g08.bks.cpg/sg62_13_cif.got.tgz:24457.got - 2010.06.03 15:25:27.
