data_PCOD9463481
_publ_section_title
;
Structure prediction by ZEFSAII (Michael W. Deem and Ramdas Pophale) SiO2 
 PCOD9463481
Probable space group: P N M A
;
_chemical_formula_sum "Si O2"
_cell_formula_units_Z 56
_cell_length_a 11.521706
_cell_length_b 12.950583
_cell_length_c 22.457614
_cell_angle_alpha 90.000000
_cell_angle_beta 90.000000
_cell_angle_gamma 90.000000
_cell_volume 3350.963688
_symmetry_space_group_name_H-M "P N M A"
_symmetry_group_IT_number 62
_symmetry_cell_setting 'orthorhombic'
loop_
_space_group_symop_operation_xyz
x,y,z
1/2-x,-y,1/2+z
1/2+x,1/2-y,1/2-z
-x,1/2+y,-z
-x,-y,-z
1/2+x,y,1/2-z
1/2-x,1/2+y,1/2+z
x,1/2-y,z
loop_
_atom_site_type_symbol
_atom_site_label
_atom_site_fract_x
_atom_site_fract_y
_atom_site_fract_z
Si Si1 0.004863 0.991273 0.375996
Si Si2 0.636090 0.520195 0.331581
Si Si3 0.210134 0.127712 0.569838
Si Si4 0.682331 0.871903 0.206917
Si Si5 0.163499 0.629892 0.703586
Si Si6 0.369363 0.463940 0.330798
Si Si7 0.705756 0.128007 0.069353
O O1 0.091815 0.061631 0.414294
O O2 0.934386 0.065585 0.331288
O O3 0.081674 0.913424 0.336576
O O4 0.910857 0.928209 0.413865
O O5 0.693132 0.576415 0.388088
O O6 0.650355 0.593358 0.273802
O O7 0.714238 0.420134 0.315915
O O8 0.503219 0.489946 0.340720
O O9 0.201761 0.250000 0.582148
O O10 0.235054 0.113806 0.500013
O O11 0.696201 0.750000 0.203059
O O12 0.798147 0.933069 0.187487
O O13 0.157589 0.750000 0.689520
O O14 0.145438 0.610217 0.773657
O O15 0.306704 0.413078 0.387329
O O16 0.685702 0.250000 0.079857
#
# Coordination Sequence:
#
# PCOD9463481 Si02
#       7
#     8   8   8   8   8   8   8
#     4  10  19  36  56  82 111 136 178 230 270 320
#     4  10  21  37  52  80 110 142 180 219 269 324
#     4  10  21  36  56  80 108 146 185 221 264 315
#     4  10  20  34  55  81 109 140 175 223 277 325
#     4  10  20  34  55  81 109 140 175 223 277 325
#     4  10  21  37  52  80 110 142 180 219 269 324
#     4  10  21  36  56  80 108 146 185 221 264 315
#
# _framework density 16.711611000000001
#
# number of rings (size 3 to 8) (size 9 to 14) (size 15 to 20)
#    0.000    2.000    1.429    2.143    0.000    2.857 
#    0.000    0.000    0.000    7.714    0.000    0.000 
#    0.000    0.000    0.000    0.000    0.000    0.000 
#
# Total GULP energy -312621.843660 kJ/mol
# GULP energy per Si atom -5582.532923 kJ/mol
# Density = 1.667357 g / cm^3
# Si number density = 16.711611 Si / 1000 Ang^3
#
#
#
# Elastic Constant Matrix: (Units=GPa)
#
#
# Indices 1 2 3 4 5 6 
#
# 1 106.0048 6.1799 34.5054 0.0000 0.0000 0.0000
# 2 6.1799 49.3592 11.0151 0.0000 0.0000 0.0000
# 3 34.5054 11.0151 95.4328 0.0000 0.0000 0.0000
# 4 0.0000 0.0000 0.0000 16.1093 0.0000 0.0000
# 5 0.0000 0.0000 0.0000 0.0000 27.3394 0.0000
# 6 0.0000 0.0000 0.0000 0.0000 0.0000 9.6377
#
#
#
# Elastic Compliance Matrix: (Units=1/GPa)
#
#
# Indices 1 2 3 4 5 6 
#
# 1 0.010703 -0.000489 -0.003814 0.000000 0.000000 0.000000
# 2 -0.000489 0.020818 -0.002226 0.000000 0.000000 0.000000
# 3 -0.003814 -0.002226 0.012114 0.000000 0.000000 0.000000
# 4 0.000000 0.000000 0.000000 0.062076 0.000000 0.000000
# 5 0.000000 0.000000 0.000000 0.000000 0.036577 0.000000
# 6 0.000000 0.000000 0.000000 0.000000 0.000000 0.103759
#
#
# Mechanical properties :
#
#
# Convention : Reuss Voigt Hill
#
# Bulk Modulus (GPa) = 32.70306 39.35529 36.02918
# Shear Modulus (GPa) = 18.56682 23.89037 21.22860
#
# Velocity S-wave (km/s) = 3.33680 3.78506 3.56798
# Velocity P-wave (km/s) = 5.87003 6.53476 6.21129
#
# Compressibility (1/GPa) = 0.03057817
#
# Stress axis : x y z
#
# Youngs Moduli (GPa) = 93.42832 48.03624 82.54658
#
# Poissons Ratio (x) = 0.02349 0.31480
# Poissons Ratio (y) = 0.04569 0.18375
# Poissons Ratio (z) = 0.35629 0.10693
#
# Static dielectric constant tensor:
#      x y z
#    x 1.545420 0.000000 0.000000 
#    y 0.000000 1.536070 0.000000 
#    z 0.000000 0.000000 1.548290 
# 
# From -- ./inp_files/12510.got.cif
#   From: 2010.05.17/outbox.cif.g08.bks.cpg/sg62_7_cif.got.tgz:12510.got - 2010.06.03 15:25:27.
