data_PCOD9463912
_publ_section_title
;
Structure prediction by ZEFSAII (Michael W. Deem and Ramdas Pophale) SiO2 
 PCOD9463912
Probable space group: P N M A
;
_chemical_formula_sum "Si O2"
_cell_formula_units_Z 64
_cell_length_a 19.811126
_cell_length_b 7.560311
_cell_length_c 21.685255
_cell_angle_alpha 90.000000
_cell_angle_beta 90.000000
_cell_angle_gamma 90.000000
_cell_volume 3247.980061
_symmetry_space_group_name_H-M "P N M A"
_symmetry_group_IT_number 62
_symmetry_cell_setting 'orthorhombic'
loop_
_space_group_symop_operation_xyz
x,y,z
1/2-x,-y,1/2+z
1/2+x,1/2-y,1/2-z
-x,1/2+y,-z
-x,-y,-z
1/2+x,y,1/2-z
1/2-x,1/2+y,1/2+z
x,1/2-y,z
loop_
_atom_site_type_symbol
_atom_site_label
_atom_site_fract_x
_atom_site_fract_y
_atom_site_fract_z
Si Si1 0.591077 0.964176 0.379711
Si Si2 0.696537 0.043404 0.563629
Si Si3 0.296481 0.043111 0.187229
Si Si4 0.561935 0.463825 0.762657
Si Si5 0.439930 0.965934 0.380558
Si Si6 0.230752 0.045097 0.312148
Si Si7 0.588857 0.963332 0.235750
Si Si8 0.268557 0.952663 0.564311
O O1 0.594820 0.750000 0.383369
O O2 0.515571 0.019293 0.399123
O O3 0.599337 0.013755 0.307547
O O4 0.652466 0.042720 0.417581
O O5 0.685624 0.250000 0.548862
O O6 0.622313 0.968678 0.578800
O O7 0.733579 0.965587 0.503856
O O8 0.739890 0.035937 0.625823
O O9 0.276098 0.250000 0.186512
O O10 0.262605 0.965968 0.249273
O O11 0.269955 0.965168 0.122950
O O12 0.376341 0.029642 0.196696
O O13 0.563491 0.250000 0.763534
O O14 0.571449 0.518097 0.691002
O O15 0.486741 0.520513 0.781905
O O16 0.439234 0.750000 0.380753
O O17 0.250804 0.250000 0.314973
O O18 0.150508 0.030742 0.304624
O O19 0.590196 0.750000 0.233785
O O20 0.243499 0.750000 0.559945
#
# Coordination Sequence:
#
# PCOD9463912 Si02
#       8
#     8   8   8   8   8   8   8   8
#     4   9  17  30  49  72 101 135 169 207 245 292
#     4  10  20  35  54  71  99 141 177 210 251 302
#     4  10  20  33  49  74 106 134 164 206 256 303
#     4   9  17  31  53  78 100 127 170 214 248 295
#     4   8  15  29  48  72  99 130 170 209 244 289
#     4  11  21  33  52  77 105 134 168 214 257 299
#     4   9  18  32  52  78 103 130 167 209 254 302
#     4  10  21  35  49  72 105 140 172 206 254 307
#
# _framework density 19.704553000000001
#
# number of rings (size 3 to 8) (size 9 to 14) (size 15 to 20)
#    0.000    2.500    2.500    1.875    0.000    2.500 
#    0.000    2.500    0.000    0.750    0.000    0.000 
#    0.000    0.000    0.000    0.000    0.000    0.000 
#
# Total GULP energy -357071.160865 kJ/mol
# GULP energy per Si atom -5579.236889 kJ/mol
# Density = 1.965970 g / cm^3
# Si number density = 19.704553 Si / 1000 Ang^3
#
#
#
# Elastic Constant Matrix: (Units=GPa)
#
#
# Indices 1 2 3 4 5 6 
#
# 1 85.3267 -10.1002 37.0954 0.0000 0.0000 0.0000
# 2 -10.1002 45.6659 -2.1304 0.0000 0.0000 0.0000
# 3 37.0954 -2.1304 77.7314 0.0000 0.0000 0.0000
# 4 0.0000 0.0000 0.0000 0.2967 0.0000 0.0000
# 5 0.0000 0.0000 0.0000 0.0000 22.9198 0.0000
# 6 0.0000 0.0000 0.0000 0.0000 0.0000 18.8774
#
#
#
# Elastic Compliance Matrix: (Units=1/GPa)
#
#
# Indices 1 2 3 4 5 6 
#
# 1 0.015194 0.003026 -0.007168 0.000000 0.000000 0.000000
# 2 0.003026 0.022529 -0.000827 0.000000 0.000000 0.000000
# 3 -0.007168 -0.000827 0.016263 0.000000 0.000000 0.000000
# 4 0.000000 0.000000 0.000000 3.370320 0.000000 0.000000
# 5 0.000000 0.000000 0.000000 0.000000 0.043630 0.000000
# 6 0.000000 0.000000 0.000000 0.000000 0.000000 0.052973
#
#
# Mechanical properties :
#
#
# Convention : Reuss Voigt Hill
#
# Bulk Modulus (GPa) = 22.70210 28.71707 25.70958
# Shear Modulus (GPa) = 1.41023 20.67604 11.04314
#
# Velocity S-wave (km/s) = 0.84690 3.24281 2.36992
# Velocity P-wave (km/s) = 3.53590 5.35038 4.53482
#
# Compressibility (1/GPa) = 0.04404879
#
# Stress axis : x y z
#
# Youngs Moduli (GPa) = 65.81469 44.38734 61.48944
#
# Poissons Ratio (x) = -0.13432 0.44076
# Poissons Ratio (y) = -0.19917 0.05083
# Poissons Ratio (z) = 0.47177 0.03670
#
# Static dielectric constant tensor:
#      x y z
#    x 1.687250 0.000000 0.000000 
#    y 0.000000 1.743230 0.000000 
#    z 0.000000 0.000000 1.707920 
# 
# From -- ./inp_files/27657.got.cif
#   From: 2010.05.17/outbox.cif.g08.bks.cpg/sg62_14_cif.got.tgz:27657.got - 2010.06.03 15:25:27.
