data_PCOD9463827
_publ_section_title
;
Structure prediction by ZEFSAII (Michael W. Deem and Ramdas Pophale) SiO2 
 PCOD9463827
Probable space group: P N M A
;
_chemical_formula_sum "Si O2"
_cell_formula_units_Z 40
_cell_length_a 7.780686
_cell_length_b 7.585492
_cell_length_c 26.943245
_cell_angle_alpha 90.000000
_cell_angle_beta 90.000000
_cell_angle_gamma 90.000000
_cell_volume 1590.199249
_symmetry_space_group_name_H-M "P N M A"
_symmetry_group_IT_number 62
_symmetry_cell_setting 'orthorhombic'
loop_
_space_group_symop_operation_xyz
x,y,z
1/2-x,-y,1/2+z
1/2+x,1/2-y,1/2-z
-x,1/2+y,-z
-x,-y,-z
1/2+x,y,1/2-z
1/2-x,1/2+y,1/2+z
x,1/2-y,z
loop_
_atom_site_type_symbol
_atom_site_label
_atom_site_fract_x
_atom_site_fract_y
_atom_site_fract_z
Si Si1 0.714277 0.250000 0.732631
Si Si2 0.277019 0.461404 0.488577
Si Si3 0.864360 0.250000 0.831357
Si Si4 0.354707 0.951801 0.833098
Si Si5 0.496194 0.045260 0.399561
Si Si6 0.548478 0.960549 0.925150
O O1 0.531789 0.250000 0.704957
O O2 0.812883 0.422229 0.712252
O O3 0.712459 0.250000 0.791729
O O4 0.283644 0.250000 0.484298
O O5 0.434897 0.524718 0.454077
O O6 0.222893 0.502786 0.544994
O O7 0.108182 0.531435 0.458946
O O8 0.886268 0.418328 0.866861
O O9 0.388764 0.750000 0.817653
O O10 0.184862 0.950967 0.868407
O O11 0.505647 0.018918 0.869553
O O12 0.552781 0.250000 0.401819
O O13 0.529889 0.750000 0.923481
#
# Coordination Sequence:
#
# PCOD9463827 Si02
#       6
#     4   8   4   8   8   8
#     4  10  20  32  48  66  86 116 152 186 223 260
#     4   8  13  19  30  51  79 112 142 165 201 257
#     4  10  20  32  48  66  86 116 152 186 223 260
#     4   8  15  27  40  58  86 117 145 176 217 263
#     4   8  15  27  40  58  86 117 145 176 217 263
#     4   8  13  19  30  51  79 112 142 165 201 257
#
# _framework density 25.154081000000001
#
# number of rings (size 3 to 8) (size 9 to 14) (size 15 to 20)
#    0.000    3.600    0.000    2.400    2.800    0.800 
#    0.000    0.000    0.000    0.000    0.000    0.000 
#    0.000    1.600    0.000    0.000    0.000    0.000 
#
# Total GULP energy -223598.049283 kJ/mol
# GULP energy per Si atom -5589.951232 kJ/mol
# Density = 2.509683 g / cm^3
# Si number density = 25.154081 Si / 1000 Ang^3
#
#
#
# Elastic Constant Matrix: (Units=GPa)
#
#
# Indices 1 2 3 4 5 6 
#
# 1 85.6332 9.2448 22.2842 0.0000 0.0000 0.0000
# 2 9.2448 101.3177 59.0632 0.0000 0.0000 0.0000
# 3 22.2842 59.0632 172.7151 0.0000 0.0000 0.0000
# 4 0.0000 0.0000 0.0000 40.1725 0.0000 0.0000
# 5 0.0000 0.0000 0.0000 0.0000 48.7666 0.0000
# 6 0.0000 0.0000 0.0000 0.0000 0.0000 12.3737
#
#
#
# Elastic Compliance Matrix: (Units=1/GPa)
#
#
# Indices 1 2 3 4 5 6 
#
# 1 0.012088 -0.000242 -0.001477 0.000000 0.000000 0.000000
# 2 -0.000242 0.012332 -0.004186 0.000000 0.000000 0.000000
# 3 -0.001477 -0.004186 0.007412 0.000000 0.000000 0.000000
# 4 0.000000 0.000000 0.000000 0.024893 0.000000 0.000000
# 5 0.000000 0.000000 0.000000 0.000000 0.020506 0.000000
# 6 0.000000 0.000000 0.000000 0.000000 0.000000 0.080817
#
#
# Mechanical properties :
#
#
# Convention : Reuss Voigt Hill
#
# Bulk Modulus (GPa) = 49.94387 60.09448 55.01918
# Shear Modulus (GPa) = 28.32356 38.20082 33.26219
#
# Velocity S-wave (km/s) = 3.35924 3.90124 3.64034
# Velocity P-wave (km/s) = 5.91137 6.65097 6.29204
#
# Compressibility (1/GPa) = 0.02002248
#
# Stress axis : x y z
#
# Youngs Moduli (GPa) = 82.72550 81.08806 134.91777
#
# Poissons Ratio (x) = 0.01963 0.19926
# Poissons Ratio (y) = 0.02002 0.56477
# Poissons Ratio (z) = 0.12218 0.33944
#
# Static dielectric constant tensor:
#      x y z
#    x 2.097550 0.000000 0.000000 
#    y 0.000000 1.905620 0.000000 
#    z 0.000000 0.000000 1.959700 
# 
# From -- ./inp_files/22070.got.cif
#   From: 2010.05.17/outbox.cif.g08.bks.cpg/sg62_12_cif.got.tgz:22070.got - 2010.06.03 15:25:27.
