data_PCOD9463700
_publ_section_title
;
Structure prediction by ZEFSAII (Michael W. Deem and Ramdas Pophale) SiO2 
 PCOD9463700
Probable space group: P N M A
;
_chemical_formula_sum "Si O2"
_cell_formula_units_Z 64
_cell_length_a 14.633468
_cell_length_b 18.270618
_cell_length_c 12.052035
_cell_angle_alpha 90.000000
_cell_angle_beta 90.000000
_cell_angle_gamma 90.000000
_cell_volume 3222.262254
_symmetry_space_group_name_H-M "P N M A"
_symmetry_group_IT_number 62
_symmetry_cell_setting 'orthorhombic'
loop_
_space_group_symop_operation_xyz
x,y,z
1/2-x,-y,1/2+z
1/2+x,1/2-y,1/2-z
-x,1/2+y,-z
-x,-y,-z
1/2+x,y,1/2-z
1/2-x,1/2+y,1/2+z
x,1/2-y,z
loop_
_atom_site_type_symbol
_atom_site_label
_atom_site_fract_x
_atom_site_fract_y
_atom_site_fract_z
Si Si1 0.157538 0.418350 0.711634
Si Si2 0.242752 0.452201 0.938065
Si Si3 0.865059 0.553340 0.707415
Si Si4 0.914151 0.030438 0.933647
Si Si5 0.691728 0.589190 0.835766
Si Si6 0.485367 0.334762 0.120751
Si Si7 0.522010 0.834274 0.142250
Si Si8 0.840948 0.335329 0.835976
O O1 0.183073 0.415845 0.841464
O O2 0.162532 0.503484 0.675822
O O3 0.059130 0.386047 0.684502
O O4 0.241192 0.372672 0.657775
O O5 0.326704 0.495017 0.881243
O O6 0.175184 0.509812 0.996199
O O7 0.274019 0.400965 0.038166
O O8 0.904653 0.509687 0.814047
O O9 0.776332 0.596292 0.753040
O O10 0.936522 0.609048 0.656560
O O11 0.909233 0.116798 0.911322
O O12 0.000000 0.000000 0.000000
O O13 0.606529 0.641133 0.816186
O O14 0.508373 0.250000 0.141034
O O15 0.467943 0.344195 0.989079
O O16 0.492810 0.750000 0.161522
O O17 0.614937 0.843263 0.212661
O O18 0.836665 0.250000 0.863148
#
# Coordination Sequence:
#
# PCOD9463700 Si02
#       8
#     8   8   8   8   8   8   8   8
#     4  11  20  36  64  92 124 164 207 261 313 375
#     4  10  19  38  61  94 122 160 217 251 316 372
#     4  10  23  40  63  93 123 164 213 260 320 372
#     4  11  23  40  64  95 130 170 215 263 308 391
#     4  10  22  38  63  89 122 161 212 259 313 380
#     4  11  25  41  62  92 124 168 216 267 322 380
#     4  10  23  39  59  93 129 164 208 262 320 374
#     4  11  22  40  62  95 135 167 206 268 330 378
#
# _framework density 19.861823000000001
#
# number of rings (size 3 to 8) (size 9 to 14) (size 15 to 20)
#    0.000    1.500    3.750    2.625    5.250    1.500 
#    0.000    1.250    0.000    2.250    0.000    0.000 
#    0.000    0.000    0.000    0.000    0.000    0.000 
#
# Total GULP energy -357534.724208 kJ/mol
# GULP energy per Si atom -5586.480066 kJ/mol
# Density = 1.981662 g / cm^3
# Si number density = 19.861823 Si / 1000 Ang^3
#
#
#
# Elastic Constant Matrix: (Units=GPa)
#
#
# Indices 1 2 3 4 5 6 
#
# 1 52.6259 18.9935 -2.7593 0.0000 0.0000 0.0000
# 2 18.9935 84.4725 8.1149 0.0000 0.0000 0.0000
# 3 -2.7593 8.1149 25.3312 0.0000 0.0000 0.0000
# 4 0.0000 0.0000 0.0000 20.4804 0.0000 0.0000
# 5 0.0000 0.0000 0.0000 0.0000 26.6162 0.0000
# 6 0.0000 0.0000 0.0000 0.0000 0.0000 27.6603
#
#
#
# Elastic Compliance Matrix: (Units=1/GPa)
#
#
# Indices 1 2 3 4 5 6 
#
# 1 0.021053 -0.005111 0.003931 0.000000 0.000000 0.000000
# 2 -0.005111 0.013455 -0.004867 0.000000 0.000000 0.000000
# 3 0.003931 -0.004867 0.041464 0.000000 0.000000 0.000000
# 4 0.000000 0.000000 0.000000 0.048827 0.000000 0.000000
# 5 0.000000 0.000000 0.000000 0.000000 0.037571 0.000000
# 6 0.000000 0.000000 0.000000 0.000000 0.000000 0.036153
#
#
# Mechanical properties :
#
#
# Convention : Reuss Voigt Hill
#
# Bulk Modulus (GPa) = 15.65512 23.45864 19.55688
# Shear Modulus (GPa) = 21.55997 24.15674 22.85836
#
# Velocity S-wave (km/s) = 3.29826 3.49125 3.39613
# Velocity P-wave (km/s) = 4.73327 5.29984 5.02455
#
# Compressibility (1/GPa) = 0.06387688
#
# Stress axis : x y z
#
# Youngs Moduli (GPa) = 47.49936 74.32181 24.11709
#
# Poissons Ratio (x) = 0.37988 -0.09480
# Poissons Ratio (y) = 0.24278 0.11738
# Poissons Ratio (z) = -0.18671 0.36173
#
# Static dielectric constant tensor:
#      x y z
#    x 1.710310 0.000000 0.000000 
#    y 0.000000 1.688260 0.000000 
#    z 0.000000 0.000000 1.723230 
# 
# From -- ./inp_files/13566.got.cif
#   From: 2010.05.17/outbox.cif.g08.bks.cpg/sg62_7_cif.got.tgz:13566.got - 2010.06.03 15:25:27.
