data_PCOD9463743
_publ_section_title
;
Structure prediction by ZEFSAII (Michael W. Deem and Ramdas Pophale) SiO2 
 PCOD9463743
Probable space group: P N M A
;
_chemical_formula_sum "Si O2"
_cell_formula_units_Z 40
_cell_length_a 15.056883
_cell_length_b 14.276854
_cell_length_c 8.101563
_cell_angle_alpha 90.000000
_cell_angle_beta 90.000000
_cell_angle_gamma 90.000000
_cell_volume 1741.551844
_symmetry_space_group_name_H-M "P N M A"
_symmetry_group_IT_number 62
_symmetry_cell_setting 'orthorhombic'
loop_
_space_group_symop_operation_xyz
x,y,z
1/2-x,-y,1/2+z
1/2+x,1/2-y,1/2-z
-x,1/2+y,-z
-x,-y,-z
1/2+x,y,1/2-z
1/2-x,1/2+y,1/2+z
x,1/2-y,z
loop_
_atom_site_type_symbol
_atom_site_label
_atom_site_fract_x
_atom_site_fract_y
_atom_site_fract_z
Si Si1 0.758770 0.142129 0.003900
Si Si2 0.816501 0.483759 0.691360
Si Si3 0.563801 0.347246 0.866010
Si Si4 0.989441 0.472345 0.187131
Si Si5 0.385872 0.146283 0.087694
O O1 0.792454 0.250000 0.023075
O O2 0.797298 0.088392 0.842006
O O3 0.654010 0.153175 0.966698
O O4 0.753857 0.067166 0.155328
O O5 0.912492 0.528493 0.733696
O O6 0.825953 0.424769 0.520173
O O7 0.560708 0.250000 0.765934
O O8 0.562632 0.440465 0.763490
O O9 0.475598 0.349889 0.975703
O O10 0.929910 0.384390 0.238646
O O11 0.000000 0.500000 0.000000
O O12 0.345855 0.250000 0.094769
#
# Coordination Sequence:
#
# PCOD9463743 Si02
#       5
#     8   8   8   8   8
#     4  11  23  41  66  94 128 172 213 260 324 391
#     4  11  23  41  64  91 131 169 212 266 321 382
#     4   9  18  37  62  86 117 161 209 256 313 373
#     4  11  22  37  61  93 122 161 207 264 321 373
#     4  10  19  39  66  91 120 162 213 264 321 380
#
# _framework density 22.968022999999999
#
# number of rings (size 3 to 8) (size 9 to 14) (size 15 to 20)
#    0.000    1.600    4.000    1.800    2.800    1.600 
#    0.000    4.000    0.000    0.000    0.000    0.000 
#    0.000    0.000    0.000    0.000    0.000    0.000 
#
# Total GULP energy -223164.812740 kJ/mol
# GULP energy per Si atom -5579.120318 kJ/mol
# Density = 2.291575 g / cm^3
# Si number density = 22.968023 Si / 1000 Ang^3
#
#
#
# Elastic Constant Matrix: (Units=GPa)
#
#
# Indices 1 2 3 4 5 6 
#
# 1 61.3618 33.7016 6.6155 0.0000 0.0000 0.0000
# 2 33.7016 139.4793 41.8871 0.0000 0.0000 0.0000
# 3 6.6155 41.8871 96.8355 0.0000 0.0000 0.0000
# 4 0.0000 0.0000 0.0000 20.4984 0.0000 0.0000
# 5 0.0000 0.0000 0.0000 0.0000 27.2487 0.0000
# 6 0.0000 0.0000 0.0000 0.0000 0.0000 20.0091
#
#
#
# Elastic Compliance Matrix: (Units=1/GPa)
#
#
# Indices 1 2 3 4 5 6 
#
# 1 0.018842 -0.004788 0.000784 0.000000 0.000000 0.000000
# 2 -0.004788 0.009457 -0.003763 0.000000 0.000000 0.000000
# 3 0.000784 -0.003763 0.011901 0.000000 0.000000 0.000000
# 4 0.000000 0.000000 0.000000 0.048784 0.000000 0.000000
# 5 0.000000 0.000000 0.000000 0.000000 0.036699 0.000000
# 6 0.000000 0.000000 0.000000 0.000000 0.000000 0.049977
#
#
# Mechanical properties :
#
#
# Convention : Reuss Voigt Hill
#
# Bulk Modulus (GPa) = 40.54407 51.34279 45.94343
# Shear Modulus (GPa) = 25.07305 27.91605 26.49455
#
# Velocity S-wave (km/s) = 3.30760 3.49009 3.40007
# Velocity P-wave (km/s) = 5.68134 6.21639 5.95488
#
# Compressibility (1/GPa) = 0.02466452
#
# Stress axis : x y z
#
# Youngs Moduli (GPa) = 53.07282 105.74563 84.02546
#
# Poissons Ratio (x) = 0.50632 -0.06587
# Poissons Ratio (y) = 0.25412 0.31623
# Poissons Ratio (z) = -0.04160 0.39797
#
# Static dielectric constant tensor:
#      x y z
#    x 1.847080 0.000000 0.000000 
#    y 0.000000 1.863970 0.000000 
#    z 0.000000 0.000000 1.937100 
# 
# From -- ./inp_files/7449.got.cif
#   From: 2010.05.17/outbox.cif.g08.bks.cpg/sg62_4_cif.got.tgz:7449.got - 2010.06.03 15:25:27.
