data_PCOD9463706
_publ_section_title
;
Structure prediction by ZEFSAII (Michael W. Deem and Ramdas Pophale) SiO2 
 PCOD9463706
Probable space group: P N M A
;
_chemical_formula_sum "Si O2"
_cell_formula_units_Z 56
_cell_length_a 14.888277
_cell_length_b 20.758750
_cell_length_c 8.883601
_cell_angle_alpha 90.000000
_cell_angle_beta 90.000000
_cell_angle_gamma 90.000000
_cell_volume 2745.583671
_symmetry_space_group_name_H-M "P N M A"
_symmetry_group_IT_number 62
_symmetry_cell_setting 'orthorhombic'
loop_
_space_group_symop_operation_xyz
x,y,z
1/2-x,-y,1/2+z
1/2+x,1/2-y,1/2-z
-x,1/2+y,-z
-x,-y,-z
1/2+x,y,1/2-z
1/2-x,1/2+y,1/2+z
x,1/2-y,z
loop_
_atom_site_type_symbol
_atom_site_label
_atom_site_fract_x
_atom_site_fract_y
_atom_site_fract_z
Si Si1 0.154265 0.613129 0.281587
Si Si2 0.856591 0.581682 0.504715
Si Si3 0.711048 0.824930 0.519058
Si Si4 0.496570 0.175018 0.975187
Si Si5 0.919836 0.109057 0.231793
Si Si6 0.763865 0.045828 0.433465
Si Si7 0.075745 0.481897 0.202856
O O1 0.204531 0.653219 0.154131
O O2 0.217522 0.575803 0.401761
O O3 0.091653 0.558234 0.203945
O O4 0.091358 0.660500 0.377537
O O5 0.792752 0.633391 0.585597
O O6 0.926447 0.626154 0.416520
O O7 0.792486 0.529393 0.428391
O O8 0.911695 0.538563 0.622244
O O9 0.726689 0.750000 0.534993
O O10 0.620813 0.846449 0.602746
O O11 0.521233 0.250000 0.970626
O O12 0.474552 0.151464 0.145774
O O13 0.835317 0.079211 0.322229
O O14 0.981355 0.051421 0.165095
O O15 0.660218 0.048506 0.385878
#
# Coordination Sequence:
#
# PCOD9463706 Si02
#       7
#     8   8   8   8   8   8   8
#     4  10  22  37  58  87 119 155 187 242 302 347
#     4  10  20  36  62  87 114 151 196 243 293 344
#     4  12  23  38  55  83 121 156 192 237 292 354
#     4  10  20  39  60  83 117 160 201 234 285 364
#     4  10  22  37  63  89 112 152 201 249 299 338
#     4  10  19  39  63  88 120 148 197 252 294 351
#     4  10  19  38  63  92 115 146 199 253 295 341
#
# _framework density 20.396391999999999
#
# number of rings (size 3 to 8) (size 9 to 14) (size 15 to 20)
#    0.000    1.714    2.857    2.143    0.000    4.000 
#    2.571    0.000    0.000    0.000    0.000    0.000 
#    0.000    0.000    0.000    0.000    0.000    0.000 
#
# Total GULP energy -312468.782111 kJ/mol
# GULP energy per Si atom -5579.799681 kJ/mol
# Density = 2.034997 g / cm^3
# Si number density = 20.396392 Si / 1000 Ang^3
#
#
#
# Elastic Constant Matrix: (Units=GPa)
#
#
# Indices 1 2 3 4 5 6 
#
# 1 45.7331 -3.8713 9.1062 0.0000 0.0000 0.0000
# 2 -3.8713 90.5347 7.5190 0.0000 0.0000 0.0000
# 3 9.1062 7.5190 47.3822 0.0000 0.0000 0.0000
# 4 0.0000 0.0000 0.0000 17.7314 0.0000 0.0000
# 5 0.0000 0.0000 0.0000 0.0000 22.8821 0.0000
# 6 0.0000 0.0000 0.0000 0.0000 0.0000 12.0338
#
#
#
# Elastic Compliance Matrix: (Units=1/GPa)
#
#
# Indices 1 2 3 4 5 6 
#
# 1 0.022901 0.001363 -0.004617 0.000000 0.000000 0.000000
# 2 0.001363 0.011274 -0.002051 0.000000 0.000000 0.000000
# 3 -0.004617 -0.002051 0.022318 0.000000 0.000000 0.000000
# 4 0.000000 0.000000 0.000000 0.056397 0.000000 0.000000
# 5 0.000000 0.000000 0.000000 0.000000 0.043702 0.000000
# 6 0.000000 0.000000 0.000000 0.000000 0.000000 0.083099
#
#
# Mechanical properties :
#
#
# Convention : Reuss Voigt Hill
#
# Bulk Modulus (GPa) = 21.79537 23.23976 22.51756
# Shear Modulus (GPa) = 18.82556 21.92254 20.37405
#
# Velocity S-wave (km/s) = 3.04136 3.28201 3.16397
# Velocity P-wave (km/s) = 4.80024 5.07749 4.94081
#
# Compressibility (1/GPa) = 0.04588131
#
# Stress axis : x y z
#
# Youngs Moduli (GPa) = 43.66669 88.69891 44.80721
#
# Poissons Ratio (x) = -0.12087 0.20690
# Poissons Ratio (y) = -0.05951 0.09190
# Poissons Ratio (z) = 0.20163 0.18192
#
# Static dielectric constant tensor:
#      x y z
#    x 1.787190 0.000000 0.000000 
#    y 0.000000 1.702230 0.000000 
#    z 0.000000 0.000000 1.770460 
# 
# From -- ./inp_files/6770.got.cif
#   From: 2010.05.17/outbox.cif.g08.bks.cpg/sg62_4_cif.got.tgz:6770.got - 2010.06.03 15:25:27.
