data_PCOD9463609
_publ_section_title
;
Structure prediction by ZEFSAII (Michael W. Deem and Ramdas Pophale) SiO2 
 PCOD9463609
Probable space group: P N M A
;
_chemical_formula_sum "Si O2"
_cell_formula_units_Z 48
_cell_length_a 10.683173
_cell_length_b 15.050659
_cell_length_c 15.558721
_cell_angle_alpha 90.000000
_cell_angle_beta 90.000000
_cell_angle_gamma 90.000000
_cell_volume 2501.667984
_symmetry_space_group_name_H-M "P N M A"
_symmetry_group_IT_number 62
_symmetry_cell_setting 'orthorhombic'
loop_
_space_group_symop_operation_xyz
x,y,z
1/2-x,-y,1/2+z
1/2+x,1/2-y,1/2-z
-x,1/2+y,-z
-x,-y,-z
1/2+x,y,1/2-z
1/2-x,1/2+y,1/2+z
x,1/2-y,z
loop_
_atom_site_type_symbol
_atom_site_label
_atom_site_fract_x
_atom_site_fract_y
_atom_site_fract_z
Si Si1 0.669677 0.250000 0.535195
Si Si2 0.603684 0.750000 0.920019
Si Si3 0.030336 0.750000 0.900566
Si Si4 0.515628 0.644458 0.215115
Si Si5 0.044441 0.400662 0.518936
Si Si6 0.913281 0.750000 0.719224
Si Si7 0.287614 0.909258 0.330982
Si Si8 0.751418 0.111794 0.113226
O O1 0.755594 0.250000 0.450471
O O2 0.532613 0.250000 0.494303
O O3 0.700489 0.336256 0.592887
O O4 0.552668 0.750000 0.823439
O O5 0.543356 0.664863 0.965406
O O6 0.119428 0.664495 0.891071
O O7 0.935334 0.750000 0.820110
O O8 0.508297 0.750000 0.228946
O O9 0.472229 0.622108 0.118199
O O10 0.660870 0.615457 0.221303
O O11 0.415390 0.598768 0.277262
O O12 0.180869 0.384835 0.478548
O O13 0.000000 0.500000 0.500000
O O14 0.837614 0.834817 0.680938
O O15 0.269064 0.009449 0.362880
#
# Coordination Sequence:
#
# PCOD9463609 Si02
#       8
#     4   4   4   8   8   4   8   8
#     4  12  23  44  66  97 138 179 215 282 341 403
#     4  10  19  36  68  87 123 167 222 267 317 395
#     4  11  27  42  63  98 139 176 222 274 347 395
#     4  12  23  43  69  99 135 181 226 285 335 405
#     4  11  19  39  68  92 122 170 225 273 330 395
#     4   9  23  44  65  94 130 176 221 279 333 401
#     4  12  25  44  68 100 140 174 232 277 341 402
#     4  10  24  44  64  96 134 168 228 281 329 412
#
# _framework density 19.187199
#
# number of rings (size 3 to 8) (size 9 to 14) (size 15 to 20)
#    0.000    1.000    5.833    0.500    4.667    2.000 
#    3.000    0.000    0.000    0.000    0.000    0.000 
#    0.000    0.000    0.000    0.000    0.000    0.000 
#
# Total GULP energy -268018.200287 kJ/mol
# GULP energy per Si atom -5583.712506 kJ/mol
# Density = 1.914353 g / cm^3
# Si number density = 19.187199 Si / 1000 Ang^3
#
#
#
# Elastic Constant Matrix: (Units=GPa)
#
#
# Indices 1 2 3 4 5 6 
#
# 1 108.3891 21.0027 37.4907 0.0000 0.0000 0.0000
# 2 21.0027 117.0045 2.5970 0.0000 0.0000 0.0000
# 3 37.4907 2.5970 53.0241 0.0000 0.0000 0.0000
# 4 0.0000 0.0000 0.0000 24.6986 0.0000 0.0000
# 5 0.0000 0.0000 0.0000 0.0000 34.8719 0.0000
# 6 0.0000 0.0000 0.0000 0.0000 0.0000 8.4827
#
#
#
# Elastic Compliance Matrix: (Units=1/GPa)
#
#
# Indices 1 2 3 4 5 6 
#
# 1 0.012700 -0.002083 -0.008878 0.000000 0.000000 0.000000
# 2 -0.002083 0.008898 0.001037 0.000000 0.000000 0.000000
# 3 -0.008878 0.001037 0.025086 0.000000 0.000000 0.000000
# 4 0.000000 0.000000 0.000000 0.040488 0.000000 0.000000
# 5 0.000000 0.000000 0.000000 0.000000 0.028676 0.000000
# 6 0.000000 0.000000 0.000000 0.000000 0.000000 0.117888
#
#
# Mechanical properties :
#
#
# Convention : Reuss Voigt Hill
#
# Bulk Modulus (GPa) = 37.26326 44.51094 40.88710
# Shear Modulus (GPa) = 19.04558 28.09912 23.57235
#
# Velocity S-wave (km/s) = 3.15400 3.83099 3.50886
# Velocity P-wave (km/s) = 5.72073 6.54349 6.14589
#
# Compressibility (1/GPa) = 0.02683609
#
# Stress axis : x y z
#
# Youngs Moduli (GPa) = 78.73829 112.39090 39.86360
#
# Poissons Ratio (x) = 0.23408 0.35390
# Poissons Ratio (y) = 0.16399 -0.04133
# Poissons Ratio (z) = 0.69902 -0.11653
#
# Static dielectric constant tensor:
#      x y z
#    x 1.713330 0.000000 0.000000 
#    y 0.000000 1.635990 0.000000 
#    z 0.000000 0.000000 1.651100 
# 
# From -- ./inp_files/18052.got.cif
#   From: 2010.05.17/outbox.cif.g08.bks.cpg/sg62_10_cif.got.tgz:18052.got - 2010.06.03 15:25:27.
