data_PCOD9463871
_publ_section_title
;
Structure prediction by ZEFSAII (Michael W. Deem and Ramdas Pophale) SiO2 
 PCOD9463871
Probable space group: P N M A
;
_chemical_formula_sum "Si O2"
_cell_formula_units_Z 56
_cell_length_a 9.488690
_cell_length_b 25.979498
_cell_length_c 11.683569
_cell_angle_alpha 90.000000
_cell_angle_beta 90.000000
_cell_angle_gamma 90.000000
_cell_volume 2880.132985
_symmetry_space_group_name_H-M "P N M A"
_symmetry_group_IT_number 62
_symmetry_cell_setting 'orthorhombic'
loop_
_space_group_symop_operation_xyz
x,y,z
1/2-x,-y,1/2+z
1/2+x,1/2-y,1/2-z
-x,1/2+y,-z
-x,-y,-z
1/2+x,y,1/2-z
1/2-x,1/2+y,1/2+z
x,1/2-y,z
loop_
_atom_site_type_symbol
_atom_site_label
_atom_site_fract_x
_atom_site_fract_y
_atom_site_fract_z
Si Si1 0.946900 0.927431 0.931797
Si Si2 0.696381 0.881292 0.435339
Si Si3 0.485923 0.632120 0.770273
Si Si4 0.357087 0.516675 0.356702
Si Si5 0.473545 0.561748 0.988541
Si Si6 0.396817 0.429812 0.781262
Si Si7 0.266302 0.190209 0.367806
O O1 0.889877 0.893674 0.829706
O O2 0.062641 0.963719 0.871030
O O3 0.041243 0.894352 0.017827
O O4 0.847946 0.960785 0.013662
O O5 0.682685 0.888990 0.299480
O O6 0.731449 0.828663 0.499774
O O7 0.811210 0.922663 0.482823
O O8 0.621134 0.656109 0.705372
O O9 0.389764 0.676326 0.824630
O O10 0.511344 0.588991 0.868601
O O11 0.207411 0.521215 0.296866
O O12 0.463336 0.550819 0.281178
O O13 0.561836 0.587460 0.092210
O O14 0.500000 0.500000 0.000000
O O15 0.298957 0.250000 0.356349
#
# Coordination Sequence:
#
# PCOD9463871 Si02
#       7
#     8   8   8   8   8   8   8
#     4   9  19  35  50  78 114 147 194 221 271 334
#     4   9  20  37  53  81 105 148 190 233 288 340
#     4  10  22  35  59  89 114 150 192 239 291 352
#     4  10  20  32  53  74 113 160 184 224 268 326
#     4  11  21  34  53  85 123 158 189 227 280 344
#     4  11  20  34  52  77 108 154 191 230 269 331
#     4  10  21  41  63  83 111 146 193 253 304 343
#
# _framework density 19.443546000000001
#
# number of rings (size 3 to 8) (size 9 to 14) (size 15 to 20)
#    0.000    2.000    1.429    2.143    2.000    2.286 
#    0.000    0.000    0.000    4.286    0.000    0.000 
#    0.000    0.000    0.000    0.000    0.000    0.000 
#
# Total GULP energy -312033.695111 kJ/mol
# GULP energy per Si atom -5572.030270 kJ/mol
# Density = 1.939929 g / cm^3
# Si number density = 19.443546 Si / 1000 Ang^3
#
#
#
# Elastic Constant Matrix: (Units=GPa)
#
#
# Indices 1 2 3 4 5 6 
#
# 1 55.2582 12.9699 22.9433 0.0000 0.0000 0.0000
# 2 12.9699 83.8134 39.5737 0.0000 0.0000 0.0000
# 3 22.9433 39.5737 123.9630 0.0000 0.0000 0.0000
# 4 0.0000 0.0000 0.0000 19.2977 0.0000 0.0000
# 5 0.0000 0.0000 0.0000 0.0000 21.8575 0.0000
# 6 0.0000 0.0000 0.0000 0.0000 0.0000 16.4123
#
#
#
# Elastic Compliance Matrix: (Units=1/GPa)
#
#
# Indices 1 2 3 4 5 6 
#
# 1 0.019777 -0.001569 -0.003160 0.000000 0.000000 0.000000
# 2 -0.001569 0.014173 -0.004234 0.000000 0.000000 0.000000
# 3 -0.003160 -0.004234 0.010003 0.000000 0.000000 0.000000
# 4 0.000000 0.000000 0.000000 0.051820 0.000000 0.000000
# 5 0.000000 0.000000 0.000000 0.000000 0.045751 0.000000
# 6 0.000000 0.000000 0.000000 0.000000 0.000000 0.060930
#
#
# Mechanical properties :
#
#
# Convention : Reuss Voigt Hill
#
# Bulk Modulus (GPa) = 38.41918 46.00092 42.21005
# Shear Modulus (GPa) = 21.82877 24.01668 22.92273
#
# Velocity S-wave (km/s) = 3.35427 3.51835 3.43729
# Velocity P-wave (km/s) = 5.89947 6.34154 6.12450
#
# Compressibility (1/GPa) = 0.02602867
#
# Stress axis : x y z
#
# Youngs Moduli (GPa) = 50.56400 70.55525 99.96534
#
# Poissons Ratio (x) = 0.11067 0.31585
# Poissons Ratio (y) = 0.07931 0.42329
# Poissons Ratio (z) = 0.15976 0.29875
#
# Static dielectric constant tensor:
#      x y z
#    x 1.724440 0.000000 0.000000 
#    y 0.000000 1.677500 0.000000 
#    z 0.000000 0.000000 1.738260 
# 
# From -- ./inp_files/12517.got.cif
#   From: 2010.05.17/outbox.cif.g08.bks.cpg/sg62_7_cif.got.tgz:12517.got - 2010.06.03 15:25:27.
