data_PCOD9463023
_publ_section_title
;
Structure prediction by ZEFSAII (Michael W. Deem and Ramdas Pophale) SiO2 
 PCOD9463023
Probable space group: P N M A
;
_chemical_formula_sum "Si O2"
_cell_formula_units_Z 64
_cell_length_a 20.818918
_cell_length_b 8.875737
_cell_length_c 19.681991
_cell_angle_alpha 90.000000
_cell_angle_beta 90.000000
_cell_angle_gamma 90.000000
_cell_volume 3636.902082
_symmetry_space_group_name_H-M "P N M A"
_symmetry_group_IT_number 62
_symmetry_cell_setting 'orthorhombic'
loop_
_space_group_symop_operation_xyz
x,y,z
1/2-x,-y,1/2+z
1/2+x,1/2-y,1/2-z
-x,1/2+y,-z
-x,-y,-z
1/2+x,y,1/2-z
1/2-x,1/2+y,1/2+z
x,1/2-y,z
loop_
_atom_site_type_symbol
_atom_site_label
_atom_site_fract_x
_atom_site_fract_y
_atom_site_fract_z
Si Si1 0.761577 0.570226 0.325361
Si Si2 0.438965 0.930792 0.537835
Si Si3 0.609842 0.570078 0.325452
Si Si4 0.684661 0.929717 0.958847
Si Si5 0.688335 0.070149 0.547064
Si Si6 0.737882 0.570854 0.681255
Si Si7 0.389094 0.569540 0.819247
Si Si8 0.562799 0.069023 0.034278
O O1 0.767934 0.750000 0.329783
O O2 0.685742 0.531879 0.334807
O O3 0.802339 0.490495 0.383562
O O4 0.779938 0.511835 0.250892
O O5 0.443736 0.750000 0.540513
O O6 0.375204 0.970876 0.494649
O O7 0.500000 0.000000 0.500000
O O8 0.429239 0.994973 0.613508
O O9 0.603437 0.750000 0.328134
O O10 0.591611 0.510375 0.250717
O O11 0.675110 0.750000 0.958300
O O12 0.749054 0.963433 0.001729
O O13 0.624839 0.009666 0.994134
O O14 0.687153 0.250000 0.559300
O O15 0.696704 0.985394 0.617925
O O16 0.732574 0.750000 0.689654
O O17 0.813472 0.535240 0.667909
O O18 0.394190 0.750000 0.810267
O O19 0.428273 0.525314 0.886410
O O20 0.560705 0.250000 0.031418
O O21 0.500000 0.000000 0.000000
#
# Coordination Sequence:
#
# PCOD9463023 Si02
#       8
#     8   8   8   8   8   8   8   8
#     4  10  20  34  55  85 119 151 189 238 289 344
#     4  11  23  40  59  84 118 155 193 237 287 343
#     4  10  20  34  57  86 114 148 191 235 284 341
#     4  11  21  36  59  86 115 150 191 238 289 342
#     4  10  21  36  57  84 115 148 187 234 286 339
#     4  10  19  33  56  85 116 149 189 237 288 342
#     4   9  19  35  56  82 114 149 188 233 283 340
#     4  11  23  40  59  86 119 156 196 240 290 346
#
# _framework density 17.597394000000001
#
# number of rings (size 3 to 8) (size 9 to 14) (size 15 to 20)
#    0.000    1.750    2.500    2.250    0.000    4.000 
#    0.000    1.250    0.000    6.000    0.000    0.000 
#    0.000    0.000    0.000    0.000    0.000    0.000 
#
# Total GULP energy -357469.650219 kJ/mol
# GULP energy per Si atom -5585.463285 kJ/mol
# Density = 1.755734 g / cm^3
# Si number density = 17.597394 Si / 1000 Ang^3
#
#
#
# Elastic Constant Matrix: (Units=GPa)
#
#
# Indices 1 2 3 4 5 6 
#
# 1 100.9890 50.8783 71.3577 0.0000 0.0000 0.0000
# 2 50.8783 52.1654 65.4055 0.0000 0.0000 0.0000
# 3 71.3577 65.4055 171.9307 0.0000 0.0000 0.0000
# 4 0.0000 0.0000 0.0000 36.4916 0.0000 0.0000
# 5 0.0000 0.0000 0.0000 0.0000 28.2731 0.0000
# 6 0.0000 0.0000 0.0000 0.0000 0.0000 27.7307
#
#
#
# Elastic Compliance Matrix: (Units=1/GPa)
#
#
# Indices 1 2 3 4 5 6 
#
# 1 0.019712 -0.017147 -0.001659 0.000000 0.000000 0.000000
# 2 -0.017147 0.051566 -0.012500 0.000000 0.000000 0.000000
# 3 -0.001659 -0.012500 0.011260 0.000000 0.000000 0.000000
# 4 0.000000 0.000000 0.000000 0.027404 0.000000 0.000000
# 5 0.000000 0.000000 0.000000 0.000000 0.035369 0.000000
# 6 0.000000 0.000000 0.000000 0.000000 0.000000 0.036061
#
#
# Mechanical properties :
#
#
# Convention : Reuss Voigt Hill
#
# Bulk Modulus (GPa) = 50.18082 77.81868 63.99975
# Shear Modulus (GPa) = 19.95004 27.66198 23.80601
#
# Velocity S-wave (km/s) = 3.37069 3.96907 3.68205
# Velocity P-wave (km/s) = 6.61261 8.08222 7.38407
#
# Compressibility (1/GPa) = 0.01992793
#
# Stress axis : x y z
#
# Youngs Moduli (GPa) = 50.72943 19.39251 88.81021
#
# Poissons Ratio (x) = 0.33252 0.14729
# Poissons Ratio (y) = 0.86984 1.11015
# Poissons Ratio (z) = 0.08414 0.24241
#
# Static dielectric constant tensor:
#      x y z
#    x 1.579040 0.000000 0.000000 
#    y 0.000000 1.581680 0.000000 
#    z 0.000000 0.000000 1.583060 
# 
# From -- ./inp_files/24734.got.cif
#   From: 2010.05.17/outbox.cif.g08.bks.cpg/sg62_13_cif.got.tgz:24734.got - 2010.06.03 15:25:27.
