data_PCOD9463131
_publ_section_title
;
Structure prediction by ZEFSAII (Michael W. Deem and Ramdas Pophale) SiO2 
 PCOD9463131
Probable space group: P N M A
;
_chemical_formula_sum "Si O2"
_cell_formula_units_Z 56
_cell_length_a 19.735069
_cell_length_b 9.154440
_cell_length_c 16.107287
_cell_angle_alpha 90.000000
_cell_angle_beta 90.000000
_cell_angle_gamma 90.000000
_cell_volume 2909.998926
_symmetry_space_group_name_H-M "P N M A"
_symmetry_group_IT_number 62
_symmetry_cell_setting 'orthorhombic'
loop_
_space_group_symop_operation_xyz
x,y,z
1/2-x,-y,1/2+z
1/2+x,1/2-y,1/2-z
-x,1/2+y,-z
-x,-y,-z
1/2+x,y,1/2-z
1/2-x,1/2+y,1/2+z
x,1/2-y,z
loop_
_atom_site_type_symbol
_atom_site_label
_atom_site_fract_x
_atom_site_fract_y
_atom_site_fract_z
Si Si1 0.889553 0.925360 0.718321
Si Si2 0.040447 0.918189 0.131075
Si Si3 0.379140 0.915641 0.195419
Si Si4 0.014344 0.925995 0.410835
Si Si5 0.175144 0.914712 0.023238
Si Si6 0.739965 0.076635 0.325033
Si Si7 0.606958 0.415329 0.607616
O O1 0.891127 0.750000 0.707579
O O2 0.814344 0.969706 0.752837
O O3 0.937779 0.976646 0.794296
O O4 0.920881 0.004451 0.637349
O O5 0.032314 0.750000 0.163038
O O6 0.101037 0.914263 0.065804
O O7 0.969958 0.962542 0.090148
O O8 0.359762 0.750000 0.169782
O O9 0.447361 0.953868 0.145763
O O10 0.391886 0.913854 0.293462
O O11 0.315903 0.021685 0.185713
O O12 0.022458 0.750000 0.418233
O O13 0.000000 0.000000 0.500000
O O14 0.201177 0.750000 0.018910
O O15 0.217244 0.010879 0.086947
O O16 0.163110 0.983911 0.933666
O O17 0.736347 0.250000 0.327501
O O18 0.616573 0.250000 0.575834
#
# Coordination Sequence:
#
# PCOD9463131 Si02
#       7
#     8   8   8   8   8   8   8
#     4  10  20  36  60  89 118 153 197 246 297 356
#     4   9  17  32  54  81 116 152 184 228 284 342
#     4  10  22  41  63  86 118 158 198 249 306 358
#     4  11  23  42  66  93 122 157 203 255 309 365
#     4  10  20  33  54  84 116 153 194 234 285 348
#     4  10  22  40  61  86 119 158 201 249 302 361
#     4  10  19  34  55  82 117 151 187 233 291 350
#
# _framework density 19.243993
#
# number of rings (size 3 to 8) (size 9 to 14) (size 15 to 20)
#    0.000    2.000    1.429    2.143    0.000    4.571 
#    2.571    0.000    0.000    0.000    0.000    0.000 
#    0.000    0.000    0.000    0.000    0.000    0.000 
#
# Total GULP energy -312298.546590 kJ/mol
# GULP energy per Si atom -5576.759761 kJ/mol
# Density = 1.920019 g / cm^3
# Si number density = 19.243993 Si / 1000 Ang^3
#
#
#
# Elastic Constant Matrix: (Units=GPa)
#
#
# Indices 1 2 3 4 5 6 
#
# 1 56.0735 27.8163 7.8438 0.0000 0.0000 0.0000
# 2 27.8163 59.1942 25.8946 0.0000 0.0000 0.0000
# 3 7.8438 25.8946 77.3494 0.0000 0.0000 0.0000
# 4 0.0000 0.0000 0.0000 32.2190 0.0000 0.0000
# 5 0.0000 0.0000 0.0000 0.0000 7.5947 0.0000
# 6 0.0000 0.0000 0.0000 0.0000 0.0000 29.7684
#
#
#
# Elastic Compliance Matrix: (Units=1/GPa)
#
#
# Indices 1 2 3 4 5 6 
#
# 1 0.023409 -0.011671 0.001533 0.000000 0.000000 0.000000
# 2 -0.011671 0.025611 -0.007390 0.000000 0.000000 0.000000
# 3 0.001533 -0.007390 0.015247 0.000000 0.000000 0.000000
# 4 0.000000 0.000000 0.000000 0.031038 0.000000 0.000000
# 5 0.000000 0.000000 0.000000 0.000000 0.131671 0.000000
# 6 0.000000 0.000000 0.000000 0.000000 0.000000 0.033593
#
#
# Mechanical properties :
#
#
# Convention : Reuss Voigt Hill
#
# Bulk Modulus (GPa) = 34.23403 35.08071 34.65737
# Shear Modulus (GPa) = 16.37406 22.65389 19.51398
#
# Velocity S-wave (km/s) = 2.92013 3.43475 3.18784
# Velocity P-wave (km/s) = 5.40348 5.83087 5.62124
#
# Compressibility (1/GPa) = 0.02921070
#
# Stress axis : x y z
#
# Youngs Moduli (GPa) = 42.71883 39.04598 65.58689
#
# Poissons Ratio (x) = 0.45570 -0.10057
# Poissons Ratio (y) = 0.49857 0.48471
# Poissons Ratio (z) = -0.06550 0.28856
#
# Static dielectric constant tensor:
#      x y z
#    x 1.687340 0.000000 0.000000 
#    y 0.000000 1.679100 0.000000 
#    z 0.000000 0.000000 1.680110 
# 
# From -- ./inp_files/20399.got.cif
#   From: 2010.05.17/outbox.cif.g08.bks.cpg/sg62_11_cif.got.tgz:20399.got - 2010.06.03 15:25:27.
