data_PCOD9463381
_publ_section_title
;
Structure prediction by ZEFSAII (Michael W. Deem and Ramdas Pophale) SiO2 
 PCOD9463381
Probable space group: P N M A
;
_chemical_formula_sum "Si O2"
_cell_formula_units_Z 56
_cell_length_a 19.883932
_cell_length_b 16.082363
_cell_length_c 8.648717
_cell_angle_alpha 90.000000
_cell_angle_beta 90.000000
_cell_angle_gamma 90.000000
_cell_volume 2765.692018
_symmetry_space_group_name_H-M "P N M A"
_symmetry_group_IT_number 62
_symmetry_cell_setting 'orthorhombic'
loop_
_space_group_symop_operation_xyz
x,y,z
1/2-x,-y,1/2+z
1/2+x,1/2-y,1/2-z
-x,1/2+y,-z
-x,-y,-z
1/2+x,y,1/2-z
1/2-x,1/2+y,1/2+z
x,1/2-y,z
loop_
_atom_site_type_symbol
_atom_site_label
_atom_site_fract_x
_atom_site_fract_y
_atom_site_fract_z
Si Si1 0.108209 0.651733 0.583492
Si Si2 0.277365 0.916535 0.167870
Si Si3 0.630914 0.151919 0.089921
Si Si4 0.592300 0.991682 0.682442
Si Si5 0.991952 0.914716 0.403124
Si Si6 0.745763 0.157951 0.524537
Si Si7 0.852102 0.967255 0.870410
O O1 0.106940 0.750000 0.616234
O O2 0.084858 0.596789 0.730280
O O3 0.182913 0.624109 0.533733
O O4 0.060764 0.632619 0.436405
O O5 0.338925 0.970374 0.240758
O O6 0.260624 0.845774 0.291855
O O7 0.209540 0.970409 0.162517
O O8 0.303541 0.878869 0.006536
O O9 0.636195 0.250000 0.135098
O O10 0.567557 0.140576 0.975900
O O11 0.619628 0.081166 0.221585
O O12 0.600016 0.990833 0.498111
O O13 0.533162 0.053641 0.737470
O O14 0.000000 0.000000 0.500000
O O15 0.741731 0.250000 0.463492
O O16 0.684514 0.107135 0.459510
#
# Coordination Sequence:
#
# PCOD9463381 Si02
#       7
#     8   8   8   8   8   8   8
#     4  10  19  35  59  83 112 149 194 242 288 339
#     4  10  20  34  56  81 117 148 185 228 286 349
#     4  11  22  37  59  87 116 153 197 242 288 342
#     4   9  19  36  55  85 108 151 191 235 277 345
#     4   9  20  37  61  82 109 150 200 237 283 341
#     4  10  20  34  55  83 113 144 184 235 290 337
#     4  11  21  35  57  84 117 150 186 236 291 347
#
# _framework density 20.248097999999999
#
# number of rings (size 3 to 8) (size 9 to 14) (size 15 to 20)
#    0.000    2.000    1.429    3.000    4.000    0.000 
#    0.000    5.714    0.000    0.000    0.000    0.000 
#    0.000    0.000    0.000    0.000    0.000    0.000 
#
# Total GULP energy -312096.469612 kJ/mol
# GULP energy per Si atom -5573.151243 kJ/mol
# Density = 2.020201 g / cm^3
# Si number density = 20.248098 Si / 1000 Ang^3
#
#
#
# Elastic Constant Matrix: (Units=GPa)
#
#
# Indices 1 2 3 4 5 6 
#
# 1 28.5686 7.9701 13.2131 0.0000 0.0000 0.0000
# 2 7.9701 70.0417 13.6429 0.0000 0.0000 0.0000
# 3 13.2131 13.6429 56.7038 0.0000 0.0000 0.0000
# 4 0.0000 0.0000 0.0000 21.9672 0.0000 0.0000
# 5 0.0000 0.0000 0.0000 0.0000 8.7837 0.0000
# 6 0.0000 0.0000 0.0000 0.0000 0.0000 25.8782
#
#
#
# Elastic Compliance Matrix: (Units=1/GPa)
#
#
# Indices 1 2 3 4 5 6 
#
# 1 0.039768 -0.002854 -0.008580 0.000000 0.000000 0.000000
# 2 -0.002854 0.015184 -0.002988 0.000000 0.000000 0.000000
# 3 -0.008580 -0.002988 0.020354 0.000000 0.000000 0.000000
# 4 0.000000 0.000000 0.000000 0.045522 0.000000 0.000000
# 5 0.000000 0.000000 0.000000 0.000000 0.113847 0.000000
# 6 0.000000 0.000000 0.000000 0.000000 0.000000 0.038643
#
#
# Mechanical properties :
#
#
# Convention : Reuss Voigt Hill
#
# Bulk Modulus (GPa) = 21.52332 24.99626 23.25979
# Shear Modulus (GPa) = 15.74065 19.35837 17.54951
#
# Velocity S-wave (km/s) = 2.79119 3.09537 2.94721
# Velocity P-wave (km/s) = 4.58700 5.01467 4.80559
#
# Compressibility (1/GPa) = 0.04646123
#
# Stress axis : x y z
#
# Youngs Moduli (GPa) = 25.14586 65.85875 49.13090
#
# Poissons Ratio (x) = 0.18796 0.42155
# Poissons Ratio (y) = 0.07177 0.14681
# Poissons Ratio (z) = 0.21575 0.19680
#
# Static dielectric constant tensor:
#      x y z
#    x 1.750040 0.000000 0.000000 
#    y 0.000000 1.785200 0.000000 
#    z 0.000000 0.000000 1.777630 
# 
# From -- ./inp_files/8700.got.cif
#   From: 2010.05.17/outbox.cif.g08.bks.cpg/sg62_5_cif.got.tgz:8700.got - 2010.06.03 15:25:27.
