data_PCOD9463047
_publ_section_title
;
Structure prediction by ZEFSAII (Michael W. Deem and Ramdas Pophale) SiO2 
 PCOD9463047
Probable space group: P N M A
;
_chemical_formula_sum "Si O2"
_cell_formula_units_Z 40
_cell_length_a 11.659955
_cell_length_b 15.223405
_cell_length_c 11.975553
_cell_angle_alpha 90.000000
_cell_angle_beta 90.000000
_cell_angle_gamma 90.000000
_cell_volume 2125.711161
_symmetry_space_group_name_H-M "P N M A"
_symmetry_group_IT_number 62
_symmetry_cell_setting 'orthorhombic'
loop_
_space_group_symop_operation_xyz
x,y,z
1/2-x,-y,1/2+z
1/2+x,1/2-y,1/2-z
-x,1/2+y,-z
-x,-y,-z
1/2+x,y,1/2-z
1/2-x,1/2+y,1/2+z
x,1/2-y,z
loop_
_atom_site_type_symbol
_atom_site_label
_atom_site_fract_x
_atom_site_fract_y
_atom_site_fract_z
Si Si1 0.858636 0.156068 0.339562
Si Si2 0.713987 0.851642 0.410442
Si Si3 0.524631 0.847863 0.601415
Si Si4 0.839082 0.973752 0.801892
Si Si5 0.426095 0.921961 0.944272
O O1 0.803371 0.250000 0.364666
O O2 0.895997 0.155166 0.210740
O O3 0.772852 0.075600 0.349156
O O4 0.974930 0.146102 0.409052
O O5 0.725321 0.750000 0.374835
O O6 0.608018 0.857670 0.496864
O O7 0.829324 0.882344 0.474957
O O8 0.682496 0.923187 0.317085
O O9 0.469046 0.750000 0.594652
O O10 0.439770 0.928783 0.624501
O O11 0.866953 0.951296 0.672839
O O12 0.500000 0.000000 0.000000
#
# Coordination Sequence:
#
# PCOD9463047 Si02
#       5
#     8   8   8   8   8
#     4  10  19  33  58  90 115 146 197 250 294 346
#     4  11  22  39  60  86 122 163 196 239 305 367
#     4   9  19  34  57  87 116 149 195 245 297 348
#     4  11  21  36  62  86 119 150 201 253 295 353
#     4  11  22  39  61  86 118 160 200 246 302 356
#
# _framework density 18.817232000000001
#
# number of rings (size 3 to 8) (size 9 to 14) (size 15 to 20)
#    0.000    1.600    4.000    1.800    0.000    1.600 
#    0.000    2.000    0.000    0.000    0.000    0.000 
#    0.000    0.000    0.000    0.000    0.000    0.000 
#
# Total GULP energy -222936.026953 kJ/mol
# GULP energy per Si atom -5573.400674 kJ/mol
# Density = 1.877440 g / cm^3
# Si number density = 18.817232 Si / 1000 Ang^3
#
#
#
# Elastic Constant Matrix: (Units=GPa)
#
#
# Indices 1 2 3 4 5 6 
#
# 1 71.8489 35.9594 4.4121 0.0000 0.0000 0.0000
# 2 35.9594 145.8139 10.5109 0.0000 0.0000 0.0000
# 3 4.4121 10.5109 4.6924 0.0000 0.0000 0.0000
# 4 0.0000 0.0000 0.0000 -22.7289 0.0000 0.0000
# 5 0.0000 0.0000 0.0000 0.0000 17.8989 0.0000
# 6 0.0000 0.0000 0.0000 0.0000 0.0000 10.0461
#
#
#
# Elastic Compliance Matrix: (Units=1/GPa)
#
#
# Indices 1 2 3 4 5 6 
#
# 1 0.016093 -0.003432 -0.007444 0.000000 0.000000 0.000000
# 2 -0.003432 0.008911 -0.016732 0.000000 0.000000 0.000000
# 3 -0.007444 -0.016732 0.257590 0.000000 0.000000 0.000000
# 4 0.000000 0.000000 0.000000 -0.043997 0.000000 0.000000
# 5 0.000000 0.000000 0.000000 0.000000 0.055869 0.000000
# 6 0.000000 0.000000 0.000000 0.000000 0.000000 0.099542
#
#
# Mechanical properties :
#
#
# Convention : Reuss Voigt Hill
#
# Bulk Modulus (GPa) = 4.39798 36.01333 20.20566
# Shear Modulus (GPa) = 9.52352 12.47475 10.99913
#
# Velocity S-wave (km/s) = 2.25212 2.57756 2.42032
# Velocity P-wave (km/s) = 3.01745 5.29514 4.30949
#
# Compressibility (1/GPa) = 0.22737700
#
# Stress axis : x y z
#
# Youngs Moduli (GPa) = 62.13907 112.22575 3.88214
#
# Poissons Ratio (x) = 0.38517 0.02890
# Poissons Ratio (y) = 0.21327 0.06496
# Poissons Ratio (z) = 0.46254 1.87781
#
# Static dielectric constant tensor:
#      x y z
#    x 1.666110 0.000000 0.000000 
#    y 0.000000 1.697450 0.000000 
#    z 0.000000 0.000000 1.634990 
# 
# From -- ./inp_files/12029.got.cif
#   From: 2010.05.17/outbox.cif.g08.bks.cpg/sg62_7_cif.got.tgz:12029.got - 2010.06.03 15:25:27.
