data_PCOD9463972
_publ_section_title
;
Structure prediction by ZEFSAII (Michael W. Deem and Ramdas Pophale) SiO2 
 PCOD9463972
Probable space group: P N M A
;
_chemical_formula_sum "Si O2"
_cell_formula_units_Z 56
_cell_length_a 14.974900
_cell_length_b 8.956415
_cell_length_c 21.958857
_cell_angle_alpha 90.000000
_cell_angle_beta 90.000000
_cell_angle_gamma 90.000000
_cell_volume 2945.153060
_symmetry_space_group_name_H-M "P N M A"
_symmetry_group_IT_number 62
_symmetry_cell_setting 'orthorhombic'
loop_
_space_group_symop_operation_xyz
x,y,z
1/2-x,-y,1/2+z
1/2+x,1/2-y,1/2-z
-x,1/2+y,-z
-x,-y,-z
1/2+x,y,1/2-z
1/2-x,1/2+y,1/2+z
x,1/2-y,z
loop_
_atom_site_type_symbol
_atom_site_label
_atom_site_fract_x
_atom_site_fract_y
_atom_site_fract_z
Si Si1 0.829439 0.430161 0.141886
Si Si2 0.698281 0.430599 0.378853
Si Si3 0.474983 0.423371 0.156011
Si Si4 0.506139 0.430303 0.432706
Si Si5 0.316274 0.572463 0.225795
Si Si6 0.358533 0.571436 0.910619
Si Si7 0.357537 0.078633 0.034968
O O1 0.830733 0.250000 0.149763
O O2 0.920545 0.473727 0.107888
O O3 0.814878 0.505736 0.206828
O O4 0.743458 0.470318 0.101516
O O5 0.704203 0.250000 0.372190
O O6 0.597968 0.471274 0.397886
O O7 0.739866 0.502895 0.318163
O O8 0.765021 0.473512 0.434060
O O9 0.475250 0.250000 0.177600
O O10 0.411528 0.521077 0.197935
O O11 0.574679 0.479760 0.142897
O O12 0.428238 0.424499 0.089677
O O13 0.500000 0.500000 0.500000
O O14 0.505832 0.250000 0.438808
O O15 0.308509 0.750000 0.225884
O O16 0.365717 0.750000 0.910042
O O17 0.384920 0.514290 0.976770
O O18 0.346184 0.250000 0.015575
#
# Coordination Sequence:
#
# PCOD9463972 Si02
#       7
#     8   8   8   8   8   8   8
#     4  10  22  39  56  78 110 147 183 223 272 329
#     4   9  19  37  58  80 110 150 186 220 271 333
#     4   9  19  36  55  77 108 145 177 211 262 325
#     4  10  21  37  60  87 116 152 191 231 280 333
#     4  11  23  38  57  81 105 137 183 235 281 322
#     4  10  20  33  53  79 107 141 178 213 257 314
#     4   9  17  30  51  78 109 140 172 215 264 310
#
# _framework density 19.014292999999999
#
# number of rings (size 3 to 8) (size 9 to 14) (size 15 to 20)
#    0.000    2.286    0.000    3.429    0.000    5.714 
#    0.000    5.714    0.000    0.000    0.000    0.000 
#    0.000    0.000    0.000    0.000    0.000    0.000 
#
# Total GULP energy -312512.031973 kJ/mol
# GULP energy per Si atom -5580.572000 kJ/mol
# Density = 1.897102 g / cm^3
# Si number density = 19.014293 Si / 1000 Ang^3
#
#
#
# Elastic Constant Matrix: (Units=GPa)
#
#
# Indices 1 2 3 4 5 6 
#
# 1 98.0388 16.0176 4.5017 0.0000 0.0000 0.0000
# 2 16.0176 23.7221 22.4647 0.0000 0.0000 0.0000
# 3 4.5017 22.4647 70.0735 0.0000 0.0000 0.0000
# 4 0.0000 0.0000 0.0000 33.4299 0.0000 0.0000
# 5 0.0000 0.0000 0.0000 0.0000 13.7283 0.0000
# 6 0.0000 0.0000 0.0000 0.0000 0.0000 14.9202
#
#
#
# Elastic Compliance Matrix: (Units=1/GPa)
#
#
# Indices 1 2 3 4 5 6 
#
# 1 0.011780 -0.010392 0.002575 0.000000 0.000000 0.000000
# 2 -0.010392 0.069700 -0.021677 0.000000 0.000000 0.000000
# 3 0.002575 -0.021677 0.021055 0.000000 0.000000 0.000000
# 4 0.000000 0.000000 0.000000 0.029913 0.000000 0.000000
# 5 0.000000 0.000000 0.000000 0.000000 0.072842 0.000000
# 6 0.000000 0.000000 0.000000 0.000000 0.000000 0.067023
#
#
# Mechanical properties :
#
#
# Convention : Reuss Voigt Hill
#
# Bulk Modulus (GPa) = 22.96464 30.86691 26.91577
# Shear Modulus (GPa) = 14.45846 22.33904 18.39875
#
# Velocity S-wave (km/s) = 2.76053 3.43133 3.11405
# Velocity P-wave (km/s) = 4.71852 5.65398 5.20730
#
# Compressibility (1/GPa) = 0.04354522
#
# Stress axis : x y z
#
# Youngs Moduli (GPa) = 84.89171 14.34713 47.49504
#
# Poissons Ratio (x) = 0.14910 -0.12229
# Poissons Ratio (y) = 0.88222 1.02957
# Poissons Ratio (z) = -0.21859 0.31101
#
# Static dielectric constant tensor:
#      x y z
#    x 1.705290 0.000000 0.000000 
#    y 0.000000 1.637910 0.000000 
#    z 0.000000 0.000000 1.627970 
# 
# From -- ./inp_files/27098.got.cif
#   From: 2010.05.17/outbox.cif.g08.bks.cpg/sg62_14_cif.got.tgz:27098.got - 2010.06.03 15:25:27.
