data_PCOD9463763
_publ_section_title
;
Structure prediction by ZEFSAII (Michael W. Deem and Ramdas Pophale) SiO2 
 PCOD9463763
Probable space group: P N M A
;
_chemical_formula_sum "Si O2"
_cell_formula_units_Z 56
_cell_length_a 9.207455
_cell_length_b 15.147473
_cell_length_c 18.906830
_cell_angle_alpha 90.000000
_cell_angle_beta 90.000000
_cell_angle_gamma 90.000000
_cell_volume 2636.929454
_symmetry_space_group_name_H-M "P N M A"
_symmetry_group_IT_number 62
_symmetry_cell_setting 'orthorhombic'
loop_
_space_group_symop_operation_xyz
x,y,z
1/2-x,-y,1/2+z
1/2+x,1/2-y,1/2-z
-x,1/2+y,-z
-x,-y,-z
1/2+x,y,1/2-z
1/2-x,1/2+y,1/2+z
x,1/2-y,z
loop_
_atom_site_type_symbol
_atom_site_label
_atom_site_fract_x
_atom_site_fract_y
_atom_site_fract_z
Si Si1 0.955166 0.019445 0.198222
Si Si2 0.412914 0.999594 0.145373
Si Si3 0.482284 0.250000 0.697367
Si Si4 0.820520 0.250000 0.660594
Si Si5 0.356458 0.096879 0.601040
Si Si6 0.910854 0.648985 0.001010
Si Si7 0.204342 0.947163 0.396596
Si Si8 0.172102 0.150307 0.161930
O O1 0.036330 0.113181 0.208085
O O2 0.958247 0.972584 0.274489
O O3 0.799470 0.997085 0.163834
O O4 0.058852 0.984417 0.135790
O O5 0.309853 0.927638 0.108046
O O6 0.557919 0.003824 0.098711
O O7 0.313879 0.086451 0.159817
O O8 0.654982 0.250000 0.689518
O O9 0.436059 0.250000 0.777274
O O10 0.409022 0.169672 0.656320
O O11 0.836798 0.345988 0.624272
O O12 0.427674 0.123105 0.526749
O O13 0.882900 0.750000 0.028698
O O14 0.805245 0.575293 0.035755
O O15 0.885695 0.653709 0.918556
O O16 0.210514 0.250000 0.183583
#
# Coordination Sequence:
#
# PCOD9463763 Si02
#       8
#     8   8   4   4   8   8   8   8
#     4  10  20  39  58  86 116 150 201 249 301 360
#     4  11  23  37  57  94 123 148 195 256 310 364
#     4  12  20  32  50  88 124 174 206 226 275 360
#     4  12  22  32  52  90 128 178 194 232 287 360
#     4  10  20  34  58  84 123 166 191 238 280 355
#     4  10  19  42  60  84 121 159 216 237 278 360
#     4  11  21  35  58  85 127 164 184 245 299 350
#     4  10  24  43  68  83 107 161 205 263 309 352
#
# _framework density 21.236822
#
# number of rings (size 3 to 8) (size 9 to 14) (size 15 to 20)
#    0.000    1.429    4.286    3.429    2.000    6.286 
#    0.000    0.714    0.000    3.429    0.000    0.000 
#    0.000    0.000    0.000    0.000    0.000    0.000 
#
# Total GULP energy -311931.492393 kJ/mol
# GULP energy per Si atom -5570.205221 kJ/mol
# Density = 2.118849 g / cm^3
# Si number density = 21.236822 Si / 1000 Ang^3
#
#
#
# Elastic Constant Matrix: (Units=GPa)
#
#
# Indices 1 2 3 4 5 6 
#
# 1 108.0281 26.8046 15.1749 0.0000 0.0000 0.0000
# 2 26.8046 94.2699 -6.4452 0.0000 0.0000 0.0000
# 3 15.1749 -6.4452 29.3717 0.0000 0.0000 0.0000
# 4 0.0000 0.0000 0.0000 18.5213 0.0000 0.0000
# 5 0.0000 0.0000 0.0000 0.0000 14.7448 0.0000
# 6 0.0000 0.0000 0.0000 0.0000 0.0000 35.2424
#
#
#
# Elastic Compliance Matrix: (Units=1/GPa)
#
#
# Indices 1 2 3 4 5 6 
#
# 1 0.011061 -0.003590 -0.006502 0.000000 0.000000 0.000000
# 2 -0.003590 0.011934 0.004473 0.000000 0.000000 0.000000
# 3 -0.006502 0.004473 0.038387 0.000000 0.000000 0.000000
# 4 0.000000 0.000000 0.000000 0.053992 0.000000 0.000000
# 5 0.000000 0.000000 0.000000 0.000000 0.067821 0.000000
# 6 0.000000 0.000000 0.000000 0.000000 0.000000 0.028375
#
#
# Mechanical properties :
#
#
# Convention : Reuss Voigt Hill
#
# Bulk Modulus (GPa) = 19.94195 33.63761 26.78978
# Shear Modulus (GPa) = 20.87488 26.77739 23.82614
#
# Velocity S-wave (km/s) = 3.13862 3.55476 3.35315
# Velocity P-wave (km/s) = 4.74818 5.72032 5.25677
#
# Compressibility (1/GPa) = 0.05014556
#
# Stress axis : x y z
#
# Youngs Moduli (GPa) = 90.40842 83.79183 26.05021
#
# Poissons Ratio (x) = 0.30078 0.16939
# Poissons Ratio (y) = 0.32453 -0.11653
# Poissons Ratio (z) = 0.58786 -0.37483
#
# Static dielectric constant tensor:
#      x y z
#    x 1.806830 0.000000 0.000000 
#    y 0.000000 1.717460 0.000000 
#    z 0.000000 0.000000 1.786660 
# 
# From -- ./inp_files/26034.got.cif
#   From: 2010.05.17/outbox.cif.g08.bks.cpg/sg62_14_cif.got.tgz:26034.got - 2010.06.03 15:25:27.
