data_PCOD9463257
_publ_section_title
;
Structure prediction by ZEFSAII (Michael W. Deem and Ramdas Pophale) SiO2 
 PCOD9463257
Probable space group: P N M A
;
_chemical_formula_sum "Si O2"
_cell_formula_units_Z 64
_cell_length_a 12.167400
_cell_length_b 7.755047
_cell_length_c 31.289255
_cell_angle_alpha 90.000000
_cell_angle_beta 90.000000
_cell_angle_gamma 90.000000
_cell_volume 2952.415268
_symmetry_space_group_name_H-M "P N M A"
_symmetry_group_IT_number 62
_symmetry_cell_setting 'orthorhombic'
loop_
_space_group_symop_operation_xyz
x,y,z
1/2-x,-y,1/2+z
1/2+x,1/2-y,1/2-z
-x,1/2+y,-z
-x,-y,-z
1/2+x,y,1/2-z
1/2-x,1/2+y,1/2+z
x,1/2-y,z
loop_
_atom_site_type_symbol
_atom_site_label
_atom_site_fract_x
_atom_site_fract_y
_atom_site_fract_z
Si Si1 0.486616 0.046980 0.934511
Si Si2 0.216517 0.451268 0.536700
Si Si3 0.521234 0.458499 0.162322
Si Si4 0.176839 0.050613 0.125020
Si Si5 0.757559 0.951126 0.052597
Si Si6 0.758980 0.040434 0.195478
Si Si7 0.927063 0.546907 0.122393
Si Si8 0.303545 0.460258 0.208557
O O1 0.482347 0.250000 0.945028
O O2 0.592405 0.973920 0.959179
O O3 0.364992 0.971750 0.941675
O O4 0.509475 0.027729 0.884181
O O5 0.208814 0.250000 0.526406
O O6 0.274545 0.467296 0.582360
O O7 0.281288 0.535843 0.497603
O O8 0.521848 0.250000 0.159664
O O9 0.642545 0.515963 0.175763
O O10 0.427849 0.507832 0.196105
O O11 0.211348 0.250000 0.122553
O O12 0.226706 0.980575 0.169396
O O13 0.045733 0.038119 0.125257
O O14 0.748622 0.750000 0.064955
O O15 0.850248 0.023647 0.083904
O O16 0.760672 0.250000 0.195033
O O17 0.770731 0.981086 0.244327
O O18 0.857134 0.977958 0.165421
O O19 0.946926 0.750000 0.115146
O O20 0.297443 0.250000 0.209639
#
# Coordination Sequence:
#
# PCOD9463257 Si02
#       8
#     8   8   8   8   8   8   8   8
#     4  10  20  37  59  87 123 156 187 239 298 352
#     4  11  23  38  61  91 121 151 194 247 298 353
#     4  10  19  34  60  90 119 153 195 244 288 343
#     4  11  23  41  64  86 117 160 202 246 295 351
#     4  10  22  40  61  84 117 158 196 237 295 357
#     4  10  21  37  62  91 119 154 199 245 290 343
#     4  11  24  42  61  85 120 157 196 246 297 351
#     4   9  20  37  60  90 120 154 197 244 290 341
#
# _framework density 21.677168000000002
#
# number of rings (size 3 to 8) (size 9 to 14) (size 15 to 20)
#    0.000    1.750    2.500    1.500    1.750    2.500 
#    0.000    1.875    0.000    0.000    0.000    0.000 
#    0.000    0.000    0.000    0.000    0.000    0.000 
#
# Total GULP energy -357657.089486 kJ/mol
# GULP energy per Si atom -5588.392023 kJ/mol
# Density = 2.162783 g / cm^3
# Si number density = 21.677168 Si / 1000 Ang^3
#
#
#
# Elastic Constant Matrix: (Units=GPa)
#
#
# Indices 1 2 3 4 5 6 
#
# 1 101.4480 -5.9289 24.2577 0.0000 0.0000 0.0000
# 2 -5.9289 37.0774 -10.0150 0.0000 0.0000 0.0000
# 3 24.2577 -10.0150 107.4013 0.0000 0.0000 0.0000
# 4 0.0000 0.0000 0.0000 17.4873 0.0000 0.0000
# 5 0.0000 0.0000 0.0000 0.0000 24.5294 0.0000
# 6 0.0000 0.0000 0.0000 0.0000 0.0000 13.9593
#
#
#
# Elastic Compliance Matrix: (Units=1/GPa)
#
#
# Indices 1 2 3 4 5 6 
#
# 1 0.010461 0.001061 -0.002264 0.000000 0.000000 0.000000
# 2 0.001061 0.027775 0.002350 0.000000 0.000000 0.000000
# 3 -0.002264 0.002350 0.010041 0.000000 0.000000 0.000000
# 4 0.000000 0.000000 0.000000 0.057184 0.000000 0.000000
# 5 0.000000 0.000000 0.000000 0.000000 0.040767 0.000000
# 6 0.000000 0.000000 0.000000 0.000000 0.000000 0.071637
#
#
# Mechanical properties :
#
#
# Convention : Reuss Voigt Hill
#
# Bulk Modulus (GPa) = 19.77348 29.17271 24.47309
# Shear Modulus (GPa) = 21.51209 27.03606 24.27407
#
# Velocity S-wave (km/s) = 3.15363 3.53542 3.34997
# Velocity P-wave (km/s) = 4.73309 5.49114 5.12615
#
# Compressibility (1/GPa) = 0.05057279
#
# Stress axis : x y z
#
# Youngs Moduli (GPa) = 95.59712 36.00341 99.58862
#
# Poissons Ratio (x) = -0.03821 0.22544
# Poissons Ratio (y) = -0.10145 -0.23406
# Poissons Ratio (z) = 0.21640 -0.08462
#
# Static dielectric constant tensor:
#      x y z
#    x 1.781440 0.000000 0.000000 
#    y 0.000000 1.819450 0.000000 
#    z 0.000000 0.000000 1.778490 
# 
# From -- ./inp_files/32594.got.cif
#   From: 2010.05.17/outbox.cif.g08.bks.cpg/sg62_17_cif.got.tgz:32594.got - 2010.06.03 15:25:27.
