data_PCOD9463037
_publ_section_title
;
Structure prediction by ZEFSAII (Michael W. Deem and Ramdas Pophale) SiO2 
 PCOD9463037
Probable space group: P N M A
;
_chemical_formula_sum "Si O2"
_cell_formula_units_Z 64
_cell_length_a 11.583217
_cell_length_b 8.992318
_cell_length_c 33.472584
_cell_angle_alpha 90.000000
_cell_angle_beta 90.000000
_cell_angle_gamma 90.000000
_cell_volume 3486.503370
_symmetry_space_group_name_H-M "P N M A"
_symmetry_group_IT_number 62
_symmetry_cell_setting 'orthorhombic'
loop_
_space_group_symop_operation_xyz
x,y,z
1/2-x,-y,1/2+z
1/2+x,1/2-y,1/2-z
-x,1/2+y,-z
-x,-y,-z
1/2+x,y,1/2-z
1/2-x,1/2+y,1/2+z
x,1/2-y,z
loop_
_atom_site_type_symbol
_atom_site_label
_atom_site_fract_x
_atom_site_fract_y
_atom_site_fract_z
Si Si1 0.908796 0.576210 0.283780
Si Si2 0.813259 0.427118 0.407692
Si Si3 0.320675 0.425522 0.665766
Si Si4 0.526745 0.927069 0.132477
Si Si5 0.949033 0.426194 0.200038
Si Si6 0.205260 0.427589 0.863648
Si Si7 0.672715 0.573141 0.474977
Si Si8 0.914051 0.927425 0.053592
O O1 0.925878 0.750000 0.273143
O O2 0.778821 0.559146 0.300560
O O3 0.989827 0.541454 0.321735
O O4 0.934425 0.477480 0.245622
O O5 0.806946 0.250000 0.406953
O O6 0.729340 0.495987 0.373663
O O7 0.940604 0.483363 0.395862
O O8 0.770464 0.491073 0.449787
O O9 0.336239 0.250000 0.657493
O O10 0.438248 0.496648 0.681077
O O11 0.506467 0.750000 0.126393
O O12 0.661176 0.958918 0.127031
O O13 0.959395 0.250000 0.197245
O O14 0.840961 0.484848 0.174410
O O15 0.195009 0.250000 0.856185
O O16 0.127782 0.465399 0.902142
O O17 0.690282 0.750000 0.474469
O O18 0.549014 0.540498 0.453771
O O19 0.657547 0.513245 0.519797
O O20 0.897934 0.750000 0.048034
#
# Coordination Sequence:
#
# PCOD9463037 Si02
#       8
#     8   8   8   8   8   8   8   8
#     4   9  20  38  58  79 105 144 192 236 278 335
#     4  11  21  35  58  86 115 146 185 236 289 336
#     4  10  21  39  60  80 107 145 191 234 275 335
#     4   9  20  39  61  82 108 150 196 235 281 344
#     4  12  25  36  54  85 117 147 183 234 290 339
#     4  10  21  39  61  83 112 152 195 234 283 347
#     4  10  19  33  57  85 117 154 190 229 281 347
#     4   9  19  35  56  85 116 146 185 240 290 330
#
# _framework density 18.3565
#
# number of rings (size 3 to 8) (size 9 to 14) (size 15 to 20)
#    0.000    2.000    0.000    4.500    1.750    5.000 
#    0.000    0.625    0.000    0.000    0.000    0.000 
#    0.000    0.000    0.000    0.000    0.000    0.000 
#
# Total GULP energy -357579.216097 kJ/mol
# GULP energy per Si atom -5587.175252 kJ/mol
# Density = 1.831472 g / cm^3
# Si number density = 18.356500 Si / 1000 Ang^3
#
#
#
# Elastic Constant Matrix: (Units=GPa)
#
#
# Indices 1 2 3 4 5 6 
#
# 1 30.8400 17.9184 3.2186 0.0000 0.0000 0.0000
# 2 17.9184 60.4414 19.2404 0.0000 0.0000 0.0000
# 3 3.2186 19.2404 37.3107 0.0000 0.0000 0.0000
# 4 0.0000 0.0000 0.0000 32.0308 0.0000 0.0000
# 5 0.0000 0.0000 0.0000 0.0000 8.5441 0.0000
# 6 0.0000 0.0000 0.0000 0.0000 0.0000 21.8468
#
#
#
# Elastic Compliance Matrix: (Units=1/GPa)
#
#
# Indices 1 2 3 4 5 6 
#
# 1 0.039479 -0.012705 0.003146 0.000000 0.000000 0.000000
# 2 -0.012705 0.023883 -0.011220 0.000000 0.000000 0.000000
# 3 0.003146 -0.011220 0.032316 0.000000 0.000000 0.000000
# 4 0.000000 0.000000 0.000000 0.031220 0.000000 0.000000
# 5 0.000000 0.000000 0.000000 0.000000 0.117040 0.000000
# 6 0.000000 0.000000 0.000000 0.000000 0.000000 0.045773
#
#
# Mechanical properties :
#
#
# Convention : Reuss Voigt Hill
#
# Bulk Modulus (GPa) = 18.47736 23.26076 20.86906
# Shear Modulus (GPa) = 14.31389 18.36531 16.33960
#
# Velocity S-wave (km/s) = 2.79547 3.16647 2.98673
# Velocity P-wave (km/s) = 4.52849 5.10567 4.82572
#
# Compressibility (1/GPa) = 0.05412029
#
# Stress axis : x y z
#
# Youngs Moduli (GPa) = 25.32986 41.87022 30.94395
#
# Poissons Ratio (x) = 0.53198 -0.09736
# Poissons Ratio (y) = 0.32183 0.34719
# Poissons Ratio (z) = -0.07969 0.46979
#
# Static dielectric constant tensor:
#      x y z
#    x 1.625040 0.000000 0.000000 
#    y 0.000000 1.606510 0.000000 
#    z 0.000000 0.000000 1.610560 
# 
# From -- ./inp_files/32539.got.cif
#   From: 2010.05.17/outbox.cif.g08.bks.cpg/sg62_17_cif.got.tgz:32539.got - 2010.06.03 15:25:27.
