data_PCOD9463598
_publ_section_title
;
Structure prediction by ZEFSAII (Michael W. Deem and Ramdas Pophale) SiO2 
 PCOD9463598
Probable space group: P N M A
;
_chemical_formula_sum "Si O2"
_cell_formula_units_Z 64
_cell_length_a 31.217195
_cell_length_b 8.565687
_cell_length_c 12.083180
_cell_angle_alpha 90.000000
_cell_angle_beta 90.000000
_cell_angle_gamma 90.000000
_cell_volume 3231.002716
_symmetry_space_group_name_H-M "P N M A"
_symmetry_group_IT_number 62
_symmetry_cell_setting 'orthorhombic'
loop_
_space_group_symop_operation_xyz
x,y,z
1/2-x,-y,1/2+z
1/2+x,1/2-y,1/2-z
-x,1/2+y,-z
-x,-y,-z
1/2+x,y,1/2-z
1/2-x,1/2+y,1/2+z
x,1/2-y,z
loop_
_atom_site_type_symbol
_atom_site_label
_atom_site_fract_x
_atom_site_fract_y
_atom_site_fract_z
Si Si1 0.800395 0.567251 0.227242
Si Si2 0.449249 0.059981 0.255474
Si Si3 0.543975 0.435564 0.265665
Si Si4 0.570463 0.935994 0.493676
Si Si5 0.328147 0.067796 0.504917
Si Si6 0.290388 0.568575 0.718501
Si Si7 0.628595 0.935886 0.151156
Si Si8 0.631215 0.938579 0.892291
O O1 0.806949 0.750000 0.208487
O O2 0.750683 0.529884 0.245414
O O3 0.827870 0.512168 0.332539
O O4 0.817185 0.474041 0.120598
O O5 0.448567 0.250000 0.256130
O O6 0.497266 0.012424 0.223141
O O7 0.440277 0.011218 0.382009
O O8 0.411350 0.009494 0.174159
O O9 0.548128 0.250000 0.250743
O O10 0.546397 0.474844 0.396206
O O11 0.583591 0.518092 0.206284
O O12 0.561591 0.750000 0.485141
O O13 0.621318 0.957927 0.476450
O O14 0.319227 0.250000 0.526111
O O15 0.301365 0.966062 0.590811
O O16 0.280855 0.750000 0.735172
O O17 0.332378 0.519746 0.787005
O O18 0.634590 0.750000 0.162454
O O19 0.628524 0.977248 0.021485
O O20 0.634181 0.750000 0.882730
#
# Coordination Sequence:
#
# PCOD9463598 Si02
#       8
#     8   8   8   8   8   8   8   8
#     4  12  26  43  66  97 131 164 207 256 313 378
#     4   9  19  38  62  90 121 163 206 256 314 370
#     4  11  22  36  60  91 127 162 206 258 313 374
#     4  10  19  36  63  89 124 163 204 254 312 368
#     4  11  22  41  69  96 127 165 209 258 312 370
#     4  12  26  44  67  93 127 166 209 260 316 372
#     4  11  24  42  64  89 123 165 211 261 315 374
#     4  10  22  44  67  87 121 167 215 261 312 368
#
# _framework density 19.808091999999998
#
# number of rings (size 3 to 8) (size 9 to 14) (size 15 to 20)
#    0.000    1.250    2.500    3.750    1.750    2.000 
#    0.000    1.875    0.000    0.000    0.000    0.000 
#    0.000    0.000    0.000    0.000    0.000    0.000 
#
# Total GULP energy -357922.632479 kJ/mol
# GULP energy per Si atom -5592.541132 kJ/mol
# Density = 1.976301 g / cm^3
# Si number density = 19.808092 Si / 1000 Ang^3
#
#
#
# Elastic Constant Matrix: (Units=GPa)
#
#
# Indices 1 2 3 4 5 6 
#
# 1 78.4595 3.9627 6.6539 0.0000 0.0000 0.0000
# 2 3.9627 14.6901 4.3489 0.0000 0.0000 0.0000
# 3 6.6539 4.3489 68.3078 0.0000 0.0000 0.0000
# 4 0.0000 0.0000 0.0000 16.5118 0.0000 0.0000
# 5 0.0000 0.0000 0.0000 0.0000 13.2654 0.0000
# 6 0.0000 0.0000 0.0000 0.0000 0.0000 -36.7616
#
#
#
# Elastic Compliance Matrix: (Units=1/GPa)
#
#
# Indices 1 2 3 4 5 6 
#
# 1 0.012997 -0.003191 -0.001063 0.000000 0.000000 0.000000
# 2 -0.003191 0.070164 -0.004156 0.000000 0.000000 0.000000
# 3 -0.001063 -0.004156 0.015008 0.000000 0.000000 0.000000
# 4 0.000000 0.000000 0.000000 0.060563 0.000000 0.000000
# 5 0.000000 0.000000 0.000000 0.000000 0.075384 0.000000
# 6 0.000000 0.000000 0.000000 0.000000 0.000000 -0.027202
#
#
# Mechanical properties :
#
#
# Convention : Reuss Voigt Hill
#
# Bulk Modulus (GPa) = 12.29285 21.26538 16.77911
# Shear Modulus (GPa) = 19.93221 8.36924 14.15073
#
# Velocity S-wave (km/s) = 3.17561 2.05775 2.67571
# Velocity P-wave (km/s) = 4.43457 4.05028 4.24678
#
# Compressibility (1/GPa) = 0.08134813
#
# Stress axis : x y z
#
# Youngs Moduli (GPa) = 76.94234 14.25226 66.63220
#
# Poissons Ratio (x) = 0.04548 0.07082
# Poissons Ratio (y) = 0.24555 0.27694
# Poissons Ratio (z) = 0.08178 0.05924
#
# Static dielectric constant tensor:
#      x y z
#    x 1.681270 0.000000 0.000000 
#    y 0.000000 1.664750 0.000000 
#    z 0.000000 0.000000 1.669990 
# 
# From -- ./inp_files/15758.got.cif
#   From: 2010.05.17/outbox.cif.g08.bks.cpg/sg62_8_cif.got.tgz:15758.got - 2010.06.03 15:25:27.
