data_PCOD9463879
_publ_section_title
;
Structure prediction by ZEFSAII (Michael W. Deem and Ramdas Pophale) SiO2 
 PCOD9463879
Probable space group: P N M A
;
_chemical_formula_sum "Si O2"
_cell_formula_units_Z 48
_cell_length_a 18.336510
_cell_length_b 23.204043
_cell_length_c 5.610697
_cell_angle_alpha 90.000000
_cell_angle_beta 90.000000
_cell_angle_gamma 90.000000
_cell_volume 2387.245904
_symmetry_space_group_name_H-M "P N M A"
_symmetry_group_IT_number 62
_symmetry_cell_setting 'orthorhombic'
loop_
_space_group_symop_operation_xyz
x,y,z
1/2-x,-y,1/2+z
1/2+x,1/2-y,1/2-z
-x,1/2+y,-z
-x,-y,-z
1/2+x,y,1/2-z
1/2-x,1/2+y,1/2+z
x,1/2-y,z
loop_
_atom_site_type_symbol
_atom_site_label
_atom_site_fract_x
_atom_site_fract_y
_atom_site_fract_z
Si Si1 0.270845 0.679754 0.471404
Si Si2 0.880483 0.385271 0.508365
Si Si3 0.561781 0.510579 0.800612
Si Si4 0.994023 0.593745 0.104891
Si Si5 0.651469 0.180413 0.025180
Si Si6 0.004174 0.181816 0.260170
O O1 0.261952 0.750000 0.474205
O O2 0.194229 0.646800 0.444665
O O3 0.306592 0.663290 0.728823
O O4 0.314656 0.664634 0.229154
O O5 0.873630 0.450158 0.403229
O O6 0.937035 0.393886 0.725629
O O7 0.926696 0.344352 0.330847
O O8 0.571182 0.446023 0.705449
O O9 0.525677 0.552107 0.603529
O O10 0.500000 0.500000 0.000000
O O11 0.971880 0.653623 0.987672
O O12 0.651805 0.250000 0.030743
O O13 0.566927 0.162835 0.055066
O O14 0.000994 0.250000 0.247174
#
# Coordination Sequence:
#
# PCOD9463879 Si02
#       6
#     8   8   8   8   8   8
#     4  10  21  37  55  81 120 159 193 233 294 357
#     4  10  20  32  56  88 110 147 193 255 289 338
#     4   8  16  33  52  82 107 140 186 235 294 348
#     4   9  18  32  55  83 108 145 183 241 288 344
#     4   9  21  38  54  76 117 166 195 225 288 365
#     4  10  21  34  53  85 118 153 200 245 289 344
#
# _framework density 20.106852
#
# number of rings (size 3 to 8) (size 9 to 14) (size 15 to 20)
#    0.000    2.667    0.000    0.500    7.000    1.333 
#    0.000    0.000    0.000    0.000   26.000    0.000 
#    0.000    0.000    0.000    0.000    0.000    0.000 
#
# Total GULP energy -267251.720564 kJ/mol
# GULP energy per Si atom -5567.744178 kJ/mol
# Density = 2.006109 g / cm^3
# Si number density = 20.106852 Si / 1000 Ang^3
#
#
#
# Elastic Constant Matrix: (Units=GPa)
#
#
# Indices 1 2 3 4 5 6 
#
# 1 60.0491 -5.2043 12.4596 0.0000 0.0000 0.0000
# 2 -5.2043 51.0274 8.9007 0.0000 0.0000 0.0000
# 3 12.4596 8.9007 81.9075 0.0000 0.0000 0.0000
# 4 0.0000 0.0000 0.0000 33.9402 0.0000 0.0000
# 5 0.0000 0.0000 0.0000 0.0000 22.1573 0.0000
# 6 0.0000 0.0000 0.0000 0.0000 0.0000 14.1012
#
#
#
# Elastic Compliance Matrix: (Units=1/GPa)
#
#
# Indices 1 2 3 4 5 6 
#
# 1 0.017454 0.002287 -0.002903 0.000000 0.000000 0.000000
# 2 0.002287 0.020275 -0.002551 0.000000 0.000000 0.000000
# 3 -0.002903 -0.002551 0.012928 0.000000 0.000000 0.000000
# 4 0.000000 0.000000 0.000000 0.029464 0.000000 0.000000
# 5 0.000000 0.000000 0.000000 0.000000 0.045132 0.000000
# 6 0.000000 0.000000 0.000000 0.000000 0.000000 0.070916
#
#
# Mechanical properties :
#
#
# Convention : Reuss Voigt Hill
#
# Bulk Modulus (GPa) = 22.56273 25.03287 23.79780
# Shear Modulus (GPa) = 23.01200 25.82829 24.42015
#
# Velocity S-wave (km/s) = 3.38669 3.58795 3.48878
# Velocity P-wave (km/s) = 5.15157 5.44440 5.30001
#
# Compressibility (1/GPa) = 0.04432088
#
# Stress axis : x y z
#
# Youngs Moduli (GPa) = 57.29463 49.32061 77.35274
#
# Poissons Ratio (x) = -0.11277 0.22459
# Poissons Ratio (y) = -0.13101 0.19734
# Poissons Ratio (z) = 0.16635 0.12582
#
# Static dielectric constant tensor:
#      x y z
#    x 1.696460 0.000000 0.000000 
#    y 0.000000 1.726070 0.000000 
#    z 0.000000 0.000000 1.820770 
# 
# From -- ./inp_files/1717.got.cif
#   From: 2010.05.17/outbox.cif.g08.bks.cpg/sg62_1_cif.got.tgz:1717.got - 2010.06.03 15:25:27.
