data_PCOD9463185
_publ_section_title
;
Structure prediction by ZEFSAII (Michael W. Deem and Ramdas Pophale) SiO2 
 PCOD9463185
Probable space group: P N M A
;
_chemical_formula_sum "Si O2"
_cell_formula_units_Z 64
_cell_length_a 21.274883
_cell_length_b 10.585316
_cell_length_c 15.214437
_cell_angle_alpha 90.000000
_cell_angle_beta 90.000000
_cell_angle_gamma 90.000000
_cell_volume 3426.311895
_symmetry_space_group_name_H-M "P N M A"
_symmetry_group_IT_number 62
_symmetry_cell_setting 'orthorhombic'
loop_
_space_group_symop_operation_xyz
x,y,z
1/2-x,-y,1/2+z
1/2+x,1/2-y,1/2-z
-x,1/2+y,-z
-x,-y,-z
1/2+x,y,1/2-z
1/2-x,1/2+y,1/2+z
x,1/2-y,z
loop_
_atom_site_type_symbol
_atom_site_label
_atom_site_fract_x
_atom_site_fract_y
_atom_site_fract_z
Si Si1 0.883499 0.034829 0.333019
Si Si2 0.619648 0.898924 0.311367
Si Si3 0.845459 0.392892 0.145164
Si Si4 0.721191 0.100785 0.065797
Si Si5 0.556179 0.900046 0.502358
Si Si6 0.117773 0.608615 0.467539
Si Si7 0.516810 0.898652 0.173366
Si Si8 0.752635 0.602287 0.362279
O O1 0.871391 0.108670 0.243161
O O2 0.885889 0.103359 0.427034
O O3 0.820626 0.950233 0.338103
O O4 0.949446 0.963220 0.323494
O O5 0.625794 0.750000 0.288554
O O6 0.591398 0.904985 0.409038
O O7 0.568282 0.950803 0.243031
O O8 0.690212 0.954195 0.316692
O O9 0.837266 0.250000 0.112364
O O10 0.775074 0.444249 0.133407
O O11 0.897041 0.446588 0.079229
O O12 0.703227 0.250000 0.078772
O O13 0.663266 0.003800 0.064406
O O14 0.751851 0.090630 0.968269
O O15 0.538815 0.750000 0.516999
O O16 0.500000 0.000000 0.500000
O O17 0.140084 0.750000 0.441471
O O18 0.050553 0.590465 0.421113
O O19 0.507413 0.750000 0.192177
O O20 0.752892 0.750000 0.342242
#
# Coordination Sequence:
#
# PCOD9463185 Si02
#       8
#     8   8   8   8   8   8   8   8
#     4  11  21  34  55  83 112 151 188 233 280 337
#     4   9  17  32  54  78 107 147 186 230 281 330
#     4  10  20  35  56  81 113 151 185 224 282 345
#     4   9  18  36  59  84 110 144 190 233 276 339
#     4  10  19  34  57  81 112 147 183 222 274 335
#     4  10  22  39  58  82 115 152 188 235 289 330
#     4  10  21  36  54  81 116 151 194 239 284 332
#     4   9  17  32  55  80 106 143 191 234 277 328
#
# _framework density 18.678975999999999
#
# number of rings (size 3 to 8) (size 9 to 14) (size 15 to 20)
#    0.000    2.250    1.250    1.875    1.750    0.500 
#    0.000    3.125    0.000    0.750    0.000    0.000 
#    0.000    0.000    0.000    0.000    0.000    0.000 
#
# Total GULP energy -356388.055771 kJ/mol
# GULP energy per Si atom -5568.563371 kJ/mol
# Density = 1.863646 g / cm^3
# Si number density = 18.678976 Si / 1000 Ang^3
#
#
#
# Elastic Constant Matrix: (Units=GPa)
#
#
# Indices 1 2 3 4 5 6 
#
# 1 149.2960 55.7698 40.7679 0.0000 0.0000 0.0000
# 2 55.7698 64.4116 15.5062 0.0000 0.0000 0.0000
# 3 40.7679 15.5062 82.8229 0.0000 0.0000 0.0000
# 4 0.0000 0.0000 0.0000 16.3048 0.0000 0.0000
# 5 0.0000 0.0000 0.0000 0.0000 28.1496 0.0000
# 6 0.0000 0.0000 0.0000 0.0000 0.0000 4.2614
#
#
#
# Elastic Compliance Matrix: (Units=1/GPa)
#
#
# Indices 1 2 3 4 5 6 
#
# 1 0.010922 -0.008548 -0.003776 0.000000 0.000000 0.000000
# 2 -0.008548 0.022948 -0.000089 0.000000 0.000000 0.000000
# 3 -0.003776 -0.000089 0.013949 0.000000 0.000000 0.000000
# 4 0.000000 0.000000 0.000000 0.061332 0.000000 0.000000
# 5 0.000000 0.000000 0.000000 0.000000 0.035524 0.000000
# 6 0.000000 0.000000 0.000000 0.000000 0.000000 0.234665
#
#
# Mechanical properties :
#
#
# Convention : Reuss Voigt Hill
#
# Bulk Modulus (GPa) = 43.48973 57.84646 50.66810
# Shear Modulus (GPa) = 12.14094 22.04228 17.09161
#
# Velocity S-wave (km/s) = 2.55223 3.43892 3.02821
# Velocity P-wave (km/s) = 5.65849 6.84136 6.27785
#
# Compressibility (1/GPa) = 0.02299393
#
# Stress axis : x y z
#
# Youngs Moduli (GPa) = 91.55626 43.57759 71.68879
#
# Poissons Ratio (x) = 0.37250 0.27069
# Poissons Ratio (y) = 0.78261 0.00636
# Poissons Ratio (z) = 0.34571 0.00387
#
# Static dielectric constant tensor:
#      x y z
#    x 1.683900 0.000000 0.000000 
#    y 0.000000 1.631210 0.000000 
#    z 0.000000 0.000000 1.676250 
# 
# From -- ./inp_files/19910.got.cif
#   From: 2010.05.17/outbox.cif.g08.bks.cpg/sg62_10_cif.got.tgz:19910.got - 2010.06.03 15:25:27.
