data_PCOD9463822
_publ_section_title
;
Structure prediction by ZEFSAII (Michael W. Deem and Ramdas Pophale) SiO2 
 PCOD9463822
Probable space group: P N M A
;
_chemical_formula_sum "Si O2"
_cell_formula_units_Z 64
_cell_length_a 9.467512
_cell_length_b 26.039132
_cell_length_c 15.703425
_cell_angle_alpha 90.000000
_cell_angle_beta 90.000000
_cell_angle_gamma 90.000000
_cell_volume 3871.299327
_symmetry_space_group_name_H-M "P N M A"
_symmetry_group_IT_number 62
_symmetry_cell_setting 'orthorhombic'
loop_
_space_group_symop_operation_xyz
x,y,z
1/2-x,-y,1/2+z
1/2+x,1/2-y,1/2-z
-x,1/2+y,-z
-x,-y,-z
1/2+x,y,1/2-z
1/2-x,1/2+y,1/2+z
x,1/2-y,z
loop_
_atom_site_type_symbol
_atom_site_label
_atom_site_fract_x
_atom_site_fract_y
_atom_site_fract_z
Si Si1 0.633595 0.612608 0.646239
Si Si2 0.863820 0.191033 0.449700
Si Si3 0.579158 0.456036 0.446904
Si Si4 0.161471 0.194589 0.366696
Si Si5 0.238326 0.026940 0.232967
Si Si6 0.501716 0.001525 0.861445
Si Si7 0.106067 0.192753 0.175329
Si Si8 0.886893 0.422798 0.499835
O O1 0.547897 0.582277 0.574655
O O2 0.757502 0.644942 0.601857
O O3 0.692349 0.577622 0.723409
O O4 0.517870 0.652304 0.680557
O O5 0.857466 0.250000 0.486146
O O6 0.719330 0.181767 0.398062
O O7 0.892401 0.139089 0.503023
O O8 0.995766 0.192096 0.385133
O O9 0.500000 0.500000 0.500000
O O10 0.642625 0.466268 0.351616
O O11 0.719973 0.437751 0.496763
O O12 0.210985 0.250000 0.400467
O O13 0.184046 0.193331 0.265550
O O14 0.367243 0.991424 0.202457
O O15 0.137886 0.006608 0.306730
O O16 0.544846 0.950019 0.915290
O O17 0.469978 0.047979 0.925361
O O18 0.048393 0.250000 0.161362
#
# Coordination Sequence:
#
# PCOD9463822 Si02
#       8
#     8   8   8   8   8   8   8   8
#     4  12  20  32  53  74 103 144 184 223 263 319
#     4  10  20  35  52  74 105 143 186 226 275 333
#     4  11  23  36  52  78 112 144 181 227 279 326
#     4  10  21  30  45  72 105 141 181 221 258 307
#     4  11  22  36  55  82 104 147 184 226 273 333
#     4  10  22  37  57  79 113 142 187 226 275 335
#     4  10  20  32  47  71 103 141 184 222 255 306
#     4  10  21  38  55  81 110 151 183 232 281 333
#
# _framework density 16.531918000000001
#
# number of rings (size 3 to 8) (size 9 to 14) (size 15 to 20)
#    0.000    1.500    2.500    3.375    5.250    4.000 
#    0.000    0.000    0.000    0.000    0.000    0.875 
#    0.000    0.000    0.000    0.000    0.000    0.000 
#
# Total GULP energy -356486.633839 kJ/mol
# GULP energy per Si atom -5570.103654 kJ/mol
# Density = 1.649429 g / cm^3
# Si number density = 16.531918 Si / 1000 Ang^3
#
#
#
# Elastic Constant Matrix: (Units=GPa)
#
#
# Indices 1 2 3 4 5 6 
#
# 1 82.4863 43.9990 35.5629 0.0000 0.0000 0.0000
# 2 43.9990 92.1939 28.8369 0.0000 0.0000 0.0000
# 3 35.5629 28.8369 35.2306 0.0000 0.0000 0.0000
# 4 0.0000 0.0000 0.0000 13.1965 0.0000 0.0000
# 5 0.0000 0.0000 0.0000 0.0000 29.3953 0.0000
# 6 0.0000 0.0000 0.0000 0.0000 0.0000 26.7489
#
#
#
# Elastic Compliance Matrix: (Units=1/GPa)
#
#
# Indices 1 2 3 4 5 6 
#
# 1 0.023065 -0.005007 -0.019184 0.000000 0.000000 0.000000
# 2 -0.005007 0.015666 -0.007769 0.000000 0.000000 0.000000
# 3 -0.019184 -0.007769 0.054108 0.000000 0.000000 0.000000
# 4 0.000000 0.000000 0.000000 0.075778 0.000000 0.000000
# 5 0.000000 0.000000 0.000000 0.000000 0.034019 0.000000
# 6 0.000000 0.000000 0.000000 0.000000 0.000000 0.037385
#
#
# Mechanical properties :
#
#
# Convention : Reuss Voigt Hill
#
# Bulk Modulus (GPa) = 34.57863 47.41203 40.99533
# Shear Modulus (GPa) = 15.94482 20.63561 18.29021
#
# Velocity S-wave (km/s) = 3.10899 3.53686 3.32980
# Velocity P-wave (km/s) = 5.81803 6.73947 6.29563
#
# Compressibility (1/GPa) = 0.02891959
#
# Stress axis : x y z
#
# Youngs Moduli (GPa) = 43.35551 63.83138 18.48141
#
# Poissons Ratio (x) = 0.31961 0.35455
# Poissons Ratio (y) = 0.21709 0.14358
# Poissons Ratio (z) = 0.83174 0.49589
#
# Static dielectric constant tensor:
#      x y z
#    x 1.618110 0.000000 0.000000 
#    y 0.000000 1.621340 0.000000 
#    z 0.000000 0.000000 1.541600 
# 
# From -- ./inp_files/17350.got.cif
#   From: 2010.05.17/outbox.cif.g08.bks.cpg/sg62_9_cif.got.tgz:17350.got - 2010.06.03 15:25:27.
