data_PCOD9463687
_publ_section_title
;
Structure prediction by ZEFSAII (Michael W. Deem and Ramdas Pophale) SiO2 
 PCOD9463687
Probable space group: P N M A
;
_chemical_formula_sum "Si O2"
_cell_formula_units_Z 56
_cell_length_a 14.070660
_cell_length_b 18.748392
_cell_length_c 9.814948
_cell_angle_alpha 90.000000
_cell_angle_beta 90.000000
_cell_angle_gamma 90.000000
_cell_volume 2589.205360
_symmetry_space_group_name_H-M "P N M A"
_symmetry_group_IT_number 62
_symmetry_cell_setting 'orthorhombic'
loop_
_space_group_symop_operation_xyz
x,y,z
1/2-x,-y,1/2+z
1/2+x,1/2-y,1/2-z
-x,1/2+y,-z
-x,-y,-z
1/2+x,y,1/2-z
1/2-x,1/2+y,1/2+z
x,1/2-y,z
loop_
_atom_site_type_symbol
_atom_site_label
_atom_site_fract_x
_atom_site_fract_y
_atom_site_fract_z
Si Si1 0.242702 0.831743 0.330782
Si Si2 0.021014 0.665506 0.717907
Si Si3 0.021477 0.832561 0.410037
Si Si4 0.217982 0.957666 0.125055
Si Si5 0.663668 0.947446 0.681023
Si Si6 0.998259 0.437416 0.828422
Si Si7 0.913745 0.834120 0.973335
O O1 0.263219 0.750000 0.289810
O O2 0.135255 0.833588 0.385967
O O3 0.249685 0.886191 0.205809
O O4 0.314997 0.851669 0.452416
O O5 0.039518 0.750000 0.715425
O O6 0.001593 0.643923 0.563448
O O7 0.112993 0.625978 0.777967
O O8 0.930184 0.652424 0.814562
O O9 0.990197 0.750000 0.387734
O O10 0.981947 0.889322 0.303933
O O11 0.107502 0.967554 0.166484
O O12 0.276863 0.021584 0.192276
O O13 0.220981 0.948673 0.961751
O O14 0.576056 0.002001 0.659015
O O15 0.008211 0.381246 0.950742
O O16 0.930818 0.750000 0.995696
#
# Coordination Sequence:
#
# PCOD9463687 Si02
#       7
#     8   8   8   8   8   8   8
#     4   9  19  38  67  95 125 170 223 268 317 392
#     4  10  23  42  65  94 131 172 214 268 331 389
#     4   9  20  40  64  96 135 174 218 266 319 382
#     4  11  25  42  65  96 131 172 219 273 333 396
#     4  12  26  44  65  97 135 171 220 274 330 399
#     4  11  22  41  68  95 129 175 218 266 331 394
#     4  10  19  37  67  97 129 173 219 267 326 394
#
# _framework density 21.628256
#
# number of rings (size 3 to 8) (size 9 to 14) (size 15 to 20)
#    0.000    1.714    2.857    0.857    4.000    1.714 
#    0.000    0.000    0.000    0.857    0.000    0.000 
#    0.000    0.000    0.000    0.000    0.000    0.000 
#
# Total GULP energy -313102.094084 kJ/mol
# GULP energy per Si atom -5591.108823 kJ/mol
# Density = 2.157903 g / cm^3
# Si number density = 21.628256 Si / 1000 Ang^3
#
#
#
# Elastic Constant Matrix: (Units=GPa)
#
#
# Indices 1 2 3 4 5 6 
#
# 1 46.3262 13.5914 2.4176 0.0000 0.0000 0.0000
# 2 13.5914 57.0759 45.3812 0.0000 0.0000 0.0000
# 3 2.4176 45.3812 145.8180 0.0000 0.0000 0.0000
# 4 0.0000 0.0000 0.0000 16.6930 0.0000 0.0000
# 5 0.0000 0.0000 0.0000 0.0000 14.8725 0.0000
# 6 0.0000 0.0000 0.0000 0.0000 0.0000 -12.0556
#
#
#
# Elastic Compliance Matrix: (Units=1/GPa)
#
#
# Indices 1 2 3 4 5 6 
#
# 1 0.023558 -0.007042 0.001801 0.000000 0.000000 0.000000
# 2 -0.007042 0.025386 -0.007784 0.000000 0.000000 0.000000
# 3 0.001801 -0.007784 0.009251 0.000000 0.000000 0.000000
# 4 0.000000 0.000000 0.000000 0.059905 0.000000 0.000000
# 5 0.000000 0.000000 0.000000 0.000000 0.067238 0.000000
# 6 0.000000 0.000000 0.000000 0.000000 0.000000 -0.082949
#
#
# Mechanical properties :
#
#
# Convention : Reuss Voigt Hill
#
# Bulk Modulus (GPa) = 31.10869 41.33339 36.22104
# Shear Modulus (GPa) = 35.93130 16.42397 26.17763
#
# Velocity S-wave (km/s) = 4.08034 2.75867 3.48277
# Velocity P-wave (km/s) = 6.05091 5.41288 5.74077
#
# Compressibility (1/GPa) = 0.03214536
#
# Stress axis : x y z
#
# Youngs Moduli (GPa) = 42.44838 39.39116 108.10216
#
# Poissons Ratio (x) = 0.27738 -0.19469
# Poissons Ratio (y) = 0.29891 0.84146
# Poissons Ratio (z) = -0.07645 0.30662
#
# Static dielectric constant tensor:
#      x y z
#    x 1.781810 0.000000 0.000000 
#    y 0.000000 1.786620 0.000000 
#    z 0.000000 0.000000 1.793580 
# 
# From -- ./inp_files/6755.got.cif
#   From: 2010.05.17/outbox.cif.g08.bks.cpg/sg62_4_cif.got.tgz:6755.got - 2010.06.03 15:25:27.
