data_PCOD9463121
_publ_section_title
;
Structure prediction by ZEFSAII (Michael W. Deem and Ramdas Pophale) SiO2 
 PCOD9463121
Probable space group: P N M A
;
_chemical_formula_sum "Si O2"
_cell_formula_units_Z 48
_cell_length_a 20.283312
_cell_length_b 8.616406
_cell_length_c 15.450308
_cell_angle_alpha 90.000000
_cell_angle_beta 90.000000
_cell_angle_gamma 90.000000
_cell_volume 2700.238760
_symmetry_space_group_name_H-M "P N M A"
_symmetry_group_IT_number 62
_symmetry_cell_setting 'orthorhombic'
loop_
_space_group_symop_operation_xyz
x,y,z
1/2-x,-y,1/2+z
1/2+x,1/2-y,1/2-z
-x,1/2+y,-z
-x,-y,-z
1/2+x,y,1/2-z
1/2-x,1/2+y,1/2+z
x,1/2-y,z
loop_
_atom_site_type_symbol
_atom_site_label
_atom_site_fract_x
_atom_site_fract_y
_atom_site_fract_z
Si Si1 0.987418 0.935756 0.230521
Si Si2 0.813570 0.437081 0.385234
Si Si3 0.165569 0.436847 0.799270
Si Si4 0.555129 0.063929 0.434655
Si Si5 0.696651 0.060564 0.509749
Si Si6 0.964509 0.436195 0.415397
O O1 0.991929 0.750000 0.230194
O O2 0.912359 0.978593 0.202362
O O3 0.996278 0.999283 0.327159
O O4 0.037044 0.005156 0.160641
O O5 0.812275 0.250000 0.384126
O O6 0.802908 0.495529 0.287589
O O7 0.758215 0.492103 0.452290
O O8 0.887439 0.485178 0.412708
O O9 0.169089 0.250000 0.795304
O O10 0.196534 0.489424 0.890036
O O11 0.552977 0.250000 0.437027
O O12 0.627395 0.013853 0.466593
O O13 0.500000 0.000000 0.500000
O O14 0.697617 0.250000 0.510560
O O15 0.966999 0.250000 0.414633
O O16 0.000000 0.500000 0.500000
#
# Coordination Sequence:
#
# PCOD9463121 Si02
#       6
#     8   8   8   8   8   8
#     4  10  19  34  55  80 107 139 178 220 264 318
#     4   9  19  36  56  77 104 139 179 219 262 316
#     4   9  17  33  55  75 101 140 176 211 263 316
#     4  11  20  33  54  81 111 142 175 217 268 320
#     4   9  18  35  55  75 107 143 173 216 272 317
#     4  10  20  36  58  82 107 141 181 224 268 316
#
# _framework density 17.776205999999998
#
# number of rings (size 3 to 8) (size 9 to 14) (size 15 to 20)
#    0.000    2.333    1.667    1.500    0.000    1.333 
#    3.000    2.500    0.000    0.000    0.000    0.000 
#    0.000    0.000    0.000    0.000    0.000    0.000 
#
# Total GULP energy -267823.609341 kJ/mol
# GULP energy per Si atom -5579.658528 kJ/mol
# Density = 1.773575 g / cm^3
# Si number density = 17.776206 Si / 1000 Ang^3
#
#
#
# Elastic Constant Matrix: (Units=GPa)
#
#
# Indices 1 2 3 4 5 6 
#
# 1 82.4574 19.2454 91.0231 0.0000 0.0000 0.0000
# 2 19.2454 24.3946 31.5318 0.0000 0.0000 0.0000
# 3 91.0231 31.5318 202.7432 0.0000 0.0000 0.0000
# 4 0.0000 0.0000 0.0000 35.7818 0.0000 0.0000
# 5 0.0000 0.0000 0.0000 0.0000 36.0264 0.0000
# 6 0.0000 0.0000 0.0000 0.0000 0.0000 17.1319
#
#
#
# Elastic Compliance Matrix: (Units=1/GPa)
#
#
# Indices 1 2 3 4 5 6 
#
# 1 0.024837 -0.006485 -0.010142 0.000000 0.000000 0.000000
# 2 -0.006485 0.053000 -0.005331 0.000000 0.000000 0.000000
# 3 -0.010142 -0.005331 0.010315 0.000000 0.000000 0.000000
# 4 0.000000 0.000000 0.000000 0.027947 0.000000 0.000000
# 5 0.000000 0.000000 0.000000 0.000000 0.027757 0.000000
# 6 0.000000 0.000000 0.000000 0.000000 0.000000 0.058371
#
#
# Mechanical properties :
#
#
# Convention : Reuss Voigt Hill
#
# Bulk Modulus (GPa) = 22.60659 65.91063 44.25861
# Shear Modulus (GPa) = 19.16530 28.97435 24.06983
#
# Velocity S-wave (km/s) = 3.28707 4.04165 3.68373
# Velocity P-wave (km/s) = 5.21070 7.67713 6.56086
#
# Compressibility (1/GPa) = 0.04423489
#
# Stress axis : x y z
#
# Youngs Moduli (GPa) = 40.26318 18.86791 96.94749
#
# Poissons Ratio (x) = 0.12236 0.98324
# Poissons Ratio (y) = 0.26110 0.51687
# Poissons Ratio (z) = 0.40835 0.10059
#
# Static dielectric constant tensor:
#      x y z
#    x 1.598780 0.000000 0.000000 
#    y 0.000000 1.606240 0.000000 
#    z 0.000000 0.000000 1.597740 
# 
# From -- ./inp_files/19565.got.cif
#   From: 2010.05.17/outbox.cif.g08.bks.cpg/sg62_10_cif.got.tgz:19565.got - 2010.06.03 15:25:27.
