data_PCOD9463391
_publ_section_title
;
Structure prediction by ZEFSAII (Michael W. Deem and Ramdas Pophale) SiO2 
 PCOD9463391
Probable space group: P N M A
;
_chemical_formula_sum "Si O2"
_cell_formula_units_Z 64
_cell_length_a 10.821597
_cell_length_b 9.289645
_cell_length_c 33.440010
_cell_angle_alpha 90.000000
_cell_angle_beta 90.000000
_cell_angle_gamma 90.000000
_cell_volume 3361.683892
_symmetry_space_group_name_H-M "P N M A"
_symmetry_group_IT_number 62
_symmetry_cell_setting 'orthorhombic'
loop_
_space_group_symop_operation_xyz
x,y,z
1/2-x,-y,1/2+z
1/2+x,1/2-y,1/2-z
-x,1/2+y,-z
-x,-y,-z
1/2+x,y,1/2-z
1/2-x,1/2+y,1/2+z
x,1/2-y,z
loop_
_atom_site_type_symbol
_atom_site_label
_atom_site_fract_x
_atom_site_fract_y
_atom_site_fract_z
Si Si1 0.645125 0.419932 0.369126
Si Si2 0.188374 0.919279 0.988003
Si Si3 0.306474 0.080246 0.059485
Si Si4 0.279490 0.413478 0.863475
Si Si5 0.806953 0.075239 0.216069
Si Si6 0.952409 0.587291 0.076579
Si Si7 0.919321 0.919741 0.571987
Si Si8 0.093786 0.424484 0.221020
O O1 0.614883 0.250000 0.369070
O O2 0.771597 0.436981 0.393791
O O3 0.548143 0.501993 0.396458
O O4 0.635975 0.469843 0.323524
O O5 0.161826 0.750000 0.990094
O O6 0.312348 0.937872 0.960903
O O7 0.084270 0.003659 0.963409
O O8 0.219745 0.988010 0.030642
O O9 0.290857 0.250000 0.049613
O O10 0.448515 0.037910 0.054315
O O11 0.311585 0.250000 0.851757
O O12 0.230761 0.504294 0.825953
O O13 0.169268 0.406322 0.895722
O O14 0.387083 0.492522 0.888099
O O15 0.805939 0.250000 0.212660
O O16 0.699646 0.031338 0.247501
O O17 0.949231 0.033111 0.227254
O O18 0.992543 0.750000 0.068174
O O19 0.924955 0.750000 0.582017
O O20 0.093983 0.250000 0.222056
#
# Coordination Sequence:
#
# PCOD9463391 Si02
#       8
#     8   8   8   8   8   8   8   8
#     4  10  20  36  56  79 108 143 182 228 277 332
#     4  10  20  34  55  80 108 144 187 231 279 332
#     4  10  21  35  53  79 112 145 182 230 283 331
#     4  10  20  34  55  83 109 141 183 225 271 326
#     4  10  19  35  59  85 112 145 184 230 278 333
#     4  10  20  35  56  79 106 142 186 229 274 327
#     4   9  19  35  55  80 109 147 186 227 277 332
#     4   9  19  34  57  85 111 142 184 228 275 331
#
# _framework density 19.038077999999999
#
# number of rings (size 3 to 8) (size 9 to 14) (size 15 to 20)
#    0.000    2.250    1.250    1.500    0.000    4.000 
#    0.000    5.000    0.000    0.000    0.000    0.000 
#    0.000    0.000    0.000    0.000    0.000    0.000 
#
# Total GULP energy -357007.846519 kJ/mol
# GULP energy per Si atom -5578.247602 kJ/mol
# Density = 1.899475 g / cm^3
# Si number density = 19.038078 Si / 1000 Ang^3
#
#
#
# Elastic Constant Matrix: (Units=GPa)
#
#
# Indices 1 2 3 4 5 6 
#
# 1 47.5772 25.5749 52.9582 0.0000 0.0000 0.0000
# 2 25.5749 44.8285 43.8336 0.0000 0.0000 0.0000
# 3 52.9582 43.8336 128.1547 0.0000 0.0000 0.0000
# 4 0.0000 0.0000 0.0000 24.7926 0.0000 0.0000
# 5 0.0000 0.0000 0.0000 0.0000 25.2751 0.0000
# 6 0.0000 0.0000 0.0000 0.0000 0.0000 11.9501
#
#
#
# Elastic Compliance Matrix: (Units=1/GPa)
#
#
# Indices 1 2 3 4 5 6 
#
# 1 0.041969 -0.010496 -0.013753 0.000000 0.000000 0.000000
# 2 -0.010496 0.036141 -0.008025 0.000000 0.000000 0.000000
# 3 -0.013753 -0.008025 0.016231 0.000000 0.000000 0.000000
# 4 0.000000 0.000000 0.000000 0.040335 0.000000 0.000000
# 5 0.000000 0.000000 0.000000 0.000000 0.039565 0.000000
# 6 0.000000 0.000000 0.000000 0.000000 0.000000 0.083682
#
#
# Mechanical properties :
#
#
# Convention : Reuss Voigt Hill
#
# Bulk Modulus (GPa) = 33.56280 51.69932 42.63106
# Shear Modulus (GPa) = 15.04207 18.94980 16.99594
#
# Velocity S-wave (km/s) = 2.81393 3.15836 2.99111
# Velocity P-wave (km/s) = 5.31274 6.36514 5.86260
#
# Compressibility (1/GPa) = 0.02979489
#
# Stress axis : x y z
#
# Youngs Moduli (GPa) = 23.82702 27.66905 61.60994
#
# Poissons Ratio (x) = 0.29040 0.84734
# Poissons Ratio (y) = 0.25008 0.49439
# Poissons Ratio (z) = 0.32770 0.22203
#
# Static dielectric constant tensor:
#      x y z
#    x 1.690370 0.000000 0.000000 
#    y 0.000000 1.646120 0.000000 
#    z 0.000000 0.000000 1.644630 
# 
# From -- ./inp_files/32488.got.cif
#   From: 2010.05.17/outbox.cif.g08.bks.cpg/sg62_17_cif.got.tgz:32488.got - 2010.06.03 15:25:27.
