data_PCOD9463270
_publ_section_title
;
Structure prediction by ZEFSAII (Michael W. Deem and Ramdas Pophale) SiO2 
 PCOD9463270
Probable space group: P N M A
;
_chemical_formula_sum "Si O2"
_cell_formula_units_Z 56
_cell_length_a 17.210960
_cell_length_b 13.371714
_cell_length_c 12.247783
_cell_angle_alpha 90.000000
_cell_angle_beta 90.000000
_cell_angle_gamma 90.000000
_cell_volume 2818.705206
_symmetry_space_group_name_H-M "P N M A"
_symmetry_group_IT_number 62
_symmetry_cell_setting 'orthorhombic'
loop_
_space_group_symop_operation_xyz
x,y,z
1/2-x,-y,1/2+z
1/2+x,1/2-y,1/2-z
-x,1/2+y,-z
-x,-y,-z
1/2+x,y,1/2-z
1/2-x,1/2+y,1/2+z
x,1/2-y,z
loop_
_atom_site_type_symbol
_atom_site_label
_atom_site_fract_x
_atom_site_fract_y
_atom_site_fract_z
Si Si1 0.824679 0.865941 0.913186
Si Si2 0.366722 0.870727 0.829803
Si Si3 0.429047 0.967350 0.425854
Si Si4 0.986441 0.132693 0.473313
Si Si5 0.808507 0.131891 0.140320
Si Si6 0.331766 0.456965 0.121439
Si Si7 0.424005 0.632488 0.197178
O O1 0.801704 0.750000 0.901418
O O2 0.863802 0.898512 0.798130
O O3 0.749238 0.932936 0.934911
O O4 0.883934 0.880154 0.010881
O O5 0.368900 0.750000 0.833999
O O6 0.281986 0.897892 0.877852
O O7 0.442288 0.903957 0.896299
O O8 0.449802 0.926190 0.305924
O O9 0.500000 0.000000 0.500000
O O10 0.370320 0.061295 0.418218
O O11 0.974989 0.250000 0.449566
O O12 0.906736 0.078445 0.445075
O O13 0.014708 0.125080 0.598079
O O14 0.817410 0.250000 0.117759
O O15 0.825321 0.109416 0.268110
O O16 0.348036 0.571185 0.156453
O O17 0.409553 0.750000 0.216701
#
# Coordination Sequence:
#
# PCOD9463270 Si02
#       7
#     8   8   8   8   8   8   8
#     4  10  21  39  62  89 124 160 207 264 312 370
#     4   8  17  33  59  90 114 147 193 245 306 361
#     4  11  25  41  60  85 117 168 217 254 313 383
#     4  10  19  34  63  93 122 156 199 255 315 378
#     4   9  19  37  59  86 120 152 198 261 307 362
#     4  10  20  37  62  95 119 160 208 255 314 379
#     4  10  23  41  59  89 130 164 200 257 319 379
#
# _framework density 19.867277999999999
#
# number of rings (size 3 to 8) (size 9 to 14) (size 15 to 20)
#    0.000    2.286    0.000    3.000    6.000    1.143 
#    0.000    0.000    0.000    1.714    0.000    0.000 
#    0.000    0.000    0.000    0.000    0.000    0.000 
#
# Total GULP energy -312520.900990 kJ/mol
# GULP energy per Si atom -5580.730375 kJ/mol
# Density = 1.982206 g / cm^3
# Si number density = 19.867278 Si / 1000 Ang^3
#
#
#
# Elastic Constant Matrix: (Units=GPa)
#
#
# Indices 1 2 3 4 5 6 
#
# 1 95.1964 20.0698 53.5543 0.0000 0.0000 0.0000
# 2 20.0698 92.6470 18.5507 0.0000 0.0000 0.0000
# 3 53.5543 18.5507 80.7154 0.0000 0.0000 0.0000
# 4 0.0000 0.0000 0.0000 26.3810 0.0000 0.0000
# 5 0.0000 0.0000 0.0000 0.0000 17.1305 0.0000
# 6 0.0000 0.0000 0.0000 0.0000 0.0000 24.3688
#
#
#
# Elastic Compliance Matrix: (Units=1/GPa)
#
#
# Indices 1 2 3 4 5 6 
#
# 1 0.016954 -0.001489 -0.010907 0.000000 0.000000 0.000000
# 2 -0.001489 0.011445 -0.001643 0.000000 0.000000 0.000000
# 3 -0.010907 -0.001643 0.020003 0.000000 0.000000 0.000000
# 4 0.000000 0.000000 0.000000 0.037906 0.000000 0.000000
# 5 0.000000 0.000000 0.000000 0.000000 0.058375 0.000000
# 6 0.000000 0.000000 0.000000 0.000000 0.000000 0.041036
#
#
# Mechanical properties :
#
#
# Convention : Reuss Voigt Hill
#
# Bulk Modulus (GPa) = 49.19778 50.32317 49.76048
# Shear Modulus (GPa) = 22.66829 25.33501 24.00165
#
# Velocity S-wave (km/s) = 3.38151 3.57489 3.47954
# Velocity P-wave (km/s) = 6.32955 6.51340 6.42213
#
# Compressibility (1/GPa) = 0.02032612
#
# Stress axis : x y z
#
# Youngs Moduli (GPa) = 58.98183 87.37387 49.99140
#
# Poissons Ratio (x) = 0.13009 0.54525
# Poissons Ratio (y) = 0.08782 0.08211
# Poissons Ratio (z) = 0.64331 0.14352
#
# Static dielectric constant tensor:
#      x y z
#    x 1.690080 0.000000 0.000000 
#    y 0.000000 1.701660 0.000000 
#    z 0.000000 0.000000 1.718710 
# 
# From -- ./inp_files/13383.got.cif
#   From: 2010.05.17/outbox.cif.g08.bks.cpg/sg62_7_cif.got.tgz:13383.got - 2010.06.03 15:25:27.
