data_PCOD9463604
_publ_section_title
;
Structure prediction by ZEFSAII (Michael W. Deem and Ramdas Pophale) SiO2 
 PCOD9463604
Probable space group: P N M A
;
_chemical_formula_sum "Si O2"
_cell_formula_units_Z 56
_cell_length_a 13.759374
_cell_length_b 13.109935
_cell_length_c 13.960064
_cell_angle_alpha 90.000000
_cell_angle_beta 90.000000
_cell_angle_gamma 90.000000
_cell_volume 2518.179148
_symmetry_space_group_name_H-M "P N M A"
_symmetry_group_IT_number 62
_symmetry_cell_setting 'orthorhombic'
loop_
_space_group_symop_operation_xyz
x,y,z
1/2-x,-y,1/2+z
1/2+x,1/2-y,1/2-z
-x,1/2+y,-z
-x,-y,-z
1/2+x,y,1/2-z
1/2-x,1/2+y,1/2+z
x,1/2-y,z
loop_
_atom_site_type_symbol
_atom_site_label
_atom_site_fract_x
_atom_site_fract_y
_atom_site_fract_z
Si Si1 0.047439 0.373952 0.464986
Si Si2 0.901359 0.863365 0.242055
Si Si3 0.935319 0.629054 0.759047
Si Si4 0.092311 0.865625 0.372506
Si Si5 0.728924 0.871859 0.483573
Si Si6 0.568083 0.509353 0.591295
Si Si7 0.717677 0.529023 0.283924
O O1 0.041388 0.250000 0.472987
O O2 0.042871 0.396976 0.352156
O O3 0.156331 0.395758 0.503902
O O4 0.956708 0.409438 0.530854
O O5 0.857589 0.750000 0.254406
O O6 0.831879 0.952630 0.279806
O O7 0.001554 0.862695 0.298996
O O8 0.916806 0.896135 0.133158
O O9 0.937311 0.750000 0.770044
O O10 0.830059 0.581824 0.785898
O O11 0.011329 0.573699 0.828114
O O12 0.125219 0.750000 0.391219
O O13 0.175297 0.921883 0.313398
O O14 0.716968 0.750000 0.493342
O O15 0.666361 0.933098 0.561477
O O16 0.690184 0.908940 0.379900
O O17 0.500000 0.500000 0.500000
#
# Coordination Sequence:
#
# PCOD9463604 Si02
#       7
#     8   8   8   8   8   8   8
#     4   9  20  39  65  91 126 174 215 262 330 407
#     4  11  23  41  67 101 136 170 224 288 342 406
#     4  11  24  43  64  92 132 178 230 284 339 419
#     4  10  19  36  64  97 131 168 215 276 338 405
#     4  11  21  39  66  95 128 175 225 269 337 421
#     4  12  24  43  63  95 132 178 224 282 350 408
#     4  12  22  40  68 101 135 174 226 283 350 405
#
# _framework density 22.238289000000002
#
# number of rings (size 3 to 8) (size 9 to 14) (size 15 to 20)
#    0.000    1.143    4.286    2.571    0.000    2.857 
#    0.000    0.714    0.000    0.000    0.000    0.000 
#    0.000    0.000    0.000    0.000    0.000    0.000 
#
# Total GULP energy -313046.959716 kJ/mol
# GULP energy per Si atom -5590.124281 kJ/mol
# Density = 2.218767 g / cm^3
# Si number density = 22.238289 Si / 1000 Ang^3
#
#
#
# Elastic Constant Matrix: (Units=GPa)
#
#
# Indices 1 2 3 4 5 6 
#
# 1 64.5434 19.0083 22.1961 0.0000 0.0000 0.0000
# 2 19.0083 92.8039 30.2872 0.0000 0.0000 0.0000
# 3 22.1961 30.2872 120.4329 0.0000 0.0000 0.0000
# 4 0.0000 0.0000 0.0000 37.1586 0.0000 0.0000
# 5 0.0000 0.0000 0.0000 0.0000 41.4811 0.0000
# 6 0.0000 0.0000 0.0000 0.0000 0.0000 35.3161
#
#
#
# Elastic Compliance Matrix: (Units=1/GPa)
#
#
# Indices 1 2 3 4 5 6 
#
# 1 0.017142 -0.002702 -0.002480 0.000000 0.000000 0.000000
# 2 -0.002702 0.012165 -0.002561 0.000000 0.000000 0.000000
# 3 -0.002480 -0.002561 0.009405 0.000000 0.000000 0.000000
# 4 0.000000 0.000000 0.000000 0.026912 0.000000 0.000000
# 5 0.000000 0.000000 0.000000 0.000000 0.024107 0.000000
# 6 0.000000 0.000000 0.000000 0.000000 0.000000 0.028316
#
#
# Mechanical properties :
#
#
# Convention : Reuss Voigt Hill
#
# Bulk Modulus (GPa) = 43.05636 46.75149 44.90393
# Shear Modulus (GPa) = 35.39234 36.54373 35.96803
#
# Velocity S-wave (km/s) = 3.99369 4.05814 4.02604
# Velocity P-wave (km/s) = 6.37727 6.55946 6.46901
#
# Compressibility (1/GPa) = 0.02322537
#
# Stress axis : x y z
#
# Youngs Moduli (GPa) = 58.33647 82.20514 106.33141
#
# Poissons Ratio (x) = 0.22210 0.26369
# Poissons Ratio (y) = 0.15761 0.27235
# Poissons Ratio (z) = 0.14467 0.21055
#
# Static dielectric constant tensor:
#      x y z
#    x 1.813010 0.000000 0.000000 
#    y 0.000000 1.852660 0.000000 
#    z 0.000000 0.000000 1.851980 
# 
# From -- ./inp_files/13413.got.cif
#   From: 2010.05.17/outbox.cif.g08.bks.cpg/sg62_7_cif.got.tgz:13413.got - 2010.06.03 15:25:27.
