data_PCOD9463394
_publ_section_title
;
Structure prediction by ZEFSAII (Michael W. Deem and Ramdas Pophale) SiO2 
 PCOD9463394
Probable space group: P N M A
;
_chemical_formula_sum "Si O2"
_cell_formula_units_Z 48
_cell_length_a 18.294233
_cell_length_b 14.032912
_cell_length_c 7.199417
_cell_angle_alpha 90.000000
_cell_angle_beta 90.000000
_cell_angle_gamma 90.000000
_cell_volume 1848.244136
_symmetry_space_group_name_H-M "P N M A"
_symmetry_group_IT_number 62
_symmetry_cell_setting 'orthorhombic'
loop_
_space_group_symop_operation_xyz
x,y,z
1/2-x,-y,1/2+z
1/2+x,1/2-y,1/2-z
-x,1/2+y,-z
-x,-y,-z
1/2+x,y,1/2-z
1/2-x,1/2+y,1/2+z
x,1/2-y,z
loop_
_atom_site_type_symbol
_atom_site_label
_atom_site_fract_x
_atom_site_fract_y
_atom_site_fract_z
Si Si1 0.957431 0.354995 0.363973
Si Si2 0.916392 0.937295 0.864916
Si Si3 0.233690 0.645917 0.313073
Si Si4 0.733354 0.138653 0.244743
Si Si5 0.061028 0.852901 0.227770
Si Si6 0.152606 0.497553 0.778197
O O1 0.922153 0.250000 0.334873
O O2 0.982107 0.355378 0.577557
O O3 0.905176 0.446240 0.344090
O O4 0.022311 0.369713 0.219022
O O5 0.843908 0.916960 0.740287
O O6 0.946817 0.045191 0.864403
O O7 0.888567 0.929797 0.075333
O O8 0.262528 0.750000 0.264550
O O9 0.243514 0.633354 0.535895
O O10 0.147609 0.645962 0.276105
O O11 0.282390 0.568801 0.206459
O O12 0.725332 0.250000 0.197617
O O13 0.799705 0.086196 0.139184
O O14 0.045855 0.750000 0.136425
#
# Coordination Sequence:
#
# PCOD9463394 Si02
#       6
#     8   8   8   8   8   8
#     4  11  23  41  63  85 118 164 204 237 297 366
#     4  11  23  38  58  92 124 154 196 253 298 342
#     4   9  18  35  58  84 114 152 195 238 290 348
#     4  10  19  35  59  85 116 154 199 239 284 348
#     4  10  20  37  60  83 115 160 197 238 293 355
#     4  11  21  36  62  90 115 154 199 251 297 345
#
# _framework density 25.970594999999999
#
# number of rings (size 3 to 8) (size 9 to 14) (size 15 to 20)
#    0.000    1.667    3.333    2.000    0.000    2.000 
#    0.000    0.833    0.000    1.000    0.000    0.000 
#    0.000    0.000    0.000    0.000    0.000    0.000 
#
# Total GULP energy -268337.107898 kJ/mol
# GULP energy per Si atom -5590.356415 kJ/mol
# Density = 2.591148 g / cm^3
# Si number density = 25.970595 Si / 1000 Ang^3
#
#
#
# Elastic Constant Matrix: (Units=GPa)
#
#
# Indices 1 2 3 4 5 6 
#
# 1 72.9277 21.9205 9.6008 0.0000 0.0000 0.0000
# 2 21.9205 126.8436 -0.2028 0.0000 0.0000 0.0000
# 3 9.6008 -0.2028 62.9664 0.0000 0.0000 0.0000
# 4 0.0000 0.0000 0.0000 34.8038 0.0000 0.0000
# 5 0.0000 0.0000 0.0000 0.0000 34.6693 0.0000
# 6 0.0000 0.0000 0.0000 0.0000 0.0000 71.5963
#
#
#
# Elastic Compliance Matrix: (Units=1/GPa)
#
#
# Indices 1 2 3 4 5 6 
#
# 1 0.014779 -0.002558 -0.002262 0.000000 0.000000 0.000000
# 2 -0.002558 0.008326 0.000417 0.000000 0.000000 0.000000
# 3 -0.002262 0.000417 0.016228 0.000000 0.000000 0.000000
# 4 0.000000 0.000000 0.000000 0.028732 0.000000 0.000000
# 5 0.000000 0.000000 0.000000 0.000000 0.028844 0.000000
# 6 0.000000 0.000000 0.000000 0.000000 0.000000 0.013967
#
#
# Mechanical properties :
#
#
# Convention : Reuss Voigt Hill
#
# Bulk Modulus (GPa) = 32.75693 36.15274 34.45483
# Shear Modulus (GPa) = 38.50382 43.64182 41.07282
#
# Velocity S-wave (km/s) = 3.85462 4.10375 3.98114
# Velocity P-wave (km/s) = 5.69660 6.03368 5.86756
#
# Compressibility (1/GPa) = 0.03052790
#
# Stress axis : x y z
#
# Youngs Moduli (GPa) = 67.66489 120.10013 61.62318
#
# Poissons Ratio (x) = 0.30717 0.13937
# Poissons Ratio (y) = 0.17306 -0.02568
# Poissons Ratio (z) = 0.15303 -0.05006
#
# Static dielectric constant tensor:
#      x y z
#    x 2.047670 0.000000 0.000000 
#    y 0.000000 2.041500 0.000000 
#    z 0.000000 0.000000 2.134610 
# 
# From -- ./inp_files/8581.got.cif
#   From: 2010.05.17/outbox.cif.g08.bks.cpg/sg62_5_cif.got.tgz:8581.got - 2010.06.03 15:25:27.
