data_PCOD9463228
_publ_section_title
;
Structure prediction by ZEFSAII (Michael W. Deem and Ramdas Pophale) SiO2 
 PCOD9463228
Probable space group: P N M A
;
_chemical_formula_sum "Si O2"
_cell_formula_units_Z 64
_cell_length_a 25.384443
_cell_length_b 8.844098
_cell_length_c 14.488781
_cell_angle_alpha 90.000000
_cell_angle_beta 90.000000
_cell_angle_gamma 90.000000
_cell_volume 3252.767579
_symmetry_space_group_name_H-M "P N M A"
_symmetry_group_IT_number 62
_symmetry_cell_setting 'orthorhombic'
loop_
_space_group_symop_operation_xyz
x,y,z
1/2-x,-y,1/2+z
1/2+x,1/2-y,1/2-z
-x,1/2+y,-z
-x,-y,-z
1/2+x,y,1/2-z
1/2-x,1/2+y,1/2+z
x,1/2-y,z
loop_
_atom_site_type_symbol
_atom_site_label
_atom_site_fract_x
_atom_site_fract_y
_atom_site_fract_z
Si Si1 0.137193 0.576014 0.080115
Si Si2 0.178501 0.074641 0.248985
Si Si3 0.232204 0.422411 0.991572
Si Si4 0.909565 0.934383 0.247987
Si Si5 0.951238 0.568160 0.444406
Si Si6 0.788698 0.574129 0.228657
Si Si7 0.660655 0.427242 0.033275
Si Si8 0.948827 0.929711 0.047060
O O1 0.122393 0.750000 0.070722
O O2 0.140397 0.524402 0.185685
O O3 0.195166 0.541559 0.041625
O O4 0.099248 0.473694 0.018981
O O5 0.173265 0.250000 0.224273
O O6 0.163937 0.057907 0.356205
O O7 0.239095 0.021673 0.236281
O O8 0.222757 0.250000 0.022070
O O9 0.217365 0.428639 0.882828
O O10 0.292448 0.470230 0.004734
O O11 0.908348 0.750000 0.246716
O O12 0.942574 0.981361 0.337986
O O13 0.847685 0.979211 0.253555
O O14 0.935004 0.984149 0.150928
O O15 0.956811 0.750000 0.444280
O O16 0.896384 0.531455 0.495461
O O17 0.000000 0.500000 0.500000
O O18 0.782900 0.750000 0.257896
O O19 0.670346 0.250000 0.010253
O O20 0.954869 0.750000 0.051611
O O21 0.000000 0.000000 0.000000
#
# Coordination Sequence:
#
# PCOD9463228 Si02
#       8
#     8   8   8   8   8   8   8   8
#     4  12  24  38  58  87 122 165 208 249 302 366
#     4  10  21  36  55  87 127 164 200 250 304 360
#     4  10  19  34  58  87 122 157 194 246 302 359
#     4   9  19  38  63  87 118 158 199 243 301 367
#     4  10  22  41  63  87 116 157 203 249 298 354
#     4   9  17  34  58  86 118 159 200 241 297 366
#     4   9  20  38  59  86 120 158 200 247 304 364
#     4  11  23  43  65  91 123 161 206 256 308 368
#
# _framework density 19.675554999999999
#
# number of rings (size 3 to 8) (size 9 to 14) (size 15 to 20)
#    0.000    2.000    1.250    2.250    1.750    2.500 
#    0.000    4.375    0.000    0.000    0.000    0.000 
#    0.000    0.000    0.000    0.000    0.000    0.000 
#
# Total GULP energy -357436.935470 kJ/mol
# GULP energy per Si atom -5584.952117 kJ/mol
# Density = 1.963077 g / cm^3
# Si number density = 19.675555 Si / 1000 Ang^3
#
#
#
# Elastic Constant Matrix: (Units=GPa)
#
#
# Indices 1 2 3 4 5 6 
#
# 1 104.7814 15.8396 52.8899 0.0000 0.0000 0.0000
# 2 15.8396 33.8340 16.5520 0.0000 0.0000 0.0000
# 3 52.8899 16.5520 81.4575 0.0000 0.0000 0.0000
# 4 0.0000 0.0000 0.0000 22.1743 0.0000 0.0000
# 5 0.0000 0.0000 0.0000 0.0000 24.5180 0.0000
# 6 0.0000 0.0000 0.0000 0.0000 0.0000 37.1419
#
#
#
# Elastic Compliance Matrix: (Units=1/GPa)
#
#
# Indices 1 2 3 4 5 6 
#
# 1 0.014370 -0.002402 -0.008842 0.000000 0.000000 0.000000
# 2 -0.002402 0.033220 -0.005191 0.000000 0.000000 0.000000
# 3 -0.008842 -0.005191 0.019072 0.000000 0.000000 0.000000
# 4 0.000000 0.000000 0.000000 0.045097 0.000000 0.000000
# 5 0.000000 0.000000 0.000000 0.000000 0.040786 0.000000
# 6 0.000000 0.000000 0.000000 0.000000 0.000000 0.026924
#
#
# Mechanical properties :
#
#
# Convention : Reuss Voigt Hill
#
# Bulk Modulus (GPa) = 29.59227 43.40398 36.49813
# Shear Modulus (GPa) = 22.36101 25.75294 24.05697
#
# Velocity S-wave (km/s) = 3.37484 3.62177 3.50048
# Velocity P-wave (km/s) = 5.50080 6.29264 5.91000
#
# Compressibility (1/GPa) = 0.03379261
#
# Stress axis : x y z
#
# Youngs Moduli (GPa) = 69.58927 30.10249 52.43182
#
# Poissons Ratio (x) = 0.07230 0.46362
# Poissons Ratio (y) = 0.16713 0.27216
# Poissons Ratio (z) = 0.61533 0.15626
#
# Static dielectric constant tensor:
#      x y z
#    x 1.691680 0.000000 0.000000 
#    y 0.000000 1.668870 0.000000 
#    z 0.000000 0.000000 1.728840 
# 
# From -- ./inp_files/20803.got.cif
#   From: 2010.05.17/outbox.cif.g08.bks.cpg/sg62_11_cif.got.tgz:20803.got - 2010.06.03 15:25:27.
