data_PCOD9463024
_publ_section_title
;
Structure prediction by ZEFSAII (Michael W. Deem and Ramdas Pophale) SiO2 
 PCOD9463024
Probable space group: P N M A
;
_chemical_formula_sum "Si O2"
_cell_formula_units_Z 64
_cell_length_a 25.156024
_cell_length_b 9.225134
_cell_length_c 14.207516
_cell_angle_alpha 90.000000
_cell_angle_beta 90.000000
_cell_angle_gamma 90.000000
_cell_volume 3297.105452
_symmetry_space_group_name_H-M "P N M A"
_symmetry_group_IT_number 62
_symmetry_cell_setting 'orthorhombic'
loop_
_space_group_symop_operation_xyz
x,y,z
1/2-x,-y,1/2+z
1/2+x,1/2-y,1/2-z
-x,1/2+y,-z
-x,-y,-z
1/2+x,y,1/2-z
1/2-x,1/2+y,1/2+z
x,1/2-y,z
loop_
_atom_site_type_symbol
_atom_site_label
_atom_site_fract_x
_atom_site_fract_y
_atom_site_fract_z
Si Si1 0.435662 0.922039 0.146137
Si Si2 0.219506 0.080983 0.244168
Si Si3 0.782324 0.077679 0.559478
Si Si4 0.597622 0.577030 0.033486
Si Si5 0.452040 0.423793 0.766369
Si Si6 0.116004 0.419529 0.113706
Si Si7 0.174469 0.918321 0.959552
Si Si8 0.337842 0.083714 0.233839
O O1 0.435130 0.750000 0.134308
O O2 0.487202 0.959455 0.208123
O O3 0.382278 0.978280 0.195181
O O4 0.436873 0.996617 0.044249
O O5 0.220802 0.250000 0.278179
O O6 0.170654 0.066750 0.173879
O O7 0.277623 0.054961 0.199810
O O8 0.213252 0.973811 0.331877
O O9 0.773569 0.250000 0.553113
O O10 0.840050 0.044339 0.516366
O O11 0.731190 0.993972 0.520849
O O12 0.590239 0.750000 0.025630
O O13 0.581525 0.536741 0.139780
O O14 0.447184 0.250000 0.752938
O O15 0.429108 0.506200 0.676668
O O16 0.105305 0.250000 0.099222
O O17 0.128699 0.500352 0.016782
O O18 0.176398 0.750000 0.986676
O O19 0.165330 0.926698 0.847315
O O20 0.351509 0.250000 0.208074
#
# Coordination Sequence:
#
# PCOD9463024 Si02
#       8
#     8   8   8   8   8   8   8   8
#     4  11  24  38  59  87 115 151 200 249 290 345
#     4   9  19  35  55  82 116 151 185 232 289 343
#     4  10  19  33  56  85 116 153 191 231 281 343
#     4  10  21  37  58  83 117 158 193 231 289 350
#     4  10  22  42  60  83 119 156 196 243 295 345
#     4  11  22  36  60  91 118 151 197 243 290 352
#     4  10  22  39  59  84 119 158 191 239 296 347
#     4   9  20  40  60  80 115 156 193 236 294 349
#
# _framework density 19.410965999999998
#
# number of rings (size 3 to 8) (size 9 to 14) (size 15 to 20)
#    0.000    2.000    1.250    2.625    1.750    5.500 
#    0.000    0.625    0.000    0.000    0.000    0.000 
#    0.000    0.000    0.000    0.000    0.000    0.000 
#
# Total GULP energy -357564.893003 kJ/mol
# GULP energy per Si atom -5586.951453 kJ/mol
# Density = 1.936679 g / cm^3
# Si number density = 19.410966 Si / 1000 Ang^3
#
#
#
# Elastic Constant Matrix: (Units=GPa)
#
#
# Indices 1 2 3 4 5 6 
#
# 1 58.7840 19.8165 -4.1596 0.0000 0.0000 0.0000
# 2 19.8165 44.6140 8.7671 0.0000 0.0000 0.0000
# 3 -4.1596 8.7671 23.8990 0.0000 0.0000 0.0000
# 4 0.0000 0.0000 0.0000 30.1575 0.0000 0.0000
# 5 0.0000 0.0000 0.0000 0.0000 31.2896 0.0000
# 6 0.0000 0.0000 0.0000 0.0000 0.0000 29.6342
#
#
#
# Elastic Compliance Matrix: (Units=1/GPa)
#
#
# Indices 1 2 3 4 5 6 
#
# 1 0.021251 -0.010956 0.007718 0.000000 0.000000 0.000000
# 2 -0.010956 0.029804 -0.012840 0.000000 0.000000 0.000000
# 3 0.007718 -0.012840 0.047896 0.000000 0.000000 0.000000
# 4 0.000000 0.000000 0.000000 0.033159 0.000000 0.000000
# 5 0.000000 0.000000 0.000000 0.000000 0.031960 0.000000
# 6 0.000000 0.000000 0.000000 0.000000 0.000000 0.033745
#
#
# Mechanical properties :
#
#
# Convention : Reuss Voigt Hill
#
# Bulk Modulus (GPa) = 14.97126 19.57169 17.27147
# Shear Modulus (GPa) = 19.82272 25.07446 22.44859
#
# Velocity S-wave (km/s) = 3.19911 3.59802 3.40441
# Velocity P-wave (km/s) = 4.62334 5.23122 4.93664
#
# Compressibility (1/GPa) = 0.06679465
#
# Stress axis : x y z
#
# Youngs Moduli (GPa) = 47.05705 33.55258 20.87847
#
# Poissons Ratio (x) = 0.36759 -0.16113
# Poissons Ratio (y) = 0.51554 0.26808
# Poissons Ratio (z) = -0.36317 0.43082
#
# Static dielectric constant tensor:
#      x y z
#    x 1.679640 0.000000 0.000000 
#    y 0.000000 1.647920 0.000000 
#    z 0.000000 0.000000 1.687390 
# 
# From -- ./inp_files/20765.got.cif
#   From: 2010.05.17/outbox.cif.g08.bks.cpg/sg62_11_cif.got.tgz:20765.got - 2010.06.03 15:25:27.
