data_PCOD9463193
_publ_section_title
;
Structure prediction by ZEFSAII (Michael W. Deem and Ramdas Pophale) SiO2 
 PCOD9463193
Probable space group: P N M A
;
_chemical_formula_sum "Si O2"
_cell_formula_units_Z 48
_cell_length_a 14.570306
_cell_length_b 13.836646
_cell_length_c 11.074281
_cell_angle_alpha 90.000000
_cell_angle_beta 90.000000
_cell_angle_gamma 90.000000
_cell_volume 2232.621188
_symmetry_space_group_name_H-M "P N M A"
_symmetry_group_IT_number 62
_symmetry_cell_setting 'orthorhombic'
loop_
_space_group_symop_operation_xyz
x,y,z
1/2-x,-y,1/2+z
1/2+x,1/2-y,1/2-z
-x,1/2+y,-z
-x,-y,-z
1/2+x,y,1/2-z
1/2-x,1/2+y,1/2+z
x,1/2-y,z
loop_
_atom_site_type_symbol
_atom_site_label
_atom_site_fract_x
_atom_site_fract_y
_atom_site_fract_z
Si Si1 0.813045 0.354128 0.693391
Si Si2 0.201333 0.453232 0.619438
Si Si3 0.306568 0.855441 0.541410
Si Si4 0.577716 0.034379 0.092530
Si Si5 0.958855 0.479320 0.199700
Si Si6 0.979921 0.361525 0.981633
O O1 0.859411 0.250000 0.689006
O O2 0.769745 0.376749 0.822393
O O3 0.730769 0.353060 0.595648
O O4 0.876290 0.439257 0.647374
O O5 0.257283 0.553098 0.600731
O O6 0.154428 0.419374 0.494191
O O7 0.121969 0.477737 0.717359
O O8 0.282347 0.750000 0.595802
O O9 0.415651 0.863762 0.533707
O O10 0.525312 0.079008 0.207315
O O11 0.500000 0.000000 0.000000
O O12 0.012630 0.567565 0.133304
O O13 0.923674 0.412593 0.089630
O O14 0.956399 0.250000 0.957603
#
# Coordination Sequence:
#
# PCOD9463193 Si02
#       6
#     8   8   8   8   8   8
#     4  10  19  34  57  84 114 152 196 238 291 355
#     4  10  19  34  58  83 115 153 194 247 298 360
#     4   9  18  33  54  78 105 145 190 236 291 347
#     4   9  20  37  57  84 118 157 200 247 305 354
#     4  10  20  35  55  82 115 153 196 238 295 355
#     4  10  20  35  56  80 110 152 195 239 289 350
#
# _framework density 21.499393000000001
#
# number of rings (size 3 to 8) (size 9 to 14) (size 15 to 20)
#    0.000    2.333    1.667    1.000    0.000    1.333 
#    0.000    5.833    0.000    5.000    0.000    0.000 
#    0.000    0.000    0.000    0.000    0.000    0.000 
#
# Total GULP energy -267695.731312 kJ/mol
# GULP energy per Si atom -5576.994402 kJ/mol
# Density = 2.145046 g / cm^3
# Si number density = 21.499393 Si / 1000 Ang^3
#
#
#
# Elastic Constant Matrix: (Units=GPa)
#
#
# Indices 1 2 3 4 5 6 
#
# 1 36.5999 -12.0907 15.0063 0.0000 0.0000 0.0000
# 2 -12.0907 45.0324 18.5367 0.0000 0.0000 0.0000
# 3 15.0063 18.5367 107.6859 0.0000 0.0000 0.0000
# 4 0.0000 0.0000 0.0000 19.6907 0.0000 0.0000
# 5 0.0000 0.0000 0.0000 0.0000 35.7477 0.0000
# 6 0.0000 0.0000 0.0000 0.0000 0.0000 6.6597
#
#
#
# Elastic Compliance Matrix: (Units=1/GPa)
#
#
# Indices 1 2 3 4 5 6 
#
# 1 0.034057 0.011944 -0.006802 0.000000 0.000000 0.000000
# 2 0.011944 0.028088 -0.006499 0.000000 0.000000 0.000000
# 3 -0.006802 -0.006499 0.011353 0.000000 0.000000 0.000000
# 4 0.000000 0.000000 0.000000 0.050785 0.000000 0.000000
# 5 0.000000 0.000000 0.000000 0.000000 0.027974 0.000000
# 6 0.000000 0.000000 0.000000 0.000000 0.000000 0.150157
#
#
# Mechanical properties :
#
#
# Convention : Reuss Voigt Hill
#
# Bulk Modulus (GPa) = 14.12767 25.80255 19.96511
# Shear Modulus (GPa) = 15.21031 23.61066 19.41049
#
# Velocity S-wave (km/s) = 2.66273 3.31751 3.00799
# Velocity P-wave (km/s) = 4.00487 5.16740 4.62282
#
# Compressibility (1/GPa) = 0.07078307
#
# Stress axis : x y z
#
# Youngs Moduli (GPa) = 29.36261 35.60192 88.08304
#
# Poissons Ratio (x) = -0.42522 0.59913
# Poissons Ratio (y) = -0.35070 0.57249
# Poissons Ratio (z) = 0.19972 0.23139
#
# Static dielectric constant tensor:
#      x y z
#    x 1.866270 0.000000 0.000000 
#    y 0.000000 1.756870 0.000000 
#    z 0.000000 0.000000 1.798360 
# 
# From -- ./inp_files/13296.got.cif
#   From: 2010.05.17/outbox.cif.g08.bks.cpg/sg62_7_cif.got.tgz:13296.got - 2010.06.03 15:25:27.
