data_PCOD9463920
_publ_section_title
;
Structure prediction by ZEFSAII (Michael W. Deem and Ramdas Pophale) SiO2 
 PCOD9463920
Probable space group: P N M A
;
_chemical_formula_sum "Si O2"
_cell_formula_units_Z 60
_cell_length_a 25.119071
_cell_length_b 7.365944
_cell_length_c 12.264622
_cell_angle_alpha 90.000000
_cell_angle_beta 90.000000
_cell_angle_gamma 90.000000
_cell_volume 2269.269907
_symmetry_space_group_name_H-M "P N M A"
_symmetry_group_IT_number 62
_symmetry_cell_setting 'orthorhombic'
loop_
_space_group_symop_operation_xyz
x,y,z
1/2-x,-y,1/2+z
1/2+x,1/2-y,1/2-z
-x,1/2+y,-z
-x,-y,-z
1/2+x,y,1/2-z
1/2-x,1/2+y,1/2+z
x,1/2-y,z
loop_
_atom_site_type_symbol
_atom_site_label
_atom_site_fract_x
_atom_site_fract_y
_atom_site_fract_z
Si Si1 0.218403 0.468818 0.497027
Si Si2 0.842410 0.455368 0.970774
Si Si3 0.585994 0.528198 0.806730
Si Si4 0.186940 0.029650 0.272050
Si Si5 0.031808 0.539032 0.224021
Si Si6 0.304019 0.453113 0.237673
Si Si7 0.073649 0.250000 0.052151
Si Si8 0.560683 0.534366 0.040243
O O1 0.216596 0.250000 0.506639
O O2 0.282423 0.509297 0.490167
O O3 0.178703 0.519284 0.397907
O O4 0.199571 0.557791 0.607232
O O5 0.853278 0.250000 0.003085
O O6 0.840894 0.462574 0.836845
O O7 0.888000 0.592751 0.001498
O O8 0.585983 0.750000 0.807599
O O9 0.530421 0.467360 0.756402
O O10 0.638353 0.467852 0.741976
O O11 0.590379 0.463395 0.932808
O O12 0.184630 0.250000 0.262856
O O13 0.247920 0.960707 0.264187
O O14 0.045213 0.750000 0.202367
O O15 0.042650 0.408839 0.123645
O O16 0.063161 0.470191 0.333808
O O17 0.301294 0.250000 0.283910
O O18 0.568355 0.750000 0.047368
O O19 0.500000 0.500000 0.000000
#
# Coordination Sequence:
#
# PCOD9463920 Si02
#       8
#     8   8   8   8   8   8   4   8
#     4   9  19  34  54  78 113 145 181 224 279 332
#     4  10  21  37  55  81 111 145 182 232 274 330
#     4   9  16  31  48  72 107 142 184 225 272 325
#     4   9  17  35  55  81 116 146 178 228 278 327
#     4  10  20  33  50  75 104 145 187 229 273 324
#     4   9  18  30  53  80 111 147 182 224 274 330
#     4  12  22  36  54  74 112 138 188 224 274 320
#     4   8  15  26  42  62  94 134 174 215 256 306
#
# _framework density 26.440223
#
# number of rings (size 3 to 8) (size 9 to 14) (size 15 to 20)
#    0.000    2.667    1.333    0.400    1.867    2.133 
#    0.000    1.333    0.000    0.000    0.000    0.933 
#    0.000    0.000    0.000    0.000    0.000    0.000 
#
# Total GULP energy -334366.543960 kJ/mol
# GULP energy per Si atom -5572.775733 kJ/mol
# Density = 2.638004 g / cm^3
# Si number density = 26.440223 Si / 1000 Ang^3
#
#
#
# Elastic Constant Matrix: (Units=GPa)
#
#
# Indices 1 2 3 4 5 6 
#
# 1 72.5087 1.2091 -29.2275 0.0000 0.0000 0.0000
# 2 1.2091 132.0501 -8.4641 0.0000 0.0000 0.0000
# 3 -29.2275 -8.4641 37.1433 0.0000 0.0000 0.0000
# 4 0.0000 0.0000 0.0000 -18.4204 0.0000 0.0000
# 5 0.0000 0.0000 0.0000 0.0000 24.4656 0.0000
# 6 0.0000 0.0000 0.0000 0.0000 0.0000 11.0708
#
#
#
# Elastic Compliance Matrix: (Units=1/GPa)
#
#
# Indices 1 2 3 4 5 6 
#
# 1 0.020292 0.000850 0.016161 0.000000 0.000000 0.000000
# 2 0.000850 0.007721 0.002428 0.000000 0.000000 0.000000
# 3 0.016161 0.002428 0.040193 0.000000 0.000000 0.000000
# 4 0.000000 0.000000 0.000000 -0.054288 0.000000 0.000000
# 5 0.000000 0.000000 0.000000 0.000000 0.040874 0.000000
# 6 0.000000 0.000000 0.000000 0.000000 0.000000 0.090327
#
#
# Mechanical properties :
#
#
# Convention : Reuss Voigt Hill
#
# Bulk Modulus (GPa) = 9.33852 18.74856 14.04354
# Shear Modulus (GPa) = 35.22748 21.96884 28.59816
#
# Velocity S-wave (km/s) = 3.65409 2.88564 3.29236
# Velocity P-wave (km/s) = 4.61982 4.26718 4.44700
#
# Compressibility (1/GPa) = 0.10708341
#
# Stress axis : x y z
#
# Youngs Moduli (GPa) = 49.28163 129.52110 24.88010
#
# Poissons Ratio (x) = -0.11010 -0.40208
# Poissons Ratio (y) = -0.04189 -0.06042
# Poissons Ratio (z) = -0.79643 -0.31452
#
# Static dielectric constant tensor:
#      x y z
#    x 2.282440 0.000000 0.000000 
#    y 0.000000 1.981140 0.000000 
#    z 0.000000 0.000000 2.167490 
# 
# From -- ./inp_files/21113.got.cif
#   From: 2010.05.17/outbox.cif.g08.bks.cpg/sg62_11_cif.got.tgz:21113.got - 2010.06.03 15:25:27.
