data_PCOD9463910
_publ_section_title
;
Structure prediction by ZEFSAII (Michael W. Deem and Ramdas Pophale) SiO2 
 PCOD9463910
Probable space group: P N M A
;
_chemical_formula_sum "Si O2"
_cell_formula_units_Z 56
_cell_length_a 5.062093
_cell_length_b 21.672023
_cell_length_c 21.898338
_cell_angle_alpha 90.000000
_cell_angle_beta 90.000000
_cell_angle_gamma 90.000000
_cell_volume 2402.374600
_symmetry_space_group_name_H-M "P N M A"
_symmetry_group_IT_number 62
_symmetry_cell_setting 'orthorhombic'
loop_
_space_group_symop_operation_xyz
x,y,z
1/2-x,-y,1/2+z
1/2+x,1/2-y,1/2-z
-x,1/2+y,-z
-x,-y,-z
1/2+x,y,1/2-z
1/2-x,1/2+y,1/2+z
x,1/2-y,z
loop_
_atom_site_type_symbol
_atom_site_label
_atom_site_fract_x
_atom_site_fract_y
_atom_site_fract_z
Si Si1 0.759781 0.954446 0.707128
Si Si2 0.711345 0.846866 0.395951
Si Si3 0.823863 0.317584 0.207735
Si Si4 0.300182 0.317710 0.971184
Si Si5 0.407101 0.678901 0.274129
Si Si6 0.030264 0.977652 0.103779
Si Si7 0.198665 0.554645 0.515797
O O1 0.047910 0.960351 0.737202
O O2 0.728246 0.884970 0.678988
O O3 0.671880 0.004130 0.656577
O O4 0.501214 0.828136 0.449003
O O5 0.565423 0.821685 0.336589
O O6 0.720410 0.920257 0.383054
O O7 0.997345 0.821977 0.413910
O O8 0.618167 0.318162 0.264586
O O9 0.785302 0.250000 0.176692
O O10 0.323573 0.250000 0.998734
O O11 0.392054 0.375082 0.012402
O O12 0.118163 0.649077 0.272417
O O13 0.342750 0.750000 0.259015
O O14 0.893536 0.953360 0.041761
O O15 0.181658 0.038276 0.081186
O O16 0.000000 0.500000 0.500000
#
# Coordination Sequence:
#
# PCOD9463910 Si02
#       7
#     8   8   8   8   8   8   8
#     4  10  22  36  57  90 124 157 198 254 305 360
#     4  11  22  37  58  84 116 156 199 244 301 361
#     4   8  14  28  49  73 106 150 193 232 287 358
#     4  11  22  38  63  90 115 148 197 254 303 359
#     4  10  20  33  49  73 109 151 193 239 289 344
#     4  10  23  39  62  90 120 164 207 249 305 373
#     4  10  21  42  65  87 120 163 207 251 306 365
#
# _framework density 23.310269999999999
#
# number of rings (size 3 to 8) (size 9 to 14) (size 15 to 20)
#    0.000    2.000    1.429    2.143    2.000    2.286 
#    0.000    0.714    0.000    0.857    0.000    0.000 
#    0.000    0.000    0.000    0.000    0.000    0.000 
#
# Total GULP energy -312247.048117 kJ/mol
# GULP energy per Si atom -5575.840145 kJ/mol
# Density = 2.325721 g / cm^3
# Si number density = 23.310270 Si / 1000 Ang^3
#
#
#
# Elastic Constant Matrix: (Units=GPa)
#
#
# Indices 1 2 3 4 5 6 
#
# 1 62.5181 -2.8202 -0.6355 0.0000 0.0000 0.0000
# 2 -2.8202 144.3202 19.6585 0.0000 0.0000 0.0000
# 3 -0.6355 19.6585 23.4131 0.0000 0.0000 0.0000
# 4 0.0000 0.0000 0.0000 29.1082 0.0000 0.0000
# 5 0.0000 0.0000 0.0000 0.0000 12.2413 0.0000
# 6 0.0000 0.0000 0.0000 0.0000 0.0000 1422.5078
#
#
#
# Elastic Compliance Matrix: (Units=1/GPa)
#
#
# Indices 1 2 3 4 5 6 
#
# 1 0.016010 0.000286 0.000194 0.000000 0.000000 0.000000
# 2 0.000286 0.007829 -0.006566 0.000000 0.000000 0.000000
# 3 0.000194 -0.006566 0.048229 0.000000 0.000000 0.000000
# 4 0.000000 0.000000 0.000000 0.034355 0.000000 0.000000
# 5 0.000000 0.000000 0.000000 0.000000 0.081691 0.000000
# 6 0.000000 0.000000 0.000000 0.000000 0.000000 0.000703
#
#
# Mechanical properties :
#
#
# Convention : Reuss Voigt Hill
#
# Bulk Modulus (GPa) = 16.69506 29.18410 22.93958
# Shear Modulus (GPa) = 22.62922 307.04136 164.83529
#
# Velocity S-wave (km/s) = 3.11912 11.48936 8.41826
# Velocity P-wave (km/s) = 4.48882 13.73150 10.21527
#
# Compressibility (1/GPa) = 0.05989796
#
# Stress axis : x y z
#
# Youngs Moduli (GPa) = 62.45990 127.73058 20.73436
#
# Poissons Ratio (x) = -0.03658 -0.00402
# Poissons Ratio (y) = -0.01789 0.13614
# Poissons Ratio (z) = -0.01212 0.83864
#
# Static dielectric constant tensor:
#      x y z
#    x 1.950960 0.000000 0.000000 
#    y 0.000000 2.040690 0.000000 
#    z 0.000000 0.000000 1.966190 
# 
# From -- ./inp_files/25384.got.cif
#   From: 2010.05.17/outbox.cif.g08.bks.cpg/sg62_13_cif.got.tgz:25384.got - 2010.06.03 15:25:27.
