data_PCOD9463168
_publ_section_title
;
Structure prediction by ZEFSAII (Michael W. Deem and Ramdas Pophale) SiO2 
 PCOD9463168
Probable space group: P N M A
;
_chemical_formula_sum "Si O2"
_cell_formula_units_Z 64
_cell_length_a 14.541896
_cell_length_b 23.118804
_cell_length_c 9.302818
_cell_angle_alpha 90.000000
_cell_angle_beta 90.000000
_cell_angle_gamma 90.000000
_cell_volume 3127.525951
_symmetry_space_group_name_H-M "P N M A"
_symmetry_group_IT_number 62
_symmetry_cell_setting 'orthorhombic'
loop_
_space_group_symop_operation_xyz
x,y,z
1/2-x,-y,1/2+z
1/2+x,1/2-y,1/2-z
-x,1/2+y,-z
-x,-y,-z
1/2+x,y,1/2-z
1/2-x,1/2+y,1/2+z
x,1/2-y,z
loop_
_atom_site_type_symbol
_atom_site_label
_atom_site_fract_x
_atom_site_fract_y
_atom_site_fract_z
Si Si1 0.799990 0.978100 0.660524
Si Si2 0.370106 0.913924 0.084876
Si Si3 0.501689 0.495762 0.743526
Si Si4 0.240977 0.613659 0.322162
Si Si5 0.809690 0.617528 0.878964
Si Si6 0.016902 0.587550 0.972573
Si Si7 0.841572 0.685458 0.597514
Si Si8 0.351440 0.182939 0.578048
O O1 0.789267 0.946362 0.506751
O O2 0.767589 0.936611 0.789482
O O3 0.769405 0.044026 0.666361
O O4 0.909969 0.980750 0.683656
O O5 0.439083 0.961718 0.141302
O O6 0.332945 0.881700 0.226432
O O7 0.403321 0.863834 0.977497
O O8 0.474712 0.451261 0.615974
O O9 0.551827 0.547960 0.659845
O O10 0.250493 0.635197 0.483863
O O11 0.167673 0.648281 0.226665
O O12 0.825070 0.666772 0.760946
O O13 0.909221 0.598508 0.941210
O O14 0.072390 0.646259 0.993575
O O15 0.878112 0.750000 0.585229
O O16 0.743615 0.682709 0.513684
O O17 0.376093 0.250000 0.601984
#
# Coordination Sequence:
#
# PCOD9463168 Si02
#       8
#     8   8   8   8   8   8   8   8
#     4  10  20  33  52  83 118 149 181 231 295 348
#     4  10  20  33  55  83 112 147 189 230 287 347
#     4  10  19  34  56  83 119 148 185 232 295 346
#     4  11  20  33  55  80 115 144 186 244 280 342
#     4  10  21  36  57  89 111 151 197 236 292 350
#     4  10  20  36  59  85 120 151 188 242 287 346
#     4   9  21  41  59  79 113 149 194 247 291 341
#     4  10  22  40  59  80 109 155 196 233 293 347
#
# _framework density 20.463457999999999
#
# number of rings (size 3 to 8) (size 9 to 14) (size 15 to 20)
#    0.000    2.000    2.500    1.125    0.000    5.000 
#    0.000    0.625    0.000    0.000    0.000    0.000 
#    0.000    0.000    0.000    0.000    0.000    0.000 
#
# Total GULP energy -357113.787965 kJ/mol
# GULP energy per Si atom -5579.902937 kJ/mol
# Density = 2.041688 g / cm^3
# Si number density = 20.463458 Si / 1000 Ang^3
#
#
#
# Elastic Constant Matrix: (Units=GPa)
#
#
# Indices 1 2 3 4 5 6 
#
# 1 17.2763 9.6758 11.0669 0.0000 0.0000 0.0000
# 2 9.6758 120.5216 32.6453 0.0000 0.0000 0.0000
# 3 11.0669 32.6453 126.7165 0.0000 0.0000 0.0000
# 4 0.0000 0.0000 0.0000 16.8553 0.0000 0.0000
# 5 0.0000 0.0000 0.0000 0.0000 14.2046 0.0000
# 6 0.0000 0.0000 0.0000 0.0000 0.0000 24.2732
#
#
#
# Elastic Compliance Matrix: (Units=1/GPa)
#
#
# Indices 1 2 3 4 5 6 
#
# 1 0.062916 -0.003830 -0.004508 0.000000 0.000000 0.000000
# 2 -0.003830 0.009153 -0.002024 0.000000 0.000000 0.000000
# 3 -0.004508 -0.002024 0.008807 0.000000 0.000000 0.000000
# 4 0.000000 0.000000 0.000000 0.059329 0.000000 0.000000
# 5 0.000000 0.000000 0.000000 0.000000 0.070400 0.000000
# 6 0.000000 0.000000 0.000000 0.000000 0.000000 0.041198
#
#
# Mechanical properties :
#
#
# Convention : Reuss Voigt Hill
#
# Bulk Modulus (GPa) = 16.62453 41.25447 28.93950
# Shear Modulus (GPa) = 17.08963 25.14171 21.11567
#
# Velocity S-wave (km/s) = 2.89300 3.50896 3.21576
# Velocity P-wave (km/s) = 4.39328 6.05152 5.28781
#
# Compressibility (1/GPa) = 0.06015209
#
# Stress axis : x y z
#
# Youngs Moduli (GPa) = 15.89428 109.25564 113.55046
#
# Poissons Ratio (x) = 0.41844 0.51190
# Poissons Ratio (y) = 0.06087 0.22977
# Poissons Ratio (z) = 0.07165 0.22108
#
# Static dielectric constant tensor:
#      x y z
#    x 1.746880 0.000000 0.000000 
#    y 0.000000 1.730030 0.000000 
#    z 0.000000 0.000000 1.756760 
# 
# From -- ./inp_files/8149.got.cif
#   From: 2010.05.17/outbox.cif.g08.bks.cpg/sg62_5_cif.got.tgz:8149.got - 2010.06.03 15:25:27.
