data_PCOD9463180
_publ_section_title
;
Structure prediction by ZEFSAII (Michael W. Deem and Ramdas Pophale) SiO2 
 PCOD9463180
Probable space group: P N M A
;
_chemical_formula_sum "Si O2"
_cell_formula_units_Z 56
_cell_length_a 23.637421
_cell_length_b 14.946934
_cell_length_c 9.723629
_cell_angle_alpha 90.000000
_cell_angle_beta 90.000000
_cell_angle_gamma 90.000000
_cell_volume 3435.425915
_symmetry_space_group_name_H-M "P N M A"
_symmetry_group_IT_number 62
_symmetry_cell_setting 'orthorhombic'
loop_
_space_group_symop_operation_xyz
x,y,z
1/2-x,-y,1/2+z
1/2+x,1/2-y,1/2-z
-x,1/2+y,-z
-x,-y,-z
1/2+x,y,1/2-z
1/2-x,1/2+y,1/2+z
x,1/2-y,z
loop_
_atom_site_type_symbol
_atom_site_label
_atom_site_fract_x
_atom_site_fract_y
_atom_site_fract_z
Si Si1 0.157735 0.855792 0.190899
Si Si2 0.031074 0.005762 0.854562
Si Si3 0.958192 0.146958 0.357738
Si Si4 0.162010 0.514473 0.927133
Si Si5 0.252098 0.852884 0.422683
Si Si6 0.464984 0.356266 0.826203
Si Si7 0.676265 0.650181 0.806209
O O1 0.156566 0.750000 0.148809
O O2 0.211210 0.868361 0.291693
O O3 0.099407 0.872490 0.274716
O O4 0.160586 0.923781 0.063468
O O5 0.007368 0.089509 0.769871
O O6 0.019245 0.919233 0.758700
O O7 0.097839 0.008400 0.884321
O O8 0.000000 0.000000 0.000000
O O9 0.976307 0.250000 0.336898
O O10 0.972198 0.118892 0.513525
O O11 0.889961 0.145490 0.345307
O O12 0.198748 0.425149 0.937136
O O13 0.187939 0.575731 0.806462
O O14 0.272754 0.750000 0.414704
O O15 0.212717 0.860331 0.557149
O O16 0.474310 0.250000 0.815896
O O17 0.686606 0.750000 0.749578
#
# Coordination Sequence:
#
# PCOD9463180 Si02
#       7
#     8   8   8   8   8   8   8
#     4  10  19  34  57  80 102 133 181 225 258 308
#     4  11  22  34  50  82 113 139 176 218 264 324
#     4   9  18  34  57  77  98 135 180 223 262 304
#     4  11  21  33  52  79 111 136 170 215 272 314
#     4  10  20  35  54  75 103 139 175 211 261 322
#     4  10  19  35  56  76 102 142 182 221 261 305
#     4   9  17  32  53  77 100 127 171 220 260 305
#
# _framework density 16.300744000000002
#
# number of rings (size 3 to 8) (size 9 to 14) (size 15 to 20)
#    0.000    2.000    2.857    1.714    0.000    1.714 
#    0.000    0.000    0.000    0.000    0.000    0.000 
#    0.000    0.000    0.000    0.000    0.000    0.000 
#
# Total GULP energy -312302.038531 kJ/mol
# GULP energy per Si atom -5576.822117 kJ/mol
# Density = 1.626364 g / cm^3
# Si number density = 16.300744 Si / 1000 Ang^3
#
#
#
# Elastic Constant Matrix: (Units=GPa)
#
#
# Indices 1 2 3 4 5 6 
#
# 1 55.9014 51.8161 38.7718 0.0000 0.0000 0.0000
# 2 51.8161 100.9940 77.0896 0.0000 0.0000 0.0000
# 3 38.7718 77.0896 124.5964 0.0000 0.0000 0.0000
# 4 0.0000 0.0000 0.0000 28.5101 0.0000 0.0000
# 5 0.0000 0.0000 0.0000 0.0000 17.9983 0.0000
# 6 0.0000 0.0000 0.0000 0.0000 0.0000 29.5175
#
#
#
# Elastic Compliance Matrix: (Units=1/GPa)
#
#
# Indices 1 2 3 4 5 6 
#
# 1 0.034121 -0.017815 0.000405 0.000000 0.000000 0.000000
# 2 -0.017815 0.028064 -0.011820 0.000000 0.000000 0.000000
# 3 0.000405 -0.011820 0.015213 0.000000 0.000000 0.000000
# 4 0.000000 0.000000 0.000000 0.035075 0.000000 0.000000
# 5 0.000000 0.000000 0.000000 0.000000 0.055561 0.000000
# 6 0.000000 0.000000 0.000000 0.000000 0.000000 0.033878
#
#
# Mechanical properties :
#
#
# Convention : Reuss Voigt Hill
#
# Bulk Modulus (GPa) = 52.80495 68.53851 60.67173
# Shear Modulus (GPa) = 18.74862 22.79281 20.77071
#
# Velocity S-wave (km/s) = 3.39509 3.74340 3.57349
# Velocity P-wave (km/s) = 6.91617 7.79882 7.37072
#
# Compressibility (1/GPa) = 0.01893762
#
# Stress axis : x y z
#
# Youngs Moduli (GPa) = 29.30730 35.63261 65.73240
#
# Poissons Ratio (x) = 0.63480 -0.02660
# Poissons Ratio (y) = 0.52211 0.77696
# Poissons Ratio (z) = -0.01186 0.42118
#
# Static dielectric constant tensor:
#      x y z
#    x 1.515490 0.000000 0.000000 
#    y 0.000000 1.552060 0.000000 
#    z 0.000000 0.000000 1.539340 
# 
# From -- ./inp_files/8719.got.cif
#   From: 2010.05.17/outbox.cif.g08.bks.cpg/sg62_5_cif.got.tgz:8719.got - 2010.06.03 15:25:27.
