data_PCOD9463974
_publ_section_title
;
Structure prediction by ZEFSAII (Michael W. Deem and Ramdas Pophale) SiO2 
 PCOD9463974
Probable space group: P N M A
;
_chemical_formula_sum "Si O2"
_cell_formula_units_Z 64
_cell_length_a 12.659154
_cell_length_b 22.595761
_cell_length_c 11.590290
_cell_angle_alpha 90.000000
_cell_angle_beta 90.000000
_cell_angle_gamma 90.000000
_cell_volume 3315.323852
_symmetry_space_group_name_H-M "P N M A"
_symmetry_group_IT_number 62
_symmetry_cell_setting 'orthorhombic'
loop_
_space_group_symop_operation_xyz
x,y,z
1/2-x,-y,1/2+z
1/2+x,1/2-y,1/2-z
-x,1/2+y,-z
-x,-y,-z
1/2+x,y,1/2-z
1/2-x,1/2+y,1/2+z
x,1/2-y,z
loop_
_atom_site_type_symbol
_atom_site_label
_atom_site_fract_x
_atom_site_fract_y
_atom_site_fract_z
Si Si1 0.856262 0.562908 0.479840
Si Si2 0.155347 0.643003 0.520923
Si Si3 0.334503 0.091998 0.645547
Si Si4 0.069578 0.964243 0.367589
Si Si5 0.995670 0.818628 0.053461
Si Si6 0.214507 0.316217 0.803516
Si Si7 0.423207 0.817337 0.919700
Si Si8 0.843133 0.680543 0.840068
O O1 0.738413 0.552570 0.436519
O O2 0.887455 0.527997 0.595607
O O3 0.870672 0.632566 0.502068
O O4 0.944499 0.541238 0.388854
O O5 0.121485 0.581400 0.460766
O O6 0.210951 0.679029 0.416914
O O7 0.243463 0.641401 0.620660
O O8 0.048813 0.672860 0.567084
O O9 0.397985 0.054987 0.740632
O O10 0.412605 0.135204 0.577450
O O11 0.254788 0.133787 0.718167
O O12 0.031456 0.750000 0.056824
O O13 0.904565 0.825334 0.151086
O O14 0.936843 0.829046 0.932127
O O15 0.223493 0.250000 0.755240
O O16 0.397130 0.750000 0.952796
O O17 0.384392 0.827347 0.788989
O O18 0.811189 0.750000 0.852326
#
# Coordination Sequence:
#
# PCOD9463974 Si02
#       8
#     8   8   8   8   8   8   8   8
#     4  10  22  39  56  78 108 139 177 220 263 318
#     4   9  17  33  55  73  99 142 185 215 257 322
#     4  11  20  33  56  80 105 137 177 222 266 309
#     4   9  21  40  57  75 104 142 178 220 268 317
#     4   9  18  32  50  79 115 142 172 217 265 312
#     4   9  17  30  50  76 107 142 173 207 261 322
#     4  10  20  33  53  80 107 139 177 216 261 318
#     4   9  18  32  51  78 112 145 179 223 269 312
#
# _framework density 19.304297999999999
#
# number of rings (size 3 to 8) (size 9 to 14) (size 15 to 20)
#    0.000    2.500    0.000    3.000    0.000    3.000 
#    0.000    8.125    0.000    8.250    0.000    0.000 
#    0.000    0.000    0.000    0.000    0.000    0.000 
#
# Total GULP energy -357142.631926 kJ/mol
# GULP energy per Si atom -5580.353624 kJ/mol
# Density = 1.926036 g / cm^3
# Si number density = 19.304298 Si / 1000 Ang^3
#
#
#
# Elastic Constant Matrix: (Units=GPa)
#
#
# Indices 1 2 3 4 5 6 
#
# 1 72.4835 7.2002 17.0169 0.0000 0.0000 0.0000
# 2 7.2002 40.4542 -5.2122 0.0000 0.0000 0.0000
# 3 17.0169 -5.2122 35.0235 0.0000 0.0000 0.0000
# 4 0.0000 0.0000 0.0000 16.8154 0.0000 0.0000
# 5 0.0000 0.0000 0.0000 0.0000 15.5730 0.0000
# 6 0.0000 0.0000 0.0000 0.0000 0.0000 19.0232
#
#
#
# Elastic Compliance Matrix: (Units=1/GPa)
#
#
# Indices 1 2 3 4 5 6 
#
# 1 0.016174 -0.003967 -0.008449 0.000000 0.000000 0.000000
# 2 -0.003967 0.026176 0.005823 0.000000 0.000000 0.000000
# 3 -0.008449 0.005823 0.033524 0.000000 0.000000 0.000000
# 4 0.000000 0.000000 0.000000 0.059469 0.000000 0.000000
# 5 0.000000 0.000000 0.000000 0.000000 0.064214 0.000000
# 6 0.000000 0.000000 0.000000 0.000000 0.000000 0.052567
#
#
# Mechanical properties :
#
#
# Convention : Reuss Voigt Hill
#
# Bulk Modulus (GPa) = 15.95217 20.66346 18.30781
# Shear Modulus (GPa) = 17.46993 18.87939 18.17466
#
# Velocity S-wave (km/s) = 3.01155 3.13067 3.07169
# Velocity P-wave (km/s) = 4.51376 4.87806 4.69944
#
# Compressibility (1/GPa) = 0.06268738
#
# Stress axis : x y z
#
# Youngs Moduli (GPa) = 61.82811 38.20337 29.82947
#
# Poissons Ratio (x) = 0.15156 0.25202
# Poissons Ratio (y) = 0.24529 -0.17370
# Poissons Ratio (z) = 0.52238 -0.22246
#
# Static dielectric constant tensor:
#      x y z
#    x 1.665490 0.000000 0.000000 
#    y 0.000000 1.682800 0.000000 
#    z 0.000000 0.000000 1.663340 
# 
# From -- ./inp_files/12566.got.cif
#   From: 2010.05.17/outbox.cif.g08.bks.cpg/sg62_7_cif.got.tgz:12566.got - 2010.06.03 15:25:27.
