data_PCOD9463062
_publ_section_title
;
Structure prediction by ZEFSAII (Michael W. Deem and Ramdas Pophale) SiO2 
 PCOD9463062
Probable space group: P N M A
;
_chemical_formula_sum "Si O2"
_cell_formula_units_Z 64
_cell_length_a 9.419317
_cell_length_b 16.697566
_cell_length_c 25.835039
_cell_angle_alpha 90.000000
_cell_angle_beta 90.000000
_cell_angle_gamma 90.000000
_cell_volume 4063.326338
_symmetry_space_group_name_H-M "P N M A"
_symmetry_group_IT_number 62
_symmetry_cell_setting 'orthorhombic'
loop_
_space_group_symop_operation_xyz
x,y,z
1/2-x,-y,1/2+z
1/2+x,1/2-y,1/2-z
-x,1/2+y,-z
-x,-y,-z
1/2+x,y,1/2-z
1/2-x,1/2+y,1/2+z
x,1/2-y,z
loop_
_atom_site_type_symbol
_atom_site_label
_atom_site_fract_x
_atom_site_fract_y
_atom_site_fract_z
Si Si1 0.183093 0.927282 0.973062
Si Si2 0.830604 0.449488 0.448748
Si Si3 0.289852 0.654021 0.208994
Si Si4 0.616556 0.155800 0.487857
Si Si5 0.706138 0.077831 0.594781
Si Si6 0.038783 0.153671 0.812535
Si Si7 0.537285 0.085437 0.886538
Si Si8 0.057320 0.159933 0.504029
O O1 0.296820 0.855785 0.973430
O O2 0.030419 0.891911 0.984970
O O3 0.182561 0.986459 0.924017
O O4 0.242003 0.984729 0.018781
O O5 0.718540 0.377942 0.442476
O O6 0.904212 0.497772 0.402827
O O7 0.952990 0.409193 0.483486
O O8 0.300554 0.750000 0.203191
O O9 0.123778 0.633256 0.202121
O O10 0.356227 0.634635 0.264864
O O11 0.385443 0.614414 0.164729
O O12 0.596111 0.250000 0.484785
O O13 0.687202 0.132112 0.543092
O O14 0.594368 0.107934 0.636978
O O15 0.866628 0.085743 0.615656
O O16 0.045184 0.250000 0.821614
O O17 0.576258 0.143605 0.934895
O O18 0.003915 0.250000 0.495834
#
# Coordination Sequence:
#
# PCOD9463062 Si02
#       8
#     8   8   8   8   8   8   8   8
#     4  10  20  34  46  70 103 139 171 212 253 299
#     4  10  19  34  48  71 101 137 174 209 249 297
#     4  10  22  37  53  75 101 131 168 213 254 295
#     4  11  22  32  48  74 104 139 176 212 253 298
#     4  11  20  34  51  71 101 139 172 207 253 302
#     4  10  22  37  53  74 101 131 168 212 253 294
#     4  11  20  33  52  73 100 137 174 205 253 301
#     4  11  19  31  50  73 104 138 177 211 243 298
#
# _framework density 15.750641999999999
#
# number of rings (size 3 to 8) (size 9 to 14) (size 15 to 20)
#    0.000    1.500    3.750    4.500    5.250    2.500 
#    0.000    0.000    0.000    0.000    0.000    0.000 
#    0.000    6.000    0.000    0.000    0.000    0.000 
#
# Total GULP energy -356861.544800 kJ/mol
# GULP energy per Si atom -5575.961637 kJ/mol
# Density = 1.571479 g / cm^3
# Si number density = 15.750642 Si / 1000 Ang^3
#
#
#
# Elastic Constant Matrix: (Units=GPa)
#
#
# Indices 1 2 3 4 5 6 
#
# 1 106.9393 20.0497 20.6971 0.0000 0.0000 0.0000
# 2 20.0497 66.2876 14.8173 0.0000 0.0000 0.0000
# 3 20.6971 14.8173 41.1684 0.0000 0.0000 0.0000
# 4 0.0000 0.0000 0.0000 22.4510 0.0000 0.0000
# 5 0.0000 0.0000 0.0000 0.0000 26.1627 0.0000
# 6 0.0000 0.0000 0.0000 0.0000 0.0000 26.9119
#
#
#
# Elastic Compliance Matrix: (Units=1/GPa)
#
#
# Indices 1 2 3 4 5 6 
#
# 1 0.010646 -0.002201 -0.004560 0.000000 0.000000 0.000000
# 2 -0.002201 0.016861 -0.004962 0.000000 0.000000 0.000000
# 3 -0.004560 -0.004962 0.028369 0.000000 0.000000 0.000000
# 4 0.000000 0.000000 0.000000 0.044541 0.000000 0.000000
# 5 0.000000 0.000000 0.000000 0.000000 0.038222 0.000000
# 6 0.000000 0.000000 0.000000 0.000000 0.000000 0.037158
#
#
# Mechanical properties :
#
#
# Convention : Reuss Voigt Hill
#
# Bulk Modulus (GPa) = 30.83581 36.16928 33.50255
# Shear Modulus (GPa) = 23.80339 25.69386 24.74863
#
# Velocity S-wave (km/s) = 3.89172 4.04330 3.96823
# Velocity P-wave (km/s) = 6.30983 6.69412 6.50481
#
# Compressibility (1/GPa) = 0.03242982
#
# Stress axis : x y z
#
# Youngs Moduli (GPa) = 93.92928 59.30986 35.24973
#
# Poissons Ratio (x) = 0.13053 0.16075
# Poissons Ratio (y) = 0.20672 0.17491
# Poissons Ratio (z) = 0.42834 0.29430
#
# Static dielectric constant tensor:
#      x y z
#    x 1.574770 0.000000 0.000000 
#    y 0.000000 1.538540 0.000000 
#    z 0.000000 0.000000 1.504340 
# 
# From -- ./inp_files/29061.got.cif
#   From: 2010.05.17/outbox.cif.g08.bks.cpg/sg62_15_cif.got.tgz:29061.got - 2010.06.03 15:25:27.
