data_PCOD9463503
_publ_section_title
;
Structure prediction by ZEFSAII (Michael W. Deem and Ramdas Pophale) SiO2 
 PCOD9463503
Probable space group: P N M A
;
_chemical_formula_sum "Si O2"
_cell_formula_units_Z 64
_cell_length_a 10.891108
_cell_length_b 12.963020
_cell_length_c 22.137000
_cell_angle_alpha 90.000000
_cell_angle_beta 90.000000
_cell_angle_gamma 90.000000
_cell_volume 3125.338204
_symmetry_space_group_name_H-M "P N M A"
_symmetry_group_IT_number 62
_symmetry_cell_setting 'orthorhombic'
loop_
_space_group_symop_operation_xyz
x,y,z
1/2-x,-y,1/2+z
1/2+x,1/2-y,1/2-z
-x,1/2+y,-z
-x,-y,-z
1/2+x,y,1/2-z
1/2-x,1/2+y,1/2+z
x,1/2-y,z
loop_
_atom_site_type_symbol
_atom_site_label
_atom_site_fract_x
_atom_site_fract_y
_atom_site_fract_z
Si Si1 0.888280 0.633474 0.643748
Si Si2 0.378589 0.628138 0.244655
Si Si3 0.124705 0.367238 0.131099
Si Si4 0.362868 0.495290 0.743686
Si Si5 0.706199 0.476236 0.485695
Si Si6 0.159390 0.139821 0.601400
Si Si7 0.936961 0.452625 0.558080
Si Si8 0.125099 0.635621 0.922484
O O1 0.938653 0.750000 0.639830
O O2 0.880738 0.592048 0.711452
O O3 0.954571 0.542029 0.607896
O O4 0.756675 0.633961 0.610155
O O5 0.384394 0.750000 0.262015
O O6 0.254366 0.570752 0.268251
O O7 0.509620 0.571434 0.258177
O O8 0.352531 0.624006 0.172703
O O9 0.161766 0.250000 0.146414
O O10 0.167230 0.452427 0.179024
O O11 0.158881 0.392351 0.061566
O O12 0.977245 0.375495 0.128757
O O13 0.773367 0.556346 0.439944
O O14 0.800299 0.430951 0.535523
O O15 0.618887 0.547441 0.527006
O O16 0.220527 0.250000 0.590738
O O17 0.018847 0.140627 0.579217
O O18 0.000000 0.500000 0.500000
O O19 0.109295 0.750000 0.949686
#
# Coordination Sequence:
#
# PCOD9463503 Si02
#       8
#     8   8   8   8   8   8   8   8
#     4  10  20  37  61  88 119 164 212 253 304 369
#     4  11  24  42  66  91 122 160 204 262 314 369
#     4  11  23  38  57  89 128 165 206 255 309 370
#     4  12  23  43  66  91 129 167 209 257 314 374
#     4  10  19  36  59  84 117 159 202 258 310 365
#     4  10  19  36  58  84 113 152 202 254 314 373
#     4   9  19  34  56  86 118 149 195 253 310 359
#     4   9  19  36  58  85 119 160 211 260 307 367
#
# _framework density 20.477782000000001
#
# number of rings (size 3 to 8) (size 9 to 14) (size 15 to 20)
#    0.000    1.750    2.500    2.250    0.000    3.500 
#    0.000    6.250    0.000    3.750    0.000    0.000 
#    0.000    0.000    0.000    0.000    0.000    0.000 
#
# Total GULP energy -356344.735601 kJ/mol
# GULP energy per Si atom -5567.886494 kJ/mol
# Density = 2.043117 g / cm^3
# Si number density = 20.477782 Si / 1000 Ang^3
#
#
#
# Elastic Constant Matrix: (Units=GPa)
#
#
# Indices 1 2 3 4 5 6 
#
# 1 45.5957 30.5016 -14.3486 0.0000 0.0000 0.0000
# 2 30.5016 100.3545 11.1967 0.0000 0.0000 0.0000
# 3 -14.3486 11.1967 50.9046 0.0000 0.0000 0.0000
# 4 0.0000 0.0000 0.0000 26.9179 0.0000 0.0000
# 5 0.0000 0.0000 0.0000 0.0000 22.7796 0.0000
# 6 0.0000 0.0000 0.0000 0.0000 0.0000 23.4655
#
#
#
# Elastic Compliance Matrix: (Units=1/GPa)
#
#
# Indices 1 2 3 4 5 6 
#
# 1 0.033357 -0.011469 0.011925 0.000000 0.000000 0.000000
# 2 -0.011469 0.014159 -0.006347 0.000000 0.000000 0.000000
# 3 0.011925 -0.006347 0.024402 0.000000 0.000000 0.000000
# 4 0.000000 0.000000 0.000000 0.037150 0.000000 0.000000
# 5 0.000000 0.000000 0.000000 0.000000 0.043899 0.000000
# 6 0.000000 0.000000 0.000000 0.000000 0.000000 0.042616
#
#
# Mechanical properties :
#
#
# Convention : Reuss Voigt Hill
#
# Bulk Modulus (GPa) = 16.62908 27.95048 22.28978
# Shear Modulus (GPa) = 21.98679 25.93295 23.95987
#
# Velocity S-wave (km/s) = 3.28028 3.56250 3.42430
# Velocity P-wave (km/s) = 4.74185 5.53179 5.15198
#
# Compressibility (1/GPa) = 0.06013564
#
# Stress axis : x y z
#
# Youngs Moduli (GPa) = 29.97881 70.62803 40.98025
#
# Poissons Ratio (x) = 0.81003 -0.48869
# Poissons Ratio (y) = 0.34383 0.26010
# Poissons Ratio (z) = -0.35750 0.44828
#
# Static dielectric constant tensor:
#      x y z
#    x 1.806910 0.000000 0.000000 
#    y 0.000000 1.732640 0.000000 
#    z 0.000000 0.000000 1.724870 
# 
# From -- ./inp_files/29443.got.cif
#   From: 2010.05.17/outbox.cif.g08.bks.cpg/sg62_15_cif.got.tgz:29443.got - 2010.06.03 15:25:27.
