data_PCOD9463029
_publ_section_title
;
Structure prediction by ZEFSAII (Michael W. Deem and Ramdas Pophale) SiO2 
 PCOD9463029
Probable space group: P N M A
;
_chemical_formula_sum "Si O2"
_cell_formula_units_Z 48
_cell_length_a 11.498087
_cell_length_b 7.735545
_cell_length_c 26.799228
_cell_angle_alpha 90.000000
_cell_angle_beta 90.000000
_cell_angle_gamma 90.000000
_cell_volume 2383.629715
_symmetry_space_group_name_H-M "P N M A"
_symmetry_group_IT_number 62
_symmetry_cell_setting 'orthorhombic'
loop_
_space_group_symop_operation_xyz
x,y,z
1/2-x,-y,1/2+z
1/2+x,1/2-y,1/2-z
-x,1/2+y,-z
-x,-y,-z
1/2+x,y,1/2-z
1/2-x,1/2+y,1/2+z
x,1/2-y,z
loop_
_atom_site_type_symbol
_atom_site_label
_atom_site_fract_x
_atom_site_fract_y
_atom_site_fract_z
Si Si1 0.993305 0.449357 0.943468
Si Si2 0.150788 0.250000 0.214159
Si Si3 0.644965 0.446895 0.056733
Si Si4 0.194262 0.958925 0.133567
Si Si5 0.619170 0.458072 0.948905
Si Si6 0.191874 0.056142 0.866202
Si Si7 0.370135 0.250000 0.291326
O O1 0.958786 0.250000 0.943970
O O2 0.900494 0.528401 0.906176
O O3 0.114492 0.469431 0.915708
O O4 0.000000 0.500000 0.000000
O O5 0.175678 0.422832 0.181600
O O6 0.257644 0.250000 0.254180
O O7 0.008509 0.250000 0.226431
O O8 0.686893 0.250000 0.061159
O O9 0.505796 0.455042 0.053899
O O10 0.682764 0.537637 0.108011
O O11 0.680770 0.514418 0.001214
O O12 0.182304 0.750000 0.143565
O O13 0.311789 0.986844 0.102134
O O14 0.604742 0.250000 0.954118
O O15 0.173252 0.250000 0.847154
O O16 0.151996 0.917476 0.826113
#
# Coordination Sequence:
#
# PCOD9463029 Si02
#       7
#     8   4   8   8   8   8   4
#     4  10  21  34  61  99 136 175 209 254 334 414
#     4  12  28  48  76  98 130 176 238 304 362 406
#     4  10  19  33  56  90 136 182 224 272 327 408
#     4  10  22  42  64  94 133 172 219 281 339 415
#     4   9  19  34  54  89 137 183 224 269 329 410
#     4  11  23  42  65  93 132 173 218 281 343 417
#     4  12  28  50  72 100 130 174 238 306 358 412
#
# _framework density 20.137357000000002
#
# number of rings (size 3 to 8) (size 9 to 14) (size 15 to 20)
#    0.000    1.667    2.500    1.500    3.500    4.000 
#    0.000    0.000    0.000    0.000    0.000    0.000 
#    0.000    0.000    0.000    0.000    0.000    0.000 
#
# Total GULP energy -267368.390857 kJ/mol
# GULP energy per Si atom -5570.174810 kJ/mol
# Density = 2.009152 g / cm^3
# Si number density = 20.137357 Si / 1000 Ang^3
#
#
#
# Elastic Constant Matrix: (Units=GPa)
#
#
# Indices 1 2 3 4 5 6 
#
# 1 91.4867 15.0084 53.8680 0.0000 0.0000 0.0000
# 2 15.0084 104.7867 40.5915 0.0000 0.0000 0.0000
# 3 53.8680 40.5915 102.5276 0.0000 0.0000 0.0000
# 4 0.0000 0.0000 0.0000 26.4779 0.0000 0.0000
# 5 0.0000 0.0000 0.0000 0.0000 38.8027 0.0000
# 6 0.0000 0.0000 0.0000 0.0000 0.0000 13.5001
#
#
#
# Elastic Compliance Matrix: (Units=1/GPa)
#
#
# Indices 1 2 3 4 5 6 
#
# 1 0.015940 0.001135 -0.008824 0.000000 0.000000 0.000000
# 2 0.001135 0.011353 -0.005091 0.000000 0.000000 0.000000
# 3 -0.008824 -0.005091 0.016405 0.000000 0.000000 0.000000
# 4 0.000000 0.000000 0.000000 0.037767 0.000000 0.000000
# 5 0.000000 0.000000 0.000000 0.000000 0.025771 0.000000
# 6 0.000000 0.000000 0.000000 0.000000 0.000000 0.074073
#
#
# Mechanical properties :
#
#
# Convention : Reuss Voigt Hill
#
# Bulk Modulus (GPa) = 55.13341 57.52629 56.32985
# Shear Modulus (GPa) = 23.48332 28.37836 25.93084
#
# Velocity S-wave (km/s) = 3.41861 3.75806 3.59234
# Velocity P-wave (km/s) = 6.55901 6.88909 6.72608
#
# Compressibility (1/GPa) = 0.01813782
#
# Stress axis : x y z
#
# Youngs Moduli (GPa) = 62.73446 88.08438 60.95535
#
# Poissons Ratio (x) = -0.10000 0.53790
# Poissons Ratio (y) = -0.07122 0.31033
# Poissons Ratio (z) = 0.55360 0.44845
#
# Static dielectric constant tensor:
#      x y z
#    x 1.837320 0.000000 0.000000 
#    y 0.000000 1.748360 0.000000 
#    z 0.000000 0.000000 1.754420 
# 
# From -- ./inp_files/29309.got.cif
#   From: 2010.05.17/outbox.cif.g08.bks.cpg/sg62_15_cif.got.tgz:29309.got - 2010.06.03 15:25:27.
