data_PCOD9463229
_publ_section_title
;
Structure prediction by ZEFSAII (Michael W. Deem and Ramdas Pophale) SiO2 
 PCOD9463229
Probable space group: P N M A
;
_chemical_formula_sum "Si O2"
_cell_formula_units_Z 48
_cell_length_a 12.377921
_cell_length_b 8.578329
_cell_length_c 24.092800
_cell_angle_alpha 90.000000
_cell_angle_beta 90.000000
_cell_angle_gamma 90.000000
_cell_volume 2558.218767
_symmetry_space_group_name_H-M "P N M A"
_symmetry_group_IT_number 62
_symmetry_cell_setting 'orthorhombic'
loop_
_space_group_symop_operation_xyz
x,y,z
1/2-x,-y,1/2+z
1/2+x,1/2-y,1/2-z
-x,1/2+y,-z
-x,-y,-z
1/2+x,y,1/2-z
1/2-x,1/2+y,1/2+z
x,1/2-y,z
loop_
_atom_site_type_symbol
_atom_site_label
_atom_site_fract_x
_atom_site_fract_y
_atom_site_fract_z
Si Si1 0.412521 0.563634 0.157925
Si Si2 0.777524 0.439911 0.920565
Si Si3 0.847388 0.937322 0.645511
Si Si4 0.493839 0.936576 0.374074
Si Si5 0.686699 0.938550 0.547009
Si Si6 0.346729 0.063341 0.276933
O O1 0.412040 0.750000 0.157399
O O2 0.331205 0.507080 0.109749
O O3 0.534241 0.506379 0.149727
O O4 0.367980 0.506896 0.217012
O O5 0.776351 0.250000 0.921362
O O6 0.883651 0.486598 0.885988
O O7 0.790497 0.489510 0.984342
O O8 0.855401 0.750000 0.647920
O O9 0.785150 0.977837 0.588520
O O10 0.766634 0.987460 0.695077
O O11 0.490808 0.750000 0.368244
O O12 0.419712 0.986392 0.426205
O O13 0.439819 0.012177 0.320022
O O14 0.673805 0.750000 0.548190
O O15 0.346511 0.250000 0.273530
#
# Coordination Sequence:
#
# PCOD9463229 Si02
#       6
#     8   8   8   8   8   8
#     4  11  23  37  56  83 114 149 188 234 284 332
#     4   9  20  36  55  84 118 148 183 230 283 331
#     4   9  20  38  58  80 109 148 188 228 278 336
#     4  10  19  34  58  88 115 144 186 234 284 333
#     4   9  18  37  60  81 113 153 187 226 278 334
#     4  10  22  40  59  80 110 148 190 234 283 338
#
# _framework density 18.763057
#
# number of rings (size 3 to 8) (size 9 to 14) (size 15 to 20)
#    0.000    2.333    0.000    3.000    2.333    4.000 
#    0.000    5.000    0.000    0.000    0.000    0.000 
#    0.000    0.000    0.000    0.000    0.000    0.000 
#
# Total GULP energy -268002.283001 kJ/mol
# GULP energy per Si atom -5583.380896 kJ/mol
# Density = 1.872035 g / cm^3
# Si number density = 18.763057 Si / 1000 Ang^3
#
#
#
# Elastic Constant Matrix: (Units=GPa)
#
#
# Indices 1 2 3 4 5 6 
#
# 1 115.3672 19.1434 6.7482 0.0000 0.0000 0.0000
# 2 19.1434 14.1011 -5.0119 0.0000 0.0000 0.0000
# 3 6.7482 -5.0119 15.0606 0.0000 0.0000 0.0000
# 4 0.0000 0.0000 0.0000 25.3162 0.0000 0.0000
# 5 0.0000 0.0000 0.0000 0.0000 9.9418 0.0000
# 6 0.0000 0.0000 0.0000 0.0000 0.0000 30.2617
#
#
#
# Elastic Compliance Matrix: (Units=1/GPa)
#
#
# Indices 1 2 3 4 5 6 
#
# 1 0.013237 -0.022772 -0.013509 0.000000 0.000000 0.000000
# 2 -0.022772 0.119605 0.050006 0.000000 0.000000 0.000000
# 3 -0.013509 0.050006 0.089093 0.000000 0.000000 0.000000
# 4 0.000000 0.000000 0.000000 0.039500 0.000000 0.000000
# 5 0.000000 0.000000 0.000000 0.000000 0.100585 0.000000
# 6 0.000000 0.000000 0.000000 0.000000 0.000000 0.033045
#
#
# Mechanical properties :
#
#
# Convention : Reuss Voigt Hill
#
# Bulk Modulus (GPa) = 4.00986 20.69869 12.35427
# Shear Modulus (GPa) = 11.09281 21.34723 16.22002
#
# Velocity S-wave (km/s) = 2.43411 3.37668 2.94337
# Velocity P-wave (km/s) = 3.16885 5.12427 4.26027
#
# Compressibility (1/GPa) = 0.24938516
#
# Stress axis : x y z
#
# Youngs Moduli (GPa) = 75.54723 8.36087 11.22425
#
# Poissons Ratio (x) = 0.19039 0.15163
# Poissons Ratio (y) = 1.72033 -0.56128
# Poissons Ratio (z) = 1.02057 -0.41809
#
# Static dielectric constant tensor:
#      x y z
#    x 1.633720 0.000000 0.000000 
#    y 0.000000 1.635720 0.000000 
#    z 0.000000 0.000000 1.635210 
# 
# From -- ./inp_files/29255.got.cif
#   From: 2010.05.17/outbox.cif.g08.bks.cpg/sg62_15_cif.got.tgz:29255.got - 2010.06.03 15:25:27.
