data_PCOD9463335
_publ_section_title
;
Structure prediction by ZEFSAII (Michael W. Deem and Ramdas Pophale) SiO2 
 PCOD9463335
Probable space group: P N M A
;
_chemical_formula_sum "Si O2"
_cell_formula_units_Z 64
_cell_length_a 12.233153
_cell_length_b 8.556929
_cell_length_c 31.591650
_cell_angle_alpha 90.000000
_cell_angle_beta 90.000000
_cell_angle_gamma 90.000000
_cell_volume 3306.957742
_symmetry_space_group_name_H-M "P N M A"
_symmetry_group_IT_number 62
_symmetry_cell_setting 'orthorhombic'
loop_
_space_group_symop_operation_xyz
x,y,z
1/2-x,-y,1/2+z
1/2+x,1/2-y,1/2-z
-x,1/2+y,-z
-x,-y,-z
1/2+x,y,1/2-z
1/2-x,1/2+y,1/2+z
x,1/2-y,z
loop_
_atom_site_type_symbol
_atom_site_label
_atom_site_fract_x
_atom_site_fract_y
_atom_site_fract_z
Si Si1 0.286852 0.436112 0.709236
Si Si2 0.222217 0.562035 0.042993
Si Si3 0.650602 0.059052 0.873161
Si Si4 0.751265 0.938991 0.549796
Si Si5 0.498382 0.062012 0.330965
Si Si6 0.496940 0.437478 0.429528
Si Si7 0.601174 0.563204 0.125742
Si Si8 0.243956 0.936422 0.801943
O O1 0.275124 0.250000 0.713333
O O2 0.211315 0.490151 0.669907
O O3 0.410344 0.479102 0.696808
O O4 0.257223 0.513999 0.753532
O O5 0.224992 0.750000 0.043781
O O6 0.284515 0.504783 0.084976
O O7 0.095774 0.511637 0.044542
O O8 0.275101 0.512134 0.998493
O O9 0.652837 0.250000 0.873561
O O10 0.524611 0.008612 0.874210
O O11 0.754201 0.750000 0.552413
O O12 0.625994 0.987737 0.559324
O O13 0.832710 0.003465 0.584938
O O14 0.507860 0.250000 0.325995
O O15 0.516536 0.024297 0.380211
O O16 0.375990 0.015522 0.318273
O O17 0.501401 0.250000 0.434493
O O18 0.600276 0.750000 0.124852
O O19 0.664599 0.508627 0.167646
O O20 0.251017 0.750000 0.805797
#
# Coordination Sequence:
#
# PCOD9463335 Si02
#       8
#     8   8   8   8   8   8   8   8
#     4  11  23  40  63  90 121 154 198 244 294 352
#     4  10  20  37  61  86 116 156 197 237 294 353
#     4   9  21  40  58  84 119 153 192 245 291 340
#     4  10  21  38  59  86 120 156 193 240 296 351
#     4  10  21  39  62  87 120 156 190 240 297 350
#     4  10  19  35  57  86 122 150 187 241 294 346
#     4  11  23  40  61  85 117 156 200 244 293 346
#     4  11  24  43  63  88 122 155 197 243 297 354
#
# _framework density 19.353135000000002
#
# number of rings (size 3 to 8) (size 9 to 14) (size 15 to 20)
#    0.000    1.750    2.500    1.500    1.750    2.500 
#    0.000    3.125    0.000    0.000    0.000    0.000 
#    0.000    0.000    0.000    0.000    0.000    0.000 
#
# Total GULP energy -357559.870743 kJ/mol
# GULP energy per Si atom -5586.872980 kJ/mol
# Density = 1.930909 g / cm^3
# Si number density = 19.353135 Si / 1000 Ang^3
#
#
#
# Elastic Constant Matrix: (Units=GPa)
#
#
# Indices 1 2 3 4 5 6 
#
# 1 117.6888 14.4375 42.7522 0.0000 0.0000 0.0000
# 2 14.4375 9.9551 14.5434 0.0000 0.0000 0.0000
# 3 42.7522 14.5434 114.2667 0.0000 0.0000 0.0000
# 4 0.0000 0.0000 0.0000 25.2232 0.0000 0.0000
# 5 0.0000 0.0000 0.0000 0.0000 15.0277 0.0000
# 6 0.0000 0.0000 0.0000 0.0000 0.0000 20.0734
#
#
#
# Elastic Compliance Matrix: (Units=1/GPa)
#
#
# Indices 1 2 3 4 5 6 
#
# 1 0.010904 -0.012105 -0.002539 0.000000 0.000000 0.000000
# 2 -0.012105 0.136832 -0.012887 0.000000 0.000000 0.000000
# 3 -0.002539 -0.012887 0.011342 0.000000 0.000000 0.000000
# 4 0.000000 0.000000 0.000000 0.039646 0.000000 0.000000
# 5 0.000000 0.000000 0.000000 0.000000 0.066544 0.000000
# 6 0.000000 0.000000 0.000000 0.000000 0.000000 0.049817
#
#
# Mechanical properties :
#
#
# Convention : Reuss Voigt Hill
#
# Bulk Modulus (GPa) = 9.61378 42.81965 26.21672
# Shear Modulus (GPa) = 12.35122 23.41004 17.88063
#
# Velocity S-wave (km/s) = 2.52901 3.48174 3.04289
# Velocity P-wave (km/s) = 3.67508 6.19167 5.09132
#
# Compressibility (1/GPa) = 0.10401734
#
# Stress axis : x y z
#
# Youngs Moduli (GPa) = 91.70691 7.30822 88.17074
#
# Poissons Ratio (x) = 0.08846 0.22388
# Poissons Ratio (y) = 1.11008 1.13622
# Poissons Ratio (z) = 0.23286 0.09418
#
# Static dielectric constant tensor:
#      x y z
#    x 1.651700 0.000000 0.000000 
#    y 0.000000 1.663330 0.000000 
#    z 0.000000 0.000000 1.668790 
# 
# From -- ./inp_files/32610.got.cif
#   From: 2010.05.17/outbox.cif.g08.bks.cpg/sg62_17_cif.got.tgz:32610.got - 2010.06.03 15:25:27.
