data_PCOD9463802
_publ_section_title
;
Structure prediction by ZEFSAII (Michael W. Deem and Ramdas Pophale) SiO2 
 PCOD9463802
Probable space group: P N M A
;
_chemical_formula_sum "Si O2"
_cell_formula_units_Z 24
_cell_length_a 13.440385
_cell_length_b 5.668181
_cell_length_c 12.599330
_cell_angle_alpha 90.000000
_cell_angle_beta 90.000000
_cell_angle_gamma 90.000000
_cell_volume 959.848897
_symmetry_space_group_name_H-M "P N M A"
_symmetry_group_IT_number 62
_symmetry_cell_setting 'orthorhombic'
loop_
_space_group_symop_operation_xyz
x,y,z
1/2-x,-y,1/2+z
1/2+x,1/2-y,1/2-z
-x,1/2+y,-z
-x,-y,-z
1/2+x,y,1/2-z
1/2-x,1/2+y,1/2+z
x,1/2-y,z
loop_
_atom_site_type_symbol
_atom_site_label
_atom_site_fract_x
_atom_site_fract_y
_atom_site_fract_z
Si Si1 0.383401 0.750000 0.023979
Si Si2 0.709824 0.250000 0.206643
Si Si3 0.555529 0.750000 0.679827
Si Si4 0.377752 0.996855 0.601553
Si Si5 0.415221 0.250000 0.083352
O O1 0.357720 0.498978 0.076809
O O2 0.339514 0.750000 0.907203
O O3 0.504321 0.750000 0.011996
O O4 0.827026 0.250000 0.185573
O O5 0.673846 0.464876 0.282706
O O6 0.496039 0.533847 0.625850
O O7 0.529201 0.750000 0.804511
O O8 0.356064 0.250000 0.554081
O O9 0.350295 0.750000 0.544048
#
# Coordination Sequence:
#
# PCOD9463802 Si02
#       5
#     4   4   4   8   4
#     4  10  20  31  48  69 103 132 152 195 253 304
#     4   9  19  32  51  74 100 130 171 204 238 293
#     4   9  19  32  51  74 100 130 171 204 238 293
#     4   8  18  30  44  71  98 123 162 194 256 278
#     4  10  20  31  48  69 103 132 152 195 253 304
#
# _framework density 25.003938999999999
#
# number of rings (size 3 to 8) (size 9 to 14) (size 15 to 20)
#    2.000    0.667    3.333    0.000    4.667    1.333 
#    0.000    0.000    0.000    0.000    0.000    9.333 
#    0.000    0.000    0.000    0.000    0.000    0.000 
#
# Total GULP energy -133737.078066 kJ/mol
# GULP energy per Si atom -5572.378253 kJ/mol
# Density = 2.494703 g / cm^3
# Si number density = 25.003939 Si / 1000 Ang^3
#
#
#
# Elastic Constant Matrix: (Units=GPa)
#
#
# Indices 1 2 3 4 5 6 
#
# 1 131.1596 32.1192 21.4008 0.0000 0.0000 0.0000
# 2 32.1192 246.2889 28.6121 0.0000 0.0000 0.0000
# 3 21.4008 28.6121 76.3486 0.0000 0.0000 0.0000
# 4 0.0000 0.0000 0.0000 15.4714 0.0000 0.0000
# 5 0.0000 0.0000 0.0000 0.0000 39.8608 0.0000
# 6 0.0000 0.0000 0.0000 0.0000 0.0000 20.4056
#
#
#
# Elastic Compliance Matrix: (Units=1/GPa)
#
#
# Indices 1 2 3 4 5 6 
#
# 1 0.008150 -0.000834 -0.001972 0.000000 0.000000 0.000000
# 2 -0.000834 0.004330 -0.001389 0.000000 0.000000 0.000000
# 3 -0.001972 -0.001389 0.014171 0.000000 0.000000 0.000000
# 4 0.000000 0.000000 0.000000 0.064636 0.000000 0.000000
# 5 0.000000 0.000000 0.000000 0.000000 0.025087 0.000000
# 6 0.000000 0.000000 0.000000 0.000000 0.000000 0.049006
#
#
# Mechanical properties :
#
#
# Convention : Reuss Voigt Hill
#
# Bulk Modulus (GPa) = 54.75901 68.67347 61.71624
# Shear Modulus (GPa) = 27.79970 39.92523 33.86246
#
# Velocity S-wave (km/s) = 3.33800 4.00028 3.68405
# Velocity P-wave (km/s) = 6.06663 6.99006 6.54466
#
# Compressibility (1/GPa) = 0.01826183
#
# Stress axis : x y z
#
# Youngs Moduli (GPa) = 122.69545 230.92620 70.56573
#
# Poissons Ratio (x) = 0.19254 0.13916
# Poissons Ratio (y) = 0.10230 0.09802
# Poissons Ratio (z) = 0.24197 0.32079
#
# Static dielectric constant tensor:
#      x y z
#    x 2.057010 0.000000 0.000000 
#    y 0.000000 2.004320 0.000000 
#    z 0.000000 0.000000 1.888440 
# 
# From -- ./inp_files/16024.got.cif
#   From: 2010.05.17/outbox.cif.g08.bks.cpg/sg62_9_cif.got.tgz:16024.got - 2010.06.03 15:25:27.
