data_PCOD9463568
_publ_section_title
;
Structure prediction by ZEFSAII (Michael W. Deem and Ramdas Pophale) SiO2 
 PCOD9463568
Probable space group: P N M A
;
_chemical_formula_sum "Si O2"
_cell_formula_units_Z 64
_cell_length_a 22.975545
_cell_length_b 14.065562
_cell_length_c 9.655252
_cell_angle_alpha 90.000000
_cell_angle_beta 90.000000
_cell_angle_gamma 90.000000
_cell_volume 3120.229400
_symmetry_space_group_name_H-M "P N M A"
_symmetry_group_IT_number 62
_symmetry_cell_setting 'orthorhombic'
loop_
_space_group_symop_operation_xyz
x,y,z
1/2-x,-y,1/2+z
1/2+x,1/2-y,1/2-z
-x,1/2+y,-z
-x,-y,-z
1/2+x,y,1/2-z
1/2-x,1/2+y,1/2+z
x,1/2-y,z
loop_
_atom_site_type_symbol
_atom_site_label
_atom_site_fract_x
_atom_site_fract_y
_atom_site_fract_z
Si Si1 0.890179 0.004680 0.235104
Si Si2 0.169074 0.640048 0.954137
Si Si3 0.853023 0.451955 0.772349
Si Si4 0.514419 0.997684 0.336569
Si Si5 0.135011 0.143232 0.582753
Si Si6 0.790206 0.857096 0.688453
Si Si7 0.604860 0.862993 0.996750
Si Si8 0.477202 0.862807 0.915397
O O1 0.883650 0.084731 0.352767
O O2 0.953872 0.956566 0.223772
O O3 0.849274 0.920559 0.286940
O O4 0.876157 0.060905 0.097129
O O5 0.149730 0.750000 0.947467
O O6 0.179942 0.611947 0.113813
O O7 0.222490 0.628796 0.846549
O O8 0.921853 0.454238 0.812895
O O9 0.822748 0.556229 0.765239
O O10 0.856673 0.406755 0.619157
O O11 0.517823 0.091863 0.237494
O O12 0.500000 0.000000 0.500000
O O13 0.120849 0.250000 0.625963
O O14 0.183372 0.145159 0.465956
O O15 0.079393 0.101790 0.497653
O O16 0.799415 0.750000 0.748181
O O17 0.613760 0.750000 0.988547
O O18 0.534807 0.879768 0.007561
O O19 0.470649 0.750000 0.897864
#
# Coordination Sequence:
#
# PCOD9463568 Si02
#       8
#     8   8   8   8   8   8   8   8
#     4  11  21  39  62  87 127 168 201 252 314 376
#     4  11  26  44  62  90 129 166 203 254 321 383
#     4  12  22  40  67  92 126 163 206 264 319 370
#     4  11  21  36  54  90 126 163 201 250 314 386
#     4  10  19  36  61  88 113 150 206 262 303 351
#     4  10  23  42  65  88 117 161 212 255 307 373
#     4  10  20  34  59  92 119 158 212 252 295 370
#     4   9  18  34  58  86 122 165 208 253 307 369
#
# _framework density 20.511312
#
# number of rings (size 3 to 8) (size 9 to 14) (size 15 to 20)
#    0.000    1.500    3.750    1.500    1.750    2.500 
#    0.000    1.875    0.000    0.750    0.000    0.000 
#    0.000    0.000    0.000    0.000    0.000    0.000 
#
# Total GULP energy -356447.184347 kJ/mol
# GULP energy per Si atom -5569.487255 kJ/mol
# Density = 2.046463 g / cm^3
# Si number density = 20.511312 Si / 1000 Ang^3
#
#
#
# Elastic Constant Matrix: (Units=GPa)
#
#
# Indices 1 2 3 4 5 6 
#
# 1 43.2128 9.2504 -1.7355 0.0000 0.0000 0.0000
# 2 9.2504 79.1435 12.1647 0.0000 0.0000 0.0000
# 3 -1.7355 12.1647 82.9446 0.0000 0.0000 0.0000
# 4 0.0000 0.0000 0.0000 28.2788 0.0000 0.0000
# 5 0.0000 0.0000 0.0000 0.0000 16.3398 0.0000
# 6 0.0000 0.0000 0.0000 0.0000 0.0000 20.3106
#
#
#
# Elastic Compliance Matrix: (Units=1/GPa)
#
#
# Indices 1 2 3 4 5 6 
#
# 1 0.023805 -0.002925 0.000927 0.000000 0.000000 0.000000
# 2 -0.002925 0.013286 -0.002010 0.000000 0.000000 0.000000
# 3 0.000927 -0.002010 0.012370 0.000000 0.000000 0.000000
# 4 0.000000 0.000000 0.000000 0.035362 0.000000 0.000000
# 5 0.000000 0.000000 0.000000 0.000000 0.061200 0.000000
# 6 0.000000 0.000000 0.000000 0.000000 0.000000 0.049235
#
#
# Mechanical properties :
#
#
# Convention : Reuss Voigt Hill
#
# Bulk Modulus (GPa) = 24.12778 27.18446 25.65612
# Shear Modulus (GPa) = 23.03200 25.36059 24.19630
#
# Velocity S-wave (km/s) = 3.35459 3.52009 3.43834
# Velocity P-wave (km/s) = 5.17620 5.45926 5.31962
#
# Compressibility (1/GPa) = 0.04144601
#
# Stress axis : x y z
#
# Youngs Moduli (GPa) = 42.00868 75.26696 80.83821
#
# Poissons Ratio (x) = 0.22014 -0.07494
# Poissons Ratio (y) = 0.12287 0.16246
# Poissons Ratio (z) = -0.03894 0.15127
#
# Static dielectric constant tensor:
#      x y z
#    x 1.815770 0.000000 0.000000 
#    y 0.000000 1.741350 0.000000 
#    z 0.000000 0.000000 1.733110 
# 
# From -- ./inp_files/9491.got.cif
#   From: 2010.05.17/outbox.cif.g08.bks.cpg/sg62_5_cif.got.tgz:9491.got - 2010.06.03 15:25:27.
