data_PCOD9463772
_publ_section_title
;
Structure prediction by ZEFSAII (Michael W. Deem and Ramdas Pophale) SiO2 
 PCOD9463772
Probable space group: P N M A
;
_chemical_formula_sum "Si O2"
_cell_formula_units_Z 44
_cell_length_a 13.775007
_cell_length_b 14.506677
_cell_length_c 10.722542
_cell_angle_alpha 90.000000
_cell_angle_beta 90.000000
_cell_angle_gamma 90.000000
_cell_volume 2142.681035
_symmetry_space_group_name_H-M "P N M A"
_symmetry_group_IT_number 62
_symmetry_cell_setting 'orthorhombic'
loop_
_space_group_symop_operation_xyz
x,y,z
1/2-x,-y,1/2+z
1/2+x,1/2-y,1/2-z
-x,1/2+y,-z
-x,-y,-z
1/2+x,y,1/2-z
1/2-x,1/2+y,1/2+z
x,1/2-y,z
loop_
_atom_site_type_symbol
_atom_site_label
_atom_site_fract_x
_atom_site_fract_y
_atom_site_fract_z
Si Si1 0.247999 0.569024 0.998756
Si Si2 0.227781 0.383877 0.870005
Si Si3 0.095032 0.641239 0.197267
Si Si4 0.919431 0.900502 0.336398
Si Si5 0.683172 0.250000 0.146252
Si Si6 0.493045 0.250000 0.023659
Si Si7 0.735787 0.750000 0.921440
O O1 0.222254 0.491867 0.898400
O O2 0.281476 0.661104 0.929601
O O3 0.157215 0.596782 0.085589
O O4 0.342164 0.538951 0.083901
O O5 0.330746 0.357498 0.812502
O O6 0.152890 0.353828 0.763554
O O7 0.219870 0.335573 0.002556
O O8 0.067545 0.750000 0.173043
O O9 0.007424 0.575253 0.242935
O O10 0.973275 0.835758 0.436893
O O11 0.729695 0.250000 0.281120
O O12 0.566103 0.250000 0.141138
O O13 0.381250 0.250000 0.063265
#
# Coordination Sequence:
#
# PCOD9463772 Si02
#       7
#     8   8   8   8   4   4   4
#     4  10  24  41  61  92 131 166 206 262 328 371
#     4  11  23  39  63  98 124 163 212 266 310 375
#     4  11  20  40  69  93 117 167 221 267 310 367
#     4  10  20  38  70  86 120 157 220 261 311 368
#     4  10  24  43  59  86 133 171 198 259 324 387
#     4  10  19  44  65  93 114 172 216 252 317 379
#     4  12  23  41  64  95 131 163 216 263 315 382
#
# _framework density 20.535021
#
# number of rings (size 3 to 8) (size 9 to 14) (size 15 to 20)
#    0.000    1.455    4.545    0.545    7.636    1.455 
#    3.273    0.000    0.000    0.000    0.000    0.000 
#    0.000    0.000    0.000    0.000    0.000    0.000 
#
# Total GULP energy -245075.392263 kJ/mol
# GULP energy per Si atom -5569.895279 kJ/mol
# Density = 2.048828 g / cm^3
# Si number density = 20.535021 Si / 1000 Ang^3
#
#
#
# Elastic Constant Matrix: (Units=GPa)
#
#
# Indices 1 2 3 4 5 6 
#
# 1 89.5812 -17.3529 37.1665 0.0000 0.0000 0.0000
# 2 -17.3529 63.4178 3.7369 0.0000 0.0000 0.0000
# 3 37.1665 3.7369 90.1845 0.0000 0.0000 0.0000
# 4 0.0000 0.0000 0.0000 29.4767 0.0000 0.0000
# 5 0.0000 0.0000 0.0000 0.0000 33.6541 0.0000
# 6 0.0000 0.0000 0.0000 0.0000 0.0000 6.9818
#
#
#
# Elastic Compliance Matrix: (Units=1/GPa)
#
#
# Indices 1 2 3 4 5 6 
#
# 1 0.014573 0.004352 -0.006186 0.000000 0.000000 0.000000
# 2 0.004352 0.017107 -0.002502 0.000000 0.000000 0.000000
# 3 -0.006186 -0.002502 0.013741 0.000000 0.000000 0.000000
# 4 0.000000 0.000000 0.000000 0.033925 0.000000 0.000000
# 5 0.000000 0.000000 0.000000 0.000000 0.029714 0.000000
# 6 0.000000 0.000000 0.000000 0.000000 0.000000 0.143230
#
#
# Mechanical properties :
#
#
# Convention : Reuss Voigt Hill
#
# Bulk Modulus (GPa) = 27.21230 32.25382 29.73306
# Shear Modulus (GPa) = 18.30081 28.66472 23.48276
#
# Velocity S-wave (km/s) = 2.98854 3.74022 3.38531
# Velocity P-wave (km/s) = 5.01885 5.86457 5.45812
#
# Compressibility (1/GPa) = 0.03674809
#
# Stress axis : x y z
#
# Youngs Moduli (GPa) = 68.62208 58.45654 72.77291
#
# Poissons Ratio (x) = -0.25440 0.45017
# Poissons Ratio (y) = -0.29864 0.18210
# Poissons Ratio (z) = 0.42449 0.14628
#
# Static dielectric constant tensor:
#      x y z
#    x 1.799230 0.000000 0.000000 
#    y 0.000000 1.774090 0.000000 
#    z 0.000000 0.000000 1.713260 
# 
# From -- ./inp_files/6402.got.cif
#   From: 2010.05.17/outbox.cif.g08.bks.cpg/sg62_4_cif.got.tgz:6402.got - 2010.06.03 15:25:27.
