data_PCOD9463462
_publ_section_title
;
Structure prediction by ZEFSAII (Michael W. Deem and Ramdas Pophale) SiO2 
 PCOD9463462
Probable space group: P N M A
;
_chemical_formula_sum "Si O2"
_cell_formula_units_Z 64
_cell_length_a 14.494215
_cell_length_b 16.669835
_cell_length_c 10.654294
_cell_angle_alpha 90.000000
_cell_angle_beta 90.000000
_cell_angle_gamma 90.000000
_cell_volume 2574.249737
_symmetry_space_group_name_H-M "P N M A"
_symmetry_group_IT_number 62
_symmetry_cell_setting 'orthorhombic'
loop_
_space_group_symop_operation_xyz
x,y,z
1/2-x,-y,1/2+z
1/2+x,1/2-y,1/2-z
-x,1/2+y,-z
-x,-y,-z
1/2+x,y,1/2-z
1/2-x,1/2+y,1/2+z
x,1/2-y,z
loop_
_atom_site_type_symbol
_atom_site_label
_atom_site_fract_x
_atom_site_fract_y
_atom_site_fract_z
Si Si1 0.826517 0.556391 0.684207
Si Si2 0.231983 0.340933 0.655095
Si Si3 0.988112 0.845860 0.579032
Si Si4 0.081841 0.654920 0.061371
Si Si5 0.168996 0.843131 0.693751
Si Si6 0.528910 0.152973 0.805969
Si Si7 0.744193 0.891302 0.073971
Si Si8 0.934816 0.930889 0.944818
O O1 0.890553 0.614267 0.602797
O O2 0.732539 0.601111 0.722318
O O3 0.803224 0.475442 0.611024
O O4 0.885070 0.548285 0.814115
O O5 0.215609 0.250000 0.609478
O O6 0.313576 0.378768 0.571115
O O7 0.132103 0.380818 0.673090
O O8 0.266707 0.339971 0.799266
O O9 0.980799 0.750000 0.590107
O O10 0.020028 0.863972 0.437426
O O11 0.065150 0.873742 0.676262
O O12 0.094585 0.750000 0.072715
O O13 0.027427 0.626228 0.185869
O O14 0.011458 0.639781 0.947771
O O15 0.171593 0.750000 0.734665
O O16 0.207774 0.848990 0.551378
O O17 0.537751 0.250000 0.791781
O O18 0.851410 0.908196 0.038689
O O19 0.000000 0.000000 0.000000
#
# Coordination Sequence:
#
# PCOD9463462 Si02
#       8
#     8   8   8   8   8   8   8   8
#     4  11  26  42  65  98 132 177 220 274 344 400
#     4  10  19  35  63  97 127 163 218 277 334 390
#     4  10  22  42  66  94 129 172 223 278 335 401
#     4  10  20  37  64  96 125 164 213 268 328 387
#     4  10  23  45  71  98 130 179 233 278 329 402
#     4   9  18  34  59  92 123 155 205 270 326 379
#     4  11  23  41  64  94 130 176 221 278 332 394
#     4  11  25  42  61  88 133 174 213 265 326 407
#
# _framework density 24.861612999999998
#
# number of rings (size 3 to 8) (size 9 to 14) (size 15 to 20)
#    0.000    1.750    1.250    2.250    1.750    8.000 
#    0.000    0.000    0.000    0.000    0.000    0.000 
#    0.000    0.000    0.000    0.000    0.000    0.000 
#
# Total GULP energy -357868.068263 kJ/mol
# GULP energy per Si atom -5591.688567 kJ/mol
# Density = 2.480503 g / cm^3
# Si number density = 24.861613 Si / 1000 Ang^3
#
#
#
# Elastic Constant Matrix: (Units=GPa)
#
#
# Indices 1 2 3 4 5 6 
#
# 1 119.7222 13.2502 16.7716 0.0000 0.0000 0.0000
# 2 13.2502 46.8120 3.3507 0.0000 0.0000 0.0000
# 3 16.7716 3.3507 102.3634 0.0000 0.0000 0.0000
# 4 0.0000 0.0000 0.0000 16.4506 0.0000 0.0000
# 5 0.0000 0.0000 0.0000 0.0000 26.5947 0.0000
# 6 0.0000 0.0000 0.0000 0.0000 0.0000 31.6842
#
#
#
# Elastic Compliance Matrix: (Units=1/GPa)
#
#
# Indices 1 2 3 4 5 6 
#
# 1 0.008809 -0.002396 -0.001365 0.000000 0.000000 0.000000
# 2 -0.002396 0.022064 -0.000330 0.000000 0.000000 0.000000
# 3 -0.001365 -0.000330 0.010004 0.000000 0.000000 0.000000
# 4 0.000000 0.000000 0.000000 0.060788 0.000000 0.000000
# 5 0.000000 0.000000 0.000000 0.000000 0.037602 0.000000
# 6 0.000000 0.000000 0.000000 0.000000 0.000000 0.031561
#
#
# Mechanical properties :
#
#
# Convention : Reuss Voigt Hill
#
# Bulk Modulus (GPa) = 30.58505 37.29364 33.93935
# Shear Modulus (GPa) = 26.32875 30.64756 28.48816
#
# Velocity S-wave (km/s) = 3.25778 3.51483 3.38874
# Velocity P-wave (km/s) = 5.14584 5.61294 5.38446
#
# Compressibility (1/GPa) = 0.03269571
#
# Stress axis : x y z
#
# Youngs Moduli (GPa) = 113.52008 45.32324 99.96461
#
# Poissons Ratio (x) = 0.10858 0.13644
# Poissons Ratio (y) = 0.27196 0.03296
# Poissons Ratio (z) = 0.15494 0.01494
#
# Static dielectric constant tensor:
#      x y z
#    x 2.020430 0.000000 0.000000 
#    y 0.000000 2.024330 0.000000 
#    z 0.000000 0.000000 2.004690 
# 
# From -- ./inp_files/13623.got.cif
#   From: 2010.05.17/outbox.cif.g08.bks.cpg/sg62_7_cif.got.tgz:13623.got - 2010.06.03 15:25:27.
