data_PCOD9463699
_publ_section_title
;
Structure prediction by ZEFSAII (Michael W. Deem and Ramdas Pophale) SiO2 
 PCOD9463699
Probable space group: P N M A
;
_chemical_formula_sum "Si O2"
_cell_formula_units_Z 40
_cell_length_a 21.883765
_cell_length_b 14.077805
_cell_length_c 5.528670
_cell_angle_alpha 90.000000
_cell_angle_beta 90.000000
_cell_angle_gamma 90.000000
_cell_volume 1703.247091
_symmetry_space_group_name_H-M "P N M A"
_symmetry_group_IT_number 62
_symmetry_cell_setting 'orthorhombic'
loop_
_space_group_symop_operation_xyz
x,y,z
1/2-x,-y,1/2+z
1/2+x,1/2-y,1/2-z
-x,1/2+y,-z
-x,-y,-z
1/2+x,y,1/2-z
1/2-x,1/2+y,1/2+z
x,1/2-y,z
loop_
_atom_site_type_symbol
_atom_site_label
_atom_site_fract_x
_atom_site_fract_y
_atom_site_fract_z
Si Si1 0.049169 0.584741 0.454919
Si Si2 0.128790 0.148116 0.976300
Si Si3 0.493939 0.387216 0.453408
Si Si4 0.332878 0.490157 0.117725
Si Si5 0.758768 0.856982 0.649431
O O1 0.046695 0.634205 0.718710
O O2 0.116597 0.540361 0.422549
O O3 0.000000 0.500000 0.500000
O O4 0.030388 0.642887 0.217715
O O5 0.133840 0.250000 0.840274
O O6 0.131762 0.056066 0.808756
O O7 0.184794 0.144947 0.161672
O O8 0.062442 0.147478 0.097282
O O9 0.500000 0.500000 0.500000
O O10 0.301430 0.396780 0.222808
O O11 0.279056 0.561129 0.035413
O O12 0.750938 0.750000 0.553752
#
# Coordination Sequence:
#
# PCOD9463699 Si02
#       5
#     8   8   8   8   8
#     4  10  20  35  68  91 127 170 219 262 348 407
#     4  11  23  40  65  95 128 174 231 278 335 413
#     4  10  19  38  61  93 124 165 211 281 330 405
#     4  12  22  41  69  90 134 183 214 293 348 398
#     4  11  25  42  64  99 130 174 236 281 345 419
#
# _framework density 23.484555
#
# number of rings (size 3 to 8) (size 9 to 14) (size 15 to 20)
#    0.000    1.200    6.000    3.000    0.000    0.000 
#    0.000    2.000    0.000    0.000    0.000    0.000 
#    0.000    0.000    0.000    0.000    0.000    0.000 
#
# Total GULP energy -223353.322179 kJ/mol
# GULP energy per Si atom -5583.833054 kJ/mol
# Density = 2.343110 g / cm^3
# Si number density = 23.484555 Si / 1000 Ang^3
#
#
#
# Elastic Constant Matrix: (Units=GPa)
#
#
# Indices 1 2 3 4 5 6 
#
# 1 92.8909 32.1701 0.2171 0.0000 0.0000 0.0000
# 2 32.1701 108.4695 7.8939 0.0000 0.0000 0.0000
# 3 0.2171 7.8939 104.6965 0.0000 0.0000 0.0000
# 4 0.0000 0.0000 0.0000 266.9293 0.0000 0.0000
# 5 0.0000 0.0000 0.0000 0.0000 37.9946 0.0000
# 6 0.0000 0.0000 0.0000 0.0000 0.0000 124.6532
#
#
#
# Elastic Compliance Matrix: (Units=1/GPa)
#
#
# Indices 1 2 3 4 5 6 
#
# 1 0.012004 -0.003578 0.000245 0.000000 0.000000 0.000000
# 2 -0.003578 0.010337 -0.000772 0.000000 0.000000 0.000000
# 3 0.000245 -0.000772 0.009609 0.000000 0.000000 0.000000
# 4 0.000000 0.000000 0.000000 0.003746 0.000000 0.000000
# 5 0.000000 0.000000 0.000000 0.000000 0.026320 0.000000
# 6 0.000000 0.000000 0.000000 0.000000 0.000000 0.008022
#
#
# Mechanical properties :
#
#
# Convention : Reuss Voigt Hill
#
# Bulk Modulus (GPa) = 42.12393 42.95769 42.54081
# Shear Modulus (GPa) = 58.03105 103.63382 80.83243
#
# Velocity S-wave (km/s) = 4.97634 6.65014 5.87317
# Velocity P-wave (km/s) = 7.14104 8.79189 8.00911
#
# Compressibility (1/GPa) = 0.02373948
#
# Stress axis : x y z
#
# Youngs Moduli (GPa) = 83.30652 96.74435 104.06787
#
# Poissons Ratio (x) = 0.34615 -0.02548
# Poissons Ratio (y) = 0.29807 0.08033
# Poissons Ratio (z) = -0.02040 0.07468
#
# Static dielectric constant tensor:
#      x y z
#    x 1.840600 0.000000 0.000000 
#    y 0.000000 1.916830 0.000000 
#    z 0.000000 0.000000 1.985550 
# 
# From -- ./inp_files/2664.got.cif
#   From: 2010.05.17/outbox.cif.g08.bks.cpg/sg62_2_cif.got.tgz:2664.got - 2010.06.03 15:25:27.
