data_PCOD9463475
_publ_section_title
;
Structure prediction by ZEFSAII (Michael W. Deem and Ramdas Pophale) SiO2 
 PCOD9463475
Probable space group: P N M A
;
_chemical_formula_sum "Si O2"
_cell_formula_units_Z 48
_cell_length_a 8.054388
_cell_length_b 28.336406
_cell_length_c 11.072595
_cell_angle_alpha 90.000000
_cell_angle_beta 90.000000
_cell_angle_gamma 90.000000
_cell_volume 2527.125025
_symmetry_space_group_name_H-M "P N M A"
_symmetry_group_IT_number 62
_symmetry_cell_setting 'orthorhombic'
loop_
_space_group_symop_operation_xyz
x,y,z
1/2-x,-y,1/2+z
1/2+x,1/2-y,1/2-z
-x,1/2+y,-z
-x,-y,-z
1/2+x,y,1/2-z
1/2-x,1/2+y,1/2+z
x,1/2-y,z
loop_
_atom_site_type_symbol
_atom_site_label
_atom_site_fract_x
_atom_site_fract_y
_atom_site_fract_z
Si Si1 0.468870 0.305439 0.406117
Si Si2 0.533234 0.013560 0.863658
Si Si3 0.312554 0.421443 0.713765
Si Si4 0.665210 0.586032 0.857191
Si Si5 0.126195 0.117235 0.926595
Si Si6 0.364391 0.850404 0.827093
O O1 0.475464 0.250000 0.428380
O O2 0.575739 0.335101 0.503459
O O3 0.548183 0.317194 0.274068
O O4 0.277130 0.323460 0.402573
O O5 0.660817 0.056992 0.859741
O O6 0.379063 0.034052 0.790902
O O7 0.601958 0.964401 0.812756
O O8 0.500000 0.000000 0.000000
O O9 0.457059 0.404047 0.626954
O O10 0.248858 0.382897 0.810917
O O11 0.763063 0.610897 0.749322
O O12 0.512295 0.620958 0.891470
O O13 0.787433 0.584435 0.971941
#
# Coordination Sequence:
#
# PCOD9463475 Si02
#       6
#     8   8   8   8   8   8
#     4  10  20  37  60  88 111 143 182 228 285 349
#     4  11  21  36  58  80 115 151 200 227 267 335
#     4  10  23  40  53  80 114 155 189 242 278 316
#     4  10  19  36  54  87 113 155 185 221 281 336
#     4  10  22  38  59  78 112 152 188 235 289 330
#     4   9  20  34  59  85 124 142 172 230 287 342
#
# _framework density 18.993915000000001
#
# number of rings (size 3 to 8) (size 9 to 14) (size 15 to 20)
#    0.000    2.000    1.667    1.500    2.333    0.667 
#    3.000    1.667    0.000    0.000    0.000    0.000 
#    0.000    0.000    0.000    0.000    0.000    0.000 
#
# Total GULP energy -267705.348425 kJ/mol
# GULP energy per Si atom -5577.194759 kJ/mol
# Density = 1.895068 g / cm^3
# Si number density = 18.993915 Si / 1000 Ang^3
#
#
#
# Elastic Constant Matrix: (Units=GPa)
#
#
# Indices 1 2 3 4 5 6 
#
# 1 84.1760 25.3971 28.3520 0.0000 0.0000 0.0000
# 2 25.3971 82.1589 32.6845 0.0000 0.0000 0.0000
# 3 28.3520 32.6845 68.5472 0.0000 0.0000 0.0000
# 4 0.0000 0.0000 0.0000 13.5062 0.0000 0.0000
# 5 0.0000 0.0000 0.0000 0.0000 33.4696 0.0000
# 6 0.0000 0.0000 0.0000 0.0000 0.0000 21.1224
#
#
#
# Elastic Compliance Matrix: (Units=1/GPa)
#
#
# Indices 1 2 3 4 5 6 
#
# 1 0.014219 -0.002537 -0.004671 0.000000 0.000000 0.000000
# 2 -0.002537 0.015473 -0.006329 0.000000 0.000000 0.000000
# 3 -0.004671 -0.006329 0.019538 0.000000 0.000000 0.000000
# 4 0.000000 0.000000 0.000000 0.074040 0.000000 0.000000
# 5 0.000000 0.000000 0.000000 0.000000 0.029878 0.000000
# 6 0.000000 0.000000 0.000000 0.000000 0.000000 0.047343
#
#
# Mechanical properties :
#
#
# Convention : Reuss Voigt Hill
#
# Bulk Modulus (GPa) = 45.13375 45.30549 45.21962
# Shear Modulus (GPa) = 21.28105 23.51621 22.39863
#
# Velocity S-wave (km/s) = 3.35089 3.52247 3.43775
# Velocity P-wave (km/s) = 6.22777 6.35989 6.29417
#
# Compressibility (1/GPa) = 0.02215637
#
# Stress axis : x y z
#
# Youngs Moduli (GPa) = 70.32987 64.62680 51.18162
#
# Poissons Ratio (x) = 0.16395 0.23909
# Poissons Ratio (y) = 0.17842 0.32391
# Poissons Ratio (z) = 0.32854 0.40900
#
# Static dielectric constant tensor:
#      x y z
#    x 1.771690 0.000000 0.000000 
#    y 0.000000 1.687060 0.000000 
#    z 0.000000 0.000000 1.669870 
# 
# From -- ./inp_files/11310.got.cif
#   From: 2010.05.17/outbox.cif.g08.bks.cpg/sg62_6_cif.got.tgz:11310.got - 2010.06.03 15:25:27.
