data_PCOD9463100
_publ_section_title
;
Structure prediction by ZEFSAII (Michael W. Deem and Ramdas Pophale) SiO2 
 PCOD9463100
Probable space group: P N M A
;
_chemical_formula_sum "Si O2"
_cell_formula_units_Z 40
_cell_length_a 26.264228
_cell_length_b 8.408358
_cell_length_c 9.958341
_cell_angle_alpha 90.000000
_cell_angle_beta 90.000000
_cell_angle_gamma 90.000000
_cell_volume 2199.190383
_symmetry_space_group_name_H-M "P N M A"
_symmetry_group_IT_number 62
_symmetry_cell_setting 'orthorhombic'
loop_
_space_group_symop_operation_xyz
x,y,z
1/2-x,-y,1/2+z
1/2+x,1/2-y,1/2-z
-x,1/2+y,-z
-x,-y,-z
1/2+x,y,1/2-z
1/2-x,1/2+y,1/2+z
x,1/2-y,z
loop_
_atom_site_type_symbol
_atom_site_label
_atom_site_fract_x
_atom_site_fract_y
_atom_site_fract_z
Si Si1 0.137511 0.443292 0.279880
Si Si2 0.858143 0.437005 0.302307
Si Si3 0.942502 0.558895 0.498953
Si Si4 0.163882 0.061431 0.986565
Si Si5 0.777458 0.561047 0.508736
O O1 0.138086 0.250000 0.277725
O O2 0.088720 0.491894 0.367409
O O3 0.187616 0.490336 0.364718
O O4 0.139992 0.497686 0.126844
O O5 0.850804 0.250000 0.322265
O O6 0.909801 0.491665 0.375064
O O7 0.857170 0.478198 0.145983
O O8 0.811969 0.526109 0.378471
O O9 0.941217 0.750000 0.492754
O O10 0.000000 0.500000 0.500000
O O11 0.155208 0.250000 0.974814
O O12 0.224193 0.028091 0.995022
O O13 0.768119 0.750000 0.519284
#
# Coordination Sequence:
#
# PCOD9463100 Si02
#       5
#     8   8   8   8   8
#     4   8  18  34  53  76 106 138 174 217 266 317
#     4  11  22  36  53  79 111 146 184 222 262 316
#     4  10  20  39  62  82 102 133 176 226 278 331
#     4  11  20  33  53  80 112 146 178 219 269 318
#     4  10  19  34  54  79 110 147 184 222 265 318
#
# _framework density 18.188511999999999
#
# number of rings (size 3 to 8) (size 9 to 14) (size 15 to 20)
#    0.000    2.000    0.000    6.000    0.000    1.600 
#    0.000   12.000    0.000    0.000    0.000    0.000 
#    0.000    0.000    0.000    0.000    0.000    0.000 
#
# Total GULP energy -223393.216898 kJ/mol
# GULP energy per Si atom -5584.830422 kJ/mol
# Density = 1.814711 g / cm^3
# Si number density = 18.188512 Si / 1000 Ang^3
#
#
#
# Elastic Constant Matrix: (Units=GPa)
#
#
# Indices 1 2 3 4 5 6 
#
# 1 101.9871 -6.6025 49.9605 0.0000 0.0000 0.0000
# 2 -6.6025 29.3426 -2.7079 0.0000 0.0000 0.0000
# 3 49.9605 -2.7079 149.0264 0.0000 0.0000 0.0000
# 4 0.0000 0.0000 0.0000 19.2730 0.0000 0.0000
# 5 0.0000 0.0000 0.0000 0.0000 2.1074 0.0000
# 6 0.0000 0.0000 0.0000 0.0000 0.0000 28.8642
#
#
#
# Elastic Compliance Matrix: (Units=1/GPa)
#
#
# Indices 1 2 3 4 5 6 
#
# 1 0.011886 0.002311 -0.003943 0.000000 0.000000 0.000000
# 2 0.002311 0.034587 -0.000146 0.000000 0.000000 0.000000
# 3 -0.003943 -0.000146 0.008029 0.000000 0.000000 0.000000
# 4 0.000000 0.000000 0.000000 0.051886 0.000000 0.000000
# 5 0.000000 0.000000 0.000000 0.000000 0.474526 0.000000
# 6 0.000000 0.000000 0.000000 0.000000 0.000000 0.034645
#
#
# Mechanical properties :
#
#
# Convention : Reuss Voigt Hill
#
# Bulk Modulus (GPa) = 19.62882 40.18404 29.90643
# Shear Modulus (GPa) = 7.86044 26.02933 16.94488
#
# Velocity S-wave (km/s) = 2.08111 3.78707 3.05557
# Velocity P-wave (km/s) = 4.07308 6.42368 5.37837
#
# Compressibility (1/GPa) = 0.05094549
#
# Stress axis : x y z
#
# Youngs Moduli (GPa) = 84.13099 28.91299 124.54266
#
# Poissons Ratio (x) = -0.06681 0.49105
# Poissons Ratio (y) = -0.19440 0.01821
# Poissons Ratio (z) = 0.33171 0.00423
#
# Static dielectric constant tensor:
#      x y z
#    x 1.591320 0.000000 0.000000 
#    y 0.000000 1.607680 0.000000 
#    z 0.000000 0.000000 1.639730 
# 
# From -- ./inp_files/9096.got.cif
#   From: 2010.05.17/outbox.cif.g08.bks.cpg/sg62_5_cif.got.tgz:9096.got - 2010.06.03 15:25:27.
