data_PCOD9463126
_publ_section_title
;
Structure prediction by ZEFSAII (Michael W. Deem and Ramdas Pophale) SiO2 
 PCOD9463126
Probable space group: P N M A
;
_chemical_formula_sum "Si O2"
_cell_formula_units_Z 40
_cell_length_a 14.420715
_cell_length_b 7.427132
_cell_length_c 14.130344
_cell_angle_alpha 90.000000
_cell_angle_beta 90.000000
_cell_angle_gamma 90.000000
_cell_volume 1513.424190
_symmetry_space_group_name_H-M "P N M A"
_symmetry_group_IT_number 62
_symmetry_cell_setting 'orthorhombic'
loop_
_space_group_symop_operation_xyz
x,y,z
1/2-x,-y,1/2+z
1/2+x,1/2-y,1/2-z
-x,1/2+y,-z
-x,-y,-z
1/2+x,y,1/2-z
1/2-x,1/2+y,1/2+z
x,1/2-y,z
loop_
_atom_site_type_symbol
_atom_site_label
_atom_site_fract_x
_atom_site_fract_y
_atom_site_fract_z
Si Si1 0.898263 0.456319 0.408016
Si Si2 0.434859 0.532063 0.795304
Si Si3 0.215697 0.039816 0.777732
Si Si4 0.729810 0.471235 0.516962
Si Si5 0.441563 0.536020 0.592751
O O1 0.914813 0.250000 0.435098
O O2 0.834505 0.453437 0.312150
O O3 0.832323 0.536261 0.489182
O O4 0.996654 0.536903 0.376951
O O5 0.437701 0.750000 0.801026
O O6 0.327525 0.479460 0.786881
O O7 0.475940 0.469573 0.693684
O O8 0.193881 0.250000 0.770682
O O9 0.189214 0.969350 0.882350
O O10 0.731832 0.250000 0.519274
O O11 0.660946 0.530358 0.434126
O O12 0.500000 0.500000 0.500000
O O13 0.434584 0.750000 0.602629
#
# Coordination Sequence:
#
# PCOD9463126 Si02
#       5
#     8   8   8   8   8
#     4  10  20  39  62  82 112 153 197 236 283 347
#     4  10  21  37  60  84 111 154 195 234 283 342
#     4  11  22  36  57  85 117 152 189 237 293 342
#     4   9  19  36  56  78 114 154 182 229 294 339
#     4  10  19  34  55  81 111 143 186 235 285 333
#
# _framework density 26.430132
#
# number of rings (size 3 to 8) (size 9 to 14) (size 15 to 20)
#    0.000    2.000    2.000    1.800    0.000    2.400 
#    0.000    3.000    0.000    0.000    0.000    0.000 
#    0.000    0.000    0.000    0.000    0.000    0.000 
#
# Total GULP energy -223662.172921 kJ/mol
# GULP energy per Si atom -5591.554323 kJ/mol
# Density = 2.636998 g / cm^3
# Si number density = 26.430132 Si / 1000 Ang^3
#
#
#
# Elastic Constant Matrix: (Units=GPa)
#
#
# Indices 1 2 3 4 5 6 
#
# 1 110.4339 -4.5443 8.9192 0.0000 0.0000 0.0000
# 2 -4.5443 102.8759 6.5081 0.0000 0.0000 0.0000
# 3 8.9192 6.5081 80.4904 0.0000 0.0000 0.0000
# 4 0.0000 0.0000 0.0000 14.1134 0.0000 0.0000
# 5 0.0000 0.0000 0.0000 0.0000 58.7066 0.0000
# 6 0.0000 0.0000 0.0000 0.0000 0.0000 14.4910
#
#
#
# Elastic Compliance Matrix: (Units=1/GPa)
#
#
# Indices 1 2 3 4 5 6 
#
# 1 0.009160 0.000471 -0.001053 0.000000 0.000000 0.000000
# 2 0.000471 0.009795 -0.000844 0.000000 0.000000 0.000000
# 3 -0.001053 -0.000844 0.012609 0.000000 0.000000 0.000000
# 4 0.000000 0.000000 0.000000 0.070855 0.000000 0.000000
# 5 0.000000 0.000000 0.000000 0.000000 0.017034 0.000000
# 6 0.000000 0.000000 0.000000 0.000000 0.000000 0.069008
#
#
# Mechanical properties :
#
#
# Convention : Reuss Voigt Hill
#
# Bulk Modulus (GPa) = 34.82982 35.06291 34.94636
# Shear Modulus (GPa) = 24.89018 36.32335 30.60676
#
# Velocity S-wave (km/s) = 3.07210 3.71120 3.40667
# Velocity P-wave (km/s) = 5.07843 5.62664 5.35955
#
# Compressibility (1/GPa) = 0.02871103
#
# Stress axis : x y z
#
# Youngs Moduli (GPa) = 109.17464 102.09639 79.30972
#
# Poissons Ratio (x) = -0.04811 0.08352
# Poissons Ratio (y) = -0.05145 0.06695
# Poissons Ratio (z) = 0.11497 0.08619
#
# Static dielectric constant tensor:
#      x y z
#    x 2.129490 0.000000 0.000000 
#    y 0.000000 1.974400 0.000000 
#    z 0.000000 0.000000 2.033150 
# 
# From -- ./inp_files/18593.got.cif
#   From: 2010.05.17/outbox.cif.g08.bks.cpg/sg62_10_cif.got.tgz:18593.got - 2010.06.03 15:25:27.
