data_PCOD9463771
_publ_section_title
;
Structure prediction by ZEFSAII (Michael W. Deem and Ramdas Pophale) SiO2 
 PCOD9463771
Probable space group: P N M A
;
_chemical_formula_sum "Si O2"
_cell_formula_units_Z 40
_cell_length_a 9.258095
_cell_length_b 29.468833
_cell_length_c 7.674518
_cell_angle_alpha 90.000000
_cell_angle_beta 90.000000
_cell_angle_gamma 90.000000
_cell_volume 2093.802334
_symmetry_space_group_name_H-M "P N M A"
_symmetry_group_IT_number 62
_symmetry_cell_setting 'orthorhombic'
loop_
_space_group_symop_operation_xyz
x,y,z
1/2-x,-y,1/2+z
1/2+x,1/2-y,1/2-z
-x,1/2+y,-z
-x,-y,-z
1/2+x,y,1/2-z
1/2-x,1/2+y,1/2+z
x,1/2-y,z
loop_
_atom_site_type_symbol
_atom_site_label
_atom_site_fract_x
_atom_site_fract_y
_atom_site_fract_z
Si Si1 0.693036 0.302948 0.348244
Si Si2 0.994501 0.150257 0.430557
Si Si3 0.303938 0.409438 0.692866
Si Si4 0.442911 0.849296 0.339585
Si Si5 0.524962 0.447865 0.960026
O O1 0.701015 0.250000 0.306211
O O2 0.617275 0.330758 0.194578
O O3 0.849474 0.324064 0.380682
O O4 0.602033 0.310791 0.526485
O O5 0.029613 0.160887 0.634691
O O6 0.983942 0.095223 0.417345
O O7 0.407823 0.372983 0.598620
O O8 0.421288 0.438723 0.794865
O O9 0.195252 0.383307 0.825777
O O10 0.193612 0.438426 0.579256
O O11 0.500000 0.500000 0.000000
#
# Coordination Sequence:
#
# PCOD9463771 Si02
#       5
#     8   8   8   8   8
#     4  12  25  41  65  94 127 171 218 265 328 396
#     4  10  25  42  62  93 133 164 213 274 318 379
#     4   8  18  38  61  84 123 166 208 259 315 379
#     4  10  19  44  64  83 125 177 205 261 323 373
#     4  10  20  39  63  93 126 167 220 263 326 388
#
# _framework density 19.104001
#
# number of rings (size 3 to 8) (size 9 to 14) (size 15 to 20)
#    0.000    2.400    4.000    0.600    5.600    3.200 
#    0.000    2.000    0.000    0.000    0.000    0.000 
#    0.000    0.000    0.000    0.000    0.000    0.000 
#
# Total GULP energy -222736.279840 kJ/mol
# GULP energy per Si atom -5568.406996 kJ/mol
# Density = 1.906052 g / cm^3
# Si number density = 19.104001 Si / 1000 Ang^3
#
#
#
# Elastic Constant Matrix: (Units=GPa)
#
#
# Indices 1 2 3 4 5 6 
#
# 1 114.9360 19.3511 15.3288 0.0000 0.0000 0.0000
# 2 19.3511 122.4883 20.1607 0.0000 0.0000 0.0000
# 3 15.3288 20.1607 57.2017 0.0000 0.0000 0.0000
# 4 0.0000 0.0000 0.0000 21.1365 0.0000 0.0000
# 5 0.0000 0.0000 0.0000 0.0000 23.7962 0.0000
# 6 0.0000 0.0000 0.0000 0.0000 0.0000 20.3256
#
#
#
# Elastic Compliance Matrix: (Units=1/GPa)
#
#
# Indices 1 2 3 4 5 6 
#
# 1 0.009162 -0.001108 -0.002065 0.000000 0.000000 0.000000
# 2 -0.001108 0.008801 -0.002805 0.000000 0.000000 0.000000
# 3 -0.002065 -0.002805 0.019024 0.000000 0.000000 0.000000
# 4 0.000000 0.000000 0.000000 0.047311 0.000000 0.000000
# 5 0.000000 0.000000 0.000000 0.000000 0.042023 0.000000
# 6 0.000000 0.000000 0.000000 0.000000 0.000000 0.049199
#
#
# Mechanical properties :
#
#
# Convention : Reuss Voigt Hill
#
# Bulk Modulus (GPa) = 39.94893 44.92302 42.43598
# Shear Modulus (GPa) = 25.53364 29.03737 27.28550
#
# Velocity S-wave (km/s) = 3.65987 3.90290 3.78333
# Velocity P-wave (km/s) = 6.23026 6.62391 6.43010
#
# Compressibility (1/GPa) = 0.02503196
#
# Stress axis : x y z
#
# Youngs Moduli (GPa) = 109.14201 113.62719 52.56532
#
# Poissons Ratio (x) = 0.12586 0.10854
# Poissons Ratio (y) = 0.12089 0.14744
# Poissons Ratio (z) = 0.22537 0.31872
#
# Static dielectric constant tensor:
#      x y z
#    x 1.683440 0.000000 0.000000 
#    y 0.000000 1.682430 0.000000 
#    z 0.000000 0.000000 1.684680 
# 
# From -- ./inp_files/4438.got.cif
#   From: 2010.05.17/outbox.cif.g08.bks.cpg/sg62_3_cif.got.tgz:4438.got - 2010.06.03 15:25:27.
