data_PCOD9463431
_publ_section_title
;
Structure prediction by ZEFSAII (Michael W. Deem and Ramdas Pophale) SiO2 
 PCOD9463431
Probable space group: P N M A
;
_chemical_formula_sum "Si O2"
_cell_formula_units_Z 64
_cell_length_a 14.164321
_cell_length_b 13.101842
_cell_length_c 17.155842
_cell_angle_alpha 90.000000
_cell_angle_beta 90.000000
_cell_angle_gamma 90.000000
_cell_volume 3183.758783
_symmetry_space_group_name_H-M "P N M A"
_symmetry_group_IT_number 62
_symmetry_cell_setting 'orthorhombic'
loop_
_space_group_symop_operation_xyz
x,y,z
1/2-x,-y,1/2+z
1/2+x,1/2-y,1/2-z
-x,1/2+y,-z
-x,-y,-z
1/2+x,y,1/2-z
1/2-x,1/2+y,1/2+z
x,1/2-y,z
loop_
_atom_site_type_symbol
_atom_site_label
_atom_site_fract_x
_atom_site_fract_y
_atom_site_fract_z
Si Si1 0.069837 0.863788 0.151653
Si Si2 0.801394 0.131097 0.281248
Si Si3 0.128306 0.996797 0.570826
Si Si4 0.541810 0.970491 0.583636
Si Si5 0.987878 0.861073 0.776408
Si Si6 0.352348 0.012873 0.792015
Si Si7 0.794591 0.367921 0.000222
Si Si8 0.056319 0.872779 0.426883
O O1 0.043099 0.750000 0.172158
O O2 0.975212 0.929236 0.135868
O O3 0.132970 0.911398 0.219398
O O4 0.134519 0.864161 0.074269
O O5 0.771688 0.250000 0.295724
O O6 0.820750 0.065593 0.359862
O O7 0.901472 0.137872 0.238558
O O8 0.732550 0.063507 0.227569
O O9 0.081926 0.913459 0.512958
O O10 0.204918 0.065489 0.524564
O O11 0.044424 0.075061 0.594979
O O12 0.500000 0.000000 0.500000
O O13 0.476831 0.892153 0.632987
O O14 0.643664 0.923354 0.566849
O O15 0.948454 0.750000 0.762434
O O16 0.941939 0.938309 0.716606
O O17 0.364562 0.078334 0.869639
O O18 0.771565 0.250000 0.020626
O O19 0.053050 0.750000 0.422224
#
# Coordination Sequence:
#
# PCOD9463431 Si02
#       8
#     8   8   8   8   8   8   8   8
#     4   9  18  34  58  84 121 163 200 247 305 368
#     4  11  23  41  65  94 127 165 212 263 317 374
#     4  11  23  44  66  91 127 164 214 266 313 383
#     4   9  19  34  55  87 125 159 198 249 304 374
#     4  10  21  38  61  90 124 165 207 262 318 371
#     4  11  21  40  63  93 126 163 213 261 314 382
#     4  10  19  35  60  88 118 159 204 250 307 371
#     4  11  25  44  66  92 125 169 212 265 325 377
#
# _framework density 20.102027
#
# number of rings (size 3 to 8) (size 9 to 14) (size 15 to 20)
#    0.000    1.750    2.500    1.875    1.750    0.500 
#    0.000    2.500    0.000    0.000    0.000    0.000 
#    0.000    0.000    0.000    0.000    0.000    0.000 
#
# Total GULP energy -356743.988371 kJ/mol
# GULP energy per Si atom -5574.124818 kJ/mol
# Density = 2.005627 g / cm^3
# Si number density = 20.102027 Si / 1000 Ang^3
#
#
#
# Elastic Constant Matrix: (Units=GPa)
#
#
# Indices 1 2 3 4 5 6 
#
# 1 68.9282 45.3148 12.5849 0.0000 0.0000 0.0000
# 2 45.3148 165.2005 33.4897 0.0000 0.0000 0.0000
# 3 12.5849 33.4897 50.5185 0.0000 0.0000 0.0000
# 4 0.0000 0.0000 0.0000 15.4155 0.0000 0.0000
# 5 0.0000 0.0000 0.0000 0.0000 30.4773 0.0000
# 6 0.0000 0.0000 0.0000 0.0000 0.0000 27.0674
#
#
#
# Elastic Compliance Matrix: (Units=1/GPa)
#
#
# Indices 1 2 3 4 5 6 
#
# 1 0.017783 -0.004598 -0.001382 0.000000 0.000000 0.000000
# 2 -0.004598 0.008182 -0.004278 0.000000 0.000000 0.000000
# 3 -0.001382 -0.004278 0.022975 0.000000 0.000000 0.000000
# 4 0.000000 0.000000 0.000000 0.064870 0.000000 0.000000
# 5 0.000000 0.000000 0.000000 0.000000 0.032811 0.000000
# 6 0.000000 0.000000 0.000000 0.000000 0.000000 0.036945
#
#
# Mechanical properties :
#
#
# Convention : Reuss Voigt Hill
#
# Bulk Modulus (GPa) = 35.18231 51.93623 43.55927
# Shear Modulus (GPa) = 23.41298 27.47588 25.44443
#
# Velocity S-wave (km/s) = 3.41648 3.70107 3.56162
# Velocity P-wave (km/s) = 5.75352 6.64502 6.21527
#
# Compressibility (1/GPa) = 0.02842338
#
# Stress axis : x y z
#
# Youngs Moduli (GPa) = 56.23407 122.22330 43.52497
#
# Poissons Ratio (x) = 0.56194 0.06016
# Poissons Ratio (y) = 0.25855 0.18622
# Poissons Ratio (z) = 0.07772 0.52293
#
# Static dielectric constant tensor:
#      x y z
#    x 1.725250 0.000000 0.000000 
#    y 0.000000 1.746400 0.000000 
#    z 0.000000 0.000000 1.733260 
# 
# From -- ./inp_files/24049.got.cif
#   From: 2010.05.17/outbox.cif.g08.bks.cpg/sg62_13_cif.got.tgz:24049.got - 2010.06.03 15:25:27.
