data_PCOD9463385
_publ_section_title
;
Structure prediction by ZEFSAII (Michael W. Deem and Ramdas Pophale) SiO2 
 PCOD9463385
Probable space group: P N M A
;
_chemical_formula_sum "Si O2"
_cell_formula_units_Z 56
_cell_length_a 19.638190
_cell_length_b 9.228385
_cell_length_c 14.326857
_cell_angle_alpha 90.000000
_cell_angle_beta 90.000000
_cell_angle_gamma 90.000000
_cell_volume 2596.438787
_symmetry_space_group_name_H-M "P N M A"
_symmetry_group_IT_number 62
_symmetry_cell_setting 'orthorhombic'
loop_
_space_group_symop_operation_xyz
x,y,z
1/2-x,-y,1/2+z
1/2+x,1/2-y,1/2-z
-x,1/2+y,-z
-x,-y,-z
1/2+x,y,1/2-z
1/2-x,1/2+y,1/2+z
x,1/2-y,z
loop_
_atom_site_type_symbol
_atom_site_label
_atom_site_fract_x
_atom_site_fract_y
_atom_site_fract_z
Si Si1 0.787125 0.581026 0.055099
Si Si2 0.149516 0.419296 0.226691
Si Si3 0.286175 0.580796 0.218604
Si Si4 0.650562 0.418278 0.049152
Si Si5 0.092046 0.921111 0.610678
Si Si6 0.062002 0.422863 0.948462
Si Si7 0.495265 0.421794 0.280975
O O1 0.774054 0.750000 0.032420
O O2 0.790940 0.570272 0.168313
O O3 0.724525 0.483507 0.023478
O O4 0.861816 0.539548 0.018293
O O5 0.162546 0.250000 0.204514
O O6 0.212191 0.515659 0.193602
O O7 0.145190 0.432513 0.339469
O O8 0.073333 0.456412 0.195083
O O9 0.291509 0.750000 0.194182
O O10 0.345742 0.490302 0.169770
O O11 0.646484 0.250000 0.025893
O O12 0.595163 0.504350 0.989607
O O13 0.102504 0.750000 0.601006
O O14 0.024786 0.943463 0.673203
O O15 0.055711 0.250000 0.954164
O O16 0.053016 0.479172 0.843137
O O17 0.000000 0.500000 0.000000
O O18 0.484567 0.250000 0.301038
#
# Coordination Sequence:
#
# PCOD9463385 Si02
#       7
#     8   8   8   8   8   8   8
#     4   9  19  37  58  80 111 146 185 236 291 341
#     4   9  20  39  59  84 119 156 194 241 293 345
#     4  10  19  35  59  84 110 147 194 241 290 347
#     4  10  21  36  58  86 115 151 196 242 287 340
#     4  11  22  36  58  86 117 155 197 240 293 350
#     4  11  23  39  60  87 118 153 192 241 295 351
#     4  10  22  40  61  85 117 157 197 238 293 356
#
# _framework density 21.568003000000001
#
# number of rings (size 3 to 8) (size 9 to 14) (size 15 to 20)
#    0.000    2.000    1.429    1.714    0.000    5.143 
#    0.000    1.429    0.000    0.000    0.000    0.000 
#    0.000    0.000    0.000    0.000    0.000    0.000 
#
# Total GULP energy -313090.802255 kJ/mol
# GULP energy per Si atom -5590.907183 kJ/mol
# Density = 2.151891 g / cm^3
# Si number density = 21.568003 Si / 1000 Ang^3
#
#
#
# Elastic Constant Matrix: (Units=GPa)
#
#
# Indices 1 2 3 4 5 6 
#
# 1 83.9823 29.1572 -1.5940 0.0000 0.0000 0.0000
# 2 29.1572 62.1099 9.7998 0.0000 0.0000 0.0000
# 3 -1.5940 9.7998 44.9375 0.0000 0.0000 0.0000
# 4 0.0000 0.0000 0.0000 30.4171 0.0000 0.0000
# 5 0.0000 0.0000 0.0000 0.0000 35.5528 0.0000
# 6 0.0000 0.0000 0.0000 0.0000 0.0000 24.3564
#
#
#
# Elastic Compliance Matrix: (Units=1/GPa)
#
#
# Indices 1 2 3 4 5 6 
#
# 1 0.014407 -0.007088 0.002057 0.000000 0.000000 0.000000
# 2 -0.007088 0.020161 -0.004648 0.000000 0.000000 0.000000
# 3 0.002057 -0.004648 0.023340 0.000000 0.000000 0.000000
# 4 0.000000 0.000000 0.000000 0.032876 0.000000 0.000000
# 5 0.000000 0.000000 0.000000 0.000000 0.028127 0.000000
# 6 0.000000 0.000000 0.000000 0.000000 0.000000 0.041057
#
#
# Mechanical properties :
#
#
# Convention : Reuss Voigt Hill
#
# Bulk Modulus (GPa) = 25.94060 29.52842 27.73451
# Shear Modulus (GPa) = 26.01772 28.30972 27.16372
#
# Velocity S-wave (km/s) = 3.47697 3.62688 3.55272
# Velocity P-wave (km/s) = 5.30778 5.59103 5.45125
#
# Compressibility (1/GPa) = 0.03854961
#
# Stress axis : x y z
#
# Youngs Moduli (GPa) = 69.41029 49.60015 42.84538
#
# Poissons Ratio (x) = 0.35156 -0.08812
# Poissons Ratio (y) = 0.49197 0.19915
# Poissons Ratio (z) = -0.14276 0.23055
#
# Static dielectric constant tensor:
#      x y z
#    x 1.759420 0.000000 0.000000 
#    y 0.000000 1.707270 0.000000 
#    z 0.000000 0.000000 1.880090 
# 
# From -- ./inp_files/20301.got.cif
#   From: 2010.05.17/outbox.cif.g08.bks.cpg/sg62_11_cif.got.tgz:20301.got - 2010.06.03 15:25:27.
