data_PCOD9463749
_publ_section_title
;
Structure prediction by ZEFSAII (Michael W. Deem and Ramdas Pophale) SiO2 
 PCOD9463749
Probable space group: P N M A
;
_chemical_formula_sum "Si O2"
_cell_formula_units_Z 44
_cell_length_a 21.262344
_cell_length_b 9.750146
_cell_length_c 9.648366
_cell_angle_alpha 90.000000
_cell_angle_beta 90.000000
_cell_angle_gamma 90.000000
_cell_volume 2000.212002
_symmetry_space_group_name_H-M "P N M A"
_symmetry_group_IT_number 62
_symmetry_cell_setting 'orthorhombic'
loop_
_space_group_symop_operation_xyz
x,y,z
1/2-x,-y,1/2+z
1/2+x,1/2-y,1/2-z
-x,1/2+y,-z
-x,-y,-z
1/2+x,y,1/2-z
1/2-x,1/2+y,1/2+z
x,1/2-y,z
loop_
_atom_site_type_symbol
_atom_site_label
_atom_site_fract_x
_atom_site_fract_y
_atom_site_fract_z
Si Si1 0.712957 0.750000 0.880600
Si Si2 0.396441 0.456539 0.128496
Si Si3 0.712077 0.750000 0.207978
Si Si4 0.994303 0.436051 0.124915
Si Si5 0.065974 0.250000 0.987414
Si Si6 0.393665 0.031738 0.822364
Si Si7 0.344194 0.750000 0.757623
Si Si8 0.144947 0.250000 0.705242
O O1 0.728556 0.750000 0.044029
O O2 0.669331 0.620218 0.851945
O O3 0.772533 0.750000 0.784462
O O4 0.441660 0.420816 0.254987
O O5 0.382145 0.615767 0.134838
O O6 0.418036 0.417728 0.972221
O O7 0.663862 0.624276 0.232253
O O8 0.778734 0.750000 0.285685
O O9 0.001824 0.250000 0.101075
O O10 0.964720 0.580031 0.033579
O O11 0.050669 0.510137 0.213306
O O12 0.112053 0.250000 0.855652
O O13 0.116240 0.250000 0.114619
O O14 0.363398 0.883573 0.839454
#
# Coordination Sequence:
#
# PCOD9463749 Si02
#       8
#     4   8   4   8   4   8   4   4
#     4  10  21  39  62  88 127 163 201 254 315 370
#     4  11  23  39  62  93 123 161 206 257 311 370
#     4  10  22  40  61  94 126 158 204 258 312 362
#     4  11  22  40  62  89 122 163 208 250 309 367
#     4  10  21  37  61  88 120 162 202 257 300 365
#     4  10  23  40  63  91 125 163 204 258 312 365
#     4  10  19  40  62  85 122 165 207 242 315 369
#     4  12  21  38  64  91 123 158 212 251 304 368
#
# _framework density 21.997668000000001
#
# number of rings (size 3 to 8) (size 9 to 14) (size 15 to 20)
#    0.000    1.455    2.727    2.727    0.000    1.455 
#    0.000    5.455    0.000    0.000    0.000    0.000 
#    0.000    0.000    0.000    0.000    0.000    0.000 
#
# Total GULP energy -245049.694241 kJ/mol
# GULP energy per Si atom -5569.311233 kJ/mol
# Density = 2.194760 g / cm^3
# Si number density = 21.997668 Si / 1000 Ang^3
#
#
#
# Elastic Constant Matrix: (Units=GPa)
#
#
# Indices 1 2 3 4 5 6 
#
# 1 87.2623 12.1590 62.0619 0.0000 0.0000 0.0000
# 2 12.1590 117.8678 21.2681 0.0000 0.0000 0.0000
# 3 62.0619 21.2681 141.3331 0.0000 0.0000 0.0000
# 4 0.0000 0.0000 0.0000 -224.4766 0.0000 0.0000
# 5 0.0000 0.0000 0.0000 0.0000 24.4895 0.0000
# 6 0.0000 0.0000 0.0000 0.0000 0.0000 40.2727
#
#
#
# Elastic Compliance Matrix: (Units=1/GPa)
#
#
# Indices 1 2 3 4 5 6 
#
# 1 0.016683 -0.000410 -0.007264 0.000000 0.000000 0.000000
# 2 -0.000410 0.008731 -0.001134 0.000000 0.000000 0.000000
# 3 -0.007264 -0.001134 0.010436 0.000000 0.000000 0.000000
# 4 0.000000 0.000000 0.000000 -0.004455 0.000000 0.000000
# 5 0.000000 0.000000 0.000000 0.000000 0.040834 0.000000
# 6 0.000000 0.000000 0.000000 0.000000 0.000000 0.024831
#
#
# Mechanical properties :
#
#
# Convention : Reuss Voigt Hill
#
# Bulk Modulus (GPa) = 54.84305 59.71568 57.27937
# Shear Modulus (GPa) = 41.40647 -15.21126 13.09761
#
# Velocity S-wave (km/s) = 4.34327 -2.63248 2.44275
# Velocity P-wave (km/s) = 7.08078 4.23856 5.83536
#
# Compressibility (1/GPa) = 0.01823385
#
# Stress axis : x y z
#
# Youngs Moduli (GPa) = 59.94041 114.53488 95.82291
#
# Poissons Ratio (x) = 0.04699 0.69607
# Poissons Ratio (y) = 0.02459 0.10863
# Poissons Ratio (z) = 0.43542 0.12985
#
# Static dielectric constant tensor:
#      x y z
#    x 1.741960 0.000000 0.000000 
#    y 0.000000 2.015660 0.000000 
#    z 0.000000 0.000000 1.810060 
# 
# From -- ./inp_files/15080.got.cif
#   From: 2010.05.17/outbox.cif.g08.bks.cpg/sg62_8_cif.got.tgz:15080.got - 2010.06.03 15:25:27.
