data_PCOD9463012
_publ_section_title
;
Structure prediction by ZEFSAII (Michael W. Deem and Ramdas Pophale) SiO2 
 PCOD9463012
Probable space group: P N M A
;
_chemical_formula_sum "Si O2"
_cell_formula_units_Z 48
_cell_length_a 29.799147
_cell_length_b 8.836556
_cell_length_c 10.439929
_cell_angle_alpha 90.000000
_cell_angle_beta 90.000000
_cell_angle_gamma 90.000000
_cell_volume 2749.061222
_symmetry_space_group_name_H-M "P N M A"
_symmetry_group_IT_number 62
_symmetry_cell_setting 'orthorhombic'
loop_
_space_group_symop_operation_xyz
x,y,z
1/2-x,-y,1/2+z
1/2+x,1/2-y,1/2-z
-x,1/2+y,-z
-x,-y,-z
1/2+x,y,1/2-z
1/2-x,1/2+y,1/2+z
x,1/2-y,z
loop_
_atom_site_type_symbol
_atom_site_label
_atom_site_fract_x
_atom_site_fract_y
_atom_site_fract_z
Si Si1 0.972554 0.430761 0.881346
Si Si2 0.474381 0.568958 0.120387
Si Si3 0.111678 0.931305 0.734136
Si Si4 0.113478 0.431185 0.015636
Si Si5 0.715204 0.567955 0.770275
Si Si6 0.283084 0.567862 0.508753
O O1 0.971069 0.250000 0.895321
O O2 0.922614 0.497928 0.889011
O O3 0.997689 0.467268 0.749424
O O4 0.000000 0.500000 0.000000
O O5 0.471318 0.750000 0.109416
O O6 0.425116 0.498762 0.139256
O O7 0.500000 0.500000 0.000000
O O8 0.107280 0.750000 0.741490
O O9 0.163204 0.968937 0.699506
O O10 0.103616 0.002629 0.874430
O O11 0.108609 0.250000 0.012346
O O12 0.165317 0.469499 0.044309
O O13 0.718387 0.750000 0.761173
O O14 0.726120 0.500038 0.631225
O O15 0.748614 0.516242 0.882094
O O16 0.280244 0.750000 0.499283
#
# Coordination Sequence:
#
# PCOD9463012 Si02
#       6
#     8   8   8   8   8   8
#     4  11  22  36  58  84 110 142 182 227 271 323
#     4  11  24  40  57  80 112 147 184 227 275 331
#     4  10  19  34  58  81 109 147 185 225 272 326
#     4  10  19  33  56  83 111 143 184 228 271 322
#     4   9  19  36  57  82 111 143 182 225 271 325
#     4   9  19  36  56  80 112 144 180 226 271 322
#
# _framework density 17.460505999999999
#
# number of rings (size 3 to 8) (size 9 to 14) (size 15 to 20)
#    0.000    2.000    1.667    2.000    0.000    4.000 
#    3.000    0.000    0.000    0.000    0.000    0.000 
#    0.000    0.000    0.000    0.000    0.000    0.000 
#
# Total GULP energy -267961.231446 kJ/mol
# GULP energy per Si atom -5582.525655 kJ/mol
# Density = 1.742076 g / cm^3
# Si number density = 17.460506 Si / 1000 Ang^3
#
#
#
# Elastic Constant Matrix: (Units=GPa)
#
#
# Indices 1 2 3 4 5 6 
#
# 1 139.2190 48.2418 91.6374 0.0000 0.0000 0.0000
# 2 48.2418 43.7623 51.5877 0.0000 0.0000 0.0000
# 3 91.6374 51.5877 117.5013 0.0000 0.0000 0.0000
# 4 0.0000 0.0000 0.0000 29.0651 0.0000 0.0000
# 5 0.0000 0.0000 0.0000 0.0000 37.7016 0.0000
# 6 0.0000 0.0000 0.0000 0.0000 0.0000 26.3022
#
#
#
# Elastic Compliance Matrix: (Units=1/GPa)
#
#
# Indices 1 2 3 4 5 6 
#
# 1 0.015453 -0.005862 -0.009478 0.000000 0.000000 0.000000
# 2 -0.005862 0.049587 -0.017199 0.000000 0.000000 0.000000
# 3 -0.009478 -0.017199 0.023453 0.000000 0.000000 0.000000
# 4 0.000000 0.000000 0.000000 0.034406 0.000000 0.000000
# 5 0.000000 0.000000 0.000000 0.000000 0.026524 0.000000
# 6 0.000000 0.000000 0.000000 0.000000 0.000000 0.038020
#
#
# Mechanical properties :
#
#
# Convention : Reuss Voigt Hill
#
# Bulk Modulus (GPa) = 42.70657 75.93515 59.32086
# Shear Modulus (GPa) = 19.20676 25.88149 22.54413
#
# Velocity S-wave (km/s) = 3.32024 3.85423 3.59716
# Velocity P-wave (km/s) = 6.26185 7.96183 7.16246
#
# Compressibility (1/GPa) = 0.02341560
#
# Stress axis : x y z
#
# Youngs Moduli (GPa) = 64.71410 20.16641 42.63834
#
# Poissons Ratio (x) = 0.11822 0.40411
# Poissons Ratio (y) = 0.37935 0.73334
# Poissons Ratio (z) = 0.61333 0.34685
#
# Static dielectric constant tensor:
#      x y z
#    x 1.611750 0.000000 0.000000 
#    y 0.000000 1.584330 0.000000 
#    z 0.000000 0.000000 1.560680 
# 
# From -- ./inp_files/10162.got.cif
#   From: 2010.05.17/outbox.cif.g08.bks.cpg/sg62_6_cif.got.tgz:10162.got - 2010.06.03 15:25:27.
