data_PCOD9463358
_publ_section_title
;
Structure prediction by ZEFSAII (Michael W. Deem and Ramdas Pophale) SiO2 
 PCOD9463358
Probable space group: P N M A
;
_chemical_formula_sum "Si O2"
_cell_formula_units_Z 56
_cell_length_a 18.210031
_cell_length_b 19.250592
_cell_length_c 7.933356
_cell_angle_alpha 90.000000
_cell_angle_beta 90.000000
_cell_angle_gamma 90.000000
_cell_volume 2781.068704
_symmetry_space_group_name_H-M "P N M A"
_symmetry_group_IT_number 62
_symmetry_cell_setting 'orthorhombic'
loop_
_space_group_symop_operation_xyz
x,y,z
1/2-x,-y,1/2+z
1/2+x,1/2-y,1/2-z
-x,1/2+y,-z
-x,-y,-z
1/2+x,y,1/2-z
1/2-x,1/2+y,1/2+z
x,1/2-y,z
loop_
_atom_site_type_symbol
_atom_site_label
_atom_site_fract_x
_atom_site_fract_y
_atom_site_fract_z
Si Si1 0.355881 0.328026 0.926894
Si Si2 0.717797 0.399161 0.638909
Si Si3 0.913938 0.330945 0.919680
Si Si4 0.806591 0.514389 0.438474
Si Si5 0.929978 0.668833 0.242710
Si Si6 0.549132 0.065775 0.060128
Si Si7 0.412267 0.088735 0.244792
O O1 0.382658 0.250000 0.921578
O O2 0.268903 0.335770 0.919564
O O3 0.381606 0.361723 0.752995
O O4 0.388483 0.362840 0.089878
O O5 0.748835 0.461385 0.520176
O O6 0.730570 0.424898 0.831597
O O7 0.635278 0.371514 0.647860
O O8 0.890217 0.250000 0.943817
O O9 0.894279 0.376900 0.078897
O O10 0.000181 0.330682 0.879451
O O11 0.866089 0.542058 0.574788
O O12 0.861447 0.477912 0.299241
O O13 0.911887 0.750000 0.281593
O O14 0.948779 0.625716 0.415181
O O15 0.500818 0.084146 0.223847
O O16 0.500000 0.000000 0.000000
#
# Coordination Sequence:
#
# PCOD9463358 Si02
#       7
#     8   8   8   8   8   8   8
#     4  10  20  36  58  82 113 153 191 237 294 352
#     4  10  21  37  56  80 114 154 194 241 298 352
#     4  10  21  34  57  89 113 144 195 239 289 356
#     4   9  21  35  54  79 112 150 197 239 292 354
#     4  10  20  37  59  86 118 153 198 246 300 360
#     4   9  18  36  56  82 115 150 194 244 295 361
#     4  10  19  35  58  83 115 147 189 243 296 343
#
# _framework density 20.136144999999999
#
# number of rings (size 3 to 8) (size 9 to 14) (size 15 to 20)
#    0.000    2.286    1.429    0.857    2.000    1.714 
#    0.000    6.429    0.000    0.000    0.000    0.000 
#    0.000    0.000    0.000    0.000    0.000    0.000 
#
# Total GULP energy -311743.305444 kJ/mol
# GULP energy per Si atom -5566.844740 kJ/mol
# Density = 2.009031 g / cm^3
# Si number density = 20.136145 Si / 1000 Ang^3
#
#
#
# Elastic Constant Matrix: (Units=GPa)
#
#
# Indices 1 2 3 4 5 6 
#
# 1 60.4411 10.6915 -2.5165 0.0000 0.0000 0.0000
# 2 10.6915 57.9807 15.0973 0.0000 0.0000 0.0000
# 3 -2.5165 15.0973 59.9734 0.0000 0.0000 0.0000
# 4 0.0000 0.0000 0.0000 29.9827 0.0000 0.0000
# 5 0.0000 0.0000 0.0000 0.0000 17.2776 0.0000
# 6 0.0000 0.0000 0.0000 0.0000 0.0000 41.4481
#
#
#
# Elastic Compliance Matrix: (Units=1/GPa)
#
#
# Indices 1 2 3 4 5 6 
#
# 1 0.017251 -0.003606 0.001632 0.000000 0.000000 0.000000
# 2 -0.003606 0.019211 -0.004987 0.000000 0.000000 0.000000
# 3 0.001632 -0.004987 0.017998 0.000000 0.000000 0.000000
# 4 0.000000 0.000000 0.000000 0.033353 0.000000 0.000000
# 5 0.000000 0.000000 0.000000 0.000000 0.057879 0.000000
# 6 0.000000 0.000000 0.000000 0.000000 0.000000 0.024127
#
#
# Mechanical properties :
#
#
# Convention : Reuss Voigt Hill
#
# Bulk Modulus (GPa) = 24.66924 24.99333 24.83128
# Shear Modulus (GPa) = 25.34825 28.08319 26.71572
#
# Velocity S-wave (km/s) = 3.55187 3.73857 3.64642
# Velocity P-wave (km/s) = 5.39433 5.57450 5.48516
#
# Compressibility (1/GPa) = 0.04053632
#
# Stress axis : x y z
#
# Youngs Moduli (GPa) = 57.96827 52.05451 55.56176
#
# Poissons Ratio (x) = 0.18770 -0.09065
# Poissons Ratio (y) = 0.20902 0.27710
# Poissons Ratio (z) = -0.09458 0.25961
#
# Static dielectric constant tensor:
#      x y z
#    x 1.775250 0.000000 0.000000 
#    y 0.000000 1.731050 0.000000 
#    z 0.000000 0.000000 1.712640 
# 
# From -- ./inp_files/8050.got.cif
#   From: 2010.05.17/outbox.cif.g08.bks.cpg/sg62_5_cif.got.tgz:8050.got - 2010.06.03 15:25:27.
