data_PCOD9463298
_publ_section_title
;
Structure prediction by ZEFSAII (Michael W. Deem and Ramdas Pophale) SiO2 
 PCOD9463298
Probable space group: P N M A
;
_chemical_formula_sum "Si O2"
_cell_formula_units_Z 40
_cell_length_a 24.529021
_cell_length_b 17.278129
_cell_length_c 5.242980
_cell_angle_alpha 90.000000
_cell_angle_beta 90.000000
_cell_angle_gamma 90.000000
_cell_volume 2222.056657
_symmetry_space_group_name_H-M "P N M A"
_symmetry_group_IT_number 62
_symmetry_cell_setting 'orthorhombic'
loop_
_space_group_symop_operation_xyz
x,y,z
1/2-x,-y,1/2+z
1/2+x,1/2-y,1/2-z
-x,1/2+y,-z
-x,-y,-z
1/2+x,y,1/2-z
1/2-x,1/2+y,1/2+z
x,1/2-y,z
loop_
_atom_site_type_symbol
_atom_site_label
_atom_site_fract_x
_atom_site_fract_y
_atom_site_fract_z
Si Si1 0.676430 0.011633 0.223791
Si Si2 0.442192 0.566332 0.745486
Si Si3 0.841882 0.250000 0.287776
Si Si4 0.085009 0.750000 0.211770
Si Si5 0.005455 0.604679 0.254990
Si Si6 0.796318 0.418462 0.224176
O O1 0.622856 0.063659 0.243984
O O2 0.732268 0.060689 0.229261
O O3 0.679434 0.952791 0.462298
O O4 0.676377 0.963412 0.961392
O O5 0.461714 0.476496 0.751398
O O6 0.466073 0.603193 0.489335
O O7 0.469709 0.606037 0.989223
O O8 0.870111 0.250000 0.564481
O O9 0.807512 0.328078 0.252094
O O10 0.887269 0.250000 0.065359
O O11 0.047527 0.674580 0.242189
#
# Coordination Sequence:
#
# PCOD9463298 Si02
#       6
#     8   8   4   4   8   8
#     4  10  20  37  58  80 110 145 183 227 268 317
#     4  10  19  35  56  77 105 142 180 219 259 314
#     4  12  22  36  58  82 112 142 176 226 280 322
#     4  12  24  38  56  82 114 142 174 230 280 320
#     4  10  21  34  53  80 106 138 182 216 261 322
#     4  10  21  35  56  85 110 141 186 224 270 328
#
# _framework density 18.001339999999999
#
# number of rings (size 3 to 8) (size 9 to 14) (size 15 to 20)
#    0.000    1.600    0.000    6.000    0.000    3.200 
#    0.000    2.000    0.000    0.000    0.000    0.000 
#    0.000    0.000    0.000    0.000    0.000    0.000 
#
# Total GULP energy -223584.741235 kJ/mol
# GULP energy per Si atom -5589.618531 kJ/mol
# Density = 1.796037 g / cm^3
# Si number density = 18.001340 Si / 1000 Ang^3
#
#
#
# Elastic Constant Matrix: (Units=GPa)
#
#
# Indices 1 2 3 4 5 6 
#
# 1 46.2179 1.0905 0.4507 0.0000 0.0000 0.0000
# 2 1.0905 67.6317 -9.8228 0.0000 0.0000 0.0000
# 3 0.4507 -9.8228 81.3277 0.0000 0.0000 0.0000
# 4 0.0000 0.0000 0.0000 13.1955 0.0000 0.0000
# 5 0.0000 0.0000 0.0000 0.0000 15.3823 0.0000
# 6 0.0000 0.0000 0.0000 0.0000 0.0000 23.3463
#
#
#
# Elastic Compliance Matrix: (Units=1/GPa)
#
#
# Indices 1 2 3 4 5 6 
#
# 1 0.021647 -0.000373 -0.000165 0.000000 0.000000 0.000000
# 2 -0.000373 0.015056 0.001821 0.000000 0.000000 0.000000
# 3 -0.000165 0.001821 0.012517 0.000000 0.000000 0.000000
# 4 0.000000 0.000000 0.000000 0.075783 0.000000 0.000000
# 5 0.000000 0.000000 0.000000 0.000000 0.065010 0.000000
# 6 0.000000 0.000000 0.000000 0.000000 0.000000 0.042833
#
#
# Mechanical properties :
#
#
# Convention : Reuss Voigt Hill
#
# Bulk Modulus (GPa) = 19.31046 19.84598 19.57822
# Shear Modulus (GPa) = 20.19848 23.94874 22.07361
#
# Velocity S-wave (km/s) = 3.35334 3.65140 3.50554
# Velocity P-wave (km/s) = 5.07383 5.36895 5.22347
#
# Compressibility (1/GPa) = 0.05178541
#
# Stress axis : x y z
#
# Youngs Moduli (GPa) = 46.19565 66.41691 79.89298
#
# Poissons Ratio (x) = 0.02477 0.01318
# Poissons Ratio (y) = 0.01723 -0.14545
# Poissons Ratio (z) = 0.00762 -0.12092
#
# Static dielectric constant tensor:
#      x y z
#    x 1.596180 0.000000 0.000000 
#    y 0.000000 1.583100 0.000000 
#    z 0.000000 0.000000 1.610660 
# 
# From -- ./inp_files/2687.got.cif
#   From: 2010.05.17/outbox.cif.g08.bks.cpg/sg62_2_cif.got.tgz:2687.got - 2010.06.03 15:25:27.
