data_PCOD9463453
_publ_section_title
;
Structure prediction by ZEFSAII (Michael W. Deem and Ramdas Pophale) SiO2 
 PCOD9463453
Probable space group: P N M A
;
_chemical_formula_sum "Si O2"
_cell_formula_units_Z 64
_cell_length_a 20.233698
_cell_length_b 17.985748
_cell_length_c 9.054590
_cell_angle_alpha 90.000000
_cell_angle_beta 90.000000
_cell_angle_gamma 90.000000
_cell_volume 3295.130034
_symmetry_space_group_name_H-M "P N M A"
_symmetry_group_IT_number 62
_symmetry_cell_setting 'orthorhombic'
loop_
_space_group_symop_operation_xyz
x,y,z
1/2-x,-y,1/2+z
1/2+x,1/2-y,1/2-z
-x,1/2+y,-z
-x,-y,-z
1/2+x,y,1/2-z
1/2-x,1/2+y,1/2+z
x,1/2-y,z
loop_
_atom_site_type_symbol
_atom_site_label
_atom_site_fract_x
_atom_site_fract_y
_atom_site_fract_z
Si Si1 0.396388 0.123307 0.034037
Si Si2 0.378074 0.527943 0.189408
Si Si3 0.924216 0.024181 0.996158
Si Si4 0.758961 0.410675 0.718468
Si Si5 0.744389 0.665298 0.900950
Si Si6 0.881253 0.336489 0.812817
Si Si7 0.035315 0.080510 0.474537
Si Si8 0.156704 0.058132 0.253073
O O1 0.335877 0.164492 0.115003
O O2 0.473767 0.131109 0.075962
O O3 0.376893 0.038174 0.070008
O O4 0.396285 0.143221 0.859623
O O5 0.397273 0.486156 0.339283
O O6 0.308212 0.566280 0.204733
O O7 0.431512 0.588994 0.135728
O O8 0.916055 0.105557 0.922894
O O9 0.881320 0.969231 0.893860
O O10 0.000000 0.000000 0.000000
O O11 0.745908 0.373583 0.560361
O O12 0.803140 0.355518 0.817296
O O13 0.801347 0.485986 0.698534
O O14 0.766444 0.750000 0.905632
O O15 0.788692 0.620220 0.784692
O O16 0.894849 0.250000 0.839266
O O17 0.096886 0.080613 0.362330
O O18 0.000000 0.000000 0.500000
#
# Coordination Sequence:
#
# PCOD9463453 Si02
#       8
#     8   8   8   8   8   8   8   8
#     4  10  19  38  60  87 122 167 214 264 318 388
#     4  11  19  32  61  96 121 154 211 269 312 370
#     4  11  21  36  62  92 124 159 208 267 315 376
#     4  10  19  35  62  90 122 161 215 260 314 385
#     4  11  22  40  63  91 125 169 215 266 333 392
#     4  10  22  39  61  87 125 172 213 258 322 391
#     4  10  20  35  60  93 126 158 211 268 313 375
#     4  11  22  37  64  93 125 163 216 268 321 392
#
# _framework density 19.422602999999999
#
# number of rings (size 3 to 8) (size 9 to 14) (size 15 to 20)
#    0.000    1.500    2.500    8.250    0.000    0.000 
#    0.000    3.125    0.000    3.000    0.000    0.000 
#    0.000    0.000    0.000    0.000    0.000    0.000 
#
# Total GULP energy -356533.886513 kJ/mol
# GULP energy per Si atom -5570.841977 kJ/mol
# Density = 1.937840 g / cm^3
# Si number density = 19.422603 Si / 1000 Ang^3
#
#
#
# Elastic Constant Matrix: (Units=GPa)
#
#
# Indices 1 2 3 4 5 6 
#
# 1 128.4989 47.4005 45.6385 0.0000 0.0000 0.0000
# 2 47.4005 100.7831 41.5218 0.0000 0.0000 0.0000
# 3 45.6385 41.5218 79.4856 0.0000 0.0000 0.0000
# 4 0.0000 0.0000 0.0000 11.3347 0.0000 0.0000
# 5 0.0000 0.0000 0.0000 0.0000 37.1867 0.0000
# 6 0.0000 0.0000 0.0000 0.0000 0.0000 13.6496
#
#
#
# Elastic Compliance Matrix: (Units=1/GPa)
#
#
# Indices 1 2 3 4 5 6 
#
# 1 0.010496 -0.003126 -0.004393 0.000000 0.000000 0.000000
# 2 -0.003126 0.013575 -0.005296 0.000000 0.000000 0.000000
# 3 -0.004393 -0.005296 0.017870 0.000000 0.000000 0.000000
# 4 0.000000 0.000000 0.000000 0.088225 0.000000 0.000000
# 5 0.000000 0.000000 0.000000 0.000000 0.026891 0.000000
# 6 0.000000 0.000000 0.000000 0.000000 0.000000 0.073262
#
#
# Mechanical properties :
#
#
# Convention : Reuss Voigt Hill
#
# Bulk Modulus (GPa) = 61.31586 64.20990 62.76288
# Shear Modulus (GPa) = 19.12878 24.04799 21.58838
#
# Velocity S-wave (km/s) = 3.14167 3.52255 3.33755
# Velocity P-wave (km/s) = 6.69313 7.04809 6.87290
#
# Compressibility (1/GPa) = 0.01630899
#
# Stress axis : x y z
#
# Youngs Moduli (GPa) = 95.27656 73.66673 55.96007
#
# Poissons Ratio (x) = 0.23031 0.24584
# Poissons Ratio (y) = 0.29788 0.29637
# Poissons Ratio (z) = 0.41857 0.39014
#
# Static dielectric constant tensor:
#      x y z
#    x 1.794260 0.000000 0.000000 
#    y 0.000000 1.692290 0.000000 
#    z 0.000000 0.000000 1.691160 
# 
# From -- ./inp_files/8868.got.cif
#   From: 2010.05.17/outbox.cif.g08.bks.cpg/sg62_5_cif.got.tgz:8868.got - 2010.06.03 15:25:27.
