data_PCOD9463271
_publ_section_title
;
Structure prediction by ZEFSAII (Michael W. Deem and Ramdas Pophale) SiO2 
 PCOD9463271
Probable space group: P N M A
;
_chemical_formula_sum "Si O2"
_cell_formula_units_Z 64
_cell_length_a 20.936461
_cell_length_b 17.124865
_cell_length_c 8.688364
_cell_angle_alpha 90.000000
_cell_angle_beta 90.000000
_cell_angle_gamma 90.000000
_cell_volume 3115.074491
_symmetry_space_group_name_H-M "P N M A"
_symmetry_group_IT_number 62
_symmetry_cell_setting 'orthorhombic'
loop_
_space_group_symop_operation_xyz
x,y,z
1/2-x,-y,1/2+z
1/2+x,1/2-y,1/2-z
-x,1/2+y,-z
-x,-y,-z
1/2+x,y,1/2-z
1/2-x,1/2+y,1/2+z
x,1/2-y,z
loop_
_atom_site_type_symbol
_atom_site_label
_atom_site_fract_x
_atom_site_fract_y
_atom_site_fract_z
Si Si1 0.547975 0.834836 0.054741
Si Si2 0.687410 0.102073 0.451357
Si Si3 0.676864 0.559862 0.575923
Si Si4 0.546698 0.337011 0.459675
Si Si5 0.683360 0.446158 0.096800
Si Si6 0.546496 0.414183 0.152339
Si Si7 0.674667 0.887781 0.924668
Si Si8 0.945015 0.074033 0.853377
O O1 0.516831 0.750000 0.040215
O O2 0.559783 0.857435 0.229887
O O3 0.506703 0.903276 0.975931
O O4 0.616541 0.835908 0.976034
O O5 0.622862 0.150043 0.467355
O O6 0.689670 0.057892 0.283812
O O7 0.754652 0.145781 0.453937
O O8 0.684435 0.034012 0.577875
O O9 0.749372 0.586553 0.531681
O O10 0.664905 0.591824 0.745716
O O11 0.617259 0.574626 0.463146
O O12 0.529512 0.250000 0.511360
O O13 0.531674 0.348902 0.279973
O O14 0.508271 0.404193 0.550100
O O15 0.615908 0.403139 0.074510
O O16 0.673529 0.531786 0.024394
O O17 0.549417 0.493939 0.254061
#
# Coordination Sequence:
#
# PCOD9463271 Si02
#       8
#     8   8   8   8   8   8   8   8
#     4  12  26  41  60  87 126 167 207 261 317 370
#     4   9  19  36  58  89 125 161 203 254 310 361
#     4  10  19  34  63  95 123 152 206 261 305 361
#     4  11  23  38  61  91 128 164 204 259 312 367
#     4   9  18  36  60  94 123 153 202 262 303 353
#     4  11  22  41  64  90 121 165 212 256 301 369
#     4  10  20  35  61  91 122 158 204 257 308 371
#     4  12  23  41  62  90 124 164 210 257 310 371
#
# _framework density 20.545254
#
# number of rings (size 3 to 8) (size 9 to 14) (size 15 to 20)
#    0.000    1.500    3.750    2.250    1.750    0.500 
#    0.000    0.625    0.000    9.000    0.000    0.000 
#    0.000    0.000    0.000    0.000    0.000    0.000 
#
# Total GULP energy -356800.390292 kJ/mol
# GULP energy per Si atom -5575.006098 kJ/mol
# Density = 2.049849 g / cm^3
# Si number density = 20.545254 Si / 1000 Ang^3
#
#
#
# Elastic Constant Matrix: (Units=GPa)
#
#
# Indices 1 2 3 4 5 6 
#
# 1 129.9733 30.1162 51.3785 0.0000 0.0000 0.0000
# 2 30.1162 59.1713 32.1641 0.0000 0.0000 0.0000
# 3 51.3785 32.1641 55.2932 0.0000 0.0000 0.0000
# 4 0.0000 0.0000 0.0000 11.5174 0.0000 0.0000
# 5 0.0000 0.0000 0.0000 0.0000 30.1756 0.0000
# 6 0.0000 0.0000 0.0000 0.0000 0.0000 9.0247
#
#
#
# Elastic Compliance Matrix: (Units=1/GPa)
#
#
# Indices 1 2 3 4 5 6 
#
# 1 0.012161 -0.000069 -0.011260 0.000000 0.000000 0.000000
# 2 -0.000069 0.024715 -0.014313 0.000000 0.000000 0.000000
# 3 -0.011260 -0.014313 0.036874 0.000000 0.000000 0.000000
# 4 0.000000 0.000000 0.000000 0.086825 0.000000 0.000000
# 5 0.000000 0.000000 0.000000 0.000000 0.033139 0.000000
# 6 0.000000 0.000000 0.000000 0.000000 0.000000 0.110807
#
#
# Mechanical properties :
#
#
# Convention : Reuss Voigt Hill
#
# Bulk Modulus (GPa) = 44.51007 52.41726 48.46366
# Shear Modulus (GPa) = 13.76297 18.86214 16.31256
#
# Velocity S-wave (km/s) = 2.59102 3.03327 2.82083
# Velocity P-wave (km/s) = 5.53739 6.15110 5.85229
#
# Compressibility (1/GPa) = 0.02246683
#
# Stress axis : x y z
#
# Youngs Moduli (GPa) = 82.23096 40.46075 27.11944
#
# Poissons Ratio (x) = 0.00279 0.30536
# Poissons Ratio (y) = 0.00567 0.38816
# Poissons Ratio (z) = 0.92591 0.57911
#
# Static dielectric constant tensor:
#      x y z
#    x 1.786230 0.000000 0.000000 
#    y 0.000000 1.720590 0.000000 
#    z 0.000000 0.000000 1.747390 
# 
# From -- ./inp_files/8900.got.cif
#   From: 2010.05.17/outbox.cif.g08.bks.cpg/sg62_5_cif.got.tgz:8900.got - 2010.06.03 15:25:27.
