data_PCOD9463852
_publ_section_title
;
Structure prediction by ZEFSAII (Michael W. Deem and Ramdas Pophale) SiO2 
 PCOD9463852
Probable space group: P N M A
;
_chemical_formula_sum "Si O2"
_cell_formula_units_Z 40
_cell_length_a 7.499879
_cell_length_b 8.481304
_cell_length_c 22.509169
_cell_angle_alpha 90.000000
_cell_angle_beta 90.000000
_cell_angle_gamma 90.000000
_cell_volume 1431.780188
_symmetry_space_group_name_H-M "P N M A"
_symmetry_group_IT_number 62
_symmetry_cell_setting 'orthorhombic'
loop_
_space_group_symop_operation_xyz
x,y,z
1/2-x,-y,1/2+z
1/2+x,1/2-y,1/2-z
-x,1/2+y,-z
-x,-y,-z
1/2+x,y,1/2-z
1/2-x,1/2+y,1/2+z
x,1/2-y,z
loop_
_atom_site_type_symbol
_atom_site_label
_atom_site_fract_x
_atom_site_fract_y
_atom_site_fract_z
Si Si1 0.192390 0.750000 0.233529
Si Si2 0.976296 0.750000 0.336741
Si Si3 0.837717 0.919544 0.800189
Si Si4 0.057289 0.067046 0.900976
Si Si5 0.511046 0.078772 0.114285
Si Si6 0.238909 0.435982 0.013864
O O1 0.260957 0.750000 0.163697
O O2 0.209505 0.560812 0.244008
O O3 0.989091 0.750000 0.264226
O O4 0.063615 0.596208 0.363560
O O5 0.873681 0.750000 0.772130
O O6 0.667004 0.906341 0.843157
O O7 0.002836 0.969885 0.842751
O O8 0.085077 0.250000 0.885759
O O9 0.214555 0.008075 0.945696
O O10 0.890745 0.041483 0.945931
O O11 0.603716 0.250000 0.121060
O O12 0.423487 0.066723 0.048931
O O13 0.181152 0.250000 0.013685
#
# Coordination Sequence:
#
# PCOD9463852 Si02
#       6
#     4   4   8   8   8   8
#     4  10  20  34  48  68  88 118 154 190 225 268
#     4  10  20  32  50  66  88 118 154 188 227 262
#     4   9  16  27  41  59  87 119 147 180 224 269
#     4   9  13  19  32  53  83 117 148 174 208 264
#     4   8  15  27  40  59  87 118 147 178 220 267
#     4   8  14  20  30  52  83 118 148 172 210 266
#
# _framework density 27.937249999999999
#
# number of rings (size 3 to 8) (size 9 to 14) (size 15 to 20)
#    0.000    3.200    1.000    1.800    4.200    1.600 
#    0.000    0.000    0.000    0.000    0.000    0.000 
#    0.000    1.600    0.000    0.000    0.000    0.000 
#
# Total GULP energy -222761.088948 kJ/mol
# GULP energy per Si atom -5569.027224 kJ/mol
# Density = 2.787366 g / cm^3
# Si number density = 27.937250 Si / 1000 Ang^3
#
#
#
# Elastic Constant Matrix: (Units=GPa)
#
#
# Indices 1 2 3 4 5 6 
#
# 1 52.2387 30.4159 29.0769 0.0000 0.0000 0.0000
# 2 30.4159 290.3389 51.4592 0.0000 0.0000 0.0000
# 3 29.0769 51.4592 89.9385 0.0000 0.0000 0.0000
# 4 0.0000 0.0000 0.0000 24.1161 0.0000 0.0000
# 5 0.0000 0.0000 0.0000 0.0000 60.8746 0.0000
# 6 0.0000 0.0000 0.0000 0.0000 0.0000 30.2421
#
#
#
# Elastic Compliance Matrix: (Units=1/GPa)
#
#
# Indices 1 2 3 4 5 6 
#
# 1 0.023747 -0.001254 -0.006960 0.000000 0.000000 0.000000
# 2 -0.001254 0.003899 -0.001825 0.000000 0.000000 0.000000
# 3 -0.006960 -0.001825 0.014413 0.000000 0.000000 0.000000
# 4 0.000000 0.000000 0.000000 0.041466 0.000000 0.000000
# 5 0.000000 0.000000 0.000000 0.000000 0.016427 0.000000
# 6 0.000000 0.000000 0.000000 0.000000 0.000000 0.033066
#
#
# Mechanical properties :
#
#
# Convention : Reuss Voigt Hill
#
# Bulk Modulus (GPa) = 45.49462 72.71335 59.10398
# Shear Modulus (GPa) = 31.16720 44.48417 37.82569
#
# Velocity S-wave (km/s) = 3.34371 3.99468 3.68360
# Velocity P-wave (km/s) = 5.58812 6.88190 6.26848
#
# Compressibility (1/GPa) = 0.02198062
#
# Stress axis : x y z
#
# Youngs Moduli (GPa) = 42.11041 256.46373 69.38064
#
# Poissons Ratio (x) = 0.32166 0.48287
# Poissons Ratio (y) = 0.05282 0.12665
# Poissons Ratio (z) = 0.29308 0.46817
#
# Static dielectric constant tensor:
#      x y z
#    x 2.408990 0.000000 0.000000 
#    y 0.000000 2.138000 0.000000 
#    z 0.000000 0.000000 2.056730 
# 
# From -- ./inp_files/26467.got.cif
#   From: 2010.05.17/outbox.cif.g08.bks.cpg/sg62_14_cif.got.tgz:26467.got - 2010.06.03 15:25:27.
