data_PCOD9463331
_publ_section_title
;
Structure prediction by ZEFSAII (Michael W. Deem and Ramdas Pophale) SiO2 
 PCOD9463331
Probable space group: P N M A
;
_chemical_formula_sum "Si O2"
_cell_formula_units_Z 40
_cell_length_a 12.586555
_cell_length_b 7.617781
_cell_length_c 19.475506
_cell_angle_alpha 90.000000
_cell_angle_beta 90.000000
_cell_angle_gamma 90.000000
_cell_volume 1867.343057
_symmetry_space_group_name_H-M "P N M A"
_symmetry_group_IT_number 62
_symmetry_cell_setting 'orthorhombic'
loop_
_space_group_symop_operation_xyz
x,y,z
1/2-x,-y,1/2+z
1/2+x,1/2-y,1/2-z
-x,1/2+y,-z
-x,-y,-z
1/2+x,y,1/2-z
1/2-x,1/2+y,1/2+z
x,1/2-y,z
loop_
_atom_site_type_symbol
_atom_site_label
_atom_site_fract_x
_atom_site_fract_y
_atom_site_fract_z
Si Si1 0.399199 0.461317 0.185051
Si Si2 0.946403 0.455579 0.164199
Si Si3 0.174966 0.959187 0.114548
Si Si4 0.939083 0.539460 0.570570
Si Si5 0.299442 0.465303 0.458129
O O1 0.410988 0.250000 0.187800
O O2 0.411756 0.530630 0.262337
O O3 0.284878 0.498180 0.152222
O O4 0.491009 0.528810 0.133919
O O5 0.917726 0.250000 0.166114
O O6 0.072026 0.470191 0.153362
O O7 0.885384 0.527020 0.097462
O O8 0.164340 0.750000 0.112402
O O9 0.178303 0.024728 0.035825
O O10 0.933691 0.750000 0.577269
O O11 0.818135 0.477075 0.564852
O O12 0.000000 0.500000 0.500000
O O13 0.300033 0.250000 0.460321
#
# Coordination Sequence:
#
# PCOD9463331 Si02
#       5
#     8   8   8   8   8
#     4  10  22  37  60  87 113 149 193 238 282 335
#     4  10  22  39  61  85 113 150 193 239 282 334
#     4  11  22  38  59  83 117 153 186 232 288 344
#     4  10  19  35  57  84 113 147 189 233 282 334
#     4   9  19  36  59  84 114 149 187 235 286 334
#
# _framework density 21.420809999999999
#
# number of rings (size 3 to 8) (size 9 to 14) (size 15 to 20)
#    0.000    2.000    2.000    1.200    2.800    0.800 
#    0.000    2.000    0.000    0.000    0.000    0.000 
#    0.000    0.000    0.000    0.000    0.000    0.000 
#
# Total GULP energy -223523.288302 kJ/mol
# GULP energy per Si atom -5588.082208 kJ/mol
# Density = 2.137206 g / cm^3
# Si number density = 21.420810 Si / 1000 Ang^3
#
#
#
# Elastic Constant Matrix: (Units=GPa)
#
#
# Indices 1 2 3 4 5 6 
#
# 1 45.4858 -17.0880 48.9043 0.0000 0.0000 0.0000
# 2 -17.0880 40.9030 0.8375 0.0000 0.0000 0.0000
# 3 48.9043 0.8375 187.8205 0.0000 0.0000 0.0000
# 4 0.0000 0.0000 0.0000 8.8566 0.0000 0.0000
# 5 0.0000 0.0000 0.0000 0.0000 14.8843 0.0000
# 6 0.0000 0.0000 0.0000 0.0000 0.0000 13.0482
#
#
#
# Elastic Compliance Matrix: (Units=1/GPa)
#
#
# Indices 1 2 3 4 5 6 
#
# 1 0.039325 0.016640 -0.010314 0.000000 0.000000 0.000000
# 2 0.016640 0.031491 -0.004473 0.000000 0.000000 0.000000
# 3 -0.010314 -0.004473 0.008030 0.000000 0.000000 0.000000
# 4 0.000000 0.000000 0.000000 0.112910 0.000000 0.000000
# 5 0.000000 0.000000 0.000000 0.000000 0.067185 0.000000
# 6 0.000000 0.000000 0.000000 0.000000 0.000000 0.076639
#
#
# Mechanical properties :
#
#
# Convention : Reuss Voigt Hill
#
# Bulk Modulus (GPa) = 12.11355 37.72411 24.91883
# Shear Modulus (GPa) = 13.91247 23.46152 18.68699
#
# Velocity S-wave (km/s) = 2.55126 3.31307 2.95680
# Velocity P-wave (km/s) = 3.78760 5.68194 4.82858
#
# Compressibility (1/GPa) = 0.08255222
#
# Stress axis : x y z
#
# Youngs Moduli (GPa) = 25.42927 31.75479 124.53933
#
# Poissons Ratio (x) = -0.52840 1.28444
# Poissons Ratio (y) = -0.42314 0.55708
# Poissons Ratio (z) = 0.26227 0.14204
#
# Static dielectric constant tensor:
#      x y z
#    x 1.724900 0.000000 0.000000 
#    y 0.000000 1.865970 0.000000 
#    z 0.000000 0.000000 1.768020 
# 
# From -- ./inp_files/22770.got.cif
#   From: 2010.05.17/outbox.cif.g08.bks.cpg/sg62_12_cif.got.tgz:22770.got - 2010.06.03 15:25:27.
