data_PCOD9463779
_publ_section_title
;
Structure prediction by ZEFSAII (Michael W. Deem and Ramdas Pophale) SiO2 
 PCOD9463779
Probable space group: P N M A
;
_chemical_formula_sum "Si O2"
_cell_formula_units_Z 56
_cell_length_a 9.606731
_cell_length_b 14.248200
_cell_length_c 26.311268
_cell_angle_alpha 90.000000
_cell_angle_beta 90.000000
_cell_angle_gamma 90.000000
_cell_volume 3601.450176
_symmetry_space_group_name_H-M "P N M A"
_symmetry_group_IT_number 62
_symmetry_cell_setting 'orthorhombic'
loop_
_space_group_symop_operation_xyz
x,y,z
1/2-x,-y,1/2+z
1/2+x,1/2-y,1/2-z
-x,1/2+y,-z
-x,-y,-z
1/2+x,y,1/2-z
1/2-x,1/2+y,1/2+z
x,1/2-y,z
loop_
_atom_site_type_symbol
_atom_site_label
_atom_site_fract_x
_atom_site_fract_y
_atom_site_fract_z
Si Si1 0.712087 0.863354 0.315106
Si Si2 0.285921 0.357495 0.035491
Si Si3 0.959887 0.862717 0.466622
Si Si4 0.993572 0.136285 0.730705
Si Si5 0.698175 0.954881 0.425125
Si Si6 0.410160 0.640723 0.435652
Si Si7 0.653948 0.864040 0.128230
O O1 0.712123 0.750000 0.321895
O O2 0.575441 0.892468 0.283637
O O3 0.721952 0.910273 0.369810
O O4 0.847626 0.888002 0.281489
O O5 0.287695 0.250000 0.053745
O O6 0.227823 0.434642 0.073582
O O7 0.440003 0.382663 0.014368
O O8 0.186171 0.360363 0.985743
O O9 0.943520 0.750000 0.464343
O O10 0.045165 0.891752 0.415855
O O11 0.810640 0.910555 0.463913
O O12 0.987916 0.250000 0.730861
O O13 0.899306 0.104417 0.682966
O O14 0.543584 0.924341 0.440651
O O15 0.453028 0.750000 0.427074
O O16 0.308472 0.609841 0.389755
O O17 0.653857 0.750000 0.128339
#
# Coordination Sequence:
#
# PCOD9463779 Si02
#       7
#     8   8   8   8   8   8   8
#     4  10  20  29  43  68  96 122 148 179 220 271
#     4   9  20  35  46  61  91 128 156 187 232 271
#     4   9  16  29  47  67  91 118 148 182 225 272
#     4   9  17  29  41  60  96 129 145 170 218 274
#     4  12  19  28  47  72  91 117 160 196 218 259
#     4   9  18  29  45  68  94 121 149 182 227 275
#     4   8  14  27  43  59  91 129 145 164 215 277
#
# _framework density 15.549291
#
# number of rings (size 3 to 8) (size 9 to 14) (size 15 to 20)
#    0.000    2.571    1.429    3.857    2.000    0.000 
#    0.000    0.000    0.000    0.000    0.000    1.000 
#    0.000    0.000    0.000    0.000    0.000    0.000 
#
# Total GULP energy -312062.755516 kJ/mol
# GULP energy per Si atom -5572.549206 kJ/mol
# Density = 1.551390 g / cm^3
# Si number density = 15.549291 Si / 1000 Ang^3
#
#
#
# Elastic Constant Matrix: (Units=GPa)
#
#
# Indices 1 2 3 4 5 6 
#
# 1 68.0385 5.1653 2.4899 0.0000 0.0000 0.0000
# 2 5.1653 20.7795 8.3831 0.0000 0.0000 0.0000
# 3 2.4899 8.3831 27.4974 0.0000 0.0000 0.0000
# 4 0.0000 0.0000 0.0000 12.6990 0.0000 0.0000
# 5 0.0000 0.0000 0.0000 0.0000 16.4193 0.0000
# 6 0.0000 0.0000 0.0000 0.0000 0.0000 11.5868
#
#
#
# Elastic Compliance Matrix: (Units=1/GPa)
#
#
# Indices 1 2 3 4 5 6 
#
# 1 0.014982 -0.003622 -0.000252 0.000000 0.000000 0.000000
# 2 -0.003622 0.055749 -0.016668 0.000000 0.000000 0.000000
# 3 -0.000252 -0.016668 0.041472 0.000000 0.000000 0.000000
# 4 0.000000 0.000000 0.000000 0.078746 0.000000 0.000000
# 5 0.000000 0.000000 0.000000 0.000000 0.060904 0.000000
# 6 0.000000 0.000000 0.000000 0.000000 0.000000 0.086305
#
#
# Mechanical properties :
#
#
# Convention : Reuss Voigt Hill
#
# Bulk Modulus (GPa) = 14.06134 16.48799 15.27466
# Shear Modulus (GPa) = 12.40852 14.82617 13.61734
#
# Velocity S-wave (km/s) = 2.82797 3.09122 2.96252
# Velocity P-wave (km/s) = 4.44139 4.83400 4.64185
#
# Compressibility (1/GPa) = 0.07111699
#
# Stress axis : x y z
#
# Youngs Moduli (GPa) = 66.74773 17.93748 24.11289
#
# Poissons Ratio (x) = 0.06498 0.00608
# Poissons Ratio (y) = 0.24178 0.40192
# Poissons Ratio (z) = 0.01684 0.29899
#
# Static dielectric constant tensor:
#      x y z
#    x 1.553420 0.000000 0.000000 
#    y 0.000000 1.503530 0.000000 
#    z 0.000000 0.000000 1.521850 
# 
# From -- ./inp_files/32280.got.cif
#   From: 2010.05.17/outbox.cif.g08.bks.cpg/sg62_17_cif.got.tgz:32280.got - 2010.06.03 15:25:27.
