data_PCOD9463241
_publ_section_title
;
Structure prediction by ZEFSAII (Michael W. Deem and Ramdas Pophale) SiO2 
 PCOD9463241
Probable space group: P N M A
;
_chemical_formula_sum "Si O2"
_cell_formula_units_Z 48
_cell_length_a 20.894791
_cell_length_b 7.931799
_cell_length_c 14.576054
_cell_angle_alpha 90.000000
_cell_angle_beta 90.000000
_cell_angle_gamma 90.000000
_cell_volume 2415.737273
_symmetry_space_group_name_H-M "P N M A"
_symmetry_group_IT_number 62
_symmetry_cell_setting 'orthorhombic'
loop_
_space_group_symop_operation_xyz
x,y,z
1/2-x,-y,1/2+z
1/2+x,1/2-y,1/2-z
-x,1/2+y,-z
-x,-y,-z
1/2+x,y,1/2-z
1/2-x,1/2+y,1/2+z
x,1/2-y,z
loop_
_atom_site_type_symbol
_atom_site_label
_atom_site_fract_x
_atom_site_fract_y
_atom_site_fract_z
Si Si1 0.757905 0.547757 0.260356
Si Si2 0.433425 0.046500 0.547314
Si Si3 0.692120 0.456511 0.956033
Si Si4 0.313919 0.452989 0.427182
Si Si5 0.889463 0.047100 0.752094
Si Si6 0.563979 0.450851 0.053610
O O1 0.752872 0.750000 0.266742
O O2 0.788884 0.486156 0.354757
O O3 0.804503 0.505022 0.177090
O O4 0.684669 0.484755 0.246371
O O5 0.430159 0.250000 0.550304
O O6 0.375620 0.984944 0.482278
O O7 0.421395 0.987285 0.652195
O O8 0.500000 0.000000 0.500000
O O9 0.690602 0.250000 0.955084
O O10 0.749710 0.509762 0.021719
O O11 0.625247 0.517106 0.996825
O O12 0.315493 0.250000 0.431029
O O13 0.886720 0.250000 0.757064
O O14 0.927842 0.004461 0.659594
O O15 0.567482 0.250000 0.053637
O O16 0.500000 0.500000 0.000000
#
# Coordination Sequence:
#
# PCOD9463241 Si02
#       6
#     8   8   8   8   8   8
#     4  10  19  34  59  87 112 145 191 238 283 340
#     4  10  22  39  60  84 118 156 192 237 289 346
#     4   9  18  35  58  81 109 147 187 228 282 337
#     4  10  19  36  58  83 112 146 188 236 285 333
#     4  10  20  37  60  84 112 150 191 237 292 345
#     4  11  23  39  60  85 117 155 193 237 287 345
#
# _framework density 19.869709
#
# number of rings (size 3 to 8) (size 9 to 14) (size 15 to 20)
#    0.000    2.000    3.333    0.500    0.000    2.667 
#    0.000    7.500    0.000    0.000    0.000    0.000 
#    0.000    0.000    0.000    0.000    0.000    0.000 
#
# Total GULP energy -267917.929449 kJ/mol
# GULP energy per Si atom -5581.623530 kJ/mol
# Density = 1.982448 g / cm^3
# Si number density = 19.869709 Si / 1000 Ang^3
#
#
#
# Elastic Constant Matrix: (Units=GPa)
#
#
# Indices 1 2 3 4 5 6 
#
# 1 140.4365 9.0913 59.8578 0.0000 0.0000 0.0000
# 2 9.0913 20.3635 7.8056 0.0000 0.0000 0.0000
# 3 59.8578 7.8056 153.8506 0.0000 0.0000 0.0000
# 4 0.0000 0.0000 0.0000 26.8189 0.0000 0.0000
# 5 0.0000 0.0000 0.0000 0.0000 33.4821 0.0000
# 6 0.0000 0.0000 0.0000 0.0000 0.0000 32.3013
#
#
#
# Elastic Compliance Matrix: (Units=1/GPa)
#
#
# Indices 1 2 3 4 5 6 
#
# 1 0.008672 -0.002629 -0.003241 0.000000 0.000000 0.000000
# 2 -0.002629 0.050879 -0.001558 0.000000 0.000000 0.000000
# 3 -0.003241 -0.001558 0.007840 0.000000 0.000000 0.000000
# 4 0.000000 0.000000 0.000000 0.037287 0.000000 0.000000
# 5 0.000000 0.000000 0.000000 0.000000 0.029867 0.000000
# 6 0.000000 0.000000 0.000000 0.000000 0.000000 0.030959
#
#
# Mechanical properties :
#
#
# Convention : Reuss Voigt Hill
#
# Bulk Modulus (GPa) = 19.03537 52.01779 35.52658
# Shear Modulus (GPa) = 25.26898 34.38016 29.82457
#
# Velocity S-wave (km/s) = 3.57001 4.16418 3.87849
# Velocity P-wave (km/s) = 5.15695 7.02544 6.16242
#
# Compressibility (1/GPa) = 0.05253377
#
# Stress axis : x y z
#
# Youngs Moduli (GPa) = 115.31220 19.65456 127.55627
#
# Poissons Ratio (x) = 0.05168 0.41336
# Poissons Ratio (y) = 0.30321 0.19877
# Poissons Ratio (z) = 0.37368 0.03063
#
# Static dielectric constant tensor:
#      x y z
#    x 1.694060 0.000000 0.000000 
#    y 0.000000 1.728700 0.000000 
#    z 0.000000 0.000000 1.700700 
# 
# From -- ./inp_files/19573.got.cif
#   From: 2010.05.17/outbox.cif.g08.bks.cpg/sg62_10_cif.got.tgz:19573.got - 2010.06.03 15:25:27.
