data_PCOD9463909
_publ_section_title
;
Structure prediction by ZEFSAII (Michael W. Deem and Ramdas Pophale) SiO2 
 PCOD9463909
Probable space group: P N M A
;
_chemical_formula_sum "Si O2"
_cell_formula_units_Z 56
_cell_length_a 19.736452
_cell_length_b 8.687441
_cell_length_c 18.487687
_cell_angle_alpha 90.000000
_cell_angle_beta 90.000000
_cell_angle_gamma 90.000000
_cell_volume 3169.885175
_symmetry_space_group_name_H-M "P N M A"
_symmetry_group_IT_number 62
_symmetry_cell_setting 'orthorhombic'
loop_
_space_group_symop_operation_xyz
x,y,z
1/2-x,-y,1/2+z
1/2+x,1/2-y,1/2-z
-x,1/2+y,-z
-x,-y,-z
1/2+x,y,1/2-z
1/2-x,1/2+y,1/2+z
x,1/2-y,z
loop_
_atom_site_type_symbol
_atom_site_label
_atom_site_fract_x
_atom_site_fract_y
_atom_site_fract_z
Si Si1 0.248675 0.566995 0.344168
Si Si2 0.959989 0.063767 0.830272
Si Si3 0.929998 0.934593 0.528629
Si Si4 0.358914 0.435234 0.543301
Si Si5 0.607277 0.436048 0.615081
Si Si6 0.388777 0.933707 0.808512
Si Si7 0.284760 0.564176 0.002054
O O1 0.243837 0.750000 0.335172
O O2 0.327255 0.519173 0.336630
O O3 0.188840 0.489430 0.298978
O O4 0.232450 0.518651 0.426711
O O5 0.958832 0.250000 0.828270
O O6 0.035735 0.014924 0.851970
O O7 0.935515 0.001232 0.753781
O O8 0.907250 0.011536 0.892263
O O9 0.934839 0.750000 0.528147
O O10 0.914279 0.983057 0.611486
O O11 0.862709 0.976877 0.481965
O O12 0.000000 0.000000 0.500000
O O13 0.363882 0.250000 0.539829
O O14 0.382833 0.499823 0.465892
O O15 0.278962 0.473403 0.553076
O O16 0.607820 0.250000 0.610196
O O17 0.389850 0.750000 0.806896
O O18 0.283472 0.750000 0.990212
#
# Coordination Sequence:
#
# PCOD9463909 Si02
#       7
#     8   8   8   8   8   8   8
#     4   9  16  29  50  71  91 121 159 198 238 286
#     4  10  20  33  49  73 104 135 165 201 246 297
#     4   9  18  32  51  72  93 119 157 203 249 293
#     4   9  17  30  50  73  99 132 167 200 239 288
#     4   9  18  31  49  75 103 129 164 205 243 288
#     4  10  21  36  51  70  97 130 167 206 249 299
#     4   8  15  29  47  70  97 122 152 193 237 285
#
# _framework density 17.666255
#
# number of rings (size 3 to 8) (size 9 to 14) (size 15 to 20)
#    0.000    2.857    0.000    2.143    0.000    4.571 
#    0.000    1.429    0.000    6.857    0.000    0.000 
#    0.000    0.000    0.000    0.000    0.000    0.000 
#
# Total GULP energy -311814.454881 kJ/mol
# GULP energy per Si atom -5568.115266 kJ/mol
# Density = 1.762605 g / cm^3
# Si number density = 17.666255 Si / 1000 Ang^3
#
#
#
# Elastic Constant Matrix: (Units=GPa)
#
#
# Indices 1 2 3 4 5 6 
#
# 1 206.1694 32.8633 67.4799 0.0000 0.0000 0.0000
# 2 32.8633 6.7917 13.4756 0.0000 0.0000 0.0000
# 3 67.4799 13.4756 53.5593 0.0000 0.0000 0.0000
# 4 0.0000 0.0000 0.0000 24.1575 0.0000 0.0000
# 5 0.0000 0.0000 0.0000 0.0000 17.8042 0.0000
# 6 0.0000 0.0000 0.0000 0.0000 0.0000 22.0769
#
#
#
# Elastic Compliance Matrix: (Units=1/GPa)
#
#
# Indices 1 2 3 4 5 6 
#
# 1 0.021295 -0.099459 -0.001806 0.000000 0.000000 0.000000
# 2 -0.099459 0.758539 -0.065539 0.000000 0.000000 0.000000
# 3 -0.001806 -0.065539 0.037436 0.000000 0.000000 0.000000
# 4 0.000000 0.000000 0.000000 0.041395 0.000000 0.000000
# 5 0.000000 0.000000 0.000000 0.000000 0.056166 0.000000
# 6 0.000000 0.000000 0.000000 0.000000 0.000000 0.045296
#
#
# Mechanical properties :
#
#
# Convention : Reuss Voigt Hill
#
# Bulk Modulus (GPa) = 2.06756 54.90641 28.48699
# Shear Modulus (GPa) = 3.43653 22.98784 13.21218
#
# Velocity S-wave (km/s) = 1.39623 3.61117 2.73770
# Velocity P-wave (km/s) = 1.94221 6.96668 5.11404
#
# Compressibility (1/GPa) = 0.48366086
#
# Stress axis : x y z
#
# Youngs Moduli (GPa) = 46.95880 1.31832 26.71222
#
# Poissons Ratio (x) = 0.13112 0.04824
# Poissons Ratio (y) = 4.67049 1.75070
# Poissons Ratio (z) = 0.08481 0.08640
#
# Static dielectric constant tensor:
#      x y z
#    x 1.654530 0.000000 0.000000 
#    y 0.000000 1.594190 0.000000 
#    z 0.000000 0.000000 1.573720 
# 
# From -- ./inp_files/27593.got.cif
#   From: 2010.05.17/outbox.cif.g08.bks.cpg/sg62_14_cif.got.tgz:27593.got - 2010.06.03 15:25:27.
