data_PCOD9463746
_publ_section_title
;
Structure prediction by ZEFSAII (Michael W. Deem and Ramdas Pophale) SiO2 
 PCOD9463746
Probable space group: P N M A
;
_chemical_formula_sum "Si O2"
_cell_formula_units_Z 44
_cell_length_a 9.739023
_cell_length_b 14.799513
_cell_length_c 18.137745
_cell_angle_alpha 90.000000
_cell_angle_beta 90.000000
_cell_angle_gamma 90.000000
_cell_volume 2614.243927
_symmetry_space_group_name_H-M "P N M A"
_symmetry_group_IT_number 62
_symmetry_cell_setting 'orthorhombic'
loop_
_space_group_symop_operation_xyz
x,y,z
1/2-x,-y,1/2+z
1/2+x,1/2-y,1/2-z
-x,1/2+y,-z
-x,-y,-z
1/2+x,y,1/2-z
1/2-x,1/2+y,1/2+z
x,1/2-y,z
loop_
_atom_site_type_symbol
_atom_site_label
_atom_site_fract_x
_atom_site_fract_y
_atom_site_fract_z
Si Si1 0.862373 0.750000 0.199852
Si Si2 0.811813 0.086072 0.322493
Si Si3 0.136221 0.378592 0.662324
Si Si4 0.309645 0.250000 0.064674
Si Si5 0.090233 0.750000 0.399509
Si Si6 0.510685 0.147138 0.305473
Si Si7 0.863468 0.250000 0.897551
Si Si8 0.982128 0.250000 0.058751
O O1 0.859526 0.836462 0.254912
O O2 0.614664 0.750000 0.013241
O O3 0.001488 0.750000 0.152996
O O4 0.837985 0.161307 0.385636
O O5 0.648371 0.088763 0.307034
O O6 0.896335 0.114541 0.250265
O O7 0.857920 0.985497 0.341831
O O8 0.001348 0.335633 0.625154
O O9 0.268384 0.335342 0.622344
O O10 0.146381 0.250000 0.047725
O O11 0.231750 0.750000 0.353894
O O12 0.554935 0.250000 0.283787
O O13 0.453443 0.164050 0.388081
O O14 0.905376 0.250000 0.982495
#
# Coordination Sequence:
#
# PCOD9463746 Si02
#       8
#     4   8   8   4   4   8   4   4
#     4  10  20  38  62  76 106 158 196 234 278 336
#     4  11  21  38  59  88 116 148 185 242 279 336
#     4  10  23  36  56  86 116 140 199 236 278 334
#     4  10  19  40  60  81 118 150 185 235 283 339
#     4  10  21  40  58  81 110 160 190 227 291 335
#     4   9  19  37  59  85 111 151 190 224 286 338
#     4  10  19  40  58  81 112 154 184 243 283 323
#     4   8  17  36  60  79 110 150 189 227 277 337
#
# _framework density 16.830869
#
# number of rings (size 3 to 8) (size 9 to 14) (size 15 to 20)
#    0.545    1.818    2.727    2.182    5.091    0.727 
#    6.545    5.455    0.000    0.000    0.000    0.000 
#    0.000    0.000    0.000    0.000    0.000    0.000 
#
# Total GULP energy -245124.356563 kJ/mol
# GULP energy per Si atom -5571.008104 kJ/mol
# Density = 1.679256 g / cm^3
# Si number density = 16.830869 Si / 1000 Ang^3
#
#
#
# Elastic Constant Matrix: (Units=GPa)
#
#
# Indices 1 2 3 4 5 6 
#
# 1 83.9866 23.3027 69.8725 0.0000 0.0000 0.0000
# 2 23.3027 99.4896 41.7909 0.0000 0.0000 0.0000
# 3 69.8725 41.7909 148.0144 0.0000 0.0000 0.0000
# 4 0.0000 0.0000 0.0000 1.8604 0.0000 0.0000
# 5 0.0000 0.0000 0.0000 0.0000 19.7823 0.0000
# 6 0.0000 0.0000 0.0000 0.0000 0.0000 1.5555
#
#
#
# Elastic Compliance Matrix: (Units=1/GPa)
#
#
# Indices 1 2 3 4 5 6 
#
# 1 0.019663 -0.000802 -0.009056 0.000000 0.000000 0.000000
# 2 -0.000802 0.011436 -0.002851 0.000000 0.000000 0.000000
# 3 -0.009056 -0.002851 0.011836 0.000000 0.000000 0.000000
# 4 0.000000 0.000000 0.000000 0.537506 0.000000 0.000000
# 5 0.000000 0.000000 0.000000 0.000000 0.050550 0.000000
# 6 0.000000 0.000000 0.000000 0.000000 0.000000 0.642875
#
#
# Mechanical properties :
#
#
# Convention : Reuss Voigt Hill
#
# Bulk Modulus (GPa) = 57.08002 66.82475 61.95238
# Shear Modulus (GPa) = 3.83106 17.74129 10.78618
#
# Velocity S-wave (km/s) = 1.51035 3.25020 2.53426
# Velocity P-wave (km/s) = 6.08515 7.33996 6.74181
#
# Compressibility (1/GPa) = 0.01751927
#
# Stress axis : x y z
#
# Youngs Moduli (GPa) = 50.85646 87.43968 84.48819
#
# Poissons Ratio (x) = 0.07009 0.76512
# Poissons Ratio (y) = 0.04076 0.24084
# Poissons Ratio (z) = 0.46056 0.24926
#
# Static dielectric constant tensor:
#      x y z
#    x 1.554970 0.000000 0.000000 
#    y 0.000000 1.567740 0.000000 
#    z 0.000000 0.000000 1.568170 
# 
# From -- ./inp_files/17948.got.cif
#   From: 2010.05.17/outbox.cif.g08.bks.cpg/sg62_9_cif.got.tgz:17948.got - 2010.06.03 15:25:27.
