data_PCOD9463455
_publ_section_title
;
Structure prediction by ZEFSAII (Michael W. Deem and Ramdas Pophale) SiO2 
 PCOD9463455
Probable space group: P N M A
;
_chemical_formula_sum "Si O2"
_cell_formula_units_Z 64
_cell_length_a 11.163699
_cell_length_b 16.531049
_cell_length_c 18.237157
_cell_angle_alpha 90.000000
_cell_angle_beta 90.000000
_cell_angle_gamma 90.000000
_cell_volume 3365.624562
_symmetry_space_group_name_H-M "P N M A"
_symmetry_group_IT_number 62
_symmetry_cell_setting 'orthorhombic'
loop_
_space_group_symop_operation_xyz
x,y,z
1/2-x,-y,1/2+z
1/2+x,1/2-y,1/2-z
-x,1/2+y,-z
-x,-y,-z
1/2+x,y,1/2-z
1/2-x,1/2+y,1/2+z
x,1/2-y,z
loop_
_atom_site_type_symbol
_atom_site_label
_atom_site_fract_x
_atom_site_fract_y
_atom_site_fract_z
Si Si1 0.314417 0.660813 0.862363
Si Si2 0.934167 0.487168 0.838866
Si Si3 0.466698 0.157770 0.396782
Si Si4 0.566924 0.491892 0.175823
Si Si5 0.925568 0.662241 0.477595
Si Si6 0.951772 0.658041 0.066146
Si Si7 0.176175 0.495596 0.595514
Si Si8 0.184446 0.601235 0.449660
O O1 0.335651 0.750000 0.831332
O O2 0.175966 0.654202 0.884543
O O3 0.358019 0.589494 0.810938
O O4 0.389400 0.652438 0.937694
O O5 0.955476 0.467689 0.753781
O O6 0.793439 0.490020 0.856014
O O7 0.982212 0.577400 0.858006
O O8 0.993293 0.416406 0.887946
O O9 0.505171 0.250000 0.373588
O O10 0.500141 0.151144 0.482682
O O11 0.439596 0.471860 0.138536
O O12 0.643466 0.545359 0.118620
O O13 0.882656 0.750000 0.453610
O O14 0.863410 0.592389 0.432070
O O15 0.067807 0.654770 0.467051
O O16 0.980753 0.750000 0.091634
O O17 0.807983 0.646482 0.065439
O O18 0.201829 0.546679 0.522206
#
# Coordination Sequence:
#
# PCOD9463455 Si02
#       8
#     8   8   8   8   8   8   8   8
#     4  10  19  35  62  92 124 159 199 252 308 373
#     4  12  26  40  65  91 133 172 202 258 328 369
#     4  10  22  40  65  96 127 164 209 254 311 380
#     4  11  24  40  62  92 127 167 209 252 318 386
#     4  10  19  35  62  93 120 154 207 266 312 357
#     4  11  24  42  66  95 123 164 217 263 310 372
#     4  11  22  40  63  95 119 165 212 257 303 375
#     4  11  20  41  66  89 122 161 213 267 306 366
#
# _framework density 19.015788000000001
#
# number of rings (size 3 to 8) (size 9 to 14) (size 15 to 20)
#    0.000    1.250    3.750    3.000    3.500    2.000 
#    0.000    3.750    0.000    0.000    0.000    0.000 
#    0.000    0.000    0.000    0.000    0.000    0.000 
#
# Total GULP energy -357285.114990 kJ/mol
# GULP energy per Si atom -5582.579922 kJ/mol
# Density = 1.897251 g / cm^3
# Si number density = 19.015788 Si / 1000 Ang^3
#
#
#
# Elastic Constant Matrix: (Units=GPa)
#
#
# Indices 1 2 3 4 5 6 
#
# 1 64.2235 30.0889 2.8761 0.0000 0.0000 0.0000
# 2 30.0889 86.1363 7.9285 0.0000 0.0000 0.0000
# 3 2.8761 7.9285 51.0485 0.0000 0.0000 0.0000
# 4 0.0000 0.0000 0.0000 9.8589 0.0000 0.0000
# 5 0.0000 0.0000 0.0000 0.0000 9.8944 0.0000
# 6 0.0000 0.0000 0.0000 0.0000 0.0000 12.2805
#
#
#
# Elastic Compliance Matrix: (Units=1/GPa)
#
#
# Indices 1 2 3 4 5 6 
#
# 1 0.018618 -0.006500 -0.000039 0.000000 0.000000 0.000000
# 2 -0.006500 0.014047 -0.001816 0.000000 0.000000 0.000000
# 3 -0.000039 -0.001816 0.019873 0.000000 0.000000 0.000000
# 4 0.000000 0.000000 0.000000 0.101431 0.000000 0.000000
# 5 0.000000 0.000000 0.000000 0.000000 0.101067 0.000000
# 6 0.000000 0.000000 0.000000 0.000000 0.000000 0.081430
#
#
# Mechanical properties :
#
#
# Convention : Reuss Voigt Hill
#
# Bulk Modulus (GPa) = 27.91065 31.46615 29.68840
# Shear Modulus (GPa) = 13.69419 17.10775 15.40097
#
# Velocity S-wave (km/s) = 2.68647 3.00269 2.84897
# Velocity P-wave (km/s) = 4.93278 5.34835 5.14476
#
# Compressibility (1/GPa) = 0.03582862
#
# Stress axis : x y z
#
# Youngs Moduli (GPa) = 53.71269 71.18895 50.31854
#
# Poissons Ratio (x) = 0.46272 0.00198
# Poissons Ratio (y) = 0.34912 0.09135
# Poissons Ratio (z) = 0.00212 0.12924
#
# Static dielectric constant tensor:
#      x y z
#    x 1.647700 0.000000 0.000000 
#    y 0.000000 1.696920 0.000000 
#    z 0.000000 0.000000 1.661750 
# 
# From -- ./inp_files/23248.got.cif
#   From: 2010.05.17/outbox.cif.g08.bks.cpg/sg62_12_cif.got.tgz:23248.got - 2010.06.03 15:25:27.
