data_PCOD9463336
_publ_section_title
;
Structure prediction by ZEFSAII (Michael W. Deem and Ramdas Pophale) SiO2 
 PCOD9463336
Probable space group: P N M A
;
_chemical_formula_sum "Si O2"
_cell_formula_units_Z 52
_cell_length_a 15.071015
_cell_length_b 7.347286
_cell_length_c 17.835158
_cell_angle_alpha 90.000000
_cell_angle_beta 90.000000
_cell_angle_gamma 90.000000
_cell_volume 1974.905906
_symmetry_space_group_name_H-M "P N M A"
_symmetry_group_IT_number 62
_symmetry_cell_setting 'orthorhombic'
loop_
_space_group_symop_operation_xyz
x,y,z
1/2-x,-y,1/2+z
1/2+x,1/2-y,1/2-z
-x,1/2+y,-z
-x,-y,-z
1/2+x,y,1/2-z
1/2-x,1/2+y,1/2+z
x,1/2-y,z
loop_
_atom_site_type_symbol
_atom_site_label
_atom_site_fract_x
_atom_site_fract_y
_atom_site_fract_z
Si Si1 0.149432 0.032761 0.718324
Si Si2 0.928660 0.250000 0.399952
Si Si3 0.753834 0.456447 0.006984
Si Si4 0.093929 0.972433 0.103062
Si Si5 0.595965 0.031559 0.619860
Si Si6 0.651794 0.530401 0.234379
Si Si7 0.928777 0.042966 0.575995
O O1 0.147367 0.250000 0.701480
O O2 0.089739 0.996518 0.791604
O O3 0.246310 0.985620 0.750303
O O4 0.122034 0.910090 0.649311
O O5 0.992321 0.405901 0.439240
O O6 0.731939 0.250000 0.985753
O O7 0.816465 0.456695 0.080473
O O8 0.660656 0.549887 0.024836
O O9 0.821513 0.535021 0.944999
O O10 0.095463 0.750000 0.098688
O O11 0.105170 0.026324 0.189171
O O12 0.994983 0.032271 0.081408
O O13 0.603159 0.250000 0.612182
O O14 0.648022 0.750000 0.230579
O O15 0.609324 0.467931 0.156894
O O16 0.958272 0.250000 0.588961
#
# Coordination Sequence:
#
# PCOD9463336 Si02
#       7
#     8   4   8   8   8   8   8
#     4  10  21  37  62  91 122 161 201 255 316 364
#     4  12  24  36  60  94 120 154 204 262 304 356
#     4  11  21  35  58  89 125 170 206 247 309 373
#     4   9  19  34  57  89 124 163 205 254 305 372
#     4  10  19  35  57  86 129 169 203 243 303 376
#     4   9  18  37  61  88 120 163 206 254 311 363
#     4  11  22  40  64  88 123 162 209 254 308 367
#
# _framework density 26.330369000000001
#
# number of rings (size 3 to 8) (size 9 to 14) (size 15 to 20)
#    0.000    1.846    2.308    2.308    1.077    3.077 
#    0.000    0.769    6.769    0.923    0.000    0.000 
#    0.000    0.000    0.000    0.000    0.000    0.000 
#
# Total GULP energy -290314.111184 kJ/mol
# GULP energy per Si atom -5582.963677 kJ/mol
# Density = 2.627044 g / cm^3
# Si number density = 26.330369 Si / 1000 Ang^3
#
#
#
# Elastic Constant Matrix: (Units=GPa)
#
#
# Indices 1 2 3 4 5 6 
#
# 1 112.8839 19.1275 22.1098 0.0000 0.0000 0.0000
# 2 19.1275 133.8374 0.2178 0.0000 0.0000 0.0000
# 3 22.1098 0.2178 76.9084 0.0000 0.0000 0.0000
# 4 0.0000 0.0000 0.0000 33.8638 0.0000 0.0000
# 5 0.0000 0.0000 0.0000 0.0000 34.3115 0.0000
# 6 0.0000 0.0000 0.0000 0.0000 0.0000 20.9659
#
#
#
# Elastic Compliance Matrix: (Units=1/GPa)
#
#
# Indices 1 2 3 4 5 6 
#
# 1 0.009633 -0.001372 -0.002765 0.000000 0.000000 0.000000
# 2 -0.001372 0.007667 0.000373 0.000000 0.000000 0.000000
# 3 -0.002765 0.000373 0.013796 0.000000 0.000000 0.000000
# 4 0.000000 0.000000 0.000000 0.029530 0.000000 0.000000
# 5 0.000000 0.000000 0.000000 0.000000 0.029145 0.000000
# 6 0.000000 0.000000 0.000000 0.000000 0.000000 0.047697
#
#
# Mechanical properties :
#
#
# Convention : Reuss Voigt Hill
#
# Bulk Modulus (GPa) = 42.43241 45.17111 43.80176
# Shear Modulus (GPa) = 32.71115 36.63987 34.67551
#
# Velocity S-wave (km/s) = 3.52850 3.73439 3.63290
# Velocity P-wave (km/s) = 5.72283 5.98222 5.85396
#
# Compressibility (1/GPa) = 0.02356689
#
# Stress axis : x y z
#
# Youngs Moduli (GPa) = 103.81190 130.42486 72.48254
#
# Poissons Ratio (x) = 0.17897 0.20044
# Poissons Ratio (y) = 0.14245 -0.02702
# Poissons Ratio (z) = 0.28708 -0.04862
#
# Static dielectric constant tensor:
#      x y z
#    x 2.065830 0.000000 0.000000 
#    y 0.000000 2.033800 0.000000 
#    z 0.000000 0.000000 2.216790 
# 
# From -- ./inp_files/26996.got.cif
#   From: 2010.05.17/outbox.cif.g08.bks.cpg/sg62_14_cif.got.tgz:26996.got - 2010.06.03 15:25:27.
