data_PCOD9463072
_publ_section_title
;
Structure prediction by ZEFSAII (Michael W. Deem and Ramdas Pophale) SiO2 
 PCOD9463072
Probable space group: P N M A
;
_chemical_formula_sum "Si O2"
_cell_formula_units_Z 48
_cell_length_a 5.301158
_cell_length_b 13.230145
_cell_length_c 34.660671
_cell_angle_alpha 90.000000
_cell_angle_beta 90.000000
_cell_angle_gamma 90.000000
_cell_volume 2430.929246
_symmetry_space_group_name_H-M "P N M A"
_symmetry_group_IT_number 62
_symmetry_cell_setting 'orthorhombic'
loop_
_space_group_symop_operation_xyz
x,y,z
1/2-x,-y,1/2+z
1/2+x,1/2-y,1/2-z
-x,1/2+y,-z
-x,-y,-z
1/2+x,y,1/2-z
1/2-x,1/2+y,1/2+z
x,1/2-y,z
loop_
_atom_site_type_symbol
_atom_site_label
_atom_site_fract_x
_atom_site_fract_y
_atom_site_fract_z
Si Si1 0.464473 0.442215 0.357811
Si Si2 0.363490 0.522580 0.047076
Si Si3 0.238809 0.365613 0.993739
Si Si4 0.984386 0.365112 0.396337
Si Si5 0.436945 0.630935 0.725003
Si Si6 0.503709 0.134466 0.592478
O O1 0.709702 0.395328 0.379498
O O2 0.527868 0.436468 0.312855
O O3 0.414019 0.553146 0.375876
O O4 0.209843 0.379777 0.366054
O O5 0.476378 0.596494 0.014924
O O6 0.539607 0.441647 0.068636
O O7 0.275136 0.597311 0.080838
O O8 0.163497 0.445957 0.026666
O O9 0.213230 0.250000 0.006030
O O10 0.126292 0.373034 0.950509
O O11 0.978101 0.250000 0.409346
O O12 0.170739 0.614149 0.746087
O O13 0.444482 0.750000 0.713224
O O14 0.521743 0.250000 0.604972
#
# Coordination Sequence:
#
# PCOD9463072 Si02
#       6
#     8   8   8   8   8   8
#     4  11  22  38  58  87 116 152 189 232 281 343
#     4  10  20  33  52  77 109 147 198 244 292 340
#     4  10  19  34  52  74 107 148 197 247 292 339
#     4  11  21  35  55  83 118 152 189 236 288 339
#     4  10  20  35  58  86 116 148 180 219 278 345
#     4  10  21  37  56  78 108 151 197 243 289 338
#
# _framework density 19.745533999999999
#
# number of rings (size 3 to 8) (size 9 to 14) (size 15 to 20)
#    0.000    1.667    1.667    4.000    0.000    1.333 
#    0.000    0.000    0.000    1.000    0.000    0.000 
#    0.000    0.000    0.000    0.000    0.000    0.000 
#
# Total GULP energy -267463.572063 kJ/mol
# GULP energy per Si atom -5572.157751 kJ/mol
# Density = 1.970059 g / cm^3
# Si number density = 19.745534 Si / 1000 Ang^3
#
#
#
# Elastic Constant Matrix: (Units=GPa)
#
#
# Indices 1 2 3 4 5 6 
#
# 1 50.2806 18.3565 -7.8194 0.0000 0.0000 0.0000
# 2 18.3565 116.9429 26.4582 0.0000 0.0000 0.0000
# 3 -7.8194 26.4582 64.0750 0.0000 0.0000 0.0000
# 4 0.0000 0.0000 0.0000 28.9335 0.0000 0.0000
# 5 0.0000 0.0000 0.0000 0.0000 24.7982 0.0000
# 6 0.0000 0.0000 0.0000 0.0000 0.0000 13.9812
#
#
#
# Elastic Compliance Matrix: (Units=1/GPa)
#
#
# Indices 1 2 3 4 5 6 
#
# 1 0.022256 -0.004531 0.004587 0.000000 0.000000 0.000000
# 2 -0.004531 0.010355 -0.004829 0.000000 0.000000 0.000000
# 3 0.004587 -0.004829 0.018160 0.000000 0.000000 0.000000
# 4 0.000000 0.000000 0.000000 0.034562 0.000000 0.000000
# 5 0.000000 0.000000 0.000000 0.000000 0.040326 0.000000
# 6 0.000000 0.000000 0.000000 0.000000 0.000000 0.071524
#
#
# Mechanical properties :
#
#
# Convention : Reuss Voigt Hill
#
# Bulk Modulus (GPa) = 24.25689 33.92101 29.08895
# Shear Modulus (GPa) = 22.67868 26.49612 24.58740
#
# Velocity S-wave (km/s) = 3.39270 3.66714 3.53259
# Velocity P-wave (km/s) = 5.25915 5.92849 5.60382
#
# Compressibility (1/GPa) = 0.04122540
#
# Stress axis : x y z
#
# Youngs Moduli (GPa) = 44.93157 96.57181 55.06467
#
# Poissons Ratio (x) = 0.43760 -0.25259
# Poissons Ratio (y) = 0.20360 0.26590
# Poissons Ratio (z) = -0.20611 0.46633
#
# Static dielectric constant tensor:
#      x y z
#    x 1.844070 0.000000 0.000000 
#    y 0.000000 1.672630 0.000000 
#    z 0.000000 0.000000 1.727820 
# 
# From -- ./inp_files/31583.got.cif
#   From: 2010.05.17/outbox.cif.g08.bks.cpg/sg62_16_cif.got.tgz:31583.got - 2010.06.03 15:25:27.
