data_PCOD9463479
_publ_section_title
;
Structure prediction by ZEFSAII (Michael W. Deem and Ramdas Pophale) SiO2 
 PCOD9463479
Probable space group: P N M A
;
_chemical_formula_sum "Si O2"
_cell_formula_units_Z 64
_cell_length_a 14.254177
_cell_length_b 13.785853
_cell_length_c 19.214733
_cell_angle_alpha 90.000000
_cell_angle_beta 90.000000
_cell_angle_gamma 90.000000
_cell_volume 3775.810107
_symmetry_space_group_name_H-M "P N M A"
_symmetry_group_IT_number 62
_symmetry_cell_setting 'orthorhombic'
loop_
_space_group_symop_operation_xyz
x,y,z
1/2-x,-y,1/2+z
1/2+x,1/2-y,1/2-z
-x,1/2+y,-z
-x,-y,-z
1/2+x,y,1/2-z
1/2-x,1/2+y,1/2+z
x,1/2-y,z
loop_
_atom_site_type_symbol
_atom_site_label
_atom_site_fract_x
_atom_site_fract_y
_atom_site_fract_z
Si Si1 0.977252 0.359132 0.684050
Si Si2 0.657903 0.364467 0.339513
Si Si3 0.229699 0.515065 0.774395
Si Si4 0.482476 0.364871 0.116916
Si Si5 0.142959 0.991734 0.408661
Si Si6 0.200864 0.139793 0.661029
Si Si7 0.790563 0.037110 0.438589
Si Si8 0.488981 0.455565 0.268674
O O1 0.948644 0.250000 0.702376
O O2 0.919242 0.401505 0.619137
O O3 0.087488 0.358378 0.665346
O O4 0.970854 0.439558 0.744744
O O5 0.653252 0.250000 0.334388
O O6 0.725063 0.406897 0.278338
O O7 0.705491 0.397637 0.411115
O O8 0.556445 0.410805 0.325997
O O9 0.286973 0.514219 0.845401
O O10 0.234993 0.413820 0.731435
O O11 0.120042 0.535215 0.786972
O O12 0.480939 0.250000 0.105214
O O13 0.569825 0.419689 0.081175
O O14 0.386369 0.415245 0.091829
O O15 0.493644 0.389871 0.198806
O O16 0.196299 0.970386 0.479508
O O17 0.234578 0.250000 0.654450
O O18 0.223605 0.067636 0.597705
#
# Coordination Sequence:
#
# PCOD9463479 Si02
#       8
#     8   8   8   8   8   8   8   8
#     4   9  17  31  53  79 107 137 173 222 277 323
#     4  11  21  36  58  81 109 146 187 232 281 334
#     4  10  20  36  56  82 111 142 188 231 274 333
#     4  11  20  33  56  84 116 148 180 229 292 340
#     4  11  22  36  51  83 117 150 183 228 275 343
#     4   9  18  35  54  75 107 146 182 225 274 325
#     4  11  22  37  52  80 119 149 185 227 279 344
#     4  10  19  36  55  84 111 138 187 236 277 328
#
# _framework density 16.950005000000001
#
# number of rings (size 3 to 8) (size 9 to 14) (size 15 to 20)
#    0.000    1.750    7.500    1.125    0.000    2.500 
#    0.000    0.625    0.000    0.000    0.000    0.000 
#    0.000    0.000    0.000    0.000    0.000    0.000 
#
# Total GULP energy -357029.795629 kJ/mol
# GULP energy per Si atom -5578.590557 kJ/mol
# Density = 1.691143 g / cm^3
# Si number density = 16.950005 Si / 1000 Ang^3
#
#
#
# Elastic Constant Matrix: (Units=GPa)
#
#
# Indices 1 2 3 4 5 6 
#
# 1 53.6371 16.8899 -1.2862 0.0000 0.0000 0.0000
# 2 16.8899 139.9722 4.0593 0.0000 0.0000 0.0000
# 3 -1.2862 4.0593 32.0492 0.0000 0.0000 0.0000
# 4 0.0000 0.0000 0.0000 4.6039 0.0000 0.0000
# 5 0.0000 0.0000 0.0000 0.0000 17.9235 0.0000
# 6 0.0000 0.0000 0.0000 0.0000 0.0000 13.2680
#
#
#
# Elastic Compliance Matrix: (Units=1/GPa)
#
#
# Indices 1 2 3 4 5 6 
#
# 1 0.019417 -0.002374 0.001080 0.000000 0.000000 0.000000
# 2 -0.002374 0.007461 -0.001040 0.000000 0.000000 0.000000
# 3 0.001080 -0.001040 0.031377 0.000000 0.000000 0.000000
# 4 0.000000 0.000000 0.000000 0.217205 0.000000 0.000000
# 5 0.000000 0.000000 0.000000 0.000000 0.055793 0.000000
# 6 0.000000 0.000000 0.000000 0.000000 0.000000 0.075369
#
#
# Mechanical properties :
#
#
# Convention : Reuss Voigt Hill
#
# Bulk Modulus (GPa) = 18.66153 29.44272 24.05213
# Shear Modulus (GPa) = 11.65084 20.89214 16.27149
#
# Velocity S-wave (km/s) = 2.62461 3.51461 3.10170
# Velocity P-wave (km/s) = 4.49649 5.82048 5.20079
#
# Compressibility (1/GPa) = 0.05358617
#
# Stress axis : x y z
#
# Youngs Moduli (GPa) = 51.50033 134.03129 31.87032
#
# Poissons Ratio (x) = 0.31823 -0.03442
# Poissons Ratio (y) = 0.12228 0.03315
# Poissons Ratio (z) = -0.05562 0.13943
#
# Static dielectric constant tensor:
#      x y z
#    x 1.585390 0.000000 0.000000 
#    y 0.000000 1.586940 0.000000 
#    z 0.000000 0.000000 1.552160 
# 
# From -- ./inp_files/24106.got.cif
#   From: 2010.05.17/outbox.cif.g08.bks.cpg/sg62_13_cif.got.tgz:24106.got - 2010.06.03 15:25:27.
