data_PCOD9463780
_publ_section_title
;
Structure prediction by ZEFSAII (Michael W. Deem and Ramdas Pophale) SiO2 
 PCOD9463780
Probable space group: P N M A
;
_chemical_formula_sum "Si O2"
_cell_formula_units_Z 48
_cell_length_a 20.350021
_cell_length_b 11.274634
_cell_length_c 8.216967
_cell_angle_alpha 90.000000
_cell_angle_beta 90.000000
_cell_angle_gamma 90.000000
_cell_volume 1885.293009
_symmetry_space_group_name_H-M "P N M A"
_symmetry_group_IT_number 62
_symmetry_cell_setting 'orthorhombic'
loop_
_space_group_symop_operation_xyz
x,y,z
1/2-x,-y,1/2+z
1/2+x,1/2-y,1/2-z
-x,1/2+y,-z
-x,-y,-z
1/2+x,y,1/2-z
1/2-x,1/2+y,1/2+z
x,1/2-y,z
loop_
_atom_site_type_symbol
_atom_site_label
_atom_site_fract_x
_atom_site_fract_y
_atom_site_fract_z
Si Si1 0.738151 0.250000 0.802991
Si Si2 0.181775 0.750000 0.526272
Si Si3 0.981999 0.521413 0.196431
Si Si4 0.349859 0.505459 0.425242
Si Si5 0.952077 0.250000 0.676020
Si Si6 0.397184 0.888887 0.772164
Si Si7 0.627780 0.750000 0.500435
Si Si8 0.201426 0.011138 0.530382
O O1 0.802973 0.250000 0.911362
O O2 0.705476 0.374155 0.852943
O O3 0.763501 0.250000 0.618700
O O4 0.109072 0.750000 0.447486
O O5 0.192685 0.879276 0.606023
O O6 0.009696 0.627206 0.312078
O O7 0.024466 0.412209 0.269846
O O8 0.905482 0.558376 0.192108
O O9 0.000000 0.500000 0.000000
O O10 0.367197 0.562929 0.601578
O O11 0.376967 0.371292 0.409183
O O12 0.271016 0.494867 0.433807
O O13 0.923829 0.250000 0.858899
O O14 0.382811 0.750000 0.791119
O O15 0.357722 0.963825 0.906426
#
# Coordination Sequence:
#
# PCOD9463780 Si02
#       8
#     4   4   8   8   4   8   4   8
#     4   9  20  36  52  79 112 147 189 234 272 330
#     4  11  22  37  56  81 116 155 191 228 283 342
#     4  10  20  29  48  75 108 143 169 217 284 344
#     4  10  22  31  52  79 109 140 179 223 274 341
#     4  11  16  31  46  68 109 142 167 207 276 331
#     4  11  21  33  50  79 112 140 177 226 276 337
#     4   9  14  30  46  66 101 146 165 195 263 323
#     4  11  20  37  54  77 112 150 190 226 275 330
#
# _framework density 25.460232999999999
#
# number of rings (size 3 to 8) (size 9 to 14) (size 15 to 20)
#    0.000    1.667    5.833    2.000    7.000    0.000 
#    0.000    0.000    0.000    0.000    0.000    4.667 
#    0.000    0.000    0.000    0.000    0.000    0.000 
#
# Total GULP energy -267551.215418 kJ/mol
# GULP energy per Si atom -5573.983655 kJ/mol
# Density = 2.540228 g / cm^3
# Si number density = 25.460233 Si / 1000 Ang^3
#
#
#
# Elastic Constant Matrix: (Units=GPa)
#
#
# Indices 1 2 3 4 5 6 
#
# 1 139.2741 -3.2645 33.6727 0.0000 0.0000 0.0000
# 2 -3.2645 163.2498 23.7587 0.0000 0.0000 0.0000
# 3 33.6727 23.7587 58.7208 0.0000 0.0000 0.0000
# 4 0.0000 0.0000 0.0000 -31.1594 0.0000 0.0000
# 5 0.0000 0.0000 0.0000 0.0000 30.6566 0.0000
# 6 0.0000 0.0000 0.0000 0.0000 0.0000 33.1292
#
#
#
# Elastic Compliance Matrix: (Units=1/GPa)
#
#
# Indices 1 2 3 4 5 6 
#
# 1 0.008467 0.000931 -0.005232 0.000000 0.000000 0.000000
# 2 0.000931 0.006611 -0.003209 0.000000 0.000000 0.000000
# 3 -0.005232 -0.003209 0.021328 0.000000 0.000000 0.000000
# 4 0.000000 0.000000 0.000000 -0.032093 0.000000 0.000000
# 5 0.000000 0.000000 0.000000 0.000000 0.032619 0.000000
# 6 0.000000 0.000000 0.000000 0.000000 0.000000 0.030185
#
#
# Mechanical properties :
#
#
# Convention : Reuss Voigt Hill
#
# Bulk Modulus (GPa) = 46.75800 52.17537 49.46668
# Shear Modulus (GPa) = 56.01272 26.99713 41.50493
#
# Velocity S-wave (km/s) = 4.69551 3.25986 4.04194
# Velocity P-wave (km/s) = 6.91391 5.89120 6.42294
#
# Compressibility (1/GPa) = 0.02138672
#
# Stress axis : x y z
#
# Youngs Moduli (GPa) = 118.10840 151.25932 46.88661
#
# Poissons Ratio (x) = -0.14078 0.24530
# Poissons Ratio (y) = -0.10993 0.15044
# Poissons Ratio (z) = 0.61791 0.48533
#
# Static dielectric constant tensor:
#      x y z
#    x 2.036190 0.000000 0.000000 
#    y 0.000000 2.168170 0.000000 
#    z 0.000000 0.000000 2.055350 
# 
# From -- ./inp_files/14757.got.cif
#   From: 2010.05.17/outbox.cif.g08.bks.cpg/sg62_8_cif.got.tgz:14757.got - 2010.06.03 15:25:27.
