data_PCOD9463719
_publ_section_title
;
Structure prediction by ZEFSAII (Michael W. Deem and Ramdas Pophale) SiO2 
 PCOD9463719
Probable space group: P N M A
;
_chemical_formula_sum "Si O2"
_cell_formula_units_Z 52
_cell_length_a 14.290765
_cell_length_b 9.259770
_cell_length_c 20.317815
_cell_angle_alpha 90.000000
_cell_angle_beta 90.000000
_cell_angle_gamma 90.000000
_cell_volume 2688.640144
_symmetry_space_group_name_H-M "P N M A"
_symmetry_group_IT_number 62
_symmetry_cell_setting 'orthorhombic'
loop_
_space_group_symop_operation_xyz
x,y,z
1/2-x,-y,1/2+z
1/2+x,1/2-y,1/2-z
-x,1/2+y,-z
-x,-y,-z
1/2+x,y,1/2-z
1/2-x,1/2+y,1/2+z
x,1/2-y,z
loop_
_atom_site_type_symbol
_atom_site_label
_atom_site_fract_x
_atom_site_fract_y
_atom_site_fract_z
Si Si1 0.108553 0.013000 0.431816
Si Si2 0.632663 0.577720 0.325590
Si Si3 0.527597 0.084709 0.210208
Si Si4 0.705458 0.579566 0.624121
Si Si5 0.476134 0.750000 0.024368
Si Si6 0.997275 0.577655 0.930089
Si Si7 0.692426 0.579432 0.779040
O O1 0.048105 0.873963 0.447695
O O2 0.218461 0.991880 0.417357
O O3 0.090100 0.124632 0.490215
O O4 0.068696 0.076116 0.362839
O O5 0.628757 0.750000 0.331132
O O6 0.580211 0.522290 0.259484
O O7 0.579711 0.498944 0.384926
O O8 0.738523 0.519805 0.320526
O O9 0.538601 0.250000 0.235347
O O10 0.417000 0.052886 0.208171
O O11 0.726306 0.750000 0.614192
O O12 0.598872 0.556020 0.603137
O O13 0.712461 0.551452 0.701996
O O14 0.980968 0.750000 0.935169
O O15 0.000000 0.500000 0.000000
O O16 0.710535 0.750000 0.791536
#
# Coordination Sequence:
#
# PCOD9463719 Si02
#       7
#     8   8   8   8   4   8   8
#     4  11  21  42  62  93 126 168 208 262 320 386
#     4  12  25  41  63  97 134 168 213 274 328 387
#     4  11  21  39  67  94 126 162 210 273 329 383
#     4  10  19  38  69  93 121 165 216 261 321 390
#     4  10  24  40  60  86 132 166 208 248 312 390
#     4  11  24  47  68  95 130 177 223 271 332 395
#     4  10  21  39  65  97 125 167 215 266 328 384
#
# _framework density 19.340631999999999
#
# number of rings (size 3 to 8) (size 9 to 14) (size 15 to 20)
#    0.000    1.231    4.615    1.846    1.077    0.615 
#    8.308    0.000    0.000    0.000    0.000    0.000 
#    0.000    0.000    0.000    0.000    0.000    0.000 
#
# Total GULP energy -289493.411402 kJ/mol
# GULP energy per Si atom -5567.180989 kJ/mol
# Density = 1.929661 g / cm^3
# Si number density = 19.340632 Si / 1000 Ang^3
#
#
#
# Elastic Constant Matrix: (Units=GPa)
#
#
# Indices 1 2 3 4 5 6 
#
# 1 59.6601 31.7545 11.0776 0.0000 0.0000 0.0000
# 2 31.7545 100.9230 21.7976 0.0000 0.0000 0.0000
# 3 11.0776 21.7976 29.6072 0.0000 0.0000 0.0000
# 4 0.0000 0.0000 0.0000 23.1160 0.0000 0.0000
# 5 0.0000 0.0000 0.0000 0.0000 20.2078 0.0000
# 6 0.0000 0.0000 0.0000 0.0000 0.0000 18.9535
#
#
#
# Elastic Compliance Matrix: (Units=1/GPa)
#
#
# Indices 1 2 3 4 5 6 
#
# 1 0.020427 -0.005680 -0.003461 0.000000 0.000000 0.000000
# 2 -0.005680 0.013361 -0.007712 0.000000 0.000000 0.000000
# 3 -0.003461 -0.007712 0.040748 0.000000 0.000000 0.000000
# 4 0.000000 0.000000 0.000000 0.043260 0.000000 0.000000
# 5 0.000000 0.000000 0.000000 0.000000 0.049486 0.000000
# 6 0.000000 0.000000 0.000000 0.000000 0.000000 0.052761
#
#
# Mechanical properties :
#
#
# Convention : Reuss Voigt Hill
#
# Bulk Modulus (GPa) = 24.49115 35.49441 29.99278
# Shear Modulus (GPa) = 18.70140 20.82616 19.76378
#
# Velocity S-wave (km/s) = 3.11295 3.28504 3.20015
# Velocity P-wave (km/s) = 5.06075 5.72544 5.40333
#
# Compressibility (1/GPa) = 0.04083108
#
# Stress axis : x y z
#
# Youngs Moduli (GPa) = 48.95385 74.84351 24.54093
#
# Poissons Ratio (x) = 0.42509 0.08495
# Poissons Ratio (y) = 0.27804 0.18925
# Poissons Ratio (z) = 0.16945 0.57718
#
# Static dielectric constant tensor:
#      x y z
#    x 1.691700 0.000000 0.000000 
#    y 0.000000 1.656170 0.000000 
#    z 0.000000 0.000000 1.679080 
# 
# From -- ./inp_files/26983.got.cif
#   From: 2010.05.17/outbox.cif.g08.bks.cpg/sg62_14_cif.got.tgz:26983.got - 2010.06.03 15:25:27.
