data_PCOD9463176
_publ_section_title
;
Structure prediction by ZEFSAII (Michael W. Deem and Ramdas Pophale) SiO2 
 PCOD9463176
Probable space group: P N M A
;
_chemical_formula_sum "Si O2"
_cell_formula_units_Z 56
_cell_length_a 21.789991
_cell_length_b 8.866030
_cell_length_c 15.320539
_cell_angle_alpha 90.000000
_cell_angle_beta 90.000000
_cell_angle_gamma 90.000000
_cell_volume 2959.785867
_symmetry_space_group_name_H-M "P N M A"
_symmetry_group_IT_number 62
_symmetry_cell_setting 'orthorhombic'
loop_
_space_group_symop_operation_xyz
x,y,z
1/2-x,-y,1/2+z
1/2+x,1/2-y,1/2-z
-x,1/2+y,-z
-x,-y,-z
1/2+x,y,1/2-z
1/2-x,1/2+y,1/2+z
x,1/2-y,z
loop_
_atom_site_type_symbol
_atom_site_label
_atom_site_fract_x
_atom_site_fract_y
_atom_site_fract_z
Si Si1 0.482512 0.082957 0.125144
Si Si2 0.401732 0.581077 0.003028
Si Si3 0.051276 0.570229 0.937254
Si Si4 0.210850 0.431644 0.376854
Si Si5 0.180945 0.430783 0.991561
Si Si6 0.475859 0.426068 0.709401
Si Si7 0.659262 0.431992 0.311316
O O1 0.477775 0.250000 0.165692
O O2 0.536351 0.093163 0.053739
O O3 0.506002 0.957062 0.191234
O O4 0.419399 0.032934 0.079658
O O5 0.387246 0.750000 0.036290
O O6 0.348407 0.534033 0.936918
O O7 0.052124 0.750000 0.943627
O O8 0.116493 0.502572 0.963241
O O9 0.027656 0.514840 0.843958
O O10 0.000000 0.500000 0.000000
O O11 0.219097 0.250000 0.376734
O O12 0.267523 0.507700 0.426078
O O13 0.196338 0.476809 0.276455
O O14 0.177733 0.250000 0.985531
O O15 0.189865 0.468647 0.094936
O O16 0.476043 0.250000 0.687105
O O17 0.408402 0.494362 0.691682
O O18 0.651269 0.250000 0.307360
#
# Coordination Sequence:
#
# PCOD9463176 Si02
#       7
#     8   8   8   8   8   8   8
#     4  10  19  34  56  85 122 161 201 251 309 364
#     4   9  18  34  57  85 118 159 205 255 305 362
#     4  12  24  41  65  93 124 159 199 252 314 370
#     4  10  21  41  65  88 123 169 213 258 313 374
#     4  11  24  42  65  93 125 162 208 261 312 372
#     4  12  23  36  61  93 123 157 201 253 306 369
#     4  10  21  41  66  89 119 163 209 254 309 372
#
# _framework density 18.920287999999999
#
# number of rings (size 3 to 8) (size 9 to 14) (size 15 to 20)
#    0.000    1.429    2.857    3.429    0.000    2.286 
#    2.571    0.000    0.000    0.000    0.000    0.000 
#    0.000    0.000    0.000    0.000    0.000    0.000 
#
# Total GULP energy -312479.337074 kJ/mol
# GULP energy per Si atom -5579.988162 kJ/mol
# Density = 1.887722 g / cm^3
# Si number density = 18.920288 Si / 1000 Ang^3
#
#
#
# Elastic Constant Matrix: (Units=GPa)
#
#
# Indices 1 2 3 4 5 6 
#
# 1 113.9972 52.4292 59.1399 0.0000 0.0000 0.0000
# 2 52.4292 66.6809 42.7598 0.0000 0.0000 0.0000
# 3 59.1399 42.7598 84.4836 0.0000 0.0000 0.0000
# 4 0.0000 0.0000 0.0000 29.3613 0.0000 0.0000
# 5 0.0000 0.0000 0.0000 0.0000 28.3655 0.0000
# 6 0.0000 0.0000 0.0000 0.0000 0.0000 31.2486
#
#
#
# Elastic Compliance Matrix: (Units=1/GPa)
#
#
# Indices 1 2 3 4 5 6 
#
# 1 0.016297 -0.008140 -0.007288 0.000000 0.000000 0.000000
# 2 -0.008140 0.026269 -0.007597 0.000000 0.000000 0.000000
# 3 -0.007288 -0.007597 0.020784 0.000000 0.000000 0.000000
# 4 0.000000 0.000000 0.000000 0.034058 0.000000 0.000000
# 5 0.000000 0.000000 0.000000 0.000000 0.035254 0.000000
# 6 0.000000 0.000000 0.000000 0.000000 0.000000 0.032001
#
#
# Mechanical properties :
#
#
# Convention : Reuss Voigt Hill
#
# Bulk Modulus (GPa) = 57.80889 63.75772 60.78330
# Shear Modulus (GPa) = 23.09672 25.18394 24.14033
#
# Velocity S-wave (km/s) = 3.49770 3.65232 3.57584
# Velocity P-wave (km/s) = 6.85070 7.18033 7.01745
#
# Compressibility (1/GPa) = 0.01729838
#
# Stress axis : x y z
#
# Youngs Moduli (GPa) = 61.36134 38.06755 48.11478
#
# Poissons Ratio (x) = 0.30988 0.35066
# Poissons Ratio (y) = 0.49950 0.36554
# Poissons Ratio (z) = 0.44721 0.28921
#
# Static dielectric constant tensor:
#      x y z
#    x 1.601540 0.000000 0.000000 
#    y 0.000000 1.657040 0.000000 
#    z 0.000000 0.000000 2.820900 
# 
# From -- ./inp_files/20441.got.cif
#   From: 2010.05.17/outbox.cif.g08.bks.cpg/sg62_11_cif.got.tgz:20441.got - 2010.06.03 15:25:27.
