data_PCOD9463544
_publ_section_title
;
Structure prediction by ZEFSAII (Michael W. Deem and Ramdas Pophale) SiO2 
 PCOD9463544
Probable space group: P N M A
;
_chemical_formula_sum "Si O2"
_cell_formula_units_Z 64
_cell_length_a 14.734631
_cell_length_b 8.162273
_cell_length_c 25.345203
_cell_angle_alpha 90.000000
_cell_angle_beta 90.000000
_cell_angle_gamma 90.000000
_cell_volume 3048.218922
_symmetry_space_group_name_H-M "P N M A"
_symmetry_group_IT_number 62
_symmetry_cell_setting 'orthorhombic'
loop_
_space_group_symop_operation_xyz
x,y,z
1/2-x,-y,1/2+z
1/2+x,1/2-y,1/2-z
-x,1/2+y,-z
-x,-y,-z
1/2+x,y,1/2-z
1/2-x,1/2+y,1/2+z
x,1/2-y,z
loop_
_atom_site_type_symbol
_atom_site_label
_atom_site_fract_x
_atom_site_fract_y
_atom_site_fract_z
Si Si1 0.756809 0.441986 0.674221
Si Si2 0.779175 0.950746 0.454388
Si Si3 0.469166 0.942319 0.094810
Si Si4 0.380120 0.059739 0.617016
Si Si5 0.842644 0.941865 0.567914
Si Si6 0.943671 0.443717 0.290707
Si Si7 0.227315 0.439816 0.214201
Si Si8 0.549154 0.447944 0.674935
O O1 0.753422 0.250000 0.687422
O O2 0.809061 0.468330 0.620150
O O3 0.798609 0.530750 0.725010
O O4 0.652868 0.502350 0.666915
O O5 0.777665 0.750000 0.452814
O O6 0.687321 0.012108 0.426857
O O7 0.794167 0.000701 0.514687
O O8 0.868855 0.000887 0.421759
O O9 0.475502 0.750000 0.082882
O O10 0.549408 0.032825 0.064307
O O11 0.481158 0.969606 0.157382
O O12 0.393992 0.250000 0.602948
O O13 0.478259 0.987769 0.631564
O O14 0.325043 0.048030 0.671968
O O15 0.823393 0.750000 0.574379
O O16 0.957768 0.250000 0.296345
O O17 0.834977 0.476182 0.289209
O O18 0.979425 0.500332 0.233931
O O19 0.212614 0.250000 0.200422
O O20 0.547805 0.250000 0.673030
#
# Coordination Sequence:
#
# PCOD9463544 Si02
#       8
#     8   8   8   8   8   8   8   8
#     4  10  21  39  58  81 112 151 194 237 282 338
#     4   9  20  38  60  84 113 149 191 236 287 343
#     4  11  21  36  58  84 113 151 192 231 280 344
#     4  10  19  36  60  85 112 148 190 234 282 341
#     4  11  23  39  58  82 112 150 193 241 292 340
#     4  10  20  34  53  81 118 152 183 226 281 336
#     4  10  20  34  54  83 115 149 184 230 285 335
#     4   9  20  36  58  83 113 150 191 235 280 335
#
# _framework density 20.995865999999999
#
# number of rings (size 3 to 8) (size 9 to 14) (size 15 to 20)
#    0.000    2.000    1.250    2.250    1.750    2.000 
#    0.000    3.750    0.000    0.000    0.000    0.000 
#    0.000    0.000    0.000    0.000    0.000    0.000 
#
# Total GULP energy -357537.311205 kJ/mol
# GULP energy per Si atom -5586.520488 kJ/mol
# Density = 2.094808 g / cm^3
# Si number density = 20.995866 Si / 1000 Ang^3
#
#
#
# Elastic Constant Matrix: (Units=GPa)
#
#
# Indices 1 2 3 4 5 6 
#
# 1 37.1787 2.5399 -2.8369 0.0000 0.0000 0.0000
# 2 2.5399 13.2365 -7.4804 0.0000 0.0000 0.0000
# 3 -2.8369 -7.4804 60.7156 0.0000 0.0000 0.0000
# 4 0.0000 0.0000 0.0000 13.4192 0.0000 0.0000
# 5 0.0000 0.0000 0.0000 0.0000 33.2547 0.0000
# 6 0.0000 0.0000 0.0000 0.0000 0.0000 14.9044
#
#
#
# Elastic Compliance Matrix: (Units=1/GPa)
#
#
# Indices 1 2 3 4 5 6 
#
# 1 0.027280 -0.004852 0.000677 0.000000 0.000000 0.000000
# 2 -0.004852 0.082066 0.009884 0.000000 0.000000 0.000000
# 3 0.000677 0.009884 0.017720 0.000000 0.000000 0.000000
# 4 0.000000 0.000000 0.000000 0.074520 0.000000 0.000000
# 5 0.000000 0.000000 0.000000 0.000000 0.030071 0.000000
# 6 0.000000 0.000000 0.000000 0.000000 0.000000 0.067094
#
#
# Mechanical properties :
#
#
# Convention : Reuss Voigt Hill
#
# Bulk Modulus (GPa) = 7.22111 10.61956 8.92033
# Shear Modulus (GPa) = 14.99278 20.24288 17.61783
#
# Velocity S-wave (km/s) = 2.67513 3.10842 2.89988
# Velocity P-wave (km/s) = 3.60396 4.23698 3.93322
#
# Compressibility (1/GPa) = 0.13848295
#
# Stress axis : x y z
#
# Youngs Moduli (GPa) = 36.65654 12.18538 56.43469
#
# Poissons Ratio (x) = 0.05913 -0.03820
# Poissons Ratio (y) = 0.17786 -0.55780
# Poissons Ratio (z) = -0.02481 -0.12044
#
# Static dielectric constant tensor:
#      x y z
#    x 1.796070 0.000000 0.000000 
#    y 0.000000 1.719030 0.000000 
#    z 0.000000 0.000000 1.735130 
# 
# From -- ./inp_files/29746.got.cif
#   From: 2010.05.17/outbox.cif.g08.bks.cpg/sg62_15_cif.got.tgz:29746.got - 2010.06.03 15:25:27.
