data_PCOD9463138
_publ_section_title
;
Structure prediction by ZEFSAII (Michael W. Deem and Ramdas Pophale) SiO2 
 PCOD9463138
Probable space group: P N M A
;
_chemical_formula_sum "Si O2"
_cell_formula_units_Z 56
_cell_length_a 8.231197
_cell_length_b 14.438898
_cell_length_c 21.073193
_cell_angle_alpha 90.000000
_cell_angle_beta 90.000000
_cell_angle_gamma 90.000000
_cell_volume 2504.536637
_symmetry_space_group_name_H-M "P N M A"
_symmetry_group_IT_number 62
_symmetry_cell_setting 'orthorhombic'
loop_
_space_group_symop_operation_xyz
x,y,z
1/2-x,-y,1/2+z
1/2+x,1/2-y,1/2-z
-x,1/2+y,-z
-x,-y,-z
1/2+x,y,1/2-z
1/2-x,1/2+y,1/2+z
x,1/2-y,z
loop_
_atom_site_type_symbol
_atom_site_label
_atom_site_fract_x
_atom_site_fract_y
_atom_site_fract_z
Si Si1 0.717762 0.361609 0.699858
Si Si2 0.554930 0.474360 0.596001
Si Si3 0.784975 0.355008 0.955367
Si Si4 0.917504 0.637946 0.331925
Si Si5 0.562065 0.143053 0.178748
Si Si6 0.895952 0.951186 0.554374
Si Si7 0.454193 0.356880 0.319925
O O1 0.708265 0.250000 0.696984
O O2 0.581004 0.405028 0.655337
O O3 0.686733 0.392852 0.771674
O O4 0.896625 0.391184 0.677515
O O5 0.434901 0.424974 0.547497
O O6 0.736476 0.488490 0.569859
O O7 0.492331 0.570873 0.626063
O O8 0.839817 0.250000 0.944617
O O9 0.666390 0.384591 0.897961
O O10 0.684795 0.362167 0.020096
O O11 0.921222 0.750000 0.329767
O O12 0.508029 0.250000 0.170623
O O13 0.513844 0.081043 0.118315
O O14 0.758221 0.141125 0.178382
O O15 0.505901 0.113830 0.248897
O O16 0.000000 0.000000 0.500000
O O17 0.507933 0.250000 0.329752
#
# Coordination Sequence:
#
# PCOD9463138 Si02
#       7
#     8   8   8   8   8   8   8
#     4  10  19  34  55  86 121 152 193 246 299 358
#     4  11  23  38  61  90 117 155 203 252 308 368
#     4  11  23  41  61  84 120 165 204 248 303 368
#     4   9  19  34  56  84 118 158 197 240 299 360
#     4   9  19  39  63  88 117 154 196 247 310 370
#     4  11  24  40  59  86 123 164 209 253 300 369
#     4   9  20  38  61  88 118 148 192 254 315 367
#
# _framework density 22.359425000000002
#
# number of rings (size 3 to 8) (size 9 to 14) (size 15 to 20)
#    0.000    2.000    0.000    3.000    0.000    9.714 
#    0.000    2.143    0.000    0.857    0.000    0.000 
#    0.000    0.000    0.000    0.000    0.000    0.000 
#
# Total GULP energy -313040.945333 kJ/mol
# GULP energy per Si atom -5590.016881 kJ/mol
# Density = 2.230853 g / cm^3
# Si number density = 22.359425 Si / 1000 Ang^3
#
#
#
# Elastic Constant Matrix: (Units=GPa)
#
#
# Indices 1 2 3 4 5 6 
#
# 1 38.7756 29.2956 13.0372 0.0000 0.0000 0.0000
# 2 29.2956 102.5027 40.6641 0.0000 0.0000 0.0000
# 3 13.0372 40.6641 68.9681 0.0000 0.0000 0.0000
# 4 0.0000 0.0000 0.0000 41.5808 0.0000 0.0000
# 5 0.0000 0.0000 0.0000 0.0000 45.5869 0.0000
# 6 0.0000 0.0000 0.0000 0.0000 0.0000 21.1277
#
#
#
# Elastic Compliance Matrix: (Units=1/GPa)
#
#
# Indices 1 2 3 4 5 6 
#
# 1 0.032933 -0.009062 -0.000882 0.000000 0.000000 0.000000
# 2 -0.009062 0.015228 -0.007266 0.000000 0.000000 0.000000
# 3 -0.000882 -0.007266 0.018950 0.000000 0.000000 0.000000
# 4 0.000000 0.000000 0.000000 0.024050 0.000000 0.000000
# 5 0.000000 0.000000 0.000000 0.000000 0.021936 0.000000
# 6 0.000000 0.000000 0.000000 0.000000 0.000000 0.047331
#
#
# Mechanical properties :
#
#
# Convention : Reuss Voigt Hill
#
# Bulk Modulus (GPa) = 30.58953 41.80445 36.19699
# Shear Modulus (GPa) = 24.30193 30.14239 27.22216
#
# Velocity S-wave (km/s) = 3.30036 3.67561 3.49303
# Velocity P-wave (km/s) = 5.31354 6.06223 5.70019
#
# Compressibility (1/GPa) = 0.03269092
#
# Stress axis : x y z
#
# Youngs Moduli (GPa) = 30.36490 65.66751 52.77029
#
# Poissons Ratio (x) = 0.59510 0.04655
# Poissons Ratio (y) = 0.27518 0.38341
# Poissons Ratio (z) = 0.02679 0.47711
#
# Static dielectric constant tensor:
#      x y z
#    x 1.802940 0.000000 0.000000 
#    y 0.000000 1.854470 0.000000 
#    z 0.000000 0.000000 1.846550 
# 
# From -- ./inp_files/26005.got.cif
#   From: 2010.05.17/outbox.cif.g08.bks.cpg/sg62_14_cif.got.tgz:26005.got - 2010.06.03 15:25:27.
