data_PCOD9463607
_publ_section_title
;
Structure prediction by ZEFSAII (Michael W. Deem and Ramdas Pophale) SiO2 
 PCOD9463607
Probable space group: P N M A
;
_chemical_formula_sum "Si O2"
_cell_formula_units_Z 56
_cell_length_a 13.349564
_cell_length_b 19.854849
_cell_length_c 9.681486
_cell_angle_alpha 90.000000
_cell_angle_beta 90.000000
_cell_angle_gamma 90.000000
_cell_volume 2566.112499
_symmetry_space_group_name_H-M "P N M A"
_symmetry_group_IT_number 62
_symmetry_cell_setting 'orthorhombic'
loop_
_space_group_symop_operation_xyz
x,y,z
1/2-x,-y,1/2+z
1/2+x,1/2-y,1/2-z
-x,1/2+y,-z
-x,-y,-z
1/2+x,y,1/2-z
1/2-x,1/2+y,1/2+z
x,1/2-y,z
loop_
_atom_site_type_symbol
_atom_site_label
_atom_site_fract_x
_atom_site_fract_y
_atom_site_fract_z
Si Si1 0.846715 0.464055 0.224752
Si Si2 0.555556 0.172926 0.139667
Si Si3 0.239387 0.956711 0.502482
Si Si4 0.547517 0.673105 0.389767
Si Si5 0.783895 0.175301 0.118047
Si Si6 0.619317 0.829162 0.079015
Si Si7 0.046504 0.074823 0.100937
O O1 0.840206 0.484089 0.384954
O O2 0.820400 0.384386 0.216333
O O3 0.953368 0.472204 0.147177
O O4 0.762167 0.499995 0.132789
O O5 0.541440 0.250000 0.185032
O O6 0.667874 0.166907 0.081369
O O7 0.471572 0.158398 0.027069
O O8 0.550344 0.126575 0.272280
O O9 0.205726 0.882258 0.456536
O O10 0.344997 0.956725 0.583188
O O11 0.506997 0.750000 0.397344
O O12 0.648020 0.671660 0.482555
O O13 0.478462 0.618271 0.464247
O O14 0.576891 0.658721 0.232818
O O15 0.796749 0.250000 0.180906
O O16 0.648849 0.750000 0.070117
#
# Coordination Sequence:
#
# PCOD9463607 Si02
#       7
#     8   8   8   8   8   8   8
#     4  11  25  44  65  94 131 169 216 268 323 386
#     4  10  19  36  66 100 129 160 212 274 323 379
#     4  12  26  44  66  95 132 174 219 269 330 392
#     4   9  20  38  62  95 134 169 209 264 328 384
#     4   9  19  38  67  94 124 166 212 262 322 380
#     4  10  23  42  65  97 133 170 217 271 324 388
#     4  11  22  42  65  96 126 169 220 269 323 388
#
# _framework density 21.822894999999999
#
# number of rings (size 3 to 8) (size 9 to 14) (size 15 to 20)
#    0.000    1.714    2.857    0.857    4.000    3.429 
#    0.000    4.286    0.000    0.000    0.000    0.000 
#    0.000    0.000    0.000    0.000    0.000    0.000 
#
# Total GULP energy -313000.880779 kJ/mol
# GULP energy per Si atom -5589.301442 kJ/mol
# Density = 2.177322 g / cm^3
# Si number density = 21.822895 Si / 1000 Ang^3
#
#
#
# Elastic Constant Matrix: (Units=GPa)
#
#
# Indices 1 2 3 4 5 6 
#
# 1 61.6823 16.5188 -10.0877 0.0000 0.0000 0.0000
# 2 16.5188 50.7385 20.9617 0.0000 0.0000 0.0000
# 3 -10.0877 20.9617 88.6803 0.0000 0.0000 0.0000
# 4 0.0000 0.0000 0.0000 19.4643 0.0000 0.0000
# 5 0.0000 0.0000 0.0000 0.0000 8.6573 0.0000
# 6 0.0000 0.0000 0.0000 0.0000 0.0000 23.3009
#
#
#
# Elastic Compliance Matrix: (Units=1/GPa)
#
#
# Indices 1 2 3 4 5 6 
#
# 1 0.018965 -0.007830 0.004008 0.000000 0.000000 0.000000
# 2 -0.007830 0.025075 -0.006818 0.000000 0.000000 0.000000
# 3 0.004008 -0.006818 0.013344 0.000000 0.000000 0.000000
# 4 0.000000 0.000000 0.000000 0.051376 0.000000 0.000000
# 5 0.000000 0.000000 0.000000 0.000000 0.115510 0.000000
# 6 0.000000 0.000000 0.000000 0.000000 0.000000 0.042917
#
#
# Mechanical properties :
#
#
# Convention : Reuss Voigt Hill
#
# Bulk Modulus (GPa) = 27.69793 28.43186 28.06489
# Shear Modulus (GPa) = 16.63894 21.86505 19.25200
#
# Velocity S-wave (km/s) = 2.76425 3.16876 2.97339
# Velocity P-wave (km/s) = 4.78621 5.14245 4.96753
#
# Compressibility (1/GPa) = 0.03610378
#
# Stress axis : x y z
#
# Youngs Moduli (GPa) = 52.72994 39.88071 74.94037
#
# Poissons Ratio (x) = 0.31227 -0.30037
# Poissons Ratio (y) = 0.41288 0.51092
# Poissons Ratio (z) = -0.21135 0.27190
#
# Static dielectric constant tensor:
#      x y z
#    x 1.809510 0.000000 0.000000 
#    y 0.000000 1.818550 0.000000 
#    z 0.000000 0.000000 1.791760 
# 
# From -- ./inp_files/6764.got.cif
#   From: 2010.05.17/outbox.cif.g08.bks.cpg/sg62_4_cif.got.tgz:6764.got - 2010.06.03 15:25:27.
