data_PCOD9463042
_publ_section_title
;
Structure prediction by ZEFSAII (Michael W. Deem and Ramdas Pophale) SiO2 
 PCOD9463042
Probable space group: P N M A
;
_chemical_formula_sum "Si O2"
_cell_formula_units_Z 40
_cell_length_a 9.906202
_cell_length_b 8.442590
_cell_length_c 18.321625
_cell_angle_alpha 90.000000
_cell_angle_beta 90.000000
_cell_angle_gamma 90.000000
_cell_volume 1532.310821
_symmetry_space_group_name_H-M "P N M A"
_symmetry_group_IT_number 62
_symmetry_cell_setting 'orthorhombic'
loop_
_space_group_symop_operation_xyz
x,y,z
1/2-x,-y,1/2+z
1/2+x,1/2-y,1/2-z
-x,1/2+y,-z
-x,-y,-z
1/2+x,y,1/2-z
1/2-x,1/2+y,1/2+z
x,1/2-y,z
loop_
_atom_site_type_symbol
_atom_site_label
_atom_site_fract_x
_atom_site_fract_y
_atom_site_fract_z
Si Si1 0.206419 0.750000 0.240286
Si Si2 0.979741 0.750000 0.339257
Si Si3 0.675928 0.579990 0.738118
Si Si4 0.006536 0.931077 0.896161
Si Si5 0.449987 0.076415 0.102424
Si Si6 0.224114 0.566622 0.014499
O O1 0.315798 0.750000 0.172985
O O2 0.245550 0.580929 0.275113
O O3 0.045805 0.750000 0.257838
O O4 0.021448 0.591369 0.382102
O O5 0.742216 0.750000 0.718544
O O6 0.542191 0.570313 0.688344
O O7 0.637037 0.587892 0.822669
O O8 0.970821 0.750000 0.917809
O O9 0.141296 0.973902 0.941342
O O10 0.887011 0.042151 0.921564
O O11 0.515550 0.250000 0.094197
O O12 0.349369 0.041419 0.035654
O O13 0.261972 0.750000 0.010881
#
# Coordination Sequence:
#
# PCOD9463042 Si02
#       6
#     4   4   8   8   8   8
#     4  10  22  38  62  90 124 160 203 256 311 372
#     4  10  22  40  58  92 124 158 207 252 309 374
#     4   9  20  37  56  84 120 164 204 250 306 374
#     4   9  19  35  56  89 128 165 210 263 318 376
#     4  10  20  36  57  83 121 165 201 250 307 374
#     4  10  19  33  57  91 129 164 206 265 321 374
#
# _framework density 26.104364
#
# number of rings (size 3 to 8) (size 9 to 14) (size 15 to 20)
#    0.000    2.400    1.000    0.600    1.400    8.000 
#    0.000    8.000    0.000    1.200    0.000    0.000 
#    0.000    0.000    0.000    0.000    0.000    0.000 
#
# Total GULP energy -223348.722492 kJ/mol
# GULP energy per Si atom -5583.718062 kJ/mol
# Density = 2.604495 g / cm^3
# Si number density = 26.104364 Si / 1000 Ang^3
#
#
#
# Elastic Constant Matrix: (Units=GPa)
#
#
# Indices 1 2 3 4 5 6 
#
# 1 71.2546 43.0991 56.6901 0.0000 0.0000 0.0000
# 2 43.0991 230.4788 33.7725 0.0000 0.0000 0.0000
# 3 56.6901 33.7725 78.9407 0.0000 0.0000 0.0000
# 4 0.0000 0.0000 0.0000 50.1000 0.0000 0.0000
# 5 0.0000 0.0000 0.0000 0.0000 45.1782 0.0000
# 6 0.0000 0.0000 0.0000 0.0000 0.0000 -21.5459
#
#
#
# Elastic Compliance Matrix: (Units=1/GPa)
#
#
# Indices 1 2 3 4 5 6 
#
# 1 0.034603 -0.003019 -0.023558 0.000000 0.000000 0.000000
# 2 -0.003019 0.004892 0.000075 0.000000 0.000000 0.000000
# 3 -0.023558 0.000075 0.029554 0.000000 0.000000 0.000000
# 4 0.000000 0.000000 0.000000 0.019960 0.000000 0.000000
# 5 0.000000 0.000000 0.000000 0.000000 0.022135 0.000000
# 6 0.000000 0.000000 0.000000 0.000000 0.000000 -0.046412
#
#
# Mechanical properties :
#
#
# Convention : Reuss Voigt Hill
#
# Bulk Modulus (GPa) = 62.32525 71.97750 67.15138
# Shear Modulus (GPa) = 40.62296 31.22060 35.92178
#
# Velocity S-wave (km/s) = 3.94912 3.46206 3.71358
# Velocity P-wave (km/s) = 6.68740 6.60409 6.64587
#
# Compressibility (1/GPa) = 0.01604486
#
# Stress axis : x y z
#
# Youngs Moduli (GPa) = 28.89941 204.40197 33.83679
#
# Poissons Ratio (x) = 0.61702 0.79713
# Poissons Ratio (y) = 0.08724 -0.00253
# Poissons Ratio (z) = 0.68081 -0.01528
#
# Static dielectric constant tensor:
#      x y z
#    x 2.021000 0.000000 0.000000 
#    y 0.000000 2.043400 0.000000 
#    z 0.000000 0.000000 2.029860 
# 
# From -- ./inp_files/22809.got.cif
#   From: 2010.05.17/outbox.cif.g08.bks.cpg/sg62_12_cif.got.tgz:22809.got - 2010.06.03 15:25:27.
