data_PCOD9463046
_publ_section_title
;
Structure prediction by ZEFSAII (Michael W. Deem and Ramdas Pophale) SiO2 
 PCOD9463046
Probable space group: P N M A
;
_chemical_formula_sum "Si O2"
_cell_formula_units_Z 56
_cell_length_a 9.473100
_cell_length_b 13.834969
_cell_length_c 20.877138
_cell_angle_alpha 90.000000
_cell_angle_beta 90.000000
_cell_angle_gamma 90.000000
_cell_volume 2736.158642
_symmetry_space_group_name_H-M "P N M A"
_symmetry_group_IT_number 62
_symmetry_cell_setting 'orthorhombic'
loop_
_space_group_symop_operation_xyz
x,y,z
1/2-x,-y,1/2+z
1/2+x,1/2-y,1/2-z
-x,1/2+y,-z
-x,-y,-z
1/2+x,y,1/2-z
1/2-x,1/2+y,1/2+z
x,1/2-y,z
loop_
_atom_site_type_symbol
_atom_site_label
_atom_site_fract_x
_atom_site_fract_y
_atom_site_fract_z
Si Si1 0.661542 0.142860 0.015528
Si Si2 0.971414 0.987272 0.321927
Si Si3 0.257835 0.144726 0.631376
Si Si4 0.025071 0.139874 0.795293
Si Si5 0.371130 0.363774 0.082940
Si Si6 0.291909 0.141585 0.879181
Si Si7 0.160528 0.464622 0.991159
O O1 0.694581 0.250000 0.041515
O O2 0.497143 0.125755 0.030303
O O3 0.703218 0.142963 0.940893
O O4 0.757298 0.056070 0.039677
O O5 0.012698 0.949297 0.251351
O O6 0.082348 0.933334 0.368270
O O7 0.822212 0.935046 0.329676
O O8 0.940152 0.092563 0.351745
O O9 0.219364 0.250000 0.657706
O O10 0.423377 0.133444 0.642703
O O11 0.000383 0.250000 0.768829
O O12 0.185041 0.135053 0.819418
O O13 0.337082 0.250000 0.088732
O O14 0.239980 0.427089 0.055906
O O15 0.350079 0.250000 0.884143
O O16 0.196169 0.119750 0.941068
O O17 0.000000 0.500000 0.000000
#
# Coordination Sequence:
#
# PCOD9463046 Si02
#       7
#     8   8   8   8   8   8   8
#     4  10  20  38  62  91 125 163 207 256 312 381
#     4  12  21  37  63  87 124 168 208 249 308 367
#     4  10  19  33  58  89 122 161 201 247 312 376
#     4  10  22  38  58  93 132 164 201 254 317 380
#     4  11  24  42  64  92 126 164 216 266 308 372
#     4  11  23  38  60  95 130 161 204 258 315 377
#     4  12  23  39  62  93 128 165 201 255 327 384
#
# _framework density 20.466650000000001
#
# number of rings (size 3 to 8) (size 9 to 14) (size 15 to 20)
#    0.000    1.143    2.857    4.714    0.000    5.714 
#    0.000    0.000    0.000    4.286    0.000    0.000 
#    0.000    0.000    0.000    0.000    0.000    0.000 
#
# Total GULP energy -312141.981891 kJ/mol
# GULP energy per Si atom -5573.963962 kJ/mol
# Density = 2.042007 g / cm^3
# Si number density = 20.466650 Si / 1000 Ang^3
#
#
#
# Elastic Constant Matrix: (Units=GPa)
#
#
# Indices 1 2 3 4 5 6 
#
# 1 100.5045 41.8921 5.0071 0.0000 0.0000 0.0000
# 2 41.8921 99.2129 10.4506 0.0000 0.0000 0.0000
# 3 5.0071 10.4506 63.9866 0.0000 0.0000 0.0000
# 4 0.0000 0.0000 0.0000 22.8373 0.0000 0.0000
# 5 0.0000 0.0000 0.0000 0.0000 23.4662 0.0000
# 6 0.0000 0.0000 0.0000 0.0000 0.0000 15.6408
#
#
#
# Elastic Compliance Matrix: (Units=1/GPa)
#
#
# Indices 1 2 3 4 5 6 
#
# 1 0.012076 -0.005087 -0.000114 0.000000 0.000000 0.000000
# 2 -0.005087 0.012399 -0.001627 0.000000 0.000000 0.000000
# 3 -0.000114 -0.001627 0.015903 0.000000 0.000000 0.000000
# 4 0.000000 0.000000 0.000000 0.043788 0.000000 0.000000
# 5 0.000000 0.000000 0.000000 0.000000 0.042615 0.000000
# 6 0.000000 0.000000 0.000000 0.000000 0.000000 0.063935
#
#
# Mechanical properties :
#
#
# Convention : Reuss Voigt Hill
#
# Bulk Modulus (GPa) = 37.42326 42.04486 39.73406
# Shear Modulus (GPa) = 23.44357 26.14582 24.79469
#
# Velocity S-wave (km/s) = 3.38812 3.57807 3.48439
# Velocity P-wave (km/s) = 5.79918 6.13660 5.97027
#
# Compressibility (1/GPa) = 0.02672135
#
# Stress axis : x y z
#
# Youngs Moduli (GPa) = 82.81019 80.65410 62.88154
#
# Poissons Ratio (x) = 0.41028 0.00718
# Poissons Ratio (y) = 0.42125 0.10230
# Poissons Ratio (z) = 0.00945 0.13122
#
# Static dielectric constant tensor:
#      x y z
#    x 1.727230 0.000000 0.000000 
#    y 0.000000 1.786690 0.000000 
#    z 0.000000 0.000000 1.830470 
# 
# From -- ./inp_files/26018.got.cif
#   From: 2010.05.17/outbox.cif.g08.bks.cpg/sg62_14_cif.got.tgz:26018.got - 2010.06.03 15:25:27.
