data_PCOD9463091
_publ_section_title
;
Structure prediction by ZEFSAII (Michael W. Deem and Ramdas Pophale) SiO2 
 PCOD9463091
Probable space group: P N M A
;
_chemical_formula_sum "Si O2"
_cell_formula_units_Z 64
_cell_length_a 15.053674
_cell_length_b 8.554318
_cell_length_c 30.681285
_cell_angle_alpha 90.000000
_cell_angle_beta 90.000000
_cell_angle_gamma 90.000000
_cell_volume 3950.949170
_symmetry_space_group_name_H-M "P N M A"
_symmetry_group_IT_number 62
_symmetry_cell_setting 'orthorhombic'
loop_
_space_group_symop_operation_xyz
x,y,z
1/2-x,-y,1/2+z
1/2+x,1/2-y,1/2-z
-x,1/2+y,-z
-x,-y,-z
1/2+x,y,1/2-z
1/2-x,1/2+y,1/2+z
x,1/2-y,z
loop_
_atom_site_type_symbol
_atom_site_label
_atom_site_fract_x
_atom_site_fract_y
_atom_site_fract_z
Si Si1 0.606083 0.436093 0.451408
Si Si2 0.710065 0.060808 0.211225
Si Si3 0.999749 0.929472 0.826073
Si Si4 0.828199 0.932139 0.133750
Si Si5 0.182816 0.940312 0.700890
Si Si6 0.821009 0.064837 0.865869
Si Si7 0.898856 0.063575 0.046933
Si Si8 0.488901 0.567260 0.778086
O O1 0.613583 0.250000 0.446213
O O2 0.668634 0.519741 0.416452
O O3 0.502190 0.479976 0.442880
O O4 0.624522 0.484724 0.501022
O O5 0.708428 0.250000 0.212744
O O6 0.764205 0.011844 0.254842
O O7 0.608459 0.000735 0.211730
O O8 0.760092 0.008283 0.167738
O O9 0.019400 0.750000 0.839628
O O10 0.999935 0.935819 0.774038
O O11 0.075206 0.039914 0.844883
O O12 0.903886 0.978526 0.842987
O O13 0.809458 0.750000 0.129096
O O14 0.836681 0.010542 0.086420
O O15 0.183224 0.750000 0.700384
O O16 0.080827 0.997184 0.702820
O O17 0.234420 0.003741 0.659060
O O18 0.829050 0.250000 0.860481
O O19 0.896573 0.250000 0.041932
O O20 0.485675 0.750000 0.791295
#
# Coordination Sequence:
#
# PCOD9463091 Si02
#       8
#     8   8   8   8   8   8   8   8
#     4  10  20  34  53  75 103 137 171 210 256 307
#     4  10  19  34  54  74 100 137 181 219 256 306
#     4  11  19  33  52  72  99 138 180 217 256 303
#     4  12  23  33  48  76 108 140 175 213 259 310
#     4  10  19  34  54  74 100 137 181 219 256 306
#     4  12  23  33  48  76 108 140 175 213 259 310
#     4  10  20  34  53  75 103 137 171 210 256 307
#     4   9  18  33  53  74  97 134 181 223 257 299
#
# _framework density 16.198640000000001
#
# number of rings (size 3 to 8) (size 9 to 14) (size 15 to 20)
#    0.000    1.500    3.750    3.375    0.000    1.500 
#    0.000    0.625    0.000    0.000    0.000    0.875 
#    0.000    0.000    0.000    0.000    0.000    0.000 
#
# Total GULP energy -357217.366033 kJ/mol
# GULP energy per Si atom -5581.521344 kJ/mol
# Density = 1.616177 g / cm^3
# Si number density = 16.198640 Si / 1000 Ang^3
#
#
#
# Elastic Constant Matrix: (Units=GPa)
#
#
# Indices 1 2 3 4 5 6 
#
# 1 74.0320 0.3341 30.6780 0.0000 0.0000 0.0000
# 2 0.3341 27.0370 9.2374 0.0000 0.0000 0.0000
# 3 30.6780 9.2374 82.3375 0.0000 0.0000 0.0000
# 4 0.0000 0.0000 0.0000 22.5056 0.0000 0.0000
# 5 0.0000 0.0000 0.0000 0.0000 22.7814 0.0000
# 6 0.0000 0.0000 0.0000 0.0000 0.0000 14.4628
#
#
#
# Elastic Compliance Matrix: (Units=1/GPa)
#
#
# Indices 1 2 3 4 5 6 
#
# 1 0.016069 0.001921 -0.006203 0.000000 0.000000 0.000000
# 2 0.001921 0.038690 -0.005056 0.000000 0.000000 0.000000
# 3 -0.006203 -0.005056 0.015023 0.000000 0.000000 0.000000
# 4 0.000000 0.000000 0.000000 0.044433 0.000000 0.000000
# 5 0.000000 0.000000 0.000000 0.000000 0.043895 0.000000
# 6 0.000000 0.000000 0.000000 0.000000 0.000000 0.069143
#
#
# Mechanical properties :
#
#
# Convention : Reuss Voigt Hill
#
# Bulk Modulus (GPa) = 19.56707 29.32284 24.44495
# Shear Modulus (GPa) = 19.01380 21.49376 20.25378
#
# Velocity S-wave (km/s) = 3.42978 3.64660 3.53985
# Velocity P-wave (km/s) = 5.27164 5.98929 5.64189
#
# Compressibility (1/GPa) = 0.05110628
#
# Stress axis : x y z
#
# Youngs Moduli (GPa) = 62.23029 25.84637 66.56257
#
# Poissons Ratio (x) = -0.04964 0.41287
# Poissons Ratio (y) = -0.11952 0.33656
# Poissons Ratio (z) = 0.38600 0.13069
#
# Static dielectric constant tensor:
#      x y z
#    x 1.544790 0.000000 0.000000 
#    y 0.000000 1.541170 0.000000 
#    z 0.000000 0.000000 1.539600 
# 
# From -- ./inp_files/32710.got.cif
#   From: 2010.05.17/outbox.cif.g08.bks.cpg/sg62_17_cif.got.tgz:32710.got - 2010.06.03 15:25:27.
