data_PCOD9463512
_publ_section_title
;
Structure prediction by ZEFSAII (Michael W. Deem and Ramdas Pophale) SiO2 
 PCOD9463512
Probable space group: P N M A
;
_chemical_formula_sum "Si O2"
_cell_formula_units_Z 56
_cell_length_a 22.069226
_cell_length_b 7.654221
_cell_length_c 15.287660
_cell_angle_alpha 90.000000
_cell_angle_beta 90.000000
_cell_angle_gamma 90.000000
_cell_volume 2582.433310
_symmetry_space_group_name_H-M "P N M A"
_symmetry_group_IT_number 62
_symmetry_cell_setting 'orthorhombic'
loop_
_space_group_symop_operation_xyz
x,y,z
1/2-x,-y,1/2+z
1/2+x,1/2-y,1/2-z
-x,1/2+y,-z
-x,-y,-z
1/2+x,y,1/2-z
1/2-x,1/2+y,1/2+z
x,1/2-y,z
loop_
_atom_site_type_symbol
_atom_site_label
_atom_site_fract_x
_atom_site_fract_y
_atom_site_fract_z
Si Si1 0.850926 0.551532 0.565734
Si Si2 0.735115 0.464507 0.315697
Si Si3 0.659117 0.546634 0.683431
Si Si4 0.774358 0.945274 0.013800
Si Si5 0.971060 0.036774 0.234857
Si Si6 0.554096 0.542689 0.934382
Si Si7 0.897236 0.538401 0.748808
O O1 0.831214 0.750000 0.584342
O O2 0.790913 0.440931 0.559675
O O3 0.886771 0.542732 0.475593
O O4 0.894463 0.498107 0.645156
O O5 0.737063 0.250000 0.313418
O O6 0.789825 0.524716 0.251641
O O7 0.738097 0.520285 0.417243
O O8 0.668039 0.519691 0.284156
O O9 0.653761 0.750000 0.708120
O O10 0.682988 0.535470 0.584485
O O11 0.590766 0.473777 0.689409
O O12 0.798553 0.750000 0.000890
O O13 0.973161 0.250000 0.227742
O O14 0.961128 0.990547 0.336479
O O15 0.039106 0.974982 0.211003
O O16 0.564283 0.750000 0.933954
O O17 0.500000 0.500000 0.000000
O O18 0.897779 0.750000 0.757109
#
# Coordination Sequence:
#
# PCOD9463512 Si02
#       7
#     8   8   8   8   8   8   8
#     4  11  20  34  56  79 107 146 188 228 278 339
#     4   9  18  34  56  78 107 149 189 223 274 343
#     4  10  19  36  59  81 107 145 188 229 274 335
#     4  11  22  36  56  84 112 141 184 239 291 333
#     4   9  18  32  53  79 109 146 189 229 269 331
#     4  11  20  32  51  81 115 146 183 228 281 340
#     4   9  16  31  55  79 101 138 189 224 255 323
#
# _framework density 21.684975999999999
#
# number of rings (size 3 to 8) (size 9 to 14) (size 15 to 20)
#    0.000    2.000    2.857    2.143    0.000    2.286 
#    0.000    5.000    0.000    0.000    0.000    0.000 
#    0.000    0.000    0.000    0.000    0.000    0.000 
#
# Total GULP energy -312335.971807 kJ/mol
# GULP energy per Si atom -5577.428068 kJ/mol
# Density = 2.163562 g / cm^3
# Si number density = 21.684976 Si / 1000 Ang^3
#
#
#
# Elastic Constant Matrix: (Units=GPa)
#
#
# Indices 1 2 3 4 5 6 
#
# 1 140.1050 8.4544 19.9043 0.0000 0.0000 0.0000
# 2 8.4544 38.2721 3.8749 0.0000 0.0000 0.0000
# 3 19.9043 3.8749 53.4310 0.0000 0.0000 0.0000
# 4 0.0000 0.0000 0.0000 18.1757 0.0000 0.0000
# 5 0.0000 0.0000 0.0000 0.0000 34.4664 0.0000
# 6 0.0000 0.0000 0.0000 0.0000 0.0000 5.9594
#
#
#
# Elastic Compliance Matrix: (Units=1/GPa)
#
#
# Indices 1 2 3 4 5 6 
#
# 1 0.007611 -0.001404 -0.002733 0.000000 0.000000 0.000000
# 2 -0.001404 0.026581 -0.001405 0.000000 0.000000 0.000000
# 3 -0.002733 -0.001405 0.019836 0.000000 0.000000 0.000000
# 4 0.000000 0.000000 0.000000 0.055018 0.000000 0.000000
# 5 0.000000 0.000000 0.000000 0.000000 0.029014 0.000000
# 6 0.000000 0.000000 0.000000 0.000000 0.000000 0.167803
#
#
# Mechanical properties :
#
#
# Convention : Reuss Voigt Hill
#
# Bulk Modulus (GPa) = 23.28667 32.91946 28.10307
# Shear Modulus (GPa) = 15.09384 25.02528 20.05956
#
# Velocity S-wave (km/s) = 2.64114 3.40080 3.04475
# Velocity P-wave (km/s) = 4.47915 5.53483 5.03473
#
# Compressibility (1/GPa) = 0.04294302
#
# Stress axis : x y z
#
# Youngs Moduli (GPa) = 131.39641 37.62067 50.41390
#
# Poissons Ratio (x) = 0.05284 0.13779
# Poissons Ratio (y) = 0.18454 0.07081
# Poissons Ratio (z) = 0.35914 0.05284
#
# Static dielectric constant tensor:
#      x y z
#    x 1.811760 0.000000 0.000000 
#    y 0.000000 1.807090 0.000000 
#    z 0.000000 0.000000 1.783870 
# 
# From -- ./inp_files/20237.got.cif
#   From: 2010.05.17/outbox.cif.g08.bks.cpg/sg62_11_cif.got.tgz:20237.got - 2010.06.03 15:25:27.
