data_PCOD9463005
_publ_section_title
;
Structure prediction by ZEFSAII (Michael W. Deem and Ramdas Pophale) SiO2 
 PCOD9463005
Probable space group: P N M A
;
_chemical_formula_sum "Si O2"
_cell_formula_units_Z 56
_cell_length_a 14.654885
_cell_length_b 8.948290
_cell_length_c 19.855424
_cell_angle_alpha 90.000000
_cell_angle_beta 90.000000
_cell_angle_gamma 90.000000
_cell_volume 2603.764076
_symmetry_space_group_name_H-M "P N M A"
_symmetry_group_IT_number 62
_symmetry_cell_setting 'orthorhombic'
loop_
_space_group_symop_operation_xyz
x,y,z
1/2-x,-y,1/2+z
1/2+x,1/2-y,1/2-z
-x,1/2+y,-z
-x,-y,-z
1/2+x,y,1/2-z
1/2-x,1/2+y,1/2+z
x,1/2-y,z
loop_
_atom_site_type_symbol
_atom_site_label
_atom_site_fract_x
_atom_site_fract_y
_atom_site_fract_z
Si Si1 0.727846 0.572322 0.147815
Si Si2 0.780181 0.070033 0.496774
Si Si3 0.070831 0.431037 0.708111
Si Si4 0.949648 0.572461 0.437210
Si Si5 0.444969 0.572676 0.355438
Si Si6 0.108454 0.072027 0.083004
Si Si7 0.272555 0.571199 0.714452
O O1 0.714991 0.750000 0.158898
O O2 0.692716 0.485573 0.212867
O O3 0.836946 0.543765 0.141065
O O4 0.692255 0.535350 0.073467
O O5 0.790619 0.250000 0.487162
O O6 0.675755 0.032588 0.478378
O O7 0.845784 0.980853 0.447357
O O8 0.077647 0.250000 0.709415
O O9 0.021950 0.473308 0.638428
O O10 0.172949 0.496861 0.706514
O O11 0.028041 0.477525 0.779395
O O12 0.958442 0.750000 0.441889
O O13 0.000000 0.500000 0.500000
O O14 0.456811 0.750000 0.360600
O O15 0.509602 0.499388 0.410338
O O16 0.097851 0.250000 0.081965
O O17 0.164025 0.030406 0.151240
O O18 0.262991 0.750000 0.714806
#
# Coordination Sequence:
#
# PCOD9463005 Si02
#       7
#     8   8   8   8   8   8   8
#     4   9  20  38  58  80 112 153 192 232 281 341
#     4  10  21  40  60  80 114 155 192 234 289 344
#     4   9  19  37  57  78 107 144 187 229 279 340
#     4  11  23  38  59  86 116 150 192 238 287 345
#     4   9  19  35  55  81 109 144 190 233 275 331
#     4  10  21  35  54  83 114 147 187 232 288 339
#     4  10  19  33  56  82 109 142 185 237 286 336
#
# _framework density 21.507324000000001
#
# number of rings (size 3 to 8) (size 9 to 14) (size 15 to 20)
#    0.000    2.286    1.429    1.714    0.000    6.857 
#    0.000    4.286    0.000    0.000    0.000    0.000 
#    0.000    0.000    0.000    0.000    0.000    0.000 
#
# Total GULP energy -312691.794581 kJ/mol
# GULP energy per Si atom -5583.782046 kJ/mol
# Density = 2.145837 g / cm^3
# Si number density = 21.507324 Si / 1000 Ang^3
#
#
#
# Elastic Constant Matrix: (Units=GPa)
#
#
# Indices 1 2 3 4 5 6 
#
# 1 25.0813 3.8771 2.1344 0.0000 0.0000 0.0000
# 2 3.8771 -1.8042 14.8227 0.0000 0.0000 0.0000
# 3 2.1344 14.8227 86.7615 0.0000 0.0000 0.0000
# 4 0.0000 0.0000 0.0000 24.3296 0.0000 0.0000
# 5 0.0000 0.0000 0.0000 0.0000 31.9675 0.0000
# 6 0.0000 0.0000 0.0000 0.0000 0.0000 21.6507
#
#
#
# Elastic Compliance Matrix: (Units=1/GPa)
#
#
# Indices 1 2 3 4 5 6 
#
# 1 0.035876 0.029058 -0.005847 0.000000 0.000000 0.000000
# 2 0.029058 -0.207062 0.034660 0.000000 0.000000 0.000000
# 3 -0.005847 0.034660 0.005748 0.000000 0.000000 0.000000
# 4 0.000000 0.000000 0.000000 0.041102 0.000000 0.000000
# 5 0.000000 0.000000 0.000000 0.000000 0.031282 0.000000
# 6 0.000000 0.000000 0.000000 0.000000 0.000000 0.046188
#
#
# Mechanical properties :
#
#
# Convention : Reuss Voigt Hill
#
# Bulk Modulus (GPa) = -20.12280 16.85631 -1.63325
# Shear Modulus (GPa) = -27.90577 21.53654 -3.18462
#
# Velocity S-wave (km/s) = -3.60599 3.16786 -1.21817
# Velocity P-wave (km/s) = 5.16857 4.60814 1.65518
#
# Compressibility (1/GPa) = -0.04969487
#
# Stress axis : x y z
#
# Youngs Moduli (GPa) = 27.87372 -4.82946 173.96848
#
# Poissons Ratio (x) = 0.14033 1.01719
# Poissons Ratio (y) = -0.80996 -6.02983
# Poissons Ratio (z) = 0.16298 0.16739
#
# Static dielectric constant tensor:
#      x y z
#    x 1.828040 0.000000 0.000000 
#    y 0.000000 1.712190 0.000000 
#    z 0.000000 0.000000 1.848210 
# 
# From -- ./inp_files/27122.got.cif
#   From: 2010.05.17/outbox.cif.g08.bks.cpg/sg62_14_cif.got.tgz:27122.got - 2010.06.03 15:25:27.
