data_PCOD9463897
_publ_section_title
;
Structure prediction by ZEFSAII (Michael W. Deem and Ramdas Pophale) SiO2 
 PCOD9463897
Probable space group: P N M A
;
_chemical_formula_sum "Si O2"
_cell_formula_units_Z 64
_cell_length_a 23.776828
_cell_length_b 8.859656
_cell_length_c 19.426574
_cell_angle_alpha 90.000000
_cell_angle_beta 90.000000
_cell_angle_gamma 90.000000
_cell_volume 4092.295560
_symmetry_space_group_name_H-M "P N M A"
_symmetry_group_IT_number 62
_symmetry_cell_setting 'orthorhombic'
loop_
_space_group_symop_operation_xyz
x,y,z
1/2-x,-y,1/2+z
1/2+x,1/2-y,1/2-z
-x,1/2+y,-z
-x,-y,-z
1/2+x,y,1/2-z
1/2-x,1/2+y,1/2+z
x,1/2-y,z
loop_
_atom_site_type_symbol
_atom_site_label
_atom_site_fract_x
_atom_site_fract_y
_atom_site_fract_z
Si Si1 0.250264 0.070315 0.498764
Si Si2 0.117319 0.068702 0.497547
Si Si3 0.227414 0.429899 0.856214
Si Si4 0.660978 0.569811 0.765447
Si Si5 0.834547 0.569345 0.721203
Si Si6 0.434212 0.069366 0.859939
Si Si7 0.065112 0.068471 0.645568
Si Si8 0.270287 0.929877 0.642705
O O1 0.255023 0.250000 0.490952
O O2 0.183557 0.031462 0.498897
O O3 0.277940 0.988527 0.433807
O O4 0.274712 0.017395 0.571603
O O5 0.112296 0.250000 0.488883
O O6 0.089039 0.027063 0.570104
O O7 0.087329 0.988470 0.433920
O O8 0.229560 0.250000 0.853856
O O9 0.179275 0.491910 0.805523
O O10 0.285756 0.497648 0.826202
O O11 0.660688 0.750000 0.756617
O O12 0.603325 0.510560 0.797334
O O13 0.710885 0.533186 0.820093
O O14 0.832591 0.750000 0.712046
O O15 0.893651 0.504930 0.696518
O O16 0.817355 0.535483 0.799877
O O17 0.428938 0.250000 0.857238
O O18 0.499501 0.029223 0.850192
O O19 0.070833 0.250000 0.652207
O O20 0.270849 0.750000 0.629798
#
# Coordination Sequence:
#
# PCOD9463897 Si02
#       8
#     8   8   8   8   8   8   8   8
#     4  11  20  31  51  76 102 133 167 205 249 302
#     4  10  20  33  48  68 101 139 174 211 247 289
#     4  11  21  33  52  73 100 132 165 207 254 301
#     4  10  20  34  52  74  99 130 169 210 253 300
#     4  10  20  35  51  71 100 131 169 212 253 299
#     4  11  22  33  50  73 100 136 177 214 249 295
#     4  10  21  36  50  71 101 136 177 213 250 295
#     4   9  19  33  50  72  98 128 164 207 252 301
#
# _framework density 15.639143000000001
#
# number of rings (size 3 to 8) (size 9 to 14) (size 15 to 20)
#    0.000    1.750    2.500    3.750    0.000    4.500 
#    0.000    0.000    0.000    0.000    0.000    0.875 
#    0.000    0.000    0.000    0.000    0.000    0.000 
#
# Total GULP energy -357376.280753 kJ/mol
# GULP energy per Si atom -5584.004387 kJ/mol
# Density = 1.560355 g / cm^3
# Si number density = 15.639143 Si / 1000 Ang^3
#
#
#
# Elastic Constant Matrix: (Units=GPa)
#
#
# Indices 1 2 3 4 5 6 
#
# 1 89.5326 43.4683 65.0796 0.0000 0.0000 0.0000
# 2 43.4683 60.1200 61.5968 0.0000 0.0000 0.0000
# 3 65.0796 61.5968 127.9124 0.0000 0.0000 0.0000
# 4 0.0000 0.0000 0.0000 29.8572 0.0000 0.0000
# 5 0.0000 0.0000 0.0000 0.0000 20.4201 0.0000
# 6 0.0000 0.0000 0.0000 0.0000 0.0000 23.0821
#
#
#
# Elastic Compliance Matrix: (Units=1/GPa)
#
#
# Indices 1 2 3 4 5 6 
#
# 1 0.019383 -0.007719 -0.006145 0.000000 0.000000 0.000000
# 2 -0.007719 0.035906 -0.013364 0.000000 0.000000 0.000000
# 3 -0.006145 -0.013364 0.017379 0.000000 0.000000 0.000000
# 4 0.000000 0.000000 0.000000 0.033493 0.000000 0.000000
# 5 0.000000 0.000000 0.000000 0.000000 0.048971 0.000000
# 6 0.000000 0.000000 0.000000 0.000000 0.000000 0.043324
#
#
# Mechanical properties :
#
#
# Convention : Reuss Voigt Hill
#
# Bulk Modulus (GPa) = 54.90141 68.65049 61.77595
# Shear Modulus (GPa) = 19.30635 21.83324 20.56980
#
# Velocity S-wave (km/s) = 3.51734 3.74045 3.63061
# Velocity P-wave (km/s) = 7.18867 7.91495 7.56054
#
# Compressibility (1/GPa) = 0.01821447
#
# Stress axis : x y z
#
# Youngs Moduli (GPa) = 51.59127 27.85044 57.53915
#
# Poissons Ratio (x) = 0.21497 0.35357
# Poissons Ratio (y) = 0.39822 0.76893
# Poissons Ratio (z) = 0.31702 0.37218
#
# Static dielectric constant tensor:
#      x y z
#    x 1.501630 0.000000 0.000000 
#    y 0.000000 1.518140 0.000000 
#    z 0.000000 0.000000 1.511410 
# 
# From -- ./inp_files/24699.got.cif
#   From: 2010.05.17/outbox.cif.g08.bks.cpg/sg62_13_cif.got.tgz:24699.got - 2010.06.03 15:25:27.
