data_PCOD9463576
_publ_section_title
;
Structure prediction by ZEFSAII (Michael W. Deem and Ramdas Pophale) SiO2 
 PCOD9463576
Probable space group: P N M A
;
_chemical_formula_sum "Si O2"
_cell_formula_units_Z 64
_cell_length_a 20.735058
_cell_length_b 7.786999
_cell_length_c 16.517276
_cell_angle_alpha 90.000000
_cell_angle_beta 90.000000
_cell_angle_gamma 90.000000
_cell_volume 2666.943402
_symmetry_space_group_name_H-M "P N M A"
_symmetry_group_IT_number 62
_symmetry_cell_setting 'orthorhombic'
loop_
_space_group_symop_operation_xyz
x,y,z
1/2-x,-y,1/2+z
1/2+x,1/2-y,1/2-z
-x,1/2+y,-z
-x,-y,-z
1/2+x,y,1/2-z
1/2-x,1/2+y,1/2+z
x,1/2-y,z
loop_
_atom_site_type_symbol
_atom_site_label
_atom_site_fract_x
_atom_site_fract_y
_atom_site_fract_z
Si Si1 0.940323 0.539392 0.685202
Si Si2 0.414036 0.452552 0.163788
Si Si3 0.357193 0.449346 0.321987
Si Si4 0.575686 0.453257 0.008761
Si Si5 0.769435 0.057406 0.609652
Si Si6 0.794100 0.540037 0.955094
Si Si7 0.826627 0.547560 0.781021
Si Si8 0.069117 0.454342 0.963641
O O1 0.941481 0.750000 0.685608
O O2 0.906394 0.490668 0.599214
O O3 0.898552 0.478896 0.761079
O O4 0.013717 0.477386 0.678495
O O5 0.418679 0.250000 0.179733
O O6 0.366974 0.518263 0.232151
O O7 0.393154 0.472985 0.071619
O O8 0.335757 0.250000 0.321094
O O9 0.306418 0.562562 0.368818
O O10 0.421725 0.461535 0.375184
O O11 0.582032 0.250000 0.005668
O O12 0.500000 0.500000 0.000000
O O13 0.795095 0.250000 0.604262
O O14 0.760753 0.976249 0.519360
O O15 0.794136 0.971678 0.692782
O O16 0.788215 0.750000 0.957921
O O17 0.790930 0.481059 0.861148
O O18 0.867495 0.492728 0.983342
O O19 0.833264 0.750000 0.796371
O O20 0.071917 0.250000 0.956065
O O21 0.000000 0.500000 0.000000
#
# Coordination Sequence:
#
# PCOD9463576 Si02
#       8
#     8   8   8   8   8   8   8   8
#     4   8  16  30  51  78 106 136 177 225 269 318
#     4   9  18  32  52  79 108 141 182 224 271 330
#     4  10  20  35  57  81 107 145 189 228 274 337
#     4   9  16  29  47  70 105 143 176 215 266 317
#     4  10  21  40  57  78 113 144 180 235 289 333
#     4   8  18  36  59  80 107 147 187 229 281 337
#     4  10  19  36  62  83 104 143 192 232 275 336
#     4  10  20  34  54  84 119 152 185 225 279 338
#
# _framework density 23.997510999999999
#
# number of rings (size 3 to 8) (size 9 to 14) (size 15 to 20)
#    0.000    2.750    0.000    3.000    1.750    1.000 
#    2.250    6.875    0.000    0.000    0.000    0.000 
#    0.000    0.000    0.000    0.000    0.000    0.000 
#
# Total GULP energy -356741.752337 kJ/mol
# GULP energy per Si atom -5574.089880 kJ/mol
# Density = 2.394289 g / cm^3
# Si number density = 23.997511 Si / 1000 Ang^3
#
#
#
# Elastic Constant Matrix: (Units=GPa)
#
#
# Indices 1 2 3 4 5 6 
#
# 1 29.3030 6.3022 21.8211 0.0000 0.0000 0.0000
# 2 6.3022 48.2521 1.2374 0.0000 0.0000 0.0000
# 3 21.8211 1.2374 150.3153 0.0000 0.0000 0.0000
# 4 0.0000 0.0000 0.0000 21.7618 0.0000 0.0000
# 5 0.0000 0.0000 0.0000 0.0000 21.0280 0.0000
# 6 0.0000 0.0000 0.0000 0.0000 0.0000 22.3335
#
#
#
# Elastic Compliance Matrix: (Units=1/GPa)
#
#
# Indices 1 2 3 4 5 6 
#
# 1 0.039435 -0.005005 -0.005684 0.000000 0.000000 0.000000
# 2 -0.005005 0.021364 0.000551 0.000000 0.000000 0.000000
# 3 -0.005684 0.000551 0.007473 0.000000 0.000000 0.000000
# 4 0.000000 0.000000 0.000000 0.045952 0.000000 0.000000
# 5 0.000000 0.000000 0.000000 0.000000 0.047556 0.000000
# 6 0.000000 0.000000 0.000000 0.000000 0.000000 0.044776
#
#
# Mechanical properties :
#
#
# Convention : Reuss Voigt Hill
#
# Bulk Modulus (GPa) = 20.83470 31.84353 26.33911
# Shear Modulus (GPa) = 20.59052 26.25864 23.42458
#
# Velocity S-wave (km/s) = 2.93239 3.31149 3.12769
# Velocity P-wave (km/s) = 4.49067 5.28390 4.90335
#
# Compressibility (1/GPa) = 0.04799685
#
# Stress axis : x y z
#
# Youngs Moduli (GPa) = 25.35819 46.80756 133.81111
#
# Poissons Ratio (x) = 0.23427 0.76052
# Poissons Ratio (y) = 0.12691 -0.07369
# Poissons Ratio (z) = 0.14412 -0.02578
#
# Static dielectric constant tensor:
#      x y z
#    x 2.013760 0.000000 0.000000 
#    y 0.000000 1.863340 0.000000 
#    z 0.000000 0.000000 2.060920 
# 
# From -- ./inp_files/20909.got.cif
#   From: 2010.05.17/outbox.cif.g08.bks.cpg/sg62_11_cif.got.tgz:20909.got - 2010.06.03 15:25:27.
