data_PCOD9463376
_publ_section_title
;
Structure prediction by ZEFSAII (Michael W. Deem and Ramdas Pophale) SiO2 
 PCOD9463376
Probable space group: P N M A
;
_chemical_formula_sum "Si O2"
_cell_formula_units_Z 64
_cell_length_a 19.983461
_cell_length_b 7.901619
_cell_length_c 20.708111
_cell_angle_alpha 90.000000
_cell_angle_beta 90.000000
_cell_angle_gamma 90.000000
_cell_volume 3269.845830
_symmetry_space_group_name_H-M "P N M A"
_symmetry_group_IT_number 62
_symmetry_cell_setting 'orthorhombic'
loop_
_space_group_symop_operation_xyz
x,y,z
1/2-x,-y,1/2+z
1/2+x,1/2-y,1/2-z
-x,1/2+y,-z
-x,-y,-z
1/2+x,y,1/2-z
1/2-x,1/2+y,1/2+z
x,1/2-y,z
loop_
_atom_site_type_symbol
_atom_site_label
_atom_site_fract_x
_atom_site_fract_y
_atom_site_fract_z
Si Si1 0.780878 0.549166 0.142349
Si Si2 0.753414 0.045346 0.282522
Si Si3 0.404502 0.453521 0.183036
Si Si4 0.967312 0.451532 0.932245
Si Si5 0.569872 0.453950 0.675018
Si Si6 0.065865 0.545975 0.539798
Si Si7 0.816516 0.547649 0.907283
Si Si8 0.709132 0.957845 0.013156
O O1 0.787967 0.750000 0.132044
O O2 0.744637 0.519807 0.210347
O O3 0.856745 0.481306 0.151956
O O4 0.739117 0.483428 0.081560
O O5 0.753099 0.250000 0.279440
O O6 0.827092 0.992094 0.307767
O O7 0.700355 0.985553 0.335383
O O8 0.404101 0.250000 0.180555
O O9 0.440143 0.503509 0.249744
O O10 0.433021 0.515192 0.114511
O O11 0.967167 0.250000 0.927575
O O12 0.891249 0.510374 0.928491
O O13 0.012620 0.518057 0.873037
O O14 0.000000 0.500000 0.000000
O O15 0.571866 0.250000 0.670627
O O16 0.069064 0.750000 0.542245
O O17 0.134168 0.487250 0.504694
O O18 0.000000 0.500000 0.500000
O O19 0.808546 0.750000 0.905685
O O20 0.761014 0.486169 0.957859
O O21 0.708185 0.750000 0.013560
#
# Coordination Sequence:
#
# PCOD9463376 Si02
#       8
#     8   8   8   8   8   8   8   8
#     4   9  17  31  54  79 103 136 176 217 258 309
#     4   9  17  32  54  78 103 134 173 217 264 315
#     4   9  17  33  57  80 103 138 183 223 263 318
#     4  11  23  38  55  80 113 146 183 224 271 325
#     4   9  19  35  54  79 109 143 181 219 263 318
#     4  10  20  36  56  79 106 139 181 224 271 327
#     4  10  19  35  59  80 104 142 183 222 268 324
#     4   9  17  34  58  79 103 141 182 215 265 331
#
# _framework density 19.572789
#
# number of rings (size 3 to 8) (size 9 to 14) (size 15 to 20)
#    0.000    2.500    1.250    1.125    0.000    4.000 
#    2.250    4.375    0.000    0.000    0.000    0.000 
#    0.000    0.000    0.000    0.000    0.000    0.000 
#
# Total GULP energy -357035.881849 kJ/mol
# GULP energy per Si atom -5578.685654 kJ/mol
# Density = 1.952824 g / cm^3
# Si number density = 19.572789 Si / 1000 Ang^3
#
#
#
# Elastic Constant Matrix: (Units=GPa)
#
#
# Indices 1 2 3 4 5 6 
#
# 1 135.5247 0.1841 93.7863 0.0000 0.0000 0.0000
# 2 0.1841 12.2240 4.1985 0.0000 0.0000 0.0000
# 3 93.7863 4.1985 165.5641 0.0000 0.0000 0.0000
# 4 0.0000 0.0000 0.0000 25.4186 0.0000 0.0000
# 5 0.0000 0.0000 0.0000 0.0000 35.0346 0.0000
# 6 0.0000 0.0000 0.0000 0.0000 0.0000 19.6939
#
#
#
# Elastic Compliance Matrix: (Units=1/GPa)
#
#
# Indices 1 2 3 4 5 6 
#
# 1 0.012195 0.002208 -0.006964 0.000000 0.000000 0.000000
# 2 0.002208 0.082925 -0.003354 0.000000 0.000000 0.000000
# 3 -0.006964 -0.003354 0.010070 0.000000 0.000000 0.000000
# 4 0.000000 0.000000 0.000000 0.039341 0.000000 0.000000
# 5 0.000000 0.000000 0.000000 0.000000 0.028543 0.000000
# 6 0.000000 0.000000 0.000000 0.000000 0.000000 0.050777
#
#
# Mechanical properties :
#
#
# Convention : Reuss Voigt Hill
#
# Bulk Modulus (GPa) = 11.23968 56.62785 33.93377
# Shear Modulus (GPa) = 18.53725 30.37236 24.45480
#
# Velocity S-wave (km/s) = 3.08083 3.94352 3.53856
# Velocity P-wave (km/s) = 4.29072 7.05194 5.83696
#
# Compressibility (1/GPa) = 0.08897052
#
# Stress axis : x y z
#
# Youngs Moduli (GPa) = 82.00063 12.05913 99.30578
#
# Poissons Ratio (x) = -0.02663 0.69157
# Poissons Ratio (y) = -0.18108 0.33305
# Poissons Ratio (z) = 0.57106 0.04044
#
# Static dielectric constant tensor:
#      x y z
#    x 1.658580 0.000000 0.000000 
#    y 0.000000 1.720980 0.000000 
#    z 0.000000 0.000000 1.681310 
# 
# From -- ./inp_files/27684.got.cif
#   From: 2010.05.17/outbox.cif.g08.bks.cpg/sg62_14_cif.got.tgz:27684.got - 2010.06.03 15:25:27.
