data_PCOD9463468
_publ_section_title
;
Structure prediction by ZEFSAII (Michael W. Deem and Ramdas Pophale) SiO2 
 PCOD9463468
Probable space group: P N M A
;
_chemical_formula_sum "Si O2"
_cell_formula_units_Z 56
_cell_length_a 8.568344
_cell_length_b 15.481100
_cell_length_c 19.130848
_cell_angle_alpha 90.000000
_cell_angle_beta 90.000000
_cell_angle_gamma 90.000000
_cell_volume 2537.657061
_symmetry_space_group_name_H-M "P N M A"
_symmetry_group_IT_number 62
_symmetry_cell_setting 'orthorhombic'
loop_
_space_group_symop_operation_xyz
x,y,z
1/2-x,-y,1/2+z
1/2+x,1/2-y,1/2-z
-x,1/2+y,-z
-x,-y,-z
1/2+x,y,1/2-z
1/2-x,1/2+y,1/2+z
x,1/2-y,z
loop_
_atom_site_type_symbol
_atom_site_label
_atom_site_fract_x
_atom_site_fract_y
_atom_site_fract_z
Si Si1 0.513164 0.409239 0.898557
Si Si2 0.180994 0.846830 0.523139
Si Si3 0.292547 0.475041 0.527768
Si Si4 0.197766 0.010616 0.293961
Si Si5 0.878905 0.750000 0.341996
Si Si6 0.836851 0.851277 0.593503
Si Si7 0.035769 0.936923 0.166054
Si Si8 0.910301 0.250000 0.769906
O O1 0.615914 0.475588 0.941075
O O2 0.432566 0.452468 0.833162
O O3 0.641913 0.336469 0.882833
O O4 0.387124 0.362339 0.945663
O O5 0.242645 0.750000 0.532579
O O6 0.019938 0.851896 0.569554
O O7 0.311913 0.921206 0.525554
O O8 0.263136 0.414414 0.459458
O O9 0.416600 0.443514 0.584997
O O10 0.178974 0.104604 0.329912
O O11 0.160648 0.992872 0.212586
O O12 0.367023 0.975439 0.315346
O O13 0.775592 0.750000 0.274210
O O14 0.049856 0.750000 0.311007
O O15 0.788743 0.750000 0.590481
O O16 0.039503 0.837934 0.192305
#
# Coordination Sequence:
#
# PCOD9463468 Si02
#       8
#     8   8   8   8   4   8   8   4
#     4  11  19  36  62  89 128 161 204 258 310 380
#     4  10  19  35  66 100 123 161 214 264 320 385
#     4  11  21  41  64  99 128 169 210 270 328 383
#     4  12  24  45  61  95 130 175 217 267 330 387
#     4  12  22  34  60  86 132 158 211 245 310 390
#     4  10  22  40  71  96 130 177 224 267 324 391
#     4  12  27  39  67  89 136 171 211 273 333 390
#     4  12  24  38  54  96 122 170 205 251 326 400
#
# _framework density 22.067598
#
# number of rings (size 3 to 8) (size 9 to 14) (size 15 to 20)
#    0.000    0.857    6.429    2.571    2.000    0.571 
#    0.000    2.143    0.000    0.000    0.000    0.000 
#    0.000    0.000    0.000    0.000    0.000    0.000 
#
# Total GULP energy -312189.227198 kJ/mol
# GULP energy per Si atom -5574.807629 kJ/mol
# Density = 2.201737 g / cm^3
# Si number density = 22.067598 Si / 1000 Ang^3
#
#
#
# Elastic Constant Matrix: (Units=GPa)
#
#
# Indices 1 2 3 4 5 6 
#
# 1 45.7211 15.1944 11.5676 0.0000 0.0000 0.0000
# 2 15.1944 159.2429 26.8170 0.0000 0.0000 0.0000
# 3 11.5676 26.8170 59.2146 0.0000 0.0000 0.0000
# 4 0.0000 0.0000 0.0000 0.2598 0.0000 0.0000
# 5 0.0000 0.0000 0.0000 0.0000 21.2351 0.0000
# 6 0.0000 0.0000 0.0000 0.0000 0.0000 14.4135
#
#
#
# Elastic Compliance Matrix: (Units=1/GPa)
#
#
# Indices 1 2 3 4 5 6 
#
# 1 0.023371 -0.001582 -0.003849 0.000000 0.000000 0.000000
# 2 -0.001582 0.006905 -0.002818 0.000000 0.000000 0.000000
# 3 -0.003849 -0.002818 0.018916 0.000000 0.000000 0.000000
# 4 0.000000 0.000000 0.000000 3.849365 0.000000 0.000000
# 5 0.000000 0.000000 0.000000 0.000000 0.047092 0.000000
# 6 0.000000 0.000000 0.000000 0.000000 0.000000 0.069380
#
#
# Mechanical properties :
#
#
# Convention : Reuss Voigt Hill
#
# Bulk Modulus (GPa) = 30.58664 41.25961 35.92312
# Shear Modulus (GPa) = 1.23688 21.22166 11.22927
#
# Velocity S-wave (km/s) = 0.74948 3.10444 2.25823
# Velocity P-wave (km/s) = 3.82616 5.62028 4.80765
#
# Compressibility (1/GPa) = 0.03269402
#
# Stress axis : x y z
#
# Youngs Moduli (GPa) = 42.78759 144.81754 52.86533
#
# Poissons Ratio (x) = 0.22907 0.20349
# Poissons Ratio (y) = 0.06768 0.14899
# Poissons Ratio (z) = 0.16470 0.40813
#
# Static dielectric constant tensor:
#      x y z
#    x 1.829290 0.000000 0.000000 
#    y 0.000000 2.058890 0.000000 
#    z 0.000000 0.000000 1.846320 
# 
# From -- ./inp_files/26030.got.cif
#   From: 2010.05.17/outbox.cif.g08.bks.cpg/sg62_14_cif.got.tgz:26030.got - 2010.06.03 15:25:27.
