data_PCOD9463581
_publ_section_title
;
Structure prediction by ZEFSAII (Michael W. Deem and Ramdas Pophale) SiO2 
 PCOD9463581
Probable space group: P N M A
;
_chemical_formula_sum "Si O2"
_cell_formula_units_Z 64
_cell_length_a 12.837207
_cell_length_b 9.238151
_cell_length_c 28.352615
_cell_angle_alpha 90.000000
_cell_angle_beta 90.000000
_cell_angle_gamma 90.000000
_cell_volume 3362.394925
_symmetry_space_group_name_H-M "P N M A"
_symmetry_group_IT_number 62
_symmetry_cell_setting 'orthorhombic'
loop_
_space_group_symop_operation_xyz
x,y,z
1/2-x,-y,1/2+z
1/2+x,1/2-y,1/2-z
-x,1/2+y,-z
-x,-y,-z
1/2+x,y,1/2-z
1/2-x,1/2+y,1/2+z
x,1/2-y,z
loop_
_atom_site_type_symbol
_atom_site_label
_atom_site_fract_x
_atom_site_fract_y
_atom_site_fract_z
Si Si1 0.950870 0.924507 0.387154
Si Si2 0.290723 0.080239 0.043694
Si Si3 0.832271 0.419368 0.562672
Si Si4 0.415895 0.418072 0.563474
Si Si5 0.121556 0.923141 0.910132
Si Si6 0.365094 0.580082 0.210566
Si Si7 0.368682 0.086689 0.675158
Si Si8 0.934656 0.079578 0.197916
O O1 0.934453 0.750000 0.390328
O O2 0.941253 0.965271 0.332139
O O3 0.063245 0.958326 0.409215
O O4 0.861012 0.002806 0.417048
O O5 0.275536 0.250000 0.054892
O O6 0.178522 0.002828 0.038942
O O7 0.348330 0.068891 0.993460
O O8 0.807952 0.250000 0.572800
O O9 0.733438 0.516415 0.575426
O O10 0.076718 0.750000 0.048520
O O11 0.527099 0.498371 0.562093
O O12 0.382753 0.420333 0.618836
O O13 0.113854 0.750000 0.916171
O O14 0.106510 0.958114 0.854427
O O15 0.382248 0.750000 0.219559
O O16 0.249533 0.562396 0.189706
O O17 0.377668 0.496521 0.259012
O O18 0.398754 0.250000 0.689810
O O19 0.446291 0.973578 0.698253
O O20 0.927461 0.250000 0.203159
#
# Coordination Sequence:
#
# PCOD9463581 Si02
#       8
#     8   8   8   8   8   8   8   8
#     4  10  21  40  61  84 116 153 200 245 284 341
#     4  11  22  36  58  90 120 151 193 240 298 352
#     4  10  23  40  59  84 119 160 197 238 290 351
#     4  10  19  36  62  86 112 149 194 240 286 341
#     4  10  22  40  59  83 117 154 195 243 295 351
#     4  10  20  36  59  86 111 145 196 239 279 339
#     4   9  18  35  57  80 107 144 189 234 279 332
#     4  10  22  37  55  84 117 148 184 233 296 350
#
# _framework density 19.034053
#
# number of rings (size 3 to 8) (size 9 to 14) (size 15 to 20)
#    0.000    2.000    1.250    1.875    0.000    6.000 
#    0.000    3.750    0.000    0.000    0.000    0.000 
#    0.000    0.000    0.000    0.000    0.000    0.000 
#
# Total GULP energy -357433.594703 kJ/mol
# GULP energy per Si atom -5584.899917 kJ/mol
# Density = 1.899073 g / cm^3
# Si number density = 19.034053 Si / 1000 Ang^3
#
#
#
# Elastic Constant Matrix: (Units=GPa)
#
#
# Indices 1 2 3 4 5 6 
#
# 1 69.4984 33.2927 15.8505 0.0000 0.0000 0.0000
# 2 33.2927 52.6191 25.0104 0.0000 0.0000 0.0000
# 3 15.8505 25.0104 48.3455 0.0000 0.0000 0.0000
# 4 0.0000 0.0000 0.0000 27.2547 0.0000 0.0000
# 5 0.0000 0.0000 0.0000 0.0000 25.3268 0.0000
# 6 0.0000 0.0000 0.0000 0.0000 0.0000 27.8217
#
#
#
# Elastic Compliance Matrix: (Units=1/GPa)
#
#
# Indices 1 2 3 4 5 6 
#
# 1 0.020647 -0.013056 -0.000015 0.000000 0.000000 0.000000
# 2 -0.013056 0.033458 -0.013028 0.000000 0.000000 0.000000
# 3 -0.000015 -0.013028 0.027429 0.000000 0.000000 0.000000
# 4 0.000000 0.000000 0.000000 0.036691 0.000000 0.000000
# 5 0.000000 0.000000 0.000000 0.000000 0.039484 0.000000
# 6 0.000000 0.000000 0.000000 0.000000 0.000000 0.035943
#
#
# Mechanical properties :
#
#
# Convention : Reuss Voigt Hill
#
# Bulk Modulus (GPa) = 34.08869 35.41892 34.75380
# Shear Modulus (GPa) = 19.55963 22.50125 21.03044
#
# Velocity S-wave (km/s) = 3.20912 3.44198 3.32759
# Velocity P-wave (km/s) = 5.62845 5.86898 5.74997
#
# Compressibility (1/GPa) = 0.02933525
#
# Stress axis : x y z
#
# Youngs Moduli (GPa) = 48.43360 29.88836 36.45775
#
# Poissons Ratio (x) = 0.39024 0.00054
# Poissons Ratio (y) = 0.63237 0.47497
# Poissons Ratio (z) = 0.00072 0.38938
#
# Static dielectric constant tensor:
#      x y z
#    x 1.634320 0.000000 0.000000 
#    y 0.000000 1.647890 0.000000 
#    z 0.000000 0.000000 1.669990 
# 
# From -- ./inp_files/32591.got.cif
#   From: 2010.05.17/outbox.cif.g08.bks.cpg/sg62_17_cif.got.tgz:32591.got - 2010.06.03 15:25:27.
