data_PCOD9463839
_publ_section_title
;
Structure prediction by ZEFSAII (Michael W. Deem and Ramdas Pophale) SiO2 
 PCOD9463839
Probable space group: P N M A
;
_chemical_formula_sum "Si O2"
_cell_formula_units_Z 64
_cell_length_a 30.942949
_cell_length_b 8.956748
_cell_length_c 14.675347
_cell_angle_alpha 90.000000
_cell_angle_beta 90.000000
_cell_angle_gamma 90.000000
_cell_volume 4067.245955
_symmetry_space_group_name_H-M "P N M A"
_symmetry_group_IT_number 62
_symmetry_cell_setting 'orthorhombic'
loop_
_space_group_symop_operation_xyz
x,y,z
1/2-x,-y,1/2+z
1/2+x,1/2-y,1/2-z
-x,1/2+y,-z
-x,-y,-z
1/2+x,y,1/2-z
1/2-x,1/2+y,1/2+z
x,1/2-y,z
loop_
_atom_site_type_symbol
_atom_site_label
_atom_site_fract_x
_atom_site_fract_y
_atom_site_fract_z
Si Si1 0.449608 0.426802 0.403440
Si Si2 0.824785 0.579450 0.983105
Si Si3 0.630273 0.573418 0.315625
Si Si4 0.265907 0.925808 0.003153
Si Si5 0.797031 0.572474 0.696237
Si Si6 0.287728 0.928635 0.209689
Si Si7 0.629305 0.423177 0.678710
Si Si8 0.549599 0.072587 0.397373
O O1 0.444337 0.250000 0.417402
O O2 0.414796 0.485849 0.331350
O O3 0.443019 0.507646 0.500928
O O4 0.499276 0.455425 0.375416
O O5 0.826914 0.750000 0.948817
O O6 0.776086 0.528907 0.999944
O O7 0.849581 0.572506 0.078286
O O8 0.845506 0.470285 0.909487
O O9 0.627723 0.750000 0.305246
O O10 0.660530 0.502542 0.238337
O O11 0.582962 0.502549 0.328134
O O12 0.252912 0.750000 0.000635
O O13 0.293120 0.953890 0.912083
O O14 0.287749 0.951296 0.101036
O O15 0.798110 0.750000 0.712154
O O16 0.754073 0.506581 0.745346
O O17 0.283798 0.750000 0.227319
O O18 0.332850 0.978998 0.254504
O O19 0.619909 0.250000 0.701050
O O20 0.557142 0.250000 0.400177
#
# Coordination Sequence:
#
# PCOD9463839 Si02
#       8
#     8   8   8   8   8   8   8   8
#     4  10  20  32  50  74 102 133 165 204 251 301
#     4  11  20  30  48  74 102 135 170 208 249 290
#     4  12  23  34  50  72  99 137 173 207 250 299
#     4  10  21  35  51  71 100 135 172 211 250 293
#     4  11  22  34  50  74 100 132 170 210 251 296
#     4  10  20  35  51  71  99 135 172 208 246 293
#     4  10  20  32  49  72 103 139 172 206 246 294
#     4  10  20  34  50  72 101 132 166 206 250 300
#
# _framework density 15.735464
#
# number of rings (size 3 to 8) (size 9 to 14) (size 15 to 20)
#    0.000    1.500    3.750    2.625    0.000    3.000 
#    0.000    0.000    0.000    0.000    0.000    0.875 
#    0.000    0.000    0.000    0.000    0.000    0.000 
#
# Total GULP energy -357222.640735 kJ/mol
# GULP energy per Si atom -5581.603761 kJ/mol
# Density = 1.569965 g / cm^3
# Si number density = 15.735464 Si / 1000 Ang^3
#
#
#
# Elastic Constant Matrix: (Units=GPa)
#
#
# Indices 1 2 3 4 5 6 
#
# 1 126.9388 64.9510 42.8705 0.0000 0.0000 0.0000
# 2 64.9510 76.6677 36.6226 0.0000 0.0000 0.0000
# 3 42.8705 36.6226 68.7315 0.0000 0.0000 0.0000
# 4 0.0000 0.0000 0.0000 15.0197 0.0000 0.0000
# 5 0.0000 0.0000 0.0000 0.0000 22.6368 0.0000
# 6 0.0000 0.0000 0.0000 0.0000 0.0000 24.7166
#
#
#
# Elastic Compliance Matrix: (Units=1/GPa)
#
#
# Indices 1 2 3 4 5 6 
#
# 1 0.014456 -0.010650 -0.003342 0.000000 0.000000 0.000000
# 2 -0.010650 0.025343 -0.006861 0.000000 0.000000 0.000000
# 3 -0.003342 -0.006861 0.020289 0.000000 0.000000 0.000000
# 4 0.000000 0.000000 0.000000 0.066579 0.000000 0.000000
# 5 0.000000 0.000000 0.000000 0.000000 0.044176 0.000000
# 6 0.000000 0.000000 0.000000 0.000000 0.000000 0.040459
#
#
# Mechanical properties :
#
#
# Convention : Reuss Voigt Hill
#
# Bulk Modulus (GPa) = 54.39883 62.35849 58.37866
# Shear Modulus (GPa) = 19.29490 21.00088 20.14789
#
# Velocity S-wave (km/s) = 3.50552 3.65721 3.58217
# Velocity P-wave (km/s) = 7.14358 7.58610 7.36816
#
# Compressibility (1/GPa) = 0.01838275
#
# Stress axis : x y z
#
# Youngs Moduli (GPa) = 69.17570 39.45817 49.28672
#
# Poissons Ratio (x) = 0.42025 0.16471
# Poissons Ratio (y) = 0.73675 0.33814
# Poissons Ratio (z) = 0.23117 0.27071
#
# Static dielectric constant tensor:
#      x y z
#    x 1.534190 0.000000 0.000000 
#    y 0.000000 1.534180 0.000000 
#    z 0.000000 0.000000 1.514100 
# 
# From -- ./inp_files/21259.got.cif
#   From: 2010.05.17/outbox.cif.g08.bks.cpg/sg62_11_cif.got.tgz:21259.got - 2010.06.03 15:25:27.
