data_PCOD9463958
_publ_section_title
;
Structure prediction by ZEFSAII (Michael W. Deem and Ramdas Pophale) SiO2 
 PCOD9463958
Probable space group: P N M A
;
_chemical_formula_sum "Si O2"
_cell_formula_units_Z 24
_cell_length_a 13.705155
_cell_length_b 9.368772
_cell_length_c 8.014872
_cell_angle_alpha 90.000000
_cell_angle_beta 90.000000
_cell_angle_gamma 90.000000
_cell_volume 1029.113351
_symmetry_space_group_name_H-M "P N M A"
_symmetry_group_IT_number 62
_symmetry_cell_setting 'orthorhombic'
loop_
_space_group_symop_operation_xyz
x,y,z
1/2-x,-y,1/2+z
1/2+x,1/2-y,1/2-z
-x,1/2+y,-z
-x,-y,-z
1/2+x,y,1/2-z
1/2-x,1/2+y,1/2+z
x,1/2-y,z
loop_
_atom_site_type_symbol
_atom_site_label
_atom_site_fract_x
_atom_site_fract_y
_atom_site_fract_z
Si Si1 0.762889 0.411027 0.023855
Si Si2 0.605215 0.914593 0.859687
Si Si3 0.456410 0.082038 0.660013
O O1 0.722618 0.250000 0.014550
O O2 0.676564 0.521924 0.998715
O O3 0.841137 0.429646 0.873528
O O4 0.826827 0.420130 0.191876
O O5 0.579629 0.750000 0.891182
O O6 0.510721 0.008175 0.814261
O O7 0.480837 0.250000 0.655272
O O8 0.500000 0.000000 0.500000
#
# Coordination Sequence:
#
# PCOD9463958 Si02
#       3
#     8   8   8
#     4   9  19  34  51  74 101 129 164 205 247 293
#     4  10  20  33  52  77 101 130 168 206 248 297
#     4   9  17  31  51  73  99 131 167 205 245 294
#
# _framework density 23.321045999999999
#
# number of rings (size 3 to 8) (size 9 to 14) (size 15 to 20)
#    0.000    2.667    0.000    4.000    0.000    8.000 
#    0.000    1.667    0.000    0.000    0.000    0.000 
#    0.000    0.000    0.000    0.000    0.000    0.000 
#
# Total GULP energy -134147.807049 kJ/mol
# GULP energy per Si atom -5589.491960 kJ/mol
# Density = 2.326797 g / cm^3
# Si number density = 23.321046 Si / 1000 Ang^3
#
#
#
# Elastic Constant Matrix: (Units=GPa)
#
#
# Indices 1 2 3 4 5 6 
#
# 1 74.1185 79.8522 12.5380 0.0000 0.0000 0.0000
# 2 79.8522 157.0165 17.1940 0.0000 0.0000 0.0000
# 3 12.5380 17.1940 86.4312 0.0000 0.0000 0.0000
# 4 0.0000 0.0000 0.0000 18.6246 0.0000 0.0000
# 5 0.0000 0.0000 0.0000 0.0000 44.6250 0.0000
# 6 0.0000 0.0000 0.0000 0.0000 0.0000 33.7217
#
#
#
# Elastic Compliance Matrix: (Units=1/GPa)
#
#
# Indices 1 2 3 4 5 6 
#
# 1 0.029995 -0.015107 -0.001346 0.000000 0.000000 0.000000
# 2 -0.015107 0.014119 -0.000617 0.000000 0.000000 0.000000
# 3 -0.001346 -0.000617 0.011888 0.000000 0.000000 0.000000
# 4 0.000000 0.000000 0.000000 0.053692 0.000000 0.000000
# 5 0.000000 0.000000 0.000000 0.000000 0.022409 0.000000
# 6 0.000000 0.000000 0.000000 0.000000 0.000000 0.029655
#
#
# Mechanical properties :
#
#
# Convention : Reuss Voigt Hill
#
# Bulk Modulus (GPa) = 45.74170 59.63719 52.68944
# Shear Modulus (GPa) = 24.60803 33.25974 28.93389
#
# Velocity S-wave (km/s) = 3.25189 3.78056 3.52615
# Velocity P-wave (km/s) = 5.81001 6.68466 6.26262
#
# Compressibility (1/GPa) = 0.02186189
#
# Stress axis : x y z
#
# Youngs Moduli (GPa) = 33.33868 70.82591 84.11889
#
# Poissons Ratio (x) = 1.06996 0.11322
# Poissons Ratio (y) = 0.50365 0.05193
# Poissons Ratio (z) = 0.04487 0.04372
#
# Static dielectric constant tensor:
#      x y z
#    x 1.858100 0.000000 0.000000 
#    y 0.000000 1.862100 0.000000 
#    z 0.000000 0.000000 1.984740 
# 
# From -- ./inp_files/4703.got.cif
#   From: 2010.05.17/outbox.cif.g08.bks.cpg/sg62_3_cif.got.tgz:4703.got - 2010.06.03 15:25:27.
