data_PCOD9463057
_publ_section_title
;
Structure prediction by ZEFSAII (Michael W. Deem and Ramdas Pophale) SiO2 
 PCOD9463057
Probable space group: P N M A
;
_chemical_formula_sum "Si O2"
_cell_formula_units_Z 36
_cell_length_a 8.470823
_cell_length_b 15.762893
_cell_length_c 12.152931
_cell_angle_alpha 90.000000
_cell_angle_beta 90.000000
_cell_angle_gamma 90.000000
_cell_volume 1622.716181
_symmetry_space_group_name_H-M "P N M A"
_symmetry_group_IT_number 62
_symmetry_cell_setting 'orthorhombic'
loop_
_space_group_symop_operation_xyz
x,y,z
1/2-x,-y,1/2+z
1/2+x,1/2-y,1/2-z
-x,1/2+y,-z
-x,-y,-z
1/2+x,y,1/2-z
1/2-x,1/2+y,1/2+z
x,1/2-y,z
loop_
_atom_site_type_symbol
_atom_site_label
_atom_site_fract_x
_atom_site_fract_y
_atom_site_fract_z
Si Si1 0.015103 0.605386 0.636379
Si Si2 0.248681 0.250000 0.207456
Si Si3 0.536934 0.069243 0.594695
Si Si4 0.767973 0.001090 0.777678
Si Si5 0.846727 0.750000 0.541920
Si Si6 0.978524 0.750000 0.996860
O O1 0.134687 0.671745 0.690866
O O2 0.142533 0.528817 0.628191
O O3 0.885696 0.569698 0.723103
O O4 0.941303 0.659744 0.534382
O O5 0.182925 0.250000 0.328000
O O6 0.104276 0.250000 0.122219
O O7 0.672182 0.034673 0.673755
O O8 0.379713 0.070781 0.668460
O O9 0.575715 0.161637 0.549487
O O10 0.500000 0.000000 0.500000
O O11 0.669764 0.750000 0.496426
#
# Coordination Sequence:
#
# PCOD9463057 Si02
#       6
#     8   4   8   8   4   4
#     4  10  19  33  60  91 128 168 209 262 351 384
#     4  11  21  32  61  96 135 165 209 290 347 400
#     4  11  25  45  72  97 135 178 230 272 336 405
#     4  10  22  42  64  96 132 180 218 277 326 393
#     4  11  21  32  61  96 135 165 209 290 347 400
#     4  12  26  44  64  98 130 182 228 266 340 400
#
# _framework density 22.185026000000001
#
# number of rings (size 3 to 8) (size 9 to 14) (size 15 to 20)
#    0.000    1.333    2.222    4.000    6.222    0.889 
#    0.000   24.444    0.000    0.000    0.000    0.000 
#    0.000    0.000    0.000    0.000    0.000    0.000 
#
# Total GULP energy -200688.441003 kJ/mol
# GULP energy per Si atom -5574.678917 kJ/mol
# Density = 2.213453 g / cm^3
# Si number density = 22.185026 Si / 1000 Ang^3
#
#
#
# Elastic Constant Matrix: (Units=GPa)
#
#
# Indices 1 2 3 4 5 6 
#
# 1 81.7671 5.5839 2.8812 0.0000 0.0000 0.0000
# 2 5.5839 99.8288 22.2186 0.0000 0.0000 0.0000
# 3 2.8812 22.2186 49.9358 0.0000 0.0000 0.0000
# 4 0.0000 0.0000 0.0000 -3.1938 0.0000 0.0000
# 5 0.0000 0.0000 0.0000 0.0000 26.0776 0.0000
# 6 0.0000 0.0000 0.0000 0.0000 0.0000 20.6265
#
#
#
# Elastic Compliance Matrix: (Units=1/GPa)
#
#
# Indices 1 2 3 4 5 6 
#
# 1 0.012286 -0.000588 -0.000447 0.000000 0.000000 0.000000
# 2 -0.000588 0.011146 -0.004926 0.000000 0.000000 0.000000
# 3 -0.000447 -0.004926 0.022243 0.000000 0.000000 0.000000
# 4 0.000000 0.000000 0.000000 -0.313104 0.000000 0.000000
# 5 0.000000 0.000000 0.000000 0.000000 0.038347 0.000000
# 6 0.000000 0.000000 0.000000 0.000000 0.000000 0.048481
#
#
# Mechanical properties :
#
#
# Convention : Reuss Voigt Hill
#
# Bulk Modulus (GPa) = 29.62612 32.54433 31.08523
# Shear Modulus (GPa) = -31.76056 22.09193 -4.83431
#
# Velocity S-wave (km/s) = -3.78778 3.15906 -1.47777
# Velocity P-wave (km/s) = 2.39721 5.29222 3.33624
#
# Compressibility (1/GPa) = 0.03375400
#
# Stress axis : x y z
#
# Youngs Moduli (GPa) = 81.39514 89.71591 44.95769
#
# Poissons Ratio (x) = 0.05272 0.02011
# Poissons Ratio (y) = 0.04783 0.22144
# Poissons Ratio (z) = 0.03642 0.44190
#
# Static dielectric constant tensor:
#      x y z
#    x 1.866830 0.000000 0.000000 
#    y 0.000000 2.218880 0.000000 
#    z 0.000000 0.000000 1.797750 
# 
# From -- ./inp_files/16629.got.cif
#   From: 2010.05.17/outbox.cif.g08.bks.cpg/sg62_9_cif.got.tgz:16629.got - 2010.06.03 15:25:27.
