data_PCOD9463127
_publ_section_title
;
Structure prediction by ZEFSAII (Michael W. Deem and Ramdas Pophale) SiO2 
 PCOD9463127
Probable space group: P N M A
;
_chemical_formula_sum "Si O2"
_cell_formula_units_Z 64
_cell_length_a 29.401800
_cell_length_b 7.846097
_cell_length_c 12.429301
_cell_angle_alpha 90.000000
_cell_angle_beta 90.000000
_cell_angle_gamma 90.000000
_cell_volume 2867.307677
_symmetry_space_group_name_H-M "P N M A"
_symmetry_group_IT_number 62
_symmetry_cell_setting 'orthorhombic'
loop_
_space_group_symop_operation_xyz
x,y,z
1/2-x,-y,1/2+z
1/2+x,1/2-y,1/2-z
-x,1/2+y,-z
-x,-y,-z
1/2+x,y,1/2-z
1/2-x,1/2+y,1/2+z
x,1/2-y,z
loop_
_atom_site_type_symbol
_atom_site_label
_atom_site_fract_x
_atom_site_fract_y
_atom_site_fract_z
Si Si1 0.448671 0.947434 0.626995
Si Si2 0.592801 0.042381 0.589863
Si Si3 0.930391 0.941818 0.488879
Si Si4 0.190044 0.049370 0.862366
Si Si5 0.472310 0.048724 0.223671
Si Si6 0.289745 0.044153 0.909147
Si Si7 0.617321 0.552204 0.198708
Si Si8 0.161484 0.954242 0.625557
O O1 0.461272 0.750000 0.609704
O O2 0.437988 0.020249 0.509501
O O3 0.487665 0.027475 0.701933
O O4 0.403741 0.956703 0.700173
O O5 0.592803 0.250000 0.589663
O O6 0.644944 0.982507 0.577811
O O7 0.572149 0.984020 0.703246
O O8 0.937771 0.750000 0.525323
O O9 0.967835 0.985694 0.398664
O O10 0.917622 0.042391 0.597162
O O11 0.884266 0.961229 0.418896
O O12 0.192907 0.250000 0.888896
O O13 0.239985 0.974889 0.882288
O O14 0.177843 0.026711 0.737689
O O15 0.478953 0.250000 0.214157
O O16 0.289550 0.250000 0.893200
O O17 0.333775 0.983543 0.841667
O O18 0.301255 0.014870 0.033531
O O19 0.622204 0.750000 0.227682
O O20 0.153535 0.750000 0.633215
#
# Coordination Sequence:
#
# PCOD9463127 Si02
#       8
#     8   8   8   8   8   8   8   8
#     4  10  23  40  57  83 119 157 194 237 292 353
#     4  10  21  37  58  84 116 153 196 238 284 345
#     4  11  21  36  60  85 112 148 191 239 290 350
#     4  10  19  34  57  83 112 149 190 235 285 340
#     4  11  22  37  59  85 116 151 192 244 293 344
#     4   8  18  35  54  79 112 148 185 229 287 340
#     4  10  21  39  60  83 115 155 195 242 292 345
#     4  10  19  34  55  81 113 147 188 238 286 337
#
# _framework density 22.320588999999998
#
# number of rings (size 3 to 8) (size 9 to 14) (size 15 to 20)
#    0.000    2.000    1.250    3.375    0.000    3.000 
#    0.000    5.000    0.000    0.000    0.000    0.000 
#    0.000    0.000    0.000    0.000    0.000    0.000 
#
# Total GULP energy -357374.794233 kJ/mol
# GULP energy per Si atom -5583.981160 kJ/mol
# Density = 2.226979 g / cm^3
# Si number density = 22.320589 Si / 1000 Ang^3
#
#
#
# Elastic Constant Matrix: (Units=GPa)
#
#
# Indices 1 2 3 4 5 6 
#
# 1 90.1136 -2.5950 15.5563 0.0000 0.0000 0.0000
# 2 -2.5950 35.4130 -11.0312 0.0000 0.0000 0.0000
# 3 15.5563 -11.0312 75.3521 0.0000 0.0000 0.0000
# 4 0.0000 0.0000 0.0000 18.9743 0.0000 0.0000
# 5 0.0000 0.0000 0.0000 0.0000 27.3108 0.0000
# 6 0.0000 0.0000 0.0000 0.0000 0.0000 11.6777
#
#
#
# Elastic Compliance Matrix: (Units=1/GPa)
#
#
# Indices 1 2 3 4 5 6 
#
# 1 0.011508 0.000108 -0.002360 0.000000 0.000000 0.000000
# 2 0.000108 0.029588 0.004309 0.000000 0.000000 0.000000
# 3 -0.002360 0.004309 0.014389 0.000000 0.000000 0.000000
# 4 0.000000 0.000000 0.000000 0.052703 0.000000 0.000000
# 5 0.000000 0.000000 0.000000 0.000000 0.036616 0.000000
# 6 0.000000 0.000000 0.000000 0.000000 0.000000 0.085634
#
#
# Mechanical properties :
#
#
# Convention : Reuss Voigt Hill
#
# Bulk Modulus (GPa) = 16.77843 22.74875 19.76359
# Shear Modulus (GPa) = 20.30961 24.85579 22.58270
#
# Velocity S-wave (km/s) = 3.01974 3.34066 3.18424
# Velocity P-wave (km/s) = 4.43754 5.00938 4.73211
#
# Compressibility (1/GPa) = 0.05960035
#
# Stress axis : x y z
#
# Youngs Moduli (GPa) = 86.89904 33.79692 69.49709
#
# Poissons Ratio (x) = -0.00366 0.16401
# Poissons Ratio (y) = -0.00940 -0.29948
# Poissons Ratio (z) = 0.20507 -0.14564
#
# Static dielectric constant tensor:
#      x y z
#    x 1.894790 0.000000 0.000000 
#    y 0.000000 1.795300 0.000000 
#    z 0.000000 0.000000 1.788150 
# 
# From -- ./inp_files/15815.got.cif
#   From: 2010.05.17/outbox.cif.g08.bks.cpg/sg62_8_cif.got.tgz:15815.got - 2010.06.03 15:25:27.
