data_PCOD9463850
_publ_section_title
;
Structure prediction by ZEFSAII (Michael W. Deem and Ramdas Pophale) SiO2 
 PCOD9463850
Probable space group: P N M A
;
_chemical_formula_sum "Si O2"
_cell_formula_units_Z 64
_cell_length_a 14.923563
_cell_length_b 24.784490
_cell_length_c 8.544503
_cell_angle_alpha 90.000000
_cell_angle_beta 90.000000
_cell_angle_gamma 90.000000
_cell_volume 3160.380086
_symmetry_space_group_name_H-M "P N M A"
_symmetry_group_IT_number 62
_symmetry_cell_setting 'orthorhombic'
loop_
_space_group_symop_operation_xyz
x,y,z
1/2-x,-y,1/2+z
1/2+x,1/2-y,1/2-z
-x,1/2+y,-z
-x,-y,-z
1/2+x,y,1/2-z
1/2-x,1/2+y,1/2+z
x,1/2-y,z
loop_
_atom_site_type_symbol
_atom_site_label
_atom_site_fract_x
_atom_site_fract_y
_atom_site_fract_z
Si Si1 0.661672 0.596743 0.770909
Si Si2 0.560231 0.513434 0.150801
Si Si3 0.761369 0.119727 0.936701
Si Si4 0.447910 0.375148 0.691301
Si Si5 0.235275 0.020787 0.784529
Si Si6 0.379323 0.813082 0.232150
Si Si7 0.308962 0.616807 0.505620
Si Si8 0.480822 0.914860 0.645988
O O1 0.709778 0.619121 0.615681
O O2 0.680227 0.532251 0.759526
O O3 0.711185 0.618946 0.921729
O O4 0.556708 0.608361 0.760440
O O5 0.548960 0.576091 0.187299
O O6 0.667762 0.504748 0.144788
O O7 0.530022 0.476195 0.296901
O O8 0.500000 0.500000 0.000000
O O9 0.846380 0.143198 0.839702
O O10 0.752627 0.059147 0.865991
O O11 0.671770 0.152376 0.900044
O O12 0.517732 0.330330 0.744691
O O13 0.480979 0.402360 0.527063
O O14 0.186104 0.060973 0.905673
O O15 0.369037 0.750000 0.208811
O O16 0.332498 0.834706 0.391360
O O17 0.382826 0.611285 0.641439
#
# Coordination Sequence:
#
# PCOD9463850 Si02
#       8
#     8   8   8   8   8   8   8   8
#     4  11  20  32  55  79 114 149 178 220 271 330
#     4  11  21  31  49  82 117 151 178 218 269 328
#     4   9  21  36  53  83 111 141 186 227 269 327
#     4   9  21  36  55  79 110 142 188 224 267 335
#     4  10  20  32  49  79 118 151 180 209 268 331
#     4  10  22  40  62  78 101 144 191 237 284 320
#     4  10  21  37  53  79 113 146 184 228 269 333
#     4  10  21  33  52  77 111 156 182 211 267 326
#
# _framework density 20.250727999999999
#
# number of rings (size 3 to 8) (size 9 to 14) (size 15 to 20)
#    0.000    2.000    1.250    1.875   10.500    0.500 
#    0.000    0.625    0.000    3.000    0.000    0.000 
#    0.000    0.000    0.000    0.000    0.000    0.000 
#
# Total GULP energy -357426.948181 kJ/mol
# GULP energy per Si atom -5584.796065 kJ/mol
# Density = 2.020464 g / cm^3
# Si number density = 20.250728 Si / 1000 Ang^3
#
#
#
# Elastic Constant Matrix: (Units=GPa)
#
#
# Indices 1 2 3 4 5 6 
#
# 1 66.3273 -0.8583 -7.2156 0.0000 0.0000 0.0000
# 2 -0.8583 35.3661 -1.3706 0.0000 0.0000 0.0000
# 3 -7.2156 -1.3706 24.5111 0.0000 0.0000 0.0000
# 4 0.0000 0.0000 0.0000 7.8198 0.0000 0.0000
# 5 0.0000 0.0000 0.0000 0.0000 25.7484 0.0000
# 6 0.0000 0.0000 0.0000 0.0000 0.0000 17.2526
#
#
#
# Elastic Compliance Matrix: (Units=1/GPa)
#
#
# Indices 1 2 3 4 5 6 
#
# 1 0.015587 0.000557 0.004620 0.000000 0.000000 0.000000
# 2 0.000557 0.028357 0.001750 0.000000 0.000000 0.000000
# 3 0.004620 0.001750 0.042256 0.000000 0.000000 0.000000
# 4 0.000000 0.000000 0.000000 0.127880 0.000000 0.000000
# 5 0.000000 0.000000 0.000000 0.000000 0.038837 0.000000
# 6 0.000000 0.000000 0.000000 0.000000 0.000000 0.057962
#
#
# Mechanical properties :
#
#
# Convention : Reuss Voigt Hill
#
# Bulk Modulus (GPa) = 9.99479 11.92395 10.95937
# Shear Modulus (GPa) = 15.13426 19.20743 17.17085
#
# Velocity S-wave (km/s) = 2.73672 3.08308 2.91505
# Velocity P-wave (km/s) = 3.86425 4.30985 4.09312
#
# Compressibility (1/GPa) = 0.10005214
#
# Stress axis : x y z
#
# Youngs Moduli (GPa) = 64.15806 35.26466 23.66549
#
# Poissons Ratio (x) = -0.01965 -0.10932
# Poissons Ratio (y) = -0.03576 -0.04141
# Poissons Ratio (z) = -0.29638 -0.06170
#
# Static dielectric constant tensor:
#      x y z
#    x 1.782360 0.000000 0.000000 
#    y 0.000000 1.655850 0.000000 
#    z 0.000000 0.000000 1.756060 
# 
# From -- ./inp_files/6942.got.cif
#   From: 2010.05.17/outbox.cif.g08.bks.cpg/sg62_4_cif.got.tgz:6942.got - 2010.06.03 15:25:27.
