data_PCOD9463888
_publ_section_title
;
Structure prediction by ZEFSAII (Michael W. Deem and Ramdas Pophale) SiO2 
 PCOD9463888
Probable space group: P N M A
;
_chemical_formula_sum "Si O2"
_cell_formula_units_Z 40
_cell_length_a 5.092802
_cell_length_b 16.636601
_cell_length_c 31.196972
_cell_angle_alpha 90.000000
_cell_angle_beta 90.000000
_cell_angle_gamma 90.000000
_cell_volume 2643.223190
_symmetry_space_group_name_H-M "P N M A"
_symmetry_group_IT_number 62
_symmetry_cell_setting 'orthorhombic'
loop_
_space_group_symop_operation_xyz
x,y,z
1/2-x,-y,1/2+z
1/2+x,1/2-y,1/2-z
-x,1/2+y,-z
-x,-y,-z
1/2+x,y,1/2-z
1/2-x,1/2+y,1/2+z
x,1/2-y,z
loop_
_atom_site_type_symbol
_atom_site_label
_atom_site_fract_x
_atom_site_fract_y
_atom_site_fract_z
Si Si1 0.383664 0.154908 0.510414
Si Si2 0.706865 0.406399 0.083313
Si Si3 0.203886 0.153991 0.131257
Si Si4 0.905919 0.152323 0.275207
Si Si5 0.093177 0.938650 0.462805
O O1 0.417573 0.250000 0.513746
O O2 0.303166 0.132118 0.461658
O O3 0.648908 0.108165 0.522146
O O4 0.148803 0.122510 0.540671
O O5 0.433932 0.366875 0.097780
O O6 0.660116 0.501228 0.075842
O O7 0.934395 0.387518 0.117256
O O8 0.159269 0.250000 0.131965
O O9 0.308728 0.127962 0.177892
O O10 0.693799 0.126841 0.239590
O O11 0.909670 0.250000 0.275891
O O12 0.000000 0.000000 0.500000
#
# Coordination Sequence:
#
# PCOD9463888 Si02
#       5
#     8   8   8   8   8
#     4  11  20  32  48  64  83 113 153 188 217 254
#     4  11  20  31  44  63  88 112 143 187 227 253
#     4  11  20  29  44  65  85 112 151 187 217 247
#     4   9  17  29  42  57  81 111 143 178 211 248
#     4  10  20  33  45  61  86 116 143 178 227 270
#
# _framework density 15.133041
#
# number of rings (size 3 to 8) (size 9 to 14) (size 15 to 20)
#    0.000    1.600    0.000    9.600    0.000    3.200 
#    0.000    0.000    0.000    0.000    0.000    0.000 
#    0.000    0.000    0.000    0.000    0.000  252.000 
#
# Total GULP energy -223212.921502 kJ/mol
# GULP energy per Si atom -5580.323038 kJ/mol
# Density = 1.509860 g / cm^3
# Si number density = 15.133041 Si / 1000 Ang^3
#
#
#
# Elastic Constant Matrix: (Units=GPa)
#
#
# Indices 1 2 3 4 5 6 
#
# 1 74.4427 16.5953 2.5609 0.0000 0.0000 0.0000
# 2 16.5953 65.6566 17.8245 0.0000 0.0000 0.0000
# 3 2.5609 17.8245 27.1624 0.0000 0.0000 0.0000
# 4 0.0000 0.0000 0.0000 7.4569 0.0000 0.0000
# 5 0.0000 0.0000 0.0000 0.0000 14.8181 0.0000
# 6 0.0000 0.0000 0.0000 0.0000 0.0000 30.8190
#
#
#
# Elastic Compliance Matrix: (Units=1/GPa)
#
#
# Indices 1 2 3 4 5 6 
#
# 1 0.014270 -0.003944 0.001243 0.000000 0.000000 0.000000
# 2 -0.003944 0.019623 -0.012505 0.000000 0.000000 0.000000
# 3 0.001243 -0.012505 0.044904 0.000000 0.000000 0.000000
# 4 0.000000 0.000000 0.000000 0.134103 0.000000 0.000000
# 5 0.000000 0.000000 0.000000 0.000000 0.067485 0.000000
# 6 0.000000 0.000000 0.000000 0.000000 0.000000 0.032448
#
#
# Mechanical properties :
#
#
# Convention : Reuss Voigt Hill
#
# Bulk Modulus (GPa) = 20.66788 26.80258 23.73523
# Shear Modulus (GPa) = 13.91311 19.30419 16.60865
#
# Velocity S-wave (km/s) = 3.03543 3.57547 3.31646
# Velocity P-wave (km/s) = 5.09629 5.89874 5.51214
#
# Compressibility (1/GPa) = 0.04838426
#
# Stress axis : x y z
#
# Youngs Moduli (GPa) = 70.07875 50.96183 22.26952
#
# Poissons Ratio (x) = 0.20100 -0.02768
# Poissons Ratio (y) = 0.27640 0.27848
# Poissons Ratio (z) = -0.08710 0.63727
#
# Static dielectric constant tensor:
#      x y z
#    x 1.521600 0.000000 0.000000 
#    y 0.000000 1.497340 0.000000 
#    z 0.000000 0.000000 1.520060 
# 
# From -- ./inp_files/30324.got.cif
#   From: 2010.05.17/outbox.cif.g08.bks.cpg/sg62_16_cif.got.tgz:30324.got - 2010.06.03 15:25:27.
