data_PCOD9463083
_publ_section_title
;
Structure prediction by ZEFSAII (Michael W. Deem and Ramdas Pophale) SiO2 
 PCOD9463083
Probable space group: P N M A
;
_chemical_formula_sum "Si O2"
_cell_formula_units_Z 44
_cell_length_a 7.610429
_cell_length_b 19.371129
_cell_length_c 11.221383
_cell_angle_alpha 90.000000
_cell_angle_beta 90.000000
_cell_angle_gamma 90.000000
_cell_volume 1654.285479
_symmetry_space_group_name_H-M "P N M A"
_symmetry_group_IT_number 62
_symmetry_cell_setting 'orthorhombic'
loop_
_space_group_symop_operation_xyz
x,y,z
1/2-x,-y,1/2+z
1/2+x,1/2-y,1/2-z
-x,1/2+y,-z
-x,-y,-z
1/2+x,y,1/2-z
1/2-x,1/2+y,1/2+z
x,1/2-y,z
loop_
_atom_site_type_symbol
_atom_site_label
_atom_site_fract_x
_atom_site_fract_y
_atom_site_fract_z
Si Si1 0.287239 0.133015 0.056084
Si Si2 0.585118 0.250000 0.547444
Si Si3 0.087682 0.250000 0.380787
Si Si4 0.913558 0.250000 0.732266
Si Si5 0.045891 0.106390 0.643227
Si Si6 0.240827 0.608764 0.914032
Si Si7 0.548912 0.538612 0.767233
O O1 0.436387 0.189824 0.094453
O O2 0.293942 0.074773 0.155847
O O3 0.120335 0.181065 0.027505
O O4 0.369689 0.099568 0.937002
O O5 0.406904 0.250000 0.624074
O O6 0.746962 0.250000 0.644249
O O7 0.233991 0.312599 0.368530
O O8 0.021069 0.181059 0.700295
O O9 0.211812 0.106766 0.553560
O O10 0.061611 0.043370 0.732389
O O11 0.390489 0.560645 0.853321
O O12 0.069217 0.572582 0.861752
#
# Coordination Sequence:
#
# PCOD9463083 Si02
#       7
#     8   4   4   4   8   8   8
#     4   8  15  32  53  73  98 134 167 199 240 303
#     4   9  18  33  53  77 100 127 169 207 243 296
#     4   7  14  29  51  71  96 125 165 197 232 290
#     4  10  20  34  54  74  96 136 172 206 247 292
#     4   9  18  34  52  71 100 135 171 200 244 308
#     4  10  19  34  53  76 100 134 168 206 246 295
#     4  10  20  32  53  77 100 132 167 204 252 295
#
# _framework density 26.597586
#
# number of rings (size 3 to 8) (size 9 to 14) (size 15 to 20)
#    0.000    3.273    0.000    5.455    0.000    8.000 
#    0.000    2.727    0.000    0.000    0.000    0.000 
#    0.000    0.000    0.000    0.000    0.000    0.000 
#
# Total GULP energy -244963.657240 kJ/mol
# GULP energy per Si atom -5567.355846 kJ/mol
# Density = 2.653705 g / cm^3
# Si number density = 26.597586 Si / 1000 Ang^3
#
#
#
# Elastic Constant Matrix: (Units=GPa)
#
#
# Indices 1 2 3 4 5 6 
#
# 1 69.2046 13.6121 0.6572 0.0000 0.0000 0.0000
# 2 13.6121 222.8754 41.9008 0.0000 0.0000 0.0000
# 3 0.6572 41.9008 48.1819 0.0000 0.0000 0.0000
# 4 0.0000 0.0000 0.0000 34.8190 0.0000 0.0000
# 5 0.0000 0.0000 0.0000 0.0000 39.4085 0.0000
# 6 0.0000 0.0000 0.0000 0.0000 0.0000 10.4169
#
#
#
# Elastic Compliance Matrix: (Units=1/GPa)
#
#
# Indices 1 2 3 4 5 6 
#
# 1 0.014645 -0.001024 0.000691 0.000000 0.000000 0.000000
# 2 -0.001024 0.005435 -0.004713 0.000000 0.000000 0.000000
# 3 0.000691 -0.004713 0.024844 0.000000 0.000000 0.000000
# 4 0.000000 0.000000 0.000000 0.028720 0.000000 0.000000
# 5 0.000000 0.000000 0.000000 0.000000 0.025375 0.000000
# 6 0.000000 0.000000 0.000000 0.000000 0.000000 0.095998
#
#
# Mechanical properties :
#
#
# Convention : Reuss Voigt Hill
#
# Bulk Modulus (GPa) = 28.70949 50.28911 39.49930
# Shear Modulus (GPa) = 23.07123 35.86834 29.46979
#
# Velocity S-wave (km/s) = 2.94839 3.67625 3.33226
# Velocity P-wave (km/s) = 4.73372 6.08015 5.44869
#
# Compressibility (1/GPa) = 0.03483169
#
# Stress axis : x y z
#
# Youngs Moduli (GPa) = 68.28348 183.97926 40.25157
#
# Poissons Ratio (x) = 0.18846 -0.02782
# Poissons Ratio (y) = 0.06995 0.18970
# Poissons Ratio (z) = -0.04719 0.86707
#
# Static dielectric constant tensor:
#      x y z
#    x 2.249470 0.000000 0.000000 
#    y 0.000000 1.953390 0.000000 
#    z 0.000000 0.000000 2.116460 
# 
# From -- ./inp_files/12357.got.cif
#   From: 2010.05.17/outbox.cif.g08.bks.cpg/sg62_7_cif.got.tgz:12357.got - 2010.06.03 15:25:27.
