data_PCOD9463903
_publ_section_title
;
Structure prediction by ZEFSAII (Michael W. Deem and Ramdas Pophale) SiO2 
 PCOD9463903
Probable space group: P N M A
;
_chemical_formula_sum "Si O2"
_cell_formula_units_Z 64
_cell_length_a 13.533117
_cell_length_b 14.321993
_cell_length_c 17.360642
_cell_angle_alpha 90.000000
_cell_angle_beta 90.000000
_cell_angle_gamma 90.000000
_cell_volume 3364.860586
_symmetry_space_group_name_H-M "P N M A"
_symmetry_group_IT_number 62
_symmetry_cell_setting 'orthorhombic'
loop_
_space_group_symop_operation_xyz
x,y,z
1/2-x,-y,1/2+z
1/2+x,1/2-y,1/2-z
-x,1/2+y,-z
-x,-y,-z
1/2+x,y,1/2-z
1/2-x,1/2+y,1/2+z
x,1/2-y,z
loop_
_atom_site_type_symbol
_atom_site_label
_atom_site_fract_x
_atom_site_fract_y
_atom_site_fract_z
Si Si1 0.416194 0.641537 0.105956
Si Si2 0.118607 0.860537 0.958175
Si Si3 0.703448 0.640720 0.852749
Si Si4 0.303663 0.357467 0.616643
Si Si5 0.184070 0.461683 0.734042
Si Si6 0.397190 0.860536 0.547915
Si Si7 0.292020 0.959726 0.409934
Si Si8 0.892741 0.362611 0.513692
O O1 0.433719 0.750000 0.125756
O O2 0.304055 0.635808 0.074250
O O3 0.405553 0.583171 0.184564
O O4 0.499177 0.613611 0.045516
O O5 0.139709 0.750000 0.950709
O O6 0.196070 0.929192 0.919007
O O7 0.119562 0.882222 0.050432
O O8 0.008750 0.880360 0.927150
O O9 0.694920 0.750000 0.834372
O O10 0.684197 0.571512 0.782893
O O11 0.812278 0.622310 0.888881
O O12 0.629811 0.617354 0.924072
O O13 0.318467 0.250000 0.639914
O O14 0.281966 0.419757 0.691066
O O15 0.184106 0.435119 0.822366
O O16 0.392143 0.750000 0.529905
O O17 0.367881 0.915991 0.471468
O O18 0.187304 0.918266 0.436281
O O19 0.876992 0.250000 0.522077
#
# Coordination Sequence:
#
# PCOD9463903 Si02
#       8
#     8   8   8   8   8   8   8   8
#     4   8  17  34  53  75 103 133 167 208 261 315
#     4  10  20  37  57  78 103 141 184 223 265 307
#     4   9  18  34  54  74  99 136 181 217 252 305
#     4   8  16  32  52  73 101 131 169 214 263 314
#     4  10  20  33  48  76 111 140 163 210 270 318
#     4   9  19  36  59  80 100 136 184 227 263 309
#     4  11  21  33  52  81 110 138 169 222 264 318
#     4   9  18  35  57  77  99 136 180 218 255 306
#
# _framework density 19.020105000000001
#
# number of rings (size 3 to 8) (size 9 to 14) (size 15 to 20)
#    0.750    2.000    0.000    3.000    0.000    3.000 
#    4.500    0.000    0.000    0.000    0.000    0.000 
#    0.000    0.000    0.000    0.000    0.000    0.000 
#
# Total GULP energy -356373.416616 kJ/mol
# GULP energy per Si atom -5568.334635 kJ/mol
# Density = 1.897681 g / cm^3
# Si number density = 19.020105 Si / 1000 Ang^3
#
#
#
# Elastic Constant Matrix: (Units=GPa)
#
#
# Indices 1 2 3 4 5 6 
#
# 1 26.5073 10.9071 -4.2445 0.0000 0.0000 0.0000
# 2 10.9071 47.1974 14.4741 0.0000 0.0000 0.0000
# 3 -4.2445 14.4741 21.1867 0.0000 0.0000 0.0000
# 4 0.0000 0.0000 0.0000 8.4093 0.0000 0.0000
# 5 0.0000 0.0000 0.0000 0.0000 3.8659 0.0000
# 6 0.0000 0.0000 0.0000 0.0000 0.0000 13.5113
#
#
#
# Elastic Compliance Matrix: (Units=1/GPa)
#
#
# Indices 1 2 3 4 5 6 
#
# 1 0.048668 -0.018010 0.022054 0.000000 0.000000 0.000000
# 2 -0.018010 0.033468 -0.026472 0.000000 0.000000 0.000000
# 3 0.022054 -0.026472 0.069703 0.000000 0.000000 0.000000
# 4 0.000000 0.000000 0.000000 0.118916 0.000000 0.000000
# 5 0.000000 0.000000 0.000000 0.000000 0.258671 0.000000
# 6 0.000000 0.000000 0.000000 0.000000 0.000000 0.074012
#
#
# Mechanical properties :
#
#
# Convention : Reuss Voigt Hill
#
# Bulk Modulus (GPa) = 9.34745 15.24054 12.29400
# Shear Modulus (GPa) = 7.31041 10.07427 8.69234
#
# Velocity S-wave (km/s) = 1.96262 2.30394 2.14009
# Velocity P-wave (km/s) = 3.17191 3.88687 3.54745
#
# Compressibility (1/GPa) = 0.10698100
#
# Stress axis : x y z
#
# Youngs Moduli (GPa) = 20.54758 29.87929 14.34662
#
# Poissons Ratio (x) = 0.53813 -0.31640
# Poissons Ratio (y) = 0.37006 0.37979
# Poissons Ratio (z) = -0.45315 0.79098
#
# Static dielectric constant tensor:
#      x y z
#    x 1.683820 0.000000 0.000000 
#    y 0.000000 1.703830 0.000000 
#    z 0.000000 0.000000 1.636850 
# 
# From -- ./inp_files/24093.got.cif
#   From: 2010.05.17/outbox.cif.g08.bks.cpg/sg62_13_cif.got.tgz:24093.got - 2010.06.03 15:25:27.
