data_PCOD9463450
_publ_section_title
;
Structure prediction by ZEFSAII (Michael W. Deem and Ramdas Pophale) SiO2 
 PCOD9463450
Probable space group: P N M A
;
_chemical_formula_sum "Si O2"
_cell_formula_units_Z 24
_cell_length_a 8.931349
_cell_length_b 7.783413
_cell_length_c 19.296269
_cell_angle_alpha 90.000000
_cell_angle_beta 90.000000
_cell_angle_gamma 90.000000
_cell_volume 1341.406728
_symmetry_space_group_name_H-M "P N M A"
_symmetry_group_IT_number 62
_symmetry_cell_setting 'orthorhombic'
loop_
_space_group_symop_operation_xyz
x,y,z
1/2-x,-y,1/2+z
1/2+x,1/2-y,1/2-z
-x,1/2+y,-z
-x,-y,-z
1/2+x,y,1/2-z
1/2-x,1/2+y,1/2+z
x,1/2-y,z
loop_
_atom_site_type_symbol
_atom_site_label
_atom_site_fract_x
_atom_site_fract_y
_atom_site_fract_z
Si Si1 0.849882 0.945956 0.431502
Si Si2 0.337759 0.250000 0.670016
Si Si3 0.806886 0.750000 0.178827
Si Si4 0.824464 0.553834 0.587089
O O1 0.909336 0.750000 0.443407
O O2 0.721535 0.913255 0.375087
O O3 0.793988 0.001278 0.507040
O O4 0.994400 0.047914 0.406615
O O5 0.514039 0.250000 0.678684
O O6 0.256046 0.250000 0.743445
O O7 0.746710 0.582056 0.138889
O O8 0.772700 0.750000 0.597210
#
# Coordination Sequence:
#
# PCOD9463450 Si02
#       4
#     8   4   4   8
#     4   8  17  37  58  86 113 151 192 227 288 347
#     4  10  22  40  60  82 119 160 193 236 300 350
#     4  12  22  38  62  80 121 158 191 244 294 340
#     4  10  19  35  62  89 115 149 196 235 286 350
#
# _framework density 17.891665
#
# number of rings (size 3 to 8) (size 9 to 14) (size 15 to 20)
#    1.000    1.333    1.667    2.000    2.333    1.333 
#    0.000    8.333    0.000    0.000    0.000    0.000 
#    0.000    0.000    0.000    0.000    0.000    0.000 
#
# Total GULP energy -133607.956390 kJ/mol
# GULP energy per Si atom -5566.998183 kJ/mol
# Density = 1.785094 g / cm^3
# Si number density = 17.891665 Si / 1000 Ang^3
#
#
#
# Elastic Constant Matrix: (Units=GPa)
#
#
# Indices 1 2 3 4 5 6 
#
# 1 345.2425 134.4401 324.3805 0.0000 0.0000 0.0000
# 2 134.4401 107.2923 147.1899 0.0000 0.0000 0.0000
# 3 324.3805 147.1899 385.8640 0.0000 0.0000 0.0000
# 4 0.0000 0.0000 0.0000 22.4141 0.0000 0.0000
# 5 0.0000 0.0000 0.0000 0.0000 32.3641 0.0000
# 6 0.0000 0.0000 0.0000 0.0000 0.0000 22.7077
#
#
#
# Elastic Compliance Matrix: (Units=1/GPa)
#
#
# Indices 1 2 3 4 5 6 
#
# 1 0.014223 -0.002976 -0.010821 0.000000 0.000000 0.000000
# 2 -0.002976 0.020175 -0.005194 0.000000 0.000000 0.000000
# 3 -0.010821 -0.005194 0.013670 0.000000 0.000000 0.000000
# 4 0.000000 0.000000 0.000000 0.044615 0.000000 0.000000
# 5 0.000000 0.000000 0.000000 0.000000 0.030898 0.000000
# 6 0.000000 0.000000 0.000000 0.000000 0.000000 0.044038
#
#
# Mechanical properties :
#
#
# Convention : Reuss Voigt Hill
#
# Bulk Modulus (GPa) = 99.15914 227.82442 163.49178
# Shear Modulus (GPa) = 23.92769 30.98974 27.45871
#
# Velocity S-wave (km/s) = 3.66097 4.16634 3.92180
# Velocity P-wave (km/s) = 8.56811 12.27829 10.58700
#
# Compressibility (1/GPa) = 0.01008480
#
# Stress axis : x y z
#
# Youngs Moduli (GPa) = 70.30879 49.56687 73.15428
#
# Poissons Ratio (x) = 0.14753 0.79162
# Poissons Ratio (y) = 0.20927 0.37993
# Poissons Ratio (z) = 0.76083 0.25743
#
# Static dielectric constant tensor:
#      x y z
#    x 1.592290 0.000000 0.000000 
#    y 0.000000 1.623430 0.000000 
#    z 0.000000 0.000000 1.626080 
# 
# From -- ./inp_files/21748.got.cif
#   From: 2010.05.17/outbox.cif.g08.bks.cpg/sg62_11_cif.got.tgz:21748.got - 2010.06.03 15:25:27.
