data_PCOD9463549
_publ_section_title
;
Structure prediction by ZEFSAII (Michael W. Deem and Ramdas Pophale) SiO2 
 PCOD9463549
Probable space group: P N M A
;
_chemical_formula_sum "Si O2"
_cell_formula_units_Z 64
_cell_length_a 8.086830
_cell_length_b 16.481837
_cell_length_c 20.728666
_cell_angle_alpha 90.000000
_cell_angle_beta 90.000000
_cell_angle_gamma 90.000000
_cell_volume 2762.837119
_symmetry_space_group_name_H-M "P N M A"
_symmetry_group_IT_number 62
_symmetry_cell_setting 'orthorhombic'
loop_
_space_group_symop_operation_xyz
x,y,z
1/2-x,-y,1/2+z
1/2+x,1/2-y,1/2-z
-x,1/2+y,-z
-x,-y,-z
1/2+x,y,1/2-z
1/2-x,1/2+y,1/2+z
x,1/2-y,z
loop_
_atom_site_type_symbol
_atom_site_label
_atom_site_fract_x
_atom_site_fract_y
_atom_site_fract_z
Si Si1 0.811961 0.605323 0.033160
Si Si2 0.798935 0.086635 0.164298
Si Si3 0.677139 0.914062 0.410507
Si Si4 0.177077 0.077626 0.463716
Si Si5 0.158131 0.157907 0.703765
Si Si6 0.310580 0.406499 0.096912
Si Si7 0.470386 0.156395 0.223620
Si Si8 0.813058 0.399299 0.665956
O O1 0.733161 0.515202 0.026494
O O2 0.720554 0.640297 0.096180
O O3 0.000900 0.594976 0.055052
O O4 0.782634 0.640056 0.961649
O O5 0.804255 0.112028 0.089537
O O6 0.649321 0.137086 0.195103
O O7 0.946690 0.102886 0.212560
O O8 0.752286 0.991713 0.164009
O O9 0.808319 0.885681 0.465242
O O10 0.695111 0.862520 0.345929
O O11 0.717977 0.007505 0.393130
O O12 0.996667 0.080551 0.432100
O O13 0.101942 0.250000 0.695847
O O14 0.217983 0.143574 0.775963
O O15 0.005942 0.101099 0.683417
O O16 0.342454 0.365364 0.165881
O O17 0.453991 0.250000 0.240618
#
# Coordination Sequence:
#
# PCOD9463549 Si02
#       8
#     8   8   8   8   8   8   8   8
#     4  10  20  34  60  91 115 146 199 256 298 345
#     4  10  21  38  61  85 113 155 199 241 289 348
#     4  11  20  36  60  88 119 152 197 249 298 359
#     4   9  18  34  58  88 116 149 201 254 295 342
#     4  12  25  41  60  88 122 156 192 245 305 362
#     4  10  19  36  60  85 117 157 201 248 297 354
#     4  11  23  38  56  86 121 154 191 240 295 350
#     4  11  22  41  63  87 115 155 203 245 294 360
#
# _framework density 23.164594000000001
#
# number of rings (size 3 to 8) (size 9 to 14) (size 15 to 20)
#    0.000    1.500    0.000    9.000    0.000    4.000 
#    0.000    8.125    0.000    0.000    0.000    0.000 
#    0.000    0.000    0.000    0.000    0.000    0.000 
#
# Total GULP energy -357721.405254 kJ/mol
# GULP energy per Si atom -5589.396957 kJ/mol
# Density = 2.311187 g / cm^3
# Si number density = 23.164594 Si / 1000 Ang^3
#
#
#
# Elastic Constant Matrix: (Units=GPa)
#
#
# Indices 1 2 3 4 5 6 
#
# 1 61.2111 -7.2032 -2.3936 0.0000 0.0000 0.0000
# 2 -7.2032 41.2417 6.5380 0.0000 0.0000 0.0000
# 3 -2.3936 6.5380 106.4708 0.0000 0.0000 0.0000
# 4 0.0000 0.0000 0.0000 -23.5600 0.0000 0.0000
# 5 0.0000 0.0000 0.0000 0.0000 -32.1480 0.0000
# 6 0.0000 0.0000 0.0000 0.0000 0.0000 6.2134
#
#
#
# Elastic Compliance Matrix: (Units=1/GPa)
#
#
# Indices 1 2 3 4 5 6 
#
# 1 0.016684 0.002883 0.000198 0.000000 0.000000 0.000000
# 2 0.002883 0.024984 -0.001469 0.000000 0.000000 0.000000
# 3 0.000198 -0.001469 0.009487 0.000000 0.000000 0.000000
# 4 0.000000 0.000000 0.000000 -0.042445 0.000000 0.000000
# 5 0.000000 0.000000 0.000000 0.000000 -0.031106 0.000000
# 6 0.000000 0.000000 0.000000 0.000000 0.000000 0.160943
#
#
# Mechanical properties :
#
#
# Convention : Reuss Voigt Hill
#
# Bulk Modulus (GPa) = 18.39011 22.53399 20.46205
# Shear Modulus (GPa) = 32.58397 4.23324 18.40861
#
# Velocity S-wave (km/s) = 3.75457 1.35330 2.82208
# Velocity P-wave (km/s) = 5.17222 3.49153 4.41263
#
# Compressibility (1/GPa) = 0.05437707
#
# Stress axis : x y z
#
# Youngs Moduli (GPa) = 59.93815 40.02609 105.40815
#
# Poissons Ratio (x) = -0.11538 -0.02088
# Poissons Ratio (y) = -0.17278 0.15488
# Poissons Ratio (z) = -0.01187 0.05881
#
# Static dielectric constant tensor:
#      x y z
#    x 1.923490 0.000000 0.000000 
#    y 0.000000 1.848730 0.000000 
#    z 0.000000 0.000000 1.920160 
# 
# From -- ./inp_files/26150.got.cif
#   From: 2010.05.17/outbox.cif.g08.bks.cpg/sg62_14_cif.got.tgz:26150.got - 2010.06.03 15:25:27.
