data_PCOD9463877
_publ_section_title
;
Structure prediction by ZEFSAII (Michael W. Deem and Ramdas Pophale) SiO2 
 PCOD9463877
Probable space group: P N M A
;
_chemical_formula_sum "Si O2"
_cell_formula_units_Z 40
_cell_length_a 9.413699
_cell_length_b 19.637845
_cell_length_c 9.746335
_cell_angle_alpha 90.000000
_cell_angle_beta 90.000000
_cell_angle_gamma 90.000000
_cell_volume 1801.753899
_symmetry_space_group_name_H-M "P N M A"
_symmetry_group_IT_number 62
_symmetry_cell_setting 'orthorhombic'
loop_
_space_group_symop_operation_xyz
x,y,z
1/2-x,-y,1/2+z
1/2+x,1/2-y,1/2-z
-x,1/2+y,-z
-x,-y,-z
1/2+x,y,1/2-z
1/2-x,1/2+y,1/2+z
x,1/2-y,z
loop_
_atom_site_type_symbol
_atom_site_label
_atom_site_fract_x
_atom_site_fract_y
_atom_site_fract_z
Si Si1 0.548749 0.078745 0.974151
Si Si2 0.297928 0.171485 0.020663
Si Si3 0.271827 0.394567 0.319851
Si Si4 0.184985 0.978650 0.160058
Si Si5 0.037465 0.092895 0.974729
O O1 0.410652 0.122801 0.945974
O O2 0.623593 0.118601 0.102493
O O3 0.685465 0.069275 0.879267
O O4 0.500000 0.000000 0.000000
O O5 0.335017 0.250000 0.010018
O O6 0.291306 0.148149 0.181238
O O7 0.142592 0.155499 0.959510
O O8 0.242725 0.473214 0.278128
O O9 0.410323 0.391206 0.416500
O O10 0.042237 0.934167 0.160697
O O11 0.135692 0.033838 0.043440
#
# Coordination Sequence:
#
# PCOD9463877 Si02
#       5
#     8   8   8   8   8
#     4  11  20  35  53  85 120 146 194 241 283 339
#     4  11  22  35  52  81 122 159 184 229 299 362
#     4  10  20  32  54  83 116 146 184 233 290 342
#     4   9  18  32  51  76 113 139 187 238 280 329
#     4   9  18  32  50  77 113 142 185 231 279 342
#
# _framework density 22.200590999999999
#
# number of rings (size 3 to 8) (size 9 to 14) (size 15 to 20)
#    0.000    2.000    4.000    2.400    0.000    3.200 
#    0.000    3.000    0.000    0.000    0.000    5.600 
#    0.000    0.000    0.000    0.000    0.000    0.000 
#
# Total GULP energy -223087.697411 kJ/mol
# GULP energy per Si atom -5577.192435 kJ/mol
# Density = 2.215006 g / cm^3
# Si number density = 22.200591 Si / 1000 Ang^3
#
#
#
# Elastic Constant Matrix: (Units=GPa)
#
#
# Indices 1 2 3 4 5 6 
#
# 1 161.7771 51.7297 27.0895 0.0000 0.0000 0.0000
# 2 51.7297 108.4052 13.4836 0.0000 0.0000 0.0000
# 3 27.0895 13.4836 24.5146 0.0000 0.0000 0.0000
# 4 0.0000 0.0000 0.0000 14.4766 0.0000 0.0000
# 5 0.0000 0.0000 0.0000 0.0000 37.7980 0.0000
# 6 0.0000 0.0000 0.0000 0.0000 0.0000 24.4901
#
#
#
# Elastic Compliance Matrix: (Units=1/GPa)
#
#
# Indices 1 2 3 4 5 6 
#
# 1 0.008445 -0.003080 -0.007638 0.000000 0.000000 0.000000
# 2 -0.003080 0.011025 -0.002661 0.000000 0.000000 0.000000
# 3 -0.007638 -0.002661 0.050696 0.000000 0.000000 0.000000
# 4 0.000000 0.000000 0.000000 0.069077 0.000000 0.000000
# 5 0.000000 0.000000 0.000000 0.000000 0.026456 0.000000
# 6 0.000000 0.000000 0.000000 0.000000 0.000000 0.040833
#
#
# Mechanical properties :
#
#
# Convention : Reuss Voigt Hill
#
# Bulk Modulus (GPa) = 23.03689 53.25586 38.14637
# Shear Modulus (GPa) = 20.18081 28.84587 24.51334
#
# Velocity S-wave (km/s) = 3.01827 3.60853 3.32652
# Velocity P-wave (km/s) = 4.74824 6.43448 5.65457
#
# Compressibility (1/GPa) = 0.04340864
#
# Stress axis : x y z
#
# Youngs Moduli (GPa) = 118.41071 90.70049 19.72545
#
# Poissons Ratio (x) = 0.27935 0.15067
# Poissons Ratio (y) = 0.36469 0.05249
# Poissons Ratio (z) = 0.90444 0.24134
#
# Static dielectric constant tensor:
#      x y z
#    x 1.838070 0.000000 0.000000 
#    y 0.000000 1.794290 0.000000 
#    z 0.000000 0.000000 1.968180 
# 
# From -- ./inp_files/16789.got.cif
#   From: 2010.05.17/outbox.cif.g08.bks.cpg/sg62_9_cif.got.tgz:16789.got - 2010.06.03 15:25:27.
