data_PCOD9463445
_publ_section_title
;
Structure prediction by ZEFSAII (Michael W. Deem and Ramdas Pophale) SiO2 
 PCOD9463445
Probable space group: P N M A
;
_chemical_formula_sum "Si O2"
_cell_formula_units_Z 52
_cell_length_a 9.682753
_cell_length_b 24.829573
_cell_length_c 8.216318
_cell_angle_alpha 90.000000
_cell_angle_beta 90.000000
_cell_angle_gamma 90.000000
_cell_volume 1975.355855
_symmetry_space_group_name_H-M "P N M A"
_symmetry_group_IT_number 62
_symmetry_cell_setting 'orthorhombic'
loop_
_space_group_symop_operation_xyz
x,y,z
1/2-x,-y,1/2+z
1/2+x,1/2-y,1/2-z
-x,1/2+y,-z
-x,-y,-z
1/2+x,y,1/2-z
1/2-x,1/2+y,1/2+z
x,1/2-y,z
loop_
_atom_site_type_symbol
_atom_site_label
_atom_site_fract_x
_atom_site_fract_y
_atom_site_fract_z
Si Si1 0.928097 0.132843 0.446991
Si Si2 0.576005 0.750000 0.939935
Si Si3 0.799457 0.866296 0.377149
Si Si4 0.392026 0.475647 0.873141
Si Si5 0.024732 0.750000 0.926996
Si Si6 0.393083 0.544104 0.377100
Si Si7 0.523430 0.868914 0.577905
Si Si8 0.699714 0.250000 0.873815
O O1 0.876367 0.191893 0.501110
O O2 0.093896 0.132807 0.472573
O O3 0.909559 0.124039 0.255733
O O4 0.875770 0.085804 0.562457
O O5 0.600244 0.750000 0.748041
O O6 0.411324 0.750000 0.978423
O O7 0.845394 0.915296 0.266557
O O8 0.645396 0.869479 0.444194
O O9 0.824249 0.807899 0.293574
O O10 0.235468 0.496878 0.887801
O O11 0.464841 0.479477 0.697438
O O12 0.500000 0.500000 0.000000
O O13 0.955895 0.691056 0.928562
O O14 0.143864 0.750000 0.062640
O O15 0.423859 0.582587 0.529198
#
# Coordination Sequence:
#
# PCOD9463445 Si02
#       8
#     8   4   8   8   4   8   8   4
#     4   9  20  36  64  92 127 166 212 265 308 379
#     4   8  14  32  53  89 123 164 207 251 315 361
#     4   9  18  35  56  87 127 166 210 254 310 367
#     4  11  26  48  68  95 128 162 215 261 325 381
#     4   8  16  29  49  88 126 167 210 257 298 377
#     4  11  23  44  66  91 124 165 204 269 315 380
#     4  10  19  35  61  91 129 170 216 257 319 365
#     4   8  14  27  52  77 121 169 203 252 297 360
#
# _framework density 26.324373000000001
#
# number of rings (size 3 to 8) (size 9 to 14) (size 15 to 20)
#    0.000    2.462    1.538    0.000    2.154    1.846 
#    5.538    3.077    0.000    0.000    0.000    0.000 
#    0.000    0.000    0.000    0.000    0.000    0.000 
#
# Total GULP energy -290639.467750 kJ/mol
# GULP energy per Si atom -5589.220534 kJ/mol
# Density = 2.626446 g / cm^3
# Si number density = 26.324373 Si / 1000 Ang^3
#
#
#
# Elastic Constant Matrix: (Units=GPa)
#
#
# Indices 1 2 3 4 5 6 
#
# 1 100.2081 18.9245 15.0988 0.0000 0.0000 0.0000
# 2 18.9245 117.7799 23.1471 0.0000 0.0000 0.0000
# 3 15.0988 23.1471 65.5132 0.0000 0.0000 0.0000
# 4 0.0000 0.0000 0.0000 14.9389 0.0000 0.0000
# 5 0.0000 0.0000 0.0000 0.0000 40.6409 0.0000
# 6 0.0000 0.0000 0.0000 0.0000 0.0000 16.9123
#
#
#
# Elastic Compliance Matrix: (Units=1/GPa)
#
#
# Indices 1 2 3 4 5 6 
#
# 1 0.010522 -0.001305 -0.001964 0.000000 0.000000 0.000000
# 2 -0.001305 0.009286 -0.002980 0.000000 0.000000 0.000000
# 3 -0.001964 -0.002980 0.016770 0.000000 0.000000 0.000000
# 4 0.000000 0.000000 0.000000 0.066939 0.000000 0.000000
# 5 0.000000 0.000000 0.000000 0.000000 0.024606 0.000000
# 6 0.000000 0.000000 0.000000 0.000000 0.000000 0.059129
#
#
# Mechanical properties :
#
#
# Convention : Reuss Voigt Hill
#
# Bulk Modulus (GPa) = 41.52909 44.20467 42.86688
# Shear Modulus (GPa) = 24.06456 29.58715 26.82586
#
# Velocity S-wave (km/s) = 3.02678 3.35617 3.19572
# Velocity P-wave (km/s) = 5.29390 5.64333 5.47141
#
# Compressibility (1/GPa) = 0.02407951
#
# Stress axis : x y z
#
# Youngs Moduli (GPa) = 95.04329 107.69230 59.63146
#
# Poissons Ratio (x) = 0.14049 0.11711
# Poissons Ratio (y) = 0.12399 0.17771
# Poissons Ratio (z) = 0.18666 0.32094
#
# Static dielectric constant tensor:
#      x y z
#    x 2.138460 0.000000 0.000000 
#    y 0.000000 2.109710 0.000000 
#    z 0.000000 0.000000 2.003930 
# 
# From -- ./inp_files/5416.got.cif
#   From: 2010.05.17/outbox.cif.g08.bks.cpg/sg62_3_cif.got.tgz:5416.got - 2010.06.03 15:25:27.
