data_PCOD9463637
_publ_section_title
;
Structure prediction by ZEFSAII (Michael W. Deem and Ramdas Pophale) SiO2 
 PCOD9463637
Probable space group: P N M A
;
_chemical_formula_sum "Si O2"
_cell_formula_units_Z 48
_cell_length_a 12.511005
_cell_length_b 14.043689
_cell_length_c 13.718627
_cell_angle_alpha 90.000000
_cell_angle_beta 90.000000
_cell_angle_gamma 90.000000
_cell_volume 2410.371863
_symmetry_space_group_name_H-M "P N M A"
_symmetry_group_IT_number 62
_symmetry_cell_setting 'orthorhombic'
loop_
_space_group_symop_operation_xyz
x,y,z
1/2-x,-y,1/2+z
1/2+x,1/2-y,1/2-z
-x,1/2+y,-z
-x,-y,-z
1/2+x,y,1/2-z
1/2-x,1/2+y,1/2+z
x,1/2-y,z
loop_
_atom_site_type_symbol
_atom_site_label
_atom_site_fract_x
_atom_site_fract_y
_atom_site_fract_z
Si Si1 0.156672 0.454811 0.450018
Si Si2 0.186788 0.862119 0.795242
Si Si3 0.770058 0.491662 0.847742
Si Si4 0.012881 0.986339 0.885296
Si Si5 0.974201 0.358805 0.573626
Si Si6 0.371718 0.857527 0.262459
O O1 0.218395 0.401008 0.364634
O O2 0.235260 0.468584 0.542221
O O3 0.114812 0.559390 0.420866
O O4 0.055969 0.393385 0.488826
O O5 0.192281 0.750000 0.781634
O O6 0.200550 0.920919 0.695024
O O7 0.078247 0.894465 0.849334
O O8 0.735850 0.402077 0.781767
O O9 0.894513 0.512811 0.841367
O O10 0.081987 0.074262 0.844644
O O11 0.000000 0.000000 0.000000
O O12 0.937714 0.250000 0.557700
O O13 0.043957 0.360324 0.672790
O O14 0.357531 0.750000 0.295179
#
# Coordination Sequence:
#
# PCOD9463637 Si02
#       6
#     8   8   8   8   8   8
#     4  10  19  37  60  87 125 166 206 264 314 369
#     4  11  24  41  63  90 123 169 214 257 318 383
#     4  10  22  40  62  88 127 163 205 260 312 371
#     4  11  22  41  63  91 128 165 207 259 319 376
#     4   9  18  34  60  90 119 160 212 257 308 366
#     4   9  20  38  61  91 120 158 208 257 310 369
#
# _framework density 19.91394
#
# number of rings (size 3 to 8) (size 9 to 14) (size 15 to 20)
#    0.000    2.000    1.667    1.500    0.000    4.667 
#    0.000    5.000    0.000    0.000    0.000    0.000 
#    0.000    0.000    0.000    0.000    0.000    0.000 
#
# Total GULP energy -268236.885567 kJ/mol
# GULP energy per Si atom -5588.268449 kJ/mol
# Density = 1.986861 g / cm^3
# Si number density = 19.913940 Si / 1000 Ang^3
#
#
#
# Elastic Constant Matrix: (Units=GPa)
#
#
# Indices 1 2 3 4 5 6 
#
# 1 57.0195 -5.5281 -9.5693 0.0000 0.0000 0.0000
# 2 -5.5281 123.0032 6.1204 0.0000 0.0000 0.0000
# 3 -9.5693 6.1204 50.0225 0.0000 0.0000 0.0000
# 4 0.0000 0.0000 0.0000 13.2829 0.0000 0.0000
# 5 0.0000 0.0000 0.0000 0.0000 6.1288 0.0000
# 6 0.0000 0.0000 0.0000 0.0000 0.0000 23.9336
#
#
#
# Elastic Compliance Matrix: (Units=1/GPa)
#
#
# Indices 1 2 3 4 5 6 
#
# 1 0.018171 0.000648 0.003397 0.000000 0.000000 0.000000
# 2 0.000648 0.008203 -0.000880 0.000000 0.000000 0.000000
# 3 0.003397 -0.000880 0.020748 0.000000 0.000000 0.000000
# 4 0.000000 0.000000 0.000000 0.075285 0.000000 0.000000
# 5 0.000000 0.000000 0.000000 0.000000 0.163165 0.000000
# 6 0.000000 0.000000 0.000000 0.000000 0.000000 0.041782
#
#
# Mechanical properties :
#
#
# Convention : Reuss Voigt Hill
#
# Bulk Modulus (GPa) = 18.70863 23.56571 21.13717
# Shear Modulus (GPa) = 14.75614 24.60386 19.68000
#
# Velocity S-wave (km/s) = 2.72508 3.51879 3.14706
# Velocity P-wave (km/s) = 4.39506 5.32623 4.88289
#
# Compressibility (1/GPa) = 0.05345127
#
# Stress axis : x y z
#
# Youngs Moduli (GPa) = 55.03362 121.91033 48.19639
#
# Poissons Ratio (x) = -0.07895 -0.16371
# Poissons Ratio (y) = -0.03564 0.04240
# Poissons Ratio (z) = -0.18694 0.10725
#
# Static dielectric constant tensor:
#      x y z
#    x 1.713560 0.000000 0.000000 
#    y 0.000000 1.672970 0.000000 
#    z 0.000000 0.000000 1.706270 
# 
# From -- ./inp_files/18002.got.cif
#   From: 2010.05.17/outbox.cif.g08.bks.cpg/sg62_10_cif.got.tgz:18002.got - 2010.06.03 15:25:27.
