data_PCOD9463638
_publ_section_title
;
Structure prediction by ZEFSAII (Michael W. Deem and Ramdas Pophale) SiO2 
 PCOD9463638
Probable space group: P N M A
;
_chemical_formula_sum "Si O2"
_cell_formula_units_Z 48
_cell_length_a 18.412667
_cell_length_b 12.682821
_cell_length_c 10.093646
_cell_angle_alpha 90.000000
_cell_angle_beta 90.000000
_cell_angle_gamma 90.000000
_cell_volume 2357.114238
_symmetry_space_group_name_H-M "P N M A"
_symmetry_group_IT_number 62
_symmetry_cell_setting 'orthorhombic'
loop_
_space_group_symop_operation_xyz
x,y,z
1/2-x,-y,1/2+z
1/2+x,1/2-y,1/2-z
-x,1/2+y,-z
-x,-y,-z
1/2+x,y,1/2-z
1/2-x,1/2+y,1/2+z
x,1/2-y,z
loop_
_atom_site_type_symbol
_atom_site_label
_atom_site_fract_x
_atom_site_fract_y
_atom_site_fract_z
Si Si1 0.882803 0.134034 0.335089
Si Si2 0.161692 0.414391 0.546254
Si Si3 0.625170 0.870916 0.269224
Si Si4 0.963267 0.946344 0.626714
Si Si5 0.708999 0.366476 0.668455
Si Si6 0.178628 0.917500 0.948260
O O1 0.872843 0.250000 0.394801
O O2 0.849998 0.040502 0.425947
O O3 0.844616 0.127448 0.192761
O O4 0.968637 0.113475 0.310515
O O5 0.100936 0.380307 0.441769
O O6 0.239245 0.388528 0.485190
O O7 0.162118 0.370024 0.695398
O O8 0.604486 0.750000 0.235701
O O9 0.707606 0.889083 0.214053
O O10 0.630746 0.882290 0.427942
O O11 0.572558 0.961171 0.213733
O O12 0.000000 0.000000 0.500000
O O13 0.680179 0.456257 0.572032
O O14 0.793705 0.750000 0.110892
#
# Coordination Sequence:
#
# PCOD9463638 Si02
#       6
#     8   8   8   8   8   8
#     4  10  22  38  58  86 121 160 193 239 308 357
#     4   9  19  36  60  84 117 153 199 251 289 345
#     4  10  20  36  62  86 114 163 202 236 299 356
#     4  10  21  38  58  86 119 155 198 246 285 349
#     4   9  18  33  58  89 116 152 197 243 300 350
#     4  10  19  37  60  88 121 151 200 255 291 345
#
# _framework density 20.363882
#
# number of rings (size 3 to 8) (size 9 to 14) (size 15 to 20)
#    0.000    2.333    1.667    0.500    0.000    5.333 
#    0.000    7.500    0.000    0.000    0.000    0.000 
#    0.000    0.000    0.000    0.000    0.000    0.000 
#
# Total GULP energy -267776.493180 kJ/mol
# GULP energy per Si atom -5578.676941 kJ/mol
# Density = 2.031753 g / cm^3
# Si number density = 20.363882 Si / 1000 Ang^3
#
#
#
# Elastic Constant Matrix: (Units=GPa)
#
#
# Indices 1 2 3 4 5 6 
#
# 1 72.8106 6.0245 26.0521 0.0000 0.0000 0.0000
# 2 6.0245 103.8800 -0.2332 0.0000 0.0000 0.0000
# 3 26.0521 -0.2332 66.5988 0.0000 0.0000 0.0000
# 4 0.0000 0.0000 0.0000 -9.0458 0.0000 0.0000
# 5 0.0000 0.0000 0.0000 0.0000 31.2809 0.0000
# 6 0.0000 0.0000 0.0000 0.0000 0.0000 18.0027
#
#
#
# Elastic Compliance Matrix: (Units=1/GPa)
#
#
# Indices 1 2 3 4 5 6 
#
# 1 0.016062 -0.000946 -0.006286 0.000000 0.000000 0.000000
# 2 -0.000946 0.009682 0.000404 0.000000 0.000000 0.000000
# 3 -0.006286 0.000404 0.017476 0.000000 0.000000 0.000000
# 4 0.000000 0.000000 0.000000 -0.110549 0.000000 0.000000
# 5 0.000000 0.000000 0.000000 0.000000 0.031968 0.000000
# 6 0.000000 0.000000 0.000000 0.000000 0.000000 0.055547
#
#
# Mechanical properties :
#
#
# Convention : Reuss Voigt Hill
#
# Bulk Modulus (GPa) = 33.82549 34.10847 33.96698
# Shear Modulus (GPa) = 114.42363 22.14397 68.28380
#
# Velocity S-wave (km/s) = 7.50410 3.30117 5.79695
# Velocity P-wave (km/s) = 9.57750 5.59609 7.84362
#
# Compressibility (1/GPa) = 0.02956350
#
# Stress axis : x y z
#
# Youngs Moduli (GPa) = 62.25947 103.28188 57.22202
#
# Poissons Ratio (x) = 0.09767 0.35972
# Poissons Ratio (y) = 0.05887 -0.02311
# Poissons Ratio (z) = 0.39139 -0.04171
#
# Static dielectric constant tensor:
#      x y z
#    x 1.759900 0.000000 0.000000 
#    y 0.000000 1.734900 0.000000 
#    z 0.000000 0.000000 1.723750 
# 
# From -- ./inp_files/14732.got.cif
#   From: 2010.05.17/outbox.cif.g08.bks.cpg/sg62_8_cif.got.tgz:14732.got - 2010.06.03 15:25:27.
