data_PCOD9463681
_publ_section_title
;
Structure prediction by ZEFSAII (Michael W. Deem and Ramdas Pophale) SiO2 
 PCOD9463681
Probable space group: P N M A
;
_chemical_formula_sum "Si O2"
_cell_formula_units_Z 64
_cell_length_a 24.037601
_cell_length_b 8.919711
_cell_length_c 15.619687
_cell_angle_alpha 90.000000
_cell_angle_beta 90.000000
_cell_angle_gamma 90.000000
_cell_volume 3348.992942
_symmetry_space_group_name_H-M "P N M A"
_symmetry_group_IT_number 62
_symmetry_cell_setting 'orthorhombic'
loop_
_space_group_symop_operation_xyz
x,y,z
1/2-x,-y,1/2+z
1/2+x,1/2-y,1/2-z
-x,1/2+y,-z
-x,-y,-z
1/2+x,y,1/2-z
1/2-x,1/2+y,1/2+z
x,1/2-y,z
loop_
_atom_site_type_symbol
_atom_site_label
_atom_site_fract_x
_atom_site_fract_y
_atom_site_fract_z
Si Si1 0.947231 0.070493 0.753054
Si Si2 0.622018 0.071214 0.099453
Si Si3 0.868775 0.429794 0.419653
Si Si4 0.250581 0.927007 0.851546
Si Si5 0.133038 0.928264 0.087866
Si Si6 0.747303 0.071978 0.352351
Si Si7 0.139917 0.427725 0.909553
Si Si8 0.568821 0.929733 0.743156
O O1 0.952494 0.250000 0.747959
O O2 0.908899 0.033994 0.835146
O O3 0.916513 0.008446 0.669051
O O4 0.007244 0.995796 0.761952
O O5 0.614811 0.250000 0.105446
O O6 0.686622 0.036633 0.121168
O O7 0.610933 0.013269 0.004073
O O8 0.871437 0.250000 0.432557
O O9 0.804472 0.468895 0.399581
O O10 0.904183 0.466543 0.335272
O O11 0.240608 0.750000 0.868375
O O12 0.245160 0.950628 0.749478
O O13 0.204198 0.022569 0.899570
O O14 0.132294 0.750000 0.074655
O O15 0.194524 0.980674 0.115422
O O16 0.118354 0.010492 0.999905
O O17 0.737006 0.250000 0.365481
O O18 0.135073 0.250000 0.905737
O O19 0.106643 0.502266 0.831641
O O20 0.568229 0.750000 0.735113
#
# Coordination Sequence:
#
# PCOD9463681 Si02
#       8
#     8   8   8   8   8   8   8   8
#     4  11  25  44  65  91 122 160 209 262 309 367
#     4  11  23  39  64  94 126 165 205 251 307 366
#     4  10  22  40  63  91 124 162 202 250 308 365
#     4  10  20  38  63  93 129 165 203 249 307 369
#     4  11  24  41  63  92 127 164 204 251 310 370
#     4  10  19  37  64  93 127 162 201 250 306 367
#     4  12  25  40  64  95 127 164 207 253 308 370
#     4  11  24  45  68  89 120 164 209 260 314 365
#
# _framework density 19.110220999999999
#
# number of rings (size 3 to 8) (size 9 to 14) (size 15 to 20)
#    0.000    1.250    2.500    3.375    0.000    7.500 
#    0.000    0.000    0.000    0.000    0.000    0.000 
#    0.000    0.000    0.000    0.000    0.000    0.000 
#
# Total GULP energy -358036.701804 kJ/mol
# GULP energy per Si atom -5594.323466 kJ/mol
# Density = 1.906672 g / cm^3
# Si number density = 19.110221 Si / 1000 Ang^3
#
#
#
# Elastic Constant Matrix: (Units=GPa)
#
#
# Indices 1 2 3 4 5 6 
#
# 1 85.5906 42.3070 26.3592 0.0000 0.0000 0.0000
# 2 42.3070 62.4365 46.8138 0.0000 0.0000 0.0000
# 3 26.3592 46.8138 96.3854 0.0000 0.0000 0.0000
# 4 0.0000 0.0000 0.0000 31.3178 0.0000 0.0000
# 5 0.0000 0.0000 0.0000 0.0000 -1.9475 0.0000
# 6 0.0000 0.0000 0.0000 0.0000 0.0000 28.1230
#
#
#
# Elastic Compliance Matrix: (Units=1/GPa)
#
#
# Indices 1 2 3 4 5 6 
#
# 1 0.017713 -0.013165 0.001550 0.000000 0.000000 0.000000
# 2 -0.013165 0.034973 -0.013386 0.000000 0.000000 0.000000
# 3 0.001550 -0.013386 0.016453 0.000000 0.000000 0.000000
# 4 0.000000 0.000000 0.000000 0.031931 0.000000 0.000000
# 5 0.000000 0.000000 0.000000 0.000000 -0.513477 0.000000
# 6 0.000000 0.000000 0.000000 0.000000 0.000000 0.035558
#
#
# Mechanical properties :
#
#
# Convention : Reuss Voigt Hill
#
# Bulk Modulus (GPa) = 52.25327 52.81916 52.53621
# Shear Modulus (GPa) = -15.60218 20.09416 2.24599
#
# Velocity S-wave (km/s) = -2.86043 3.24618 1.08528
# Velocity P-wave (km/s) = 4.06117 6.46138 5.39641
#
# Compressibility (1/GPa) = 0.01913756
#
# Stress axis : x y z
#
# Youngs Moduli (GPa) = 56.45415 28.59325 60.78019
#
# Poissons Ratio (x) = 0.37642 -0.09419
# Poissons Ratio (y) = 0.74320 0.81361
# Poissons Ratio (z) = -0.08749 0.38275
#
# Static dielectric constant tensor:
#      x y z
#    x 1.638300 0.000000 0.000000 
#    y 0.000000 1.633930 0.000000 
#    z 0.000000 0.000000 1.650960 
# 
# From -- ./inp_files/20943.got.cif
#   From: 2010.05.17/outbox.cif.g08.bks.cpg/sg62_11_cif.got.tgz:20943.got - 2010.06.03 15:25:27.
