data_PCOD9463507
_publ_section_title
;
Structure prediction by ZEFSAII (Michael W. Deem and Ramdas Pophale) SiO2 
 PCOD9463507
Probable space group: P N M A
;
_chemical_formula_sum "Si O2"
_cell_formula_units_Z 48
_cell_length_a 8.889088
_cell_length_b 17.418614
_cell_length_c 16.839630
_cell_angle_alpha 90.000000
_cell_angle_beta 90.000000
_cell_angle_gamma 90.000000
_cell_volume 2607.374092
_symmetry_space_group_name_H-M "P N M A"
_symmetry_group_IT_number 62
_symmetry_cell_setting 'orthorhombic'
loop_
_space_group_symop_operation_xyz
x,y,z
1/2-x,-y,1/2+z
1/2+x,1/2-y,1/2-z
-x,1/2+y,-z
-x,-y,-z
1/2+x,y,1/2-z
1/2-x,1/2+y,1/2+z
x,1/2-y,z
loop_
_atom_site_type_symbol
_atom_site_label
_atom_site_fract_x
_atom_site_fract_y
_atom_site_fract_z
Si Si1 0.931169 0.416211 0.245148
Si Si2 0.821719 0.658996 0.641305
Si Si3 0.683435 0.989815 0.345359
Si Si4 0.745574 0.660641 0.260963
Si Si5 0.136146 0.442163 0.514698
Si Si6 0.470340 0.162875 0.859124
O O1 0.823718 0.360830 0.194604
O O2 0.824365 0.473174 0.296364
O O3 0.036065 0.369311 0.306162
O O4 0.039072 0.463659 0.185264
O O5 0.830489 0.750000 0.623740
O O6 0.817241 0.605373 0.562963
O O7 0.671596 0.901472 0.318545
O O8 0.730823 0.985927 0.437686
O O9 0.700435 0.750000 0.272314
O O10 0.691701 0.637052 0.172903
O O11 0.921021 0.659009 0.281986
O O12 0.057805 0.383809 0.575837
O O13 0.000000 0.500000 0.500000
O O14 0.458358 0.250000 0.886576
#
# Coordination Sequence:
#
# PCOD9463507 Si02
#       6
#     8   8   8   8   8   8
#     4  10  22  38  63  88 111 155 196 249 294 343
#     4  11  23  41  63  85 115 153 201 249 299 351
#     4  10  19  36  58  89 119 147 193 237 289 356
#     4   9  17  29  51  80 112 147 178 216 266 336
#     4  11  21  35  56  86 115 149 189 235 296 345
#     4   9  18  32  52  78 109 143 181 219 269 333
#
# _framework density 18.409324999999999
#
# number of rings (size 3 to 8) (size 9 to 14) (size 15 to 20)
#    0.000    2.000    1.667    3.000    2.333    1.333 
#    0.000    0.000    0.000    0.000    0.000    0.000 
#    0.000    0.000    0.000    0.000    0.000    0.000 
#
# Total GULP energy -267347.920009 kJ/mol
# GULP energy per Si atom -5569.748334 kJ/mol
# Density = 1.836742 g / cm^3
# Si number density = 18.409325 Si / 1000 Ang^3
#
#
#
# Elastic Constant Matrix: (Units=GPa)
#
#
# Indices 1 2 3 4 5 6 
#
# 1 74.2744 24.5167 40.3789 0.0000 0.0000 0.0000
# 2 24.5167 62.9377 24.9659 0.0000 0.0000 0.0000
# 3 40.3789 24.9659 95.7314 0.0000 0.0000 0.0000
# 4 0.0000 0.0000 0.0000 30.5214 0.0000 0.0000
# 5 0.0000 0.0000 0.0000 0.0000 30.5401 0.0000
# 6 0.0000 0.0000 0.0000 0.0000 0.0000 22.0970
#
#
#
# Elastic Compliance Matrix: (Units=1/GPa)
#
#
# Indices 1 2 3 4 5 6 
#
# 1 0.018596 -0.004609 -0.006641 0.000000 0.000000 0.000000
# 2 -0.004609 0.018865 -0.002976 0.000000 0.000000 0.000000
# 3 -0.006641 -0.002976 0.014023 0.000000 0.000000 0.000000
# 4 0.000000 0.000000 0.000000 0.032764 0.000000 0.000000
# 5 0.000000 0.000000 0.000000 0.000000 0.032744 0.000000
# 6 0.000000 0.000000 0.000000 0.000000 0.000000 0.045255
#
#
# Mechanical properties :
#
#
# Convention : Reuss Voigt Hill
#
# Bulk Modulus (GPa) = 43.41995 45.85183 44.63589
# Shear Modulus (GPa) = 25.20472 26.17051 25.68761
#
# Velocity S-wave (km/s) = 3.70419 3.77449 3.73950
# Velocity P-wave (km/s) = 6.47547 6.62998 6.55318
#
# Compressibility (1/GPa) = 0.02303089
#
# Stress axis : x y z
#
# Youngs Moduli (GPa) = 53.77617 53.00949 71.31032
#
# Poissons Ratio (x) = 0.24433 0.47360
# Poissons Ratio (y) = 0.24787 0.21219
# Poissons Ratio (z) = 0.35715 0.15773
#
# Static dielectric constant tensor:
#      x y z
#    x 1.656940 0.000000 0.000000 
#    y 0.000000 1.570810 0.000000 
#    z 0.000000 0.000000 1.689670 
# 
# From -- ./inp_files/16910.got.cif
#   From: 2010.05.17/outbox.cif.g08.bks.cpg/sg62_9_cif.got.tgz:16910.got - 2010.06.03 15:25:27.
