data_PCOD9463595
_publ_section_title
;
Structure prediction by ZEFSAII (Michael W. Deem and Ramdas Pophale) SiO2 
 PCOD9463595
Probable space group: P N M A
;
_chemical_formula_sum "Si O2"
_cell_formula_units_Z 52
_cell_length_a 5.621830
_cell_length_b 19.960580
_cell_length_c 18.955103
_cell_angle_alpha 90.000000
_cell_angle_beta 90.000000
_cell_angle_gamma 90.000000
_cell_volume 2127.046645
_symmetry_space_group_name_H-M "P N M A"
_symmetry_group_IT_number 62
_symmetry_cell_setting 'orthorhombic'
loop_
_space_group_symop_operation_xyz
x,y,z
1/2-x,-y,1/2+z
1/2+x,1/2-y,1/2-z
-x,1/2+y,-z
-x,-y,-z
1/2+x,y,1/2-z
1/2-x,1/2+y,1/2+z
x,1/2-y,z
loop_
_atom_site_type_symbol
_atom_site_label
_atom_site_fract_x
_atom_site_fract_y
_atom_site_fract_z
Si Si1 0.377862 0.946251 0.441909
Si Si2 0.247558 0.250000 0.788955
Si Si3 0.233148 0.496246 0.668448
Si Si4 0.007086 0.628110 0.354078
Si Si5 0.741130 0.881857 0.727713
Si Si6 0.646992 0.423373 0.076571
Si Si7 0.308463 0.326182 0.526195
O O1 0.550123 0.967178 0.377246
O O2 0.133651 0.919371 0.409627
O O3 0.478154 0.879412 0.478497
O O4 0.287635 0.019284 0.469166
O O5 0.478087 0.250000 0.737015
O O6 0.300571 0.318764 0.829118
O O7 0.281765 0.547136 0.731668
O O8 0.103385 0.428434 0.696727
O O9 0.081767 0.542551 0.613003
O O10 0.802503 0.668077 0.395541
O O11 0.500914 0.848831 0.758542
O O12 0.708463 0.897913 0.645249
O O13 0.619052 0.358268 0.028310
O O14 0.370073 0.250000 0.510848
#
# Coordination Sequence:
#
# PCOD9463595 Si02
#       7
#     8   4   8   8   8   8   8
#     4  10  21  39  65  91 126 166 225 278 342 403
#     4  12  30  46  68  94 138 188 236 280 338 416
#     4   9  20  37  63  94 124 165 214 281 346 399
#     4  10  24  42  62  90 132 177 227 273 340 401
#     4  10  19  36  62  95 135 165 208 281 346 396
#     4  10  21  38  62  99 127 169 228 282 338 410
#     4  11  24  41  65  89 134 181 229 276 342 408
#
# _framework density 24.447043000000001
#
# number of rings (size 3 to 8) (size 9 to 14) (size 15 to 20)
#    0.000    1.846    2.308    0.462    5.385   10.462 
#    0.000    0.000    0.000    3.692    0.000    0.000 
#    0.000    0.000    0.000    0.000    0.000    0.000 
#
# Total GULP energy -290074.205651 kJ/mol
# GULP energy per Si atom -5578.350109 kJ/mol
# Density = 2.439140 g / cm^3
# Si number density = 24.447043 Si / 1000 Ang^3
#
#
#
# Elastic Constant Matrix: (Units=GPa)
#
#
# Indices 1 2 3 4 5 6 
#
# 1 74.3940 15.3892 5.6664 0.0000 0.0000 0.0000
# 2 15.3892 81.3283 17.4273 0.0000 0.0000 0.0000
# 3 5.6664 17.4273 52.5983 0.0000 0.0000 0.0000
# 4 0.0000 0.0000 0.0000 24.8072 0.0000 0.0000
# 5 0.0000 0.0000 0.0000 0.0000 23.3161 0.0000
# 6 0.0000 0.0000 0.0000 0.0000 0.0000 259.3272
#
#
#
# Elastic Compliance Matrix: (Units=1/GPa)
#
#
# Indices 1 2 3 4 5 6 
#
# 1 0.014012 -0.002506 -0.000679 0.000000 0.000000 0.000000
# 2 -0.002506 0.013684 -0.004264 0.000000 0.000000 0.000000
# 3 -0.000679 -0.004264 0.020498 0.000000 0.000000 0.000000
# 4 0.000000 0.000000 0.000000 0.040311 0.000000 0.000000
# 5 0.000000 0.000000 0.000000 0.000000 0.042889 0.000000
# 6 0.000000 0.000000 0.000000 0.000000 0.000000 0.003856
#
#
# Mechanical properties :
#
#
# Convention : Reuss Voigt Hill
#
# Bulk Modulus (GPa) = 30.03386 31.69849 30.86617
# Shear Modulus (GPa) = 31.00856 72.81262 51.91059
#
# Velocity S-wave (km/s) = 3.56532 5.46338 4.61302
# Velocity P-wave (km/s) = 5.40931 7.26583 6.40519
#
# Compressibility (1/GPa) = 0.03329576
#
# Stress axis : x y z
#
# Youngs Moduli (GPa) = 71.36718 73.07981 48.78547
#
# Poissons Ratio (x) = 0.18313 0.03314
# Poissons Ratio (y) = 0.17883 0.20801
# Poissons Ratio (z) = 0.04848 0.31160
#
# Static dielectric constant tensor:
#      x y z
#    x 2.073820 0.000000 0.000000 
#    y 0.000000 1.899790 0.000000 
#    z 0.000000 0.000000 2.037920 
# 
# From -- ./inp_files/25330.got.cif
#   From: 2010.05.17/outbox.cif.g08.bks.cpg/sg62_13_cif.got.tgz:25330.got - 2010.06.03 15:25:27.
