data_PCOD9463692
_publ_section_title
;
Structure prediction by ZEFSAII (Michael W. Deem and Ramdas Pophale) SiO2 
 PCOD9463692
Probable space group: P N M A
;
_chemical_formula_sum "Si O2"
_cell_formula_units_Z 56
_cell_length_a 17.959225
_cell_length_b 24.380990
_cell_length_c 5.463620
_cell_angle_alpha 90.000000
_cell_angle_beta 90.000000
_cell_angle_gamma 90.000000
_cell_volume 2392.320787
_symmetry_space_group_name_H-M "P N M A"
_symmetry_group_IT_number 62
_symmetry_cell_setting 'orthorhombic'
loop_
_space_group_symop_operation_xyz
x,y,z
1/2-x,-y,1/2+z
1/2+x,1/2-y,1/2-z
-x,1/2+y,-z
-x,-y,-z
1/2+x,y,1/2-z
1/2-x,1/2+y,1/2+z
x,1/2-y,z
loop_
_atom_site_type_symbol
_atom_site_label
_atom_site_fract_x
_atom_site_fract_y
_atom_site_fract_z
Si Si1 0.633653 0.375337 0.904595
Si Si2 0.236143 0.070119 0.927551
Si Si3 0.524461 0.582651 0.097674
Si Si4 0.440077 0.187571 0.560124
Si Si5 0.640565 0.988375 0.326627
Si Si6 0.148418 0.891953 0.784431
Si Si7 0.603451 0.187696 0.396372
O O1 0.708589 0.405473 0.827471
O O2 0.563902 0.417013 0.925867
O O3 0.620890 0.338286 0.661340
O O4 0.633520 0.342466 0.156452
O O5 0.297421 0.022872 0.881606
O O6 0.283490 0.110940 0.095563
O O7 0.162555 0.046207 0.058505
O O8 0.544223 0.638695 0.247240
O O9 0.559525 0.529213 0.229810
O O10 0.572235 0.590925 0.854762
O O11 0.432614 0.250000 0.655646
O O12 0.513129 0.187685 0.387169
O O13 0.368518 0.165353 0.416081
O O14 0.657119 0.942092 0.529356
O O15 0.629617 0.250000 0.395093
#
# Coordination Sequence:
#
# PCOD9463692 Si02
#       7
#     8   8   8   8   8   8   8
#     4  11  23  39  65  97 124 163 208 267 313 369
#     4  11  23  37  64  85 120 165 213 249 320 376
#     4   9  20  37  58  89 126 153 206 261 305 363
#     4   9  18  34  62  89 117 158 202 248 303 366
#     4  10  21  39  61  86 117 169 207 250 310 383
#     4  10  19  38  59  85 120 156 202 258 296 370
#     4  10  21  40  64  91 126 166 206 249 315 382
#
# _framework density 23.40823
#
# number of rings (size 3 to 8) (size 9 to 14) (size 15 to 20)
#    0.000    2.000    2.857    0.429    2.000    1.714 
#    0.000    2.143    0.000    0.857    0.000    0.000 
#    0.000    0.000    0.000    0.000    0.000    0.000 
#
# Total GULP energy -312867.217342 kJ/mol
# GULP energy per Si atom -5586.914595 kJ/mol
# Density = 2.335495 g / cm^3
# Si number density = 23.408230 Si / 1000 Ang^3
#
#
#
# Elastic Constant Matrix: (Units=GPa)
#
#
# Indices 1 2 3 4 5 6 
#
# 1 65.5106 10.6325 21.5960 0.0000 0.0000 0.0000
# 2 10.6325 79.5612 30.8313 0.0000 0.0000 0.0000
# 3 21.5960 30.8313 88.2004 0.0000 0.0000 0.0000
# 4 0.0000 0.0000 0.0000 31.7633 0.0000 0.0000
# 5 0.0000 0.0000 0.0000 0.0000 46.0555 0.0000
# 6 0.0000 0.0000 0.0000 0.0000 0.0000 22.8851
#
#
#
# Elastic Compliance Matrix: (Units=1/GPa)
#
#
# Indices 1 2 3 4 5 6 
#
# 1 0.016643 -0.000746 -0.003814 0.000000 0.000000 0.000000
# 2 -0.000746 0.014572 -0.004911 0.000000 0.000000 0.000000
# 3 -0.003814 -0.004911 0.013988 0.000000 0.000000 0.000000
# 4 0.000000 0.000000 0.000000 0.031483 0.000000 0.000000
# 5 0.000000 0.000000 0.000000 0.000000 0.021713 0.000000
# 6 0.000000 0.000000 0.000000 0.000000 0.000000 0.043697
#
#
# Mechanical properties :
#
#
# Convention : Reuss Voigt Hill
#
# Bulk Modulus (GPa) = 38.07990 39.93245 39.00617
# Shear Modulus (GPa) = 29.44778 31.48828 30.46803
#
# Velocity S-wave (km/s) = 3.55069 3.67165 3.61168
# Velocity P-wave (km/s) = 5.75438 5.92206 5.83883
#
# Compressibility (1/GPa) = 0.02626057
#
# Stress axis : x y z
#
# Youngs Moduli (GPa) = 60.08454 68.62599 71.48752
#
# Poissons Ratio (x) = 0.05120 0.27268
# Poissons Ratio (y) = 0.04483 0.35108
# Poissons Ratio (z) = 0.22918 0.33702
#
# Static dielectric constant tensor:
#      x y z
#    x 1.906240 0.000000 0.000000 
#    y 0.000000 1.875760 0.000000 
#    z 0.000000 0.000000 1.923020 
# 
# From -- ./inp_files/2306.got.cif
#   From: 2010.05.17/outbox.cif.g08.bks.cpg/sg62_2_cif.got.tgz:2306.got - 2010.06.03 15:25:27.
