data_PCOD9463102
_publ_section_title
;
Structure prediction by ZEFSAII (Michael W. Deem and Ramdas Pophale) SiO2 
 PCOD9463102
Probable space group: P N M A
;
_chemical_formula_sum "Si O2"
_cell_formula_units_Z 64
_cell_length_a 20.342402
_cell_length_b 8.714142
_cell_length_c 20.790127
_cell_angle_alpha 90.000000
_cell_angle_beta 90.000000
_cell_angle_gamma 90.000000
_cell_volume 3685.394704
_symmetry_space_group_name_H-M "P N M A"
_symmetry_group_IT_number 62
_symmetry_cell_setting 'orthorhombic'
loop_
_space_group_symop_operation_xyz
x,y,z
1/2-x,-y,1/2+z
1/2+x,1/2-y,1/2-z
-x,1/2+y,-z
-x,-y,-z
1/2+x,y,1/2-z
1/2-x,1/2+y,1/2+z
x,1/2-y,z
loop_
_atom_site_type_symbol
_atom_site_label
_atom_site_fract_x
_atom_site_fract_y
_atom_site_fract_z
Si Si1 0.672671 0.566254 0.666273
Si Si2 0.424811 0.064832 0.727796
Si Si3 0.072608 0.435283 0.729464
Si Si4 0.445352 0.935188 0.086357
Si Si5 0.322902 0.564615 0.830186
Si Si6 0.558815 0.934599 0.417570
Si Si7 0.911806 0.935165 0.553095
Si Si8 0.907557 0.567049 0.050781
O O1 0.671634 0.750000 0.666901
O O2 0.624925 0.504499 0.721810
O O3 0.747690 0.513385 0.675977
O O4 0.644322 0.508597 0.598381
O O5 0.421647 0.250000 0.731118
O O6 0.498185 0.020297 0.750856
O O7 0.417424 0.019269 0.653166
O O8 0.369967 0.996226 0.774111
O O9 0.076264 0.250000 0.734055
O O10 0.083103 0.482274 0.655257
O O11 0.449707 0.750000 0.087030
O O12 0.518919 0.999787 0.078377
O O13 0.406397 0.981581 0.021811
O O14 0.323741 0.750000 0.828400
O O15 0.354663 0.515833 0.898443
O O16 0.563705 0.750000 0.423029
O O17 0.481324 0.974071 0.424633
O O18 0.595686 0.010280 0.477460
O O19 0.915231 0.750000 0.554715
O O20 0.901629 0.750000 0.053875
#
# Coordination Sequence:
#
# PCOD9463102 Si02
#       8
#     8   8   8   8   8   8   8   8
#     4  11  23  37  53  75 109 150 185 224 272 324
#     4  10  19  34  56  81 109 140 178 227 274 322
#     4  10  19  34  54  80 109 137 179 230 272 324
#     4   9  17  30  52  79 105 130 166 219 268 311
#     4  10  22  37  52  76 111 147 184 223 267 327
#     4   9  18  33  53  80 109 135 172 223 273 323
#     4   9  17  31  51  76 104 136 171 211 262 317
#     4  10  19  34  55  80 108 138 176 223 269 323
#
# _framework density 17.365846000000001
#
# number of rings (size 3 to 8) (size 9 to 14) (size 15 to 20)
#    0.000    2.250    2.500    0.750    0.000    3.000 
#    0.000    1.250    0.000    3.000    0.000    0.000 
#    0.000    0.000    0.000    0.000    0.000    0.000 
#
# Total GULP energy -356990.345748 kJ/mol
# GULP energy per Si atom -5577.974152 kJ/mol
# Density = 1.732632 g / cm^3
# Si number density = 17.365846 Si / 1000 Ang^3
#
#
#
# Elastic Constant Matrix: (Units=GPa)
#
#
# Indices 1 2 3 4 5 6 
#
# 1 126.7462 29.0315 91.9082 0.0000 0.0000 0.0000
# 2 29.0315 12.5108 35.1348 0.0000 0.0000 0.0000
# 3 91.9082 35.1348 176.6382 0.0000 0.0000 0.0000
# 4 0.0000 0.0000 0.0000 27.8452 0.0000 0.0000
# 5 0.0000 0.0000 0.0000 0.0000 22.9859 0.0000
# 6 0.0000 0.0000 0.0000 0.0000 0.0000 20.3103
#
#
#
# Elastic Compliance Matrix: (Units=1/GPa)
#
#
# Indices 1 2 3 4 5 6 
#
# 1 0.017242 -0.033566 -0.002295 0.000000 0.000000 0.000000
# 2 -0.033566 0.246431 -0.031552 0.000000 0.000000 0.000000
# 3 -0.002295 -0.031552 0.013131 0.000000 0.000000 0.000000
# 4 0.000000 0.000000 0.000000 0.035913 0.000000 0.000000
# 5 0.000000 0.000000 0.000000 0.000000 0.043505 0.000000
# 6 0.000000 0.000000 0.000000 0.000000 0.000000 0.049236
#
#
# Mechanical properties :
#
#
# Convention : Reuss Voigt Hill
#
# Bulk Modulus (GPa) = 7.04332 69.78269 38.41301
# Shear Modulus (GPa) = 8.50904 24.88300 16.69602
#
# Velocity S-wave (km/s) = 2.21597 3.78943 3.10405
# Velocity P-wave (km/s) = 3.25761 7.70828 5.91733
#
# Compressibility (1/GPa) = 0.14197851
#
# Stress axis : x y z
#
# Youngs Moduli (GPa) = 57.99708 4.05793 76.15337
#
# Poissons Ratio (x) = 0.13621 0.17477
# Poissons Ratio (y) = 1.94672 2.40281
# Poissons Ratio (z) = 0.13310 0.12804
#
# Static dielectric constant tensor:
#      x y z
#    x 1.560100 0.000000 0.000000 
#    y 0.000000 1.593180 0.000000 
#    z 0.000000 0.000000 1.604850 
# 
# From -- ./inp_files/27641.got.cif
#   From: 2010.05.17/outbox.cif.g08.bks.cpg/sg62_14_cif.got.tgz:27641.got - 2010.06.03 15:25:27.
