data_PCOD9463307
_publ_section_title
;
Structure prediction by ZEFSAII (Michael W. Deem and Ramdas Pophale) SiO2 
 PCOD9463307
Probable space group: P N M A
;
_chemical_formula_sum "Si O2"
_cell_formula_units_Z 40
_cell_length_a 9.534488
_cell_length_b 14.023816
_cell_length_c 13.795282
_cell_angle_alpha 90.000000
_cell_angle_beta 90.000000
_cell_angle_gamma 90.000000
_cell_volume 1844.565851
_symmetry_space_group_name_H-M "P N M A"
_symmetry_group_IT_number 62
_symmetry_cell_setting 'orthorhombic'
loop_
_space_group_symop_operation_xyz
x,y,z
1/2-x,-y,1/2+z
1/2+x,1/2-y,1/2-z
-x,1/2+y,-z
-x,-y,-z
1/2+x,y,1/2-z
1/2-x,1/2+y,1/2+z
x,1/2-y,z
loop_
_atom_site_type_symbol
_atom_site_label
_atom_site_fract_x
_atom_site_fract_y
_atom_site_fract_z
Si Si1 0.017749 0.139788 0.659943
Si Si2 0.658540 0.008109 0.534373
Si Si3 0.753240 0.460076 0.742399
Si Si4 0.881394 0.139889 0.446296
Si Si5 0.671568 0.362456 0.148042
O O1 0.038447 0.250000 0.684853
O O2 0.900026 0.092516 0.727786
O O3 0.960264 0.134229 0.550781
O O4 0.160927 0.083412 0.674133
O O5 0.670402 0.057923 0.640457
O O6 0.750788 0.070655 0.461031
O O7 0.500000 0.000000 0.500000
O O8 0.736601 0.908071 0.560358
O O9 0.780288 0.573582 0.738908
O O10 0.839113 0.250000 0.430368
O O11 0.007395 0.116345 0.372256
O O12 0.690852 0.250000 0.157187
#
# Coordination Sequence:
#
# PCOD9463307 Si02
#       5
#     8   8   8   8   8
#     4  10  19  35  56  85 115 147 189 235 292 344
#     4   9  19  33  54  84 114 144 183 236 288 337
#     4   9  21  35  54  81 115 151 185 235 283 342
#     4   9  18  34  60  86 113 149 193 242 291 347
#     4   9  19  37  56  81 112 149 192 235 283 340
#
# _framework density 21.685319
#
# number of rings (size 3 to 8) (size 9 to 14) (size 15 to 20)
#    1.200    1.600    0.000    1.200    0.000    3.200 
#    0.000    3.000    0.000    0.000    0.000    0.000 
#    0.000    0.000    0.000    0.000    0.000    0.000 
#
# Total GULP energy -223242.564236 kJ/mol
# GULP energy per Si atom -5581.064106 kJ/mol
# Density = 2.163596 g / cm^3
# Si number density = 21.685319 Si / 1000 Ang^3
#
#
#
# Elastic Constant Matrix: (Units=GPa)
#
#
# Indices 1 2 3 4 5 6 
#
# 1 111.7902 85.1187 24.3952 0.0000 0.0000 0.0000
# 2 85.1187 162.3742 29.4782 0.0000 0.0000 0.0000
# 3 24.3952 29.4782 42.9450 0.0000 0.0000 0.0000
# 4 0.0000 0.0000 0.0000 23.1566 0.0000 0.0000
# 5 0.0000 0.0000 0.0000 0.0000 30.1277 0.0000
# 6 0.0000 0.0000 0.0000 0.0000 0.0000 23.6769
#
#
#
# Elastic Compliance Matrix: (Units=1/GPa)
#
#
# Indices 1 2 3 4 5 6 
#
# 1 0.015375 -0.007396 -0.003657 0.000000 0.000000 0.000000
# 2 -0.007396 0.010593 -0.003070 0.000000 0.000000 0.000000
# 3 -0.003657 -0.003070 0.027470 0.000000 0.000000 0.000000
# 4 0.000000 0.000000 0.000000 0.043184 0.000000 0.000000
# 5 0.000000 0.000000 0.000000 0.000000 0.033192 0.000000
# 6 0.000000 0.000000 0.000000 0.000000 0.000000 0.042235
#
#
# Mechanical properties :
#
#
# Convention : Reuss Voigt Hill
#
# Bulk Modulus (GPa) = 39.69474 66.12149 52.90811
# Shear Modulus (GPa) = 23.95875 27.26672 25.61274
#
# Velocity S-wave (km/s) = 3.32752 3.54980 3.44046
# Velocity P-wave (km/s) = 5.75394 6.88179 6.34298
#
# Compressibility (1/GPa) = 0.02519225
#
# Stress axis : x y z
#
# Youngs Moduli (GPa) = 65.04276 94.40361 36.40295
#
# Poissons Ratio (x) = 0.69817 0.13313
# Poissons Ratio (y) = 0.48103 0.11176
# Poissons Ratio (z) = 0.23787 0.28982
#
# Static dielectric constant tensor:
#      x y z
#    x 1.743610 0.000000 0.000000 
#    y 0.000000 1.790330 0.000000 
#    z 0.000000 0.000000 1.879960 
# 
# From -- ./inp_files/22063.got.cif
#   From: 2010.05.17/outbox.cif.g08.bks.cpg/sg62_12_cif.got.tgz:22063.got - 2010.06.03 15:25:27.
