data_PCOD9463009
_publ_section_title
;
Structure prediction by ZEFSAII (Michael W. Deem and Ramdas Pophale) SiO2 
 PCOD9463009
Probable space group: P N M A
;
_chemical_formula_sum "Si O2"
_cell_formula_units_Z 48
_cell_length_a 10.511424
_cell_length_b 8.981408
_cell_length_c 28.925245
_cell_angle_alpha 90.000000
_cell_angle_beta 90.000000
_cell_angle_gamma 90.000000
_cell_volume 2730.756816
_symmetry_space_group_name_H-M "P N M A"
_symmetry_group_IT_number 62
_symmetry_cell_setting 'orthorhombic'
loop_
_space_group_symop_operation_xyz
x,y,z
1/2-x,-y,1/2+z
1/2+x,1/2-y,1/2-z
-x,1/2+y,-z
-x,-y,-z
1/2+x,y,1/2-z
1/2-x,1/2+y,1/2+z
x,1/2-y,z
loop_
_atom_site_type_symbol
_atom_site_label
_atom_site_fract_x
_atom_site_fract_y
_atom_site_fract_z
Si Si1 0.852103 0.571687 0.547391
Si Si2 0.651853 0.927474 0.950770
Si Si3 0.009082 0.570651 0.300157
Si Si4 0.994892 0.929367 0.191931
Si Si5 0.757635 0.571018 0.358204
Si Si6 0.253124 0.571381 0.852928
O O1 0.844421 0.750000 0.541074
O O2 0.809464 0.491968 0.500537
O O3 0.775812 0.529780 0.593373
O O4 0.001497 0.534457 0.555201
O O5 0.663551 0.750000 0.950453
O O6 0.726961 0.997348 0.908129
O O7 0.024924 0.750000 0.303228
O O8 0.999123 0.531550 0.246165
O O9 0.879746 0.529893 0.327003
O O10 0.128808 0.493047 0.323924
O O11 0.980368 0.750000 0.189082
O O12 0.127495 0.970386 0.167502
O O13 0.876551 0.005914 0.167113
O O14 0.759151 0.750000 0.363249
O O15 0.253585 0.750000 0.850055
#
# Coordination Sequence:
#
# PCOD9463009 Si02
#       6
#     8   8   8   8   8   8
#     4   9  19  35  54  80 112 142 179 227 277 331
#     4  10  19  33  56  83 110 140 181 231 278 329
#     4  10  20  37  61  83 108 147 193 233 270 322
#     4  10  22  39  57  81 114 152 192 229 270 328
#     4  10  20  35  57  83 112 147 185 230 279 325
#     4  11  22  37  57  85 117 147 181 229 283 331
#
# _framework density 17.577546000000002
#
# number of rings (size 3 to 8) (size 9 to 14) (size 15 to 20)
#    0.000    2.000    1.667    2.000    0.000    6.000 
#    0.000    2.500    0.000    0.000    0.000    0.000 
#    0.000    0.000    0.000    0.000    0.000    0.000 
#
# Total GULP energy -268046.746041 kJ/mol
# GULP energy per Si atom -5584.307209 kJ/mol
# Density = 1.753754 g / cm^3
# Si number density = 17.577546 Si / 1000 Ang^3
#
#
#
# Elastic Constant Matrix: (Units=GPa)
#
#
# Indices 1 2 3 4 5 6 
#
# 1 138.9024 49.0897 98.4789 0.0000 0.0000 0.0000
# 2 49.0897 26.9797 58.8908 0.0000 0.0000 0.0000
# 3 98.4789 58.8908 197.4150 0.0000 0.0000 0.0000
# 4 0.0000 0.0000 0.0000 25.7446 0.0000 0.0000
# 5 0.0000 0.0000 0.0000 0.0000 -2.1943 0.0000
# 6 0.0000 0.0000 0.0000 0.0000 0.0000 23.1984
#
#
#
# Elastic Compliance Matrix: (Units=1/GPa)
#
#
# Indices 1 2 3 4 5 6 
#
# 1 0.020622 -0.043192 0.002597 0.000000 0.000000 0.000000
# 2 -0.043192 0.196710 -0.037135 0.000000 0.000000 0.000000
# 3 0.002597 -0.037135 0.014847 0.000000 0.000000 0.000000
# 4 0.000000 0.000000 0.000000 0.038843 0.000000 0.000000
# 5 0.000000 0.000000 0.000000 0.000000 -0.455723 0.000000
# 6 0.000000 0.000000 0.000000 0.000000 0.000000 0.043107
#
#
# Mechanical properties :
#
#
# Convention : Reuss Voigt Hill
#
# Bulk Modulus (GPa) = 13.03419 86.24622 49.64021
# Shear Modulus (GPa) = 126.77785 19.80556 73.29171
#
# Velocity S-wave (km/s) = 8.50185 3.36036 6.46427
# Velocity P-wave (km/s) = 10.18855 8.01428 9.16611
#
# Compressibility (1/GPa) = 0.07672129
#
# Stress axis : x y z
#
# Youngs Moduli (GPa) = 48.49082 5.08363 67.35162
#
# Poissons Ratio (x) = 0.21957 -0.17493
# Poissons Ratio (y) = 2.09442 2.50107
# Poissons Ratio (z) = -0.12594 0.18878
#
# Static dielectric constant tensor:
#      x y z
#    x 1.570790 0.000000 0.000000 
#    y 0.000000 1.583830 0.000000 
#    z 0.000000 0.000000 1.580350 
# 
# From -- ./inp_files/31922.got.cif
#   From: 2010.05.17/outbox.cif.g08.bks.cpg/sg62_16_cif.got.tgz:31922.got - 2010.06.03 15:25:27.
