data_PCOD9463268
_publ_section_title
;
Structure prediction by ZEFSAII (Michael W. Deem and Ramdas Pophale) SiO2 
 PCOD9463268
Probable space group: P N M A
;
_chemical_formula_sum "Si O2"
_cell_formula_units_Z 48
_cell_length_a 7.594848
_cell_length_b 20.944969
_cell_length_c 17.652713
_cell_angle_alpha 90.000000
_cell_angle_beta 90.000000
_cell_angle_gamma 90.000000
_cell_volume 2808.085124
_symmetry_space_group_name_H-M "P N M A"
_symmetry_group_IT_number 62
_symmetry_cell_setting 'orthorhombic'
loop_
_space_group_symop_operation_xyz
x,y,z
1/2-x,-y,1/2+z
1/2+x,1/2-y,1/2-z
-x,1/2+y,-z
-x,-y,-z
1/2+x,y,1/2-z
1/2-x,1/2+y,1/2+z
x,1/2-y,z
loop_
_atom_site_type_symbol
_atom_site_label
_atom_site_fract_x
_atom_site_fract_y
_atom_site_fract_z
Si Si1 0.750741 0.517349 0.325548
Si Si2 0.657010 0.635722 0.653074
Si Si3 0.531498 0.178925 0.052476
Si Si4 0.155520 0.482518 0.847459
Si Si5 0.249843 0.363898 0.173777
Si Si6 0.532681 0.560005 0.055208
O O1 0.551757 0.531156 0.350965
O O2 0.776892 0.532818 0.237164
O O3 0.778887 0.440659 0.332570
O O4 0.892757 0.552318 0.377089
O O5 0.679468 0.559070 0.643464
O O6 0.449983 0.650257 0.649790
O O7 0.722361 0.652213 0.737923
O O8 0.778311 0.668607 0.591048
O O9 0.516814 0.250000 0.021157
O O10 0.390545 0.169260 0.120073
O O11 0.495078 0.124376 0.991236
O O12 0.273703 0.447275 0.909079
O O13 0.500000 0.500000 0.000000
#
# Coordination Sequence:
#
# PCOD9463268 Si02
#       6
#     8   8   8   8   8   8
#     4  10  19  34  63  92 115 145 190 241 289 342
#     4  10  19  35  58  84 118 155 193 229 277 349
#     4  12  26  40  54  82 123 160 192 239 287 337
#     4  10  19  34  63  92 115 145 190 241 289 342
#     4  10  19  35  58  84 118 155 193 229 277 349
#     4  12  22  38  60  88 120 151 190 242 294 335
#
# _framework density 17.093499999999999
#
# number of rings (size 3 to 8) (size 9 to 14) (size 15 to 20)
#    0.000    1.333    6.667    0.000    0.000    3.333 
#    0.000    0.000    0.000    1.000    0.000    0.000 
#    0.000    0.000    0.000    0.000    0.000    0.000 
#
# Total GULP energy -268201.346971 kJ/mol
# GULP energy per Si atom -5587.528062 kJ/mol
# Density = 1.705459 g / cm^3
# Si number density = 17.093500 Si / 1000 Ang^3
#
#
#
# Elastic Constant Matrix: (Units=GPa)
#
#
# Indices 1 2 3 4 5 6 
#
# 1 47.1256 4.7197 -14.0952 0.0000 0.0000 0.0000
# 2 4.7197 61.3602 13.4647 0.0000 0.0000 0.0000
# 3 -14.0952 13.4647 24.9204 0.0000 0.0000 0.0000
# 4 0.0000 0.0000 0.0000 12.4832 0.0000 0.0000
# 5 0.0000 0.0000 0.0000 0.0000 29.2822 0.0000
# 6 0.0000 0.0000 0.0000 0.0000 0.0000 9.6709
#
#
#
# Elastic Compliance Matrix: (Units=1/GPa)
#
#
# Indices 1 2 3 4 5 6 
#
# 1 0.027518 -0.006276 0.018955 0.000000 0.000000 0.000000
# 2 -0.006276 0.019921 -0.014313 0.000000 0.000000 0.000000
# 3 0.018955 -0.014313 0.058583 0.000000 0.000000 0.000000
# 4 0.000000 0.000000 0.000000 0.080108 0.000000 0.000000
# 5 0.000000 0.000000 0.000000 0.000000 0.034150 0.000000
# 6 0.000000 0.000000 0.000000 0.000000 0.000000 0.103403
#
#
# Mechanical properties :
#
#
# Convention : Reuss Voigt Hill
#
# Bulk Modulus (GPa) = 9.73200 15.73160 12.73180
# Shear Modulus (GPa) = 13.84268 18.90840 16.37554
#
# Velocity S-wave (km/s) = 2.84882 3.32953 3.09851
# Velocity P-wave (km/s) = 4.06532 4.89941 4.50173
#
# Compressibility (1/GPa) = 0.10275383
#
# Stress axis : x y z
#
# Youngs Moduli (GPa) = 36.33983 50.19881 17.06989
#
# Poissons Ratio (x) = 0.31505 -0.32357
# Poissons Ratio (y) = 0.22807 0.24432
# Poissons Ratio (z) = -0.68884 0.71851
#
# Static dielectric constant tensor:
#      x y z
#    x 1.587190 0.000000 0.000000 
#    y 0.000000 1.565870 0.000000 
#    z 0.000000 0.000000 1.564040 
# 
# From -- ./inp_files/17070.got.cif
#   From: 2010.05.17/outbox.cif.g08.bks.cpg/sg62_9_cif.got.tgz:17070.got - 2010.06.03 15:25:27.
