data_PCOD9463533
_publ_section_title
;
Structure prediction by ZEFSAII (Michael W. Deem and Ramdas Pophale) SiO2 
 PCOD9463533
Probable space group: P N M A
;
_chemical_formula_sum "Si O2"
_cell_formula_units_Z 64
_cell_length_a 25.011323
_cell_length_b 7.548245
_cell_length_c 15.441839
_cell_angle_alpha 90.000000
_cell_angle_beta 90.000000
_cell_angle_gamma 90.000000
_cell_volume 2915.289396
_symmetry_space_group_name_H-M "P N M A"
_symmetry_group_IT_number 62
_symmetry_cell_setting 'orthorhombic'
loop_
_space_group_symop_operation_xyz
x,y,z
1/2-x,-y,1/2+z
1/2+x,1/2-y,1/2-z
-x,1/2+y,-z
-x,-y,-z
1/2+x,y,1/2-z
1/2-x,1/2+y,1/2+z
x,1/2-y,z
loop_
_atom_site_type_symbol
_atom_site_label
_atom_site_fract_x
_atom_site_fract_y
_atom_site_fract_z
Si Si1 0.447052 0.042172 0.267382
Si Si2 0.241798 0.532597 0.610075
Si Si3 0.876051 0.465819 0.675831
Si Si4 0.528756 0.037111 0.410959
Si Si5 0.511624 0.960014 0.099549
Si Si6 0.234055 0.537371 0.412047
Si Si7 0.860932 0.548459 0.869763
Si Si8 0.173744 0.962088 0.774992
O O1 0.443499 0.250000 0.289128
O O2 0.492551 0.967467 0.331705
O O3 0.387127 0.968605 0.280727
O O4 0.468650 0.029126 0.169220
O O5 0.240147 0.750000 0.612859
O O6 0.230951 0.476782 0.511560
O O7 0.302114 0.469810 0.628433
O O8 0.202957 0.471881 0.687193
O O9 0.875609 0.250000 0.681223
O O10 0.928551 0.521745 0.623434
O O11 0.819562 0.524031 0.636159
O O12 0.879768 0.544601 0.770942
O O13 0.534520 0.250000 0.399133
O O14 0.588941 0.963486 0.417415
O O15 0.500000 0.000000 0.500000
O O16 0.511130 0.750000 0.110699
O O17 0.500000 0.000000 0.000000
O O18 0.232177 0.750000 0.414746
O O19 0.287219 0.493265 0.357021
O O20 0.854059 0.750000 0.902147
O O21 0.169756 0.750000 0.766044
#
# Coordination Sequence:
#
# PCOD9463533 Si02
#       8
#     8   8   8   8   8   8   8   8
#     4  10  22  40  60  84 117 155 195 239 288 345
#     4   9  19  35  57  82 109 147 187 225 279 341
#     4  10  21  37  59  85 112 146 190 240 289 334
#     4  10  22  37  56  84 115 150 191 237 287 339
#     4  11  24  40  61  88 117 153 195 240 294 350
#     4  10  21  37  58  84 114 148 188 233 283 340
#     4  10  19  36  60  82 108 147 194 235 280 338
#     4  10  21  38  60  83 113 152 190 232 285 341
#
# _framework density 21.953225
#
# number of rings (size 3 to 8) (size 9 to 14) (size 15 to 20)
#    0.000    2.000    2.500    0.375    3.500    2.000 
#    0.000    1.250    0.000    0.000    0.000    0.000 
#    0.000    0.000    0.000    0.000    0.000    0.000 
#
# Total GULP energy -357316.547253 kJ/mol
# GULP energy per Si atom -5583.071051 kJ/mol
# Density = 2.190326 g / cm^3
# Si number density = 21.953225 Si / 1000 Ang^3
#
#
#
# Elastic Constant Matrix: (Units=GPa)
#
#
# Indices 1 2 3 4 5 6 
#
# 1 77.3134 9.6795 -35.0802 0.0000 0.0000 0.0000
# 2 9.6795 54.0484 -10.5482 0.0000 0.0000 0.0000
# 3 -35.0802 -10.5482 35.4149 0.0000 0.0000 0.0000
# 4 0.0000 0.0000 0.0000 19.4101 0.0000 0.0000
# 5 0.0000 0.0000 0.0000 0.0000 42.3879 0.0000
# 6 0.0000 0.0000 0.0000 0.0000 0.0000 5.4426
#
#
#
# Elastic Compliance Matrix: (Units=1/GPa)
#
#
# Indices 1 2 3 4 5 6 
#
# 1 0.023500 0.000355 0.023384 0.000000 0.000000 0.000000
# 2 0.000355 0.019649 0.006204 0.000000 0.000000 0.000000
# 3 0.023384 0.006204 0.053247 0.000000 0.000000 0.000000
# 4 0.000000 0.000000 0.000000 0.051520 0.000000 0.000000
# 5 0.000000 0.000000 0.000000 0.000000 0.023592 0.000000
# 6 0.000000 0.000000 0.000000 0.000000 0.000000 0.183735
#
#
# Mechanical properties :
#
#
# Convention : Reuss Voigt Hill
#
# Bulk Modulus (GPa) = 6.39868 10.54209 8.47039
# Shear Modulus (GPa) = 14.39050 26.96315 20.67683
#
# Velocity S-wave (km/s) = 2.56307 3.50838 3.07230
# Velocity P-wave (km/s) = 3.41761 4.60697 4.05612
#
# Compressibility (1/GPa) = 0.15628224
#
# Stress axis : x y z
#
# Youngs Moduli (GPa) = 42.55309 50.89276 18.78027
#
# Poissons Ratio (x) = -0.01807 -0.43915
# Poissons Ratio (y) = -0.01511 -0.11651
# Poissons Ratio (z) = -0.99505 -0.31574
#
# Static dielectric constant tensor:
#      x y z
#    x 1.899030 0.000000 0.000000 
#    y 0.000000 1.829430 0.000000 
#    z 0.000000 0.000000 1.741580 
# 
# From -- ./inp_files/20784.got.cif
#   From: 2010.05.17/outbox.cif.g08.bks.cpg/sg62_11_cif.got.tgz:20784.got - 2010.06.03 15:25:27.
