data_PCOD9463893
_publ_section_title
;
Structure prediction by ZEFSAII (Michael W. Deem and Ramdas Pophale) SiO2 
 PCOD9463893
Probable space group: P N M A
;
_chemical_formula_sum "Si O2"
_cell_formula_units_Z 64
_cell_length_a 13.697806
_cell_length_b 14.281998
_cell_length_c 20.867230
_cell_angle_alpha 90.000000
_cell_angle_beta 90.000000
_cell_angle_gamma 90.000000
_cell_volume 4082.298730
_symmetry_space_group_name_H-M "P N M A"
_symmetry_group_IT_number 62
_symmetry_cell_setting 'orthorhombic'
loop_
_space_group_symop_operation_xyz
x,y,z
1/2-x,-y,1/2+z
1/2+x,1/2-y,1/2-z
-x,1/2+y,-z
-x,-y,-z
1/2+x,y,1/2-z
1/2-x,1/2+y,1/2+z
x,1/2-y,z
loop_
_atom_site_type_symbol
_atom_site_label
_atom_site_fract_x
_atom_site_fract_y
_atom_site_fract_z
Si Si1 0.914736 0.143625 0.098026
Si Si2 0.818085 0.858582 0.622829
Si Si3 0.153612 0.136222 0.520382
Si Si4 0.535360 0.361784 0.857821
Si Si5 0.338573 0.861518 0.268094
Si Si6 0.624705 0.861331 0.451378
Si Si7 0.863828 0.470086 0.710981
Si Si8 0.488424 0.033938 0.660722
O O1 0.947510 0.250000 0.111226
O O2 0.799244 0.139190 0.113850
O O3 0.921969 0.126222 0.021737
O O4 0.970860 0.065329 0.137180
O O5 0.845637 0.750000 0.634591
O O6 0.861040 0.890297 0.553720
O O7 0.846837 0.929623 0.678268
O O8 0.154989 0.250000 0.520212
O O9 0.075335 0.106297 0.573176
O O10 0.262316 0.107677 0.542570
O O11 0.518494 0.250000 0.859884
O O12 0.618832 0.377509 0.803661
O O13 0.438131 0.412502 0.834204
O O14 0.326560 0.750000 0.276545
O O15 0.237745 0.915164 0.280207
O O16 0.421213 0.902370 0.315317
O O17 0.624488 0.750000 0.437264
O O18 0.567564 0.915868 0.397053
O O19 0.916291 0.477715 0.779397
#
# Coordination Sequence:
#
# PCOD9463893 Si02
#       8
#     8   8   8   8   8   8   8   8
#     4   9  18  34  53  72  97 125 165 209 243 284
#     4   9  18  34  52  69  93 127 166 206 240 277
#     4   8  15  30  51  72  95 125 163 201 233 274
#     4   9  18  31  48  72  98 125 159 195 235 286
#     4  10  20  33  47  69 104 133 155 193 242 295
#     4   9  17  30  52  79 100 126 159 198 244 292
#     4  11  21  31  48  72 100 131 163 195 239 295
#     4  11  20  31  50  76 101 129 163 197 248 295
#
# _framework density 15.677441999999999
#
# number of rings (size 3 to 8) (size 9 to 14) (size 15 to 20)
#    0.000    2.500    1.250    3.375    0.000    3.500 
#    0.000    0.000    0.000    0.000    0.000    0.000 
#    0.000    0.000    0.000    0.000    0.000    0.000 
#
# Total GULP energy -356750.578394 kJ/mol
# GULP energy per Si atom -5574.227787 kJ/mol
# Density = 1.564176 g / cm^3
# Si number density = 15.677442 Si / 1000 Ang^3
#
#
#
# Elastic Constant Matrix: (Units=GPa)
#
#
# Indices 1 2 3 4 5 6 
#
# 1 75.9053 43.9024 48.5205 0.0000 0.0000 0.0000
# 2 43.9024 84.5412 57.2443 0.0000 0.0000 0.0000
# 3 48.5205 57.2443 66.5059 0.0000 0.0000 0.0000
# 4 0.0000 0.0000 0.0000 27.2376 0.0000 0.0000
# 5 0.0000 0.0000 0.0000 0.0000 8.5709 0.0000
# 6 0.0000 0.0000 0.0000 0.0000 0.0000 22.8713
#
#
#
# Elastic Compliance Matrix: (Units=1/GPa)
#
#
# Indices 1 2 3 4 5 6 
#
# 1 0.024767 -0.001502 -0.016776 0.000000 0.000000 0.000000
# 2 -0.001502 0.028445 -0.023388 0.000000 0.000000 0.000000
# 3 -0.016776 -0.023388 0.047407 0.000000 0.000000 0.000000
# 4 0.000000 0.000000 0.000000 0.036714 0.000000 0.000000
# 5 0.000000 0.000000 0.000000 0.000000 0.116673 0.000000
# 6 0.000000 0.000000 0.000000 0.000000 0.000000 0.043723
#
#
# Mechanical properties :
#
#
# Convention : Reuss Voigt Hill
#
# Bulk Modulus (GPa) = 57.85008 58.47633 58.16321
# Shear Modulus (GPa) = 12.92581 16.88829 14.90705
#
# Velocity S-wave (km/s) = 2.87450 3.28569 3.08695
# Velocity P-wave (km/s) = 6.92801 7.19548 7.06301
#
# Compressibility (1/GPa) = 0.01728606
#
# Stress axis : x y z
#
# Youngs Moduli (GPa) = 40.37656 35.15571 21.09411
#
# Poissons Ratio (x) = 0.05280 0.35388
# Poissons Ratio (y) = 0.06064 0.49335
# Poissons Ratio (z) = 0.67737 0.82222
#
# Static dielectric constant tensor:
#      x y z
#    x 1.504570 0.000000 0.000000 
#    y 0.000000 1.500560 0.000000 
#    z 0.000000 0.000000 1.520950 
# 
# From -- ./inp_files/23212.got.cif
#   From: 2010.05.17/outbox.cif.g08.bks.cpg/sg62_12_cif.got.tgz:23212.got - 2010.06.03 15:25:27.
