data_PCOD9463825
_publ_section_title
;
Structure prediction by ZEFSAII (Michael W. Deem and Ramdas Pophale) SiO2 
 PCOD9463825
Probable space group: P N M A
;
_chemical_formula_sum "Si O2"
_cell_formula_units_Z 32
_cell_length_a 10.732006
_cell_length_b 8.908457
_cell_length_c 14.394262
_cell_angle_alpha 90.000000
_cell_angle_beta 90.000000
_cell_angle_gamma 90.000000
_cell_volume 1376.172256
_symmetry_space_group_name_H-M "P N M A"
_symmetry_group_IT_number 62
_symmetry_cell_setting 'orthorhombic'
loop_
_space_group_symop_operation_xyz
x,y,z
1/2-x,-y,1/2+z
1/2+x,1/2-y,1/2-z
-x,1/2+y,-z
-x,-y,-z
1/2+x,y,1/2-z
1/2-x,1/2+y,1/2+z
x,1/2-y,z
loop_
_atom_site_type_symbol
_atom_site_label
_atom_site_fract_x
_atom_site_fract_y
_atom_site_fract_z
Si Si1 0.079128 0.075327 0.848559
Si Si2 0.560516 0.428038 0.193282
Si Si3 0.680237 0.571497 0.026748
Si Si4 0.198817 0.925749 0.143687
O O1 0.091535 0.250000 0.821625
O O2 0.191584 0.038761 0.916175
O O3 0.943109 0.062317 0.897133
O O4 0.057509 0.980584 0.754521
O O5 0.568294 0.250000 0.190803
O O6 0.576027 0.494460 0.090815
O O7 0.671954 0.499628 0.256275
O O8 0.660606 0.750000 0.022936
O O9 0.707518 0.506788 0.925336
O O10 0.228110 0.750000 0.152703
#
# Coordination Sequence:
#
# PCOD9463825 Si02
#       4
#     8   8   8   8
#     4   8  18  33  49  72 101 128 161 203 242 287
#     4  10  20  32  47  72 102 131 163 202 242 289
#     4  11  19  31  53  75  99 132 162 199 250 290
#     4   9  18  33  49  73 102 127 163 203 242 289
#
# _framework density 23.252901999999999
#
# number of rings (size 3 to 8) (size 9 to 14) (size 15 to 20)
#    1.500    1.000    0.000    3.750    0.000    2.000 
#    0.000    0.000    0.000    1.500    0.000    0.000 
#    0.000    0.000    0.000    0.000    0.000    0.000 
#
# Total GULP energy -178652.006656 kJ/mol
# GULP energy per Si atom -5582.875208 kJ/mol
# Density = 2.319998 g / cm^3
# Si number density = 23.252902 Si / 1000 Ang^3
#
#
#
# Elastic Constant Matrix: (Units=GPa)
#
#
# Indices 1 2 3 4 5 6 
#
# 1 77.0640 19.1751 19.8382 0.0000 0.0000 0.0000
# 2 19.1751 82.9499 75.1598 0.0000 0.0000 0.0000
# 3 19.8382 75.1598 139.4137 0.0000 0.0000 0.0000
# 4 0.0000 0.0000 0.0000 23.3109 0.0000 0.0000
# 5 0.0000 0.0000 0.0000 0.0000 36.8512 0.0000
# 6 0.0000 0.0000 0.0000 0.0000 0.0000 -6.0112
#
#
#
# Elastic Compliance Matrix: (Units=1/GPa)
#
#
# Indices 1 2 3 4 5 6 
#
# 1 0.013784 -0.002755 -0.000476 0.000000 0.000000 0.000000
# 2 -0.002755 0.024119 -0.012611 0.000000 0.000000 0.000000
# 3 -0.000476 -0.012611 0.014039 0.000000 0.000000 0.000000
# 4 0.000000 0.000000 0.000000 0.042898 0.000000 0.000000
# 5 0.000000 0.000000 0.000000 0.000000 0.027136 0.000000
# 6 0.000000 0.000000 0.000000 0.000000 0.000000 -0.166357
#
#
# Mechanical properties :
#
#
# Convention : Reuss Voigt Hill
#
# Bulk Modulus (GPa) = 49.36194 58.64154 54.00174
# Shear Modulus (GPa) = -841.18138 23.18049 -409.00044
#
# Velocity S-wave (km/s) = -19.04045 3.16078 -13.27682
# Velocity P-wave (km/s) = 21.49675 6.21244 14.55191
#
# Compressibility (1/GPa) = 0.02025852
#
# Stress axis : x y z
#
# Youngs Moduli (GPa) = 72.54631 41.46161 71.22882
#
# Poissons Ratio (x) = 0.11422 0.03392
# Poissons Ratio (y) = 0.19986 0.89825
# Poissons Ratio (z) = 0.03455 0.52286
#
# Static dielectric constant tensor:
#      x y z
#    x 2.046110 0.000000 0.000000 
#    y 0.000000 1.765590 0.000000 
#    z 0.000000 0.000000 1.857370 
# 
# From -- ./inp_files/12748.got.cif
#   From: 2010.05.17/outbox.cif.g08.bks.cpg/sg62_7_cif.got.tgz:12748.got - 2010.06.03 15:25:27.
