data_PCOD9463019
_publ_section_title
;
Structure prediction by ZEFSAII (Michael W. Deem and Ramdas Pophale) SiO2 
 PCOD9463019
Probable space group: P N M A
;
_chemical_formula_sum "Si O2"
_cell_formula_units_Z 64
_cell_length_a 16.603694
_cell_length_b 14.485120
_cell_length_c 10.877911
_cell_angle_alpha 90.000000
_cell_angle_beta 90.000000
_cell_angle_gamma 90.000000
_cell_volume 2616.208302
_symmetry_space_group_name_H-M "P N M A"
_symmetry_group_IT_number 62
_symmetry_cell_setting 'orthorhombic'
loop_
_space_group_symop_operation_xyz
x,y,z
1/2-x,-y,1/2+z
1/2+x,1/2-y,1/2-z
-x,1/2+y,-z
-x,-y,-z
1/2+x,y,1/2-z
1/2-x,1/2+y,1/2+z
x,1/2-y,z
loop_
_atom_site_type_symbol
_atom_site_label
_atom_site_fract_x
_atom_site_fract_y
_atom_site_fract_z
Si Si1 0.796338 0.023856 0.366955
Si Si2 0.379548 0.549542 0.514763
Si Si3 0.252948 0.852489 0.851058
Si Si4 0.559953 0.861403 0.962880
Si Si5 0.606223 0.648463 0.485905
Si Si6 0.624130 0.857255 0.199971
Si Si7 0.310325 0.859499 0.280117
Si Si8 0.071381 0.360239 0.270171
O O1 0.710163 0.025532 0.433197
O O2 0.787752 0.072826 0.234919
O O3 0.854494 0.092819 0.437018
O O4 0.831297 0.922921 0.337271
O O5 0.419175 0.453112 0.469966
O O6 0.364833 0.615941 0.398498
O O7 0.419419 0.594499 0.636038
O O8 0.246532 0.750000 0.792272
O O9 0.346771 0.875392 0.849278
O O10 0.200055 0.846167 0.973112
O O11 0.558455 0.750000 0.950859
O O12 0.499713 0.894486 0.857657
O O13 0.554291 0.888657 0.106752
O O14 0.572478 0.750000 0.524257
O O15 0.597792 0.638492 0.340399
O O16 0.634555 0.750000 0.169515
O O17 0.716794 0.890830 0.193909
O O18 0.312668 0.750000 0.255789
O O19 0.063799 0.250000 0.252191
#
# Coordination Sequence:
#
# PCOD9463019 Si02
#       8
#     8   8   8   8   8   8   8   8
#     4  11  20  32  59  90 115 149 205 255 300 354
#     4  11  20  34  58  84 118 154 204 253 305 365
#     4   9  18  33  56  89 120 151 196 253 307 354
#     4  10  20  37  60  90 124 159 204 256 310 367
#     4  10  19  33  56  84 117 154 197 252 307 356
#     4   9  18  32  54  84 115 155 200 246 302 359
#     4  11  21  34  54  86 121 156 200 254 306 358
#     4   9  20  37  58  87 123 161 201 254 315 368
#
# _framework density 24.462882
#
# number of rings (size 3 to 8) (size 9 to 14) (size 15 to 20)
#    0.000    2.000    3.750    0.750    0.000    1.000 
#    0.000    1.250    0.000    0.750    0.000    0.000 
#    0.000    0.000    0.000    0.000    0.000    0.000 
#
# Total GULP energy -357070.760152 kJ/mol
# GULP energy per Si atom -5579.230627 kJ/mol
# Density = 2.440720 g / cm^3
# Si number density = 24.462882 Si / 1000 Ang^3
#
#
#
# Elastic Constant Matrix: (Units=GPa)
#
#
# Indices 1 2 3 4 5 6 
#
# 1 48.8934 12.1435 14.5054 0.0000 0.0000 0.0000
# 2 12.1435 105.1869 -2.9255 0.0000 0.0000 0.0000
# 3 14.5054 -2.9255 38.1875 0.0000 0.0000 0.0000
# 4 0.0000 0.0000 0.0000 25.6316 0.0000 0.0000
# 5 0.0000 0.0000 0.0000 0.0000 33.4127 0.0000
# 6 0.0000 0.0000 0.0000 0.0000 0.0000 13.3666
#
#
#
# Elastic Compliance Matrix: (Units=1/GPa)
#
#
# Indices 1 2 3 4 5 6 
#
# 1 0.023975 -0.003028 -0.009339 0.000000 0.000000 0.000000
# 2 -0.003028 0.009910 0.001909 0.000000 0.000000 0.000000
# 3 -0.009339 0.001909 0.029880 0.000000 0.000000 0.000000
# 4 0.000000 0.000000 0.000000 0.039014 0.000000 0.000000
# 5 0.000000 0.000000 0.000000 0.000000 0.029929 0.000000
# 6 0.000000 0.000000 0.000000 0.000000 0.000000 0.074813
#
#
# Mechanical properties :
#
#
# Convention : Reuss Voigt Hill
#
# Bulk Modulus (GPa) = 23.33702 26.63495 24.98599
# Shear Modulus (GPa) = 20.59991 25.71846 23.15918
#
# Velocity S-wave (km/s) = 2.90502 3.24593 3.08020
# Velocity P-wave (km/s) = 4.56209 4.99596 4.78395
#
# Compressibility (1/GPa) = 0.04285036
#
# Stress axis : x y z
#
# Youngs Moduli (GPa) = 41.70975 100.91317 33.46703
#
# Poissons Ratio (x) = 0.30552 0.31254
# Poissons Ratio (y) = 0.12628 -0.06389
# Poissons Ratio (z) = 0.38952 -0.19266
#
# Static dielectric constant tensor:
#      x y z
#    x 1.958050 0.000000 0.000000 
#    y 0.000000 2.044840 0.000000 
#    z 0.000000 0.000000 2.091060 
# 
# From -- ./inp_files/14309.got.cif
#   From: 2010.05.17/outbox.cif.g08.bks.cpg/sg62_8_cif.got.tgz:14309.got - 2010.06.03 15:25:27.
