data_PCOD9463760
_publ_section_title
;
Structure prediction by ZEFSAII (Michael W. Deem and Ramdas Pophale) SiO2 
 PCOD9463760
Probable space group: P N M A
;
_chemical_formula_sum "Si O2"
_cell_formula_units_Z 32
_cell_length_a 8.921694
_cell_length_b 9.993456
_cell_length_c 14.732568
_cell_angle_alpha 90.000000
_cell_angle_beta 90.000000
_cell_angle_gamma 90.000000
_cell_volume 1313.534495
_symmetry_space_group_name_H-M "P N M A"
_symmetry_group_IT_number 62
_symmetry_cell_setting 'orthorhombic'
loop_
_space_group_symop_operation_xyz
x,y,z
1/2-x,-y,1/2+z
1/2+x,1/2-y,1/2-z
-x,1/2+y,-z
-x,-y,-z
1/2+x,y,1/2-z
1/2-x,1/2+y,1/2+z
x,1/2-y,z
loop_
_atom_site_type_symbol
_atom_site_label
_atom_site_fract_x
_atom_site_fract_y
_atom_site_fract_z
Si Si1 0.817369 0.518579 0.802287
Si Si2 0.875672 0.050267 0.126196
Si Si3 0.639693 0.406139 0.970433
Si Si4 0.954711 0.250000 0.715795
Si Si5 0.668421 0.250000 0.636930
O O1 0.723151 0.574768 0.717419
O O2 0.703267 0.473575 0.879726
O O3 0.898770 0.389066 0.759508
O O4 0.955914 0.595893 0.849951
O O5 0.890067 0.890708 0.101709
O O6 0.773036 0.099173 0.044226
O O7 0.604214 0.250000 0.952064
O O8 0.500000 0.500000 0.000000
O O9 0.846402 0.250000 0.628455
O O10 0.123021 0.250000 0.755226
#
# Coordination Sequence:
#
# PCOD9463760 Si02
#       5
#     8   8   8   4   4
#     4  10  19  41  67 102 132 180 226 287 345 426
#     4  10  21  39  70 101 134 173 228 289 348 411
#     4  12  27  46  68 102 142 188 241 294 350 418
#     4   8  14  28  54  90 121 152 207 266 310 386
#     4   8  16  28  56  90 121 150 203 258 328 380
#
# _framework density 24.361751999999999
#
# number of rings (size 3 to 8) (size 9 to 14) (size 15 to 20)
#    0.000    2.000    1.250    2.250    1.750    2.000 
#    4.500    6.250    0.000    0.000    0.000    0.000 
#    0.000    0.000    0.000    0.000    0.000    0.000 
#
# Total GULP energy -178350.755363 kJ/mol
# GULP energy per Si atom -5573.461105 kJ/mol
# Density = 2.430630 g / cm^3
# Si number density = 24.361752 Si / 1000 Ang^3
#
#
#
# Elastic Constant Matrix: (Units=GPa)
#
#
# Indices 1 2 3 4 5 6 
#
# 1 104.6755 9.2006 6.3320 0.0000 0.0000 0.0000
# 2 9.2006 74.5437 -29.2615 0.0000 0.0000 0.0000
# 3 6.3320 -29.2615 79.8920 0.0000 0.0000 0.0000
# 4 0.0000 0.0000 0.0000 -12.1148 0.0000 0.0000
# 5 0.0000 0.0000 0.0000 0.0000 44.6110 0.0000
# 6 0.0000 0.0000 0.0000 0.0000 0.0000 -2.0858
#
#
#
# Elastic Compliance Matrix: (Units=1/GPa)
#
#
# Indices 1 2 3 4 5 6 
#
# 1 0.009795 -0.001768 -0.001424 0.000000 0.000000 0.000000
# 2 -0.001768 0.015987 0.005995 0.000000 0.000000 0.000000
# 3 -0.001424 0.005995 0.014826 0.000000 0.000000 0.000000
# 4 0.000000 0.000000 0.000000 -0.082544 0.000000 0.000000
# 5 0.000000 0.000000 0.000000 0.000000 0.022416 0.000000
# 6 0.000000 0.000000 0.000000 0.000000 0.000000 -0.479426
#
#
# Mechanical properties :
#
#
# Convention : Reuss Voigt Hill
#
# Bulk Modulus (GPa) = 21.63817 25.73926 23.68872
# Shear Modulus (GPa) = -10.22183 24.27141 7.02479
#
# Velocity S-wave (km/s) = -2.05060 3.15983 1.69994
# Velocity P-wave (km/s) = 1.81513 4.88888 3.68753
#
# Compressibility (1/GPa) = 0.04621462
#
# Stress axis : x y z
#
# Youngs Moduli (GPa) = 102.09445 62.55245 67.45072
#
# Poissons Ratio (x) = 0.11058 0.09604
# Poissons Ratio (y) = 0.18049 -0.40439
# Poissons Ratio (z) = 0.14536 -0.37503
#
# Static dielectric constant tensor:
#      x y z
#    x 2.306310 0.000000 0.000000 
#    y 0.000000 1.984630 0.000000 
#    z 0.000000 0.000000 2.042890 
# 
# From -- ./inp_files/16484.got.cif
#   From: 2010.05.17/outbox.cif.g08.bks.cpg/sg62_9_cif.got.tgz:16484.got - 2010.06.03 15:25:27.
