data_PCOD9463824
_publ_section_title
;
Structure prediction by ZEFSAII (Michael W. Deem and Ramdas Pophale) SiO2 
 PCOD9463824
Probable space group: P N M A
;
_chemical_formula_sum "Si O2"
_cell_formula_units_Z 64
_cell_length_a 9.328293
_cell_length_b 24.490598
_cell_length_c 17.182283
_cell_angle_alpha 90.000000
_cell_angle_beta 90.000000
_cell_angle_gamma 90.000000
_cell_volume 3925.386605
_symmetry_space_group_name_H-M "P N M A"
_symmetry_group_IT_number 62
_symmetry_cell_setting 'orthorhombic'
loop_
_space_group_symop_operation_xyz
x,y,z
1/2-x,-y,1/2+z
1/2+x,1/2-y,1/2-z
-x,1/2+y,-z
-x,-y,-z
1/2+x,y,1/2-z
1/2-x,1/2+y,1/2+z
x,1/2-y,z
loop_
_atom_site_type_symbol
_atom_site_label
_atom_site_fract_x
_atom_site_fract_y
_atom_site_fract_z
Si Si1 0.414364 0.186115 0.858678
Si Si2 0.087427 0.600578 0.491573
Si Si3 0.791882 0.512990 0.089587
Si Si4 0.120524 0.185173 0.773261
Si Si5 0.281109 0.558275 0.045239
Si Si6 0.661958 0.950382 0.855069
Si Si7 0.043559 0.584997 0.156222
Si Si8 0.887623 0.984374 0.738125
O O1 0.410050 0.250000 0.875754
O O2 0.390524 0.152916 0.937324
O O3 0.285703 0.175109 0.796556
O O4 0.563829 0.174111 0.814232
O O5 0.171669 0.552926 0.445961
O O6 0.141800 0.596658 0.580444
O O7 0.918890 0.587499 0.489941
O O8 0.726748 0.489764 0.168912
O O9 0.931548 0.547892 0.108119
O O10 0.811698 0.466284 0.025472
O O11 0.091298 0.250000 0.787855
O O12 0.030101 0.141840 0.822990
O O13 0.337379 0.506949 0.096002
O O14 0.183784 0.592316 0.103926
O O15 0.810440 0.951746 0.807816
O O16 0.528898 0.956071 0.796135
O O17 0.079136 0.545772 0.230135
#
# Coordination Sequence:
#
# PCOD9463824 Si02
#       8
#     8   8   8   8   8   8   8   8
#     4  10  22  37  55  75  99 134 174 215 252 296
#     4  11  19  35  52  70 103 135 169 205 255 297
#     4  11  18  33  47  69 104 135 167 205 244 305
#     4  10  22  37  51  73 102 132 176 216 246 288
#     4  10  21  31  48  71 102 136 171 200 251 300
#     4  10  20  32  47  72 101 135 163 203 245 303
#     4  11  22  30  49  72  99 139 170 205 251 293
#     4  11  19  30  47  73  99 130 168 203 244 299
#
# _framework density 16.304126
#
# number of rings (size 3 to 8) (size 9 to 14) (size 15 to 20)
#    0.000    1.500    5.000    1.875    1.750    0.000 
#    0.000    0.000    0.000    0.000    0.000    0.875 
#    0.000    0.000    0.000    0.000    0.000    0.000 
#
# Total GULP energy -356882.721220 kJ/mol
# GULP energy per Si atom -5576.292519 kJ/mol
# Density = 1.626702 g / cm^3
# Si number density = 16.304126 Si / 1000 Ang^3
#
#
#
# Elastic Constant Matrix: (Units=GPa)
#
#
# Indices 1 2 3 4 5 6 
#
# 1 53.4481 19.9116 34.0748 0.0000 0.0000 0.0000
# 2 19.9116 38.3705 29.9103 0.0000 0.0000 0.0000
# 3 34.0748 29.9103 87.7099 0.0000 0.0000 0.0000
# 4 0.0000 0.0000 0.0000 22.5943 0.0000 0.0000
# 5 0.0000 0.0000 0.0000 0.0000 33.7162 0.0000
# 6 0.0000 0.0000 0.0000 0.0000 0.0000 14.8128
#
#
#
# Elastic Compliance Matrix: (Units=1/GPa)
#
#
# Indices 1 2 3 4 5 6 
#
# 1 0.026476 -0.007793 -0.007628 0.000000 0.000000 0.000000
# 2 -0.007793 0.037792 -0.009860 0.000000 0.000000 0.000000
# 3 -0.007628 -0.009860 0.017727 0.000000 0.000000 0.000000
# 4 0.000000 0.000000 0.000000 0.044259 0.000000 0.000000
# 5 0.000000 0.000000 0.000000 0.000000 0.029659 0.000000
# 6 0.000000 0.000000 0.000000 0.000000 0.000000 0.067509
#
#
# Mechanical properties :
#
#
# Convention : Reuss Voigt Hill
#
# Bulk Modulus (GPa) = 31.81413 38.59133 35.20273
# Shear Modulus (GPa) = 17.57700 20.60010 19.08855
#
# Velocity S-wave (km/s) = 3.28696 3.55842 3.42538
# Velocity P-wave (km/s) = 5.82759 6.37214 6.10594
#
# Compressibility (1/GPa) = 0.03143257
#
# Stress axis : x y z
#
# Youngs Moduli (GPa) = 37.76978 26.46082 56.41048
#
# Poissons Ratio (x) = 0.20621 0.43032
# Poissons Ratio (y) = 0.29434 0.55621
# Poissons Ratio (z) = 0.28812 0.26090
#
# Static dielectric constant tensor:
#      x y z
#    x 1.582750 0.000000 0.000000 
#    y 0.000000 1.531230 0.000000 
#    z 0.000000 0.000000 1.575840 
# 
# From -- ./inp_files/22631.got.cif
#   From: 2010.05.17/outbox.cif.g08.bks.cpg/sg62_12_cif.got.tgz:22631.got - 2010.06.03 15:25:27.
