data_PCOD9463038
_publ_section_title
;
Structure prediction by ZEFSAII (Michael W. Deem and Ramdas Pophale) SiO2 
 PCOD9463038
Probable space group: P N M A
;
_chemical_formula_sum "Si O2"
_cell_formula_units_Z 40
_cell_length_a 11.075775
_cell_length_b 9.886466
_cell_length_c 18.096330
_cell_angle_alpha 90.000000
_cell_angle_beta 90.000000
_cell_angle_gamma 90.000000
_cell_volume 1981.553075
_symmetry_space_group_name_H-M "P N M A"
_symmetry_group_IT_number 62
_symmetry_cell_setting 'orthorhombic'
loop_
_space_group_symop_operation_xyz
x,y,z
1/2-x,-y,1/2+z
1/2+x,1/2-y,1/2-z
-x,1/2+y,-z
-x,-y,-z
1/2+x,y,1/2-z
1/2-x,1/2+y,1/2+z
x,1/2-y,z
loop_
_atom_site_type_symbol
_atom_site_label
_atom_site_fract_x
_atom_site_fract_y
_atom_site_fract_z
Si Si1 0.157123 0.395904 0.548080
Si Si2 0.486766 0.598944 0.894710
Si Si3 0.364215 0.406903 0.780112
Si Si4 0.403014 0.408621 0.459031
Si Si5 0.898666 0.907990 0.183524
O O1 0.148744 0.250000 0.587147
O O2 0.111729 0.518653 0.597301
O O3 0.287367 0.411214 0.512508
O O4 0.069994 0.390473 0.476414
O O5 0.499720 0.750000 0.864702
O O6 0.399320 0.507664 0.845716
O O7 0.379292 0.250000 0.803397
O O8 0.220839 0.422781 0.764376
O O9 0.469325 0.430291 0.719569
O O10 0.500000 0.500000 0.500000
O O11 0.435159 0.250000 0.448346
O O12 0.380512 0.485177 0.382027
O O13 0.897467 0.750000 0.157780
#
# Coordination Sequence:
#
# PCOD9463038 Si02
#       5
#     8   8   8   8   8
#     4   9  19  35  55  82 116 151 189 235 290 348
#     4  10  19  33  57  87 114 146 193 242 291 344
#     4  10  21  38  60  85 119 160 202 247 300 358
#     4  11  23  40  61  87 120 156 196 244 298 356
#     4  10  22  40  61  86 117 159 204 246 296 356
#
# _framework density 20.186187
#
# number of rings (size 3 to 8) (size 9 to 14) (size 15 to 20)
#    0.000    2.000    2.000    1.200    0.000    4.800 
#    0.000    4.000    0.000    0.000    0.000    0.000 
#    0.000    0.000    0.000    0.000    0.000    0.000 
#
# Total GULP energy -222978.817703 kJ/mol
# GULP energy per Si atom -5574.470443 kJ/mol
# Density = 2.014024 g / cm^3
# Si number density = 20.186187 Si / 1000 Ang^3
#
#
#
# Elastic Constant Matrix: (Units=GPa)
#
#
# Indices 1 2 3 4 5 6 
#
# 1 123.6506 65.6900 27.5931 0.0000 0.0000 0.0000
# 2 65.6900 121.3720 31.7975 0.0000 0.0000 0.0000
# 3 27.5931 31.7975 25.5715 0.0000 0.0000 0.0000
# 4 0.0000 0.0000 0.0000 29.1152 0.0000 0.0000
# 5 0.0000 0.0000 0.0000 0.0000 26.1887 0.0000
# 6 0.0000 0.0000 0.0000 0.0000 0.0000 2.0494
#
#
#
# Elastic Compliance Matrix: (Units=1/GPa)
#
#
# Indices 1 2 3 4 5 6 
#
# 1 0.012218 -0.004685 -0.007359 0.000000 0.000000 0.000000
# 2 -0.004685 0.014017 -0.012374 0.000000 0.000000 0.000000
# 3 -0.007359 -0.012374 0.062433 0.000000 0.000000 0.000000
# 4 0.000000 0.000000 0.000000 0.034346 0.000000 0.000000
# 5 0.000000 0.000000 0.000000 0.000000 0.038184 0.000000
# 6 0.000000 0.000000 0.000000 0.000000 0.000000 0.487952
#
#
# Mechanical properties :
#
#
# Convention : Reuss Voigt Hill
#
# Bulk Modulus (GPa) = 25.10481 57.86170 41.48325
# Shear Modulus (GPa) = 7.02975 21.17155 14.10065
#
# Velocity S-wave (km/s) = 1.86816 3.24205 2.64584
# Velocity P-wave (km/s) = 4.13727 6.53764 5.47073
#
# Compressibility (1/GPa) = 0.03983301
#
# Stress axis : x y z
#
# Youngs Moduli (GPa) = 81.84387 71.34406 16.01721
#
# Poissons Ratio (x) = 0.33426 0.11786
# Poissons Ratio (y) = 0.38345 0.19819
# Poissons Ratio (z) = 0.60225 0.88279
#
# Static dielectric constant tensor:
#      x y z
#    x 1.636480 0.000000 0.000000 
#    y 0.000000 1.706690 0.000000 
#    z 0.000000 0.000000 1.759050 
# 
# From -- ./inp_files/22781.got.cif
#   From: 2010.05.17/outbox.cif.g08.bks.cpg/sg62_12_cif.got.tgz:22781.got - 2010.06.03 15:25:27.
