data_PCOD9463671
_publ_section_title
;
Structure prediction by ZEFSAII (Michael W. Deem and Ramdas Pophale) SiO2 
 PCOD9463671
Probable space group: P N M A
;
_chemical_formula_sum "Si O2"
_cell_formula_units_Z 64
_cell_length_a 10.177006
_cell_length_b 14.502994
_cell_length_c 19.070216
_cell_angle_alpha 90.000000
_cell_angle_beta 90.000000
_cell_angle_gamma 90.000000
_cell_volume 2814.707757
_symmetry_space_group_name_H-M "P N M A"
_symmetry_group_IT_number 62
_symmetry_cell_setting 'orthorhombic'
loop_
_space_group_symop_operation_xyz
x,y,z
1/2-x,-y,1/2+z
1/2+x,1/2-y,1/2-z
-x,1/2+y,-z
-x,-y,-z
1/2+x,y,1/2-z
1/2-x,1/2+y,1/2+z
x,1/2-y,z
loop_
_atom_site_type_symbol
_atom_site_label
_atom_site_fract_x
_atom_site_fract_y
_atom_site_fract_z
Si Si1 0.938717 0.637484 0.976926
Si Si2 0.347187 0.100908 0.969017
Si Si3 0.834271 0.636251 0.302751
Si Si4 0.898028 0.886268 0.551655
Si Si5 0.313873 0.857209 0.791343
Si Si6 0.179730 0.854885 0.062042
Si Si7 0.977802 0.136811 0.179380
Si Si8 0.628938 0.855480 0.189737
O O1 0.939488 0.750000 0.979285
O O2 0.987584 0.610589 0.899883
O O3 0.791968 0.606093 0.992959
O O4 0.043932 0.603254 0.034618
O O5 0.338622 0.145135 0.892339
O O6 0.385384 0.996020 0.953303
O O7 0.464395 0.141438 0.016324
O O8 0.842239 0.750000 0.306260
O O9 0.759834 0.603399 0.373185
O O10 0.747064 0.607007 0.236630
O O11 0.984178 0.602162 0.300957
O O12 0.880686 0.859893 0.632167
O O13 0.778170 0.850867 0.503996
O O14 0.296376 0.750000 0.771765
O O15 0.410818 0.896663 0.732938
O O16 0.167286 0.896089 0.799148
O O17 0.148232 0.750000 0.083993
O O18 0.974876 0.250000 0.180805
O O19 0.616683 0.750000 0.214297
#
# Coordination Sequence:
#
# PCOD9463671 Si02
#       8
#     8   8   8   8   8   8   8   8
#     4  10  21  37  61  90 117 144 190 244 291 341
#     4  11  25  39  56  84 119 155 198 242 281 338
#     4   9  19  33  57  86 112 144 186 236 289 340
#     4  11  23  41  58  80 118 158 198 236 282 343
#     4  10  20  37  61  85 114 150 192 240 291 344
#     4  10  19  37  63  87 112 148 189 235 292 347
#     4   9  19  35  57  89 117 143 186 238 288 346
#     4  10  20  37  58  83 113 147 191 238 288 341
#
# _framework density 22.737708000000001
#
# number of rings (size 3 to 8) (size 9 to 14) (size 15 to 20)
#    0.000    2.000    2.500    0.750    3.500    2.000 
#    0.000    2.500    0.000    0.000    0.000    0.000 
#    0.000    0.000    0.000    0.000    0.000    0.000 
#
# Total GULP energy -357753.782763 kJ/mol
# GULP energy per Si atom -5589.902856 kJ/mol
# Density = 2.268596 g / cm^3
# Si number density = 22.737708 Si / 1000 Ang^3
#
#
#
# Elastic Constant Matrix: (Units=GPa)
#
#
# Indices 1 2 3 4 5 6 
#
# 1 128.6529 -0.5751 55.7446 0.0000 0.0000 0.0000
# 2 -0.5751 49.7162 -1.4587 0.0000 0.0000 0.0000
# 3 55.7446 -1.4587 91.2497 0.0000 0.0000 0.0000
# 4 0.0000 0.0000 0.0000 2992.1673 0.0000 0.0000
# 5 0.0000 0.0000 0.0000 0.0000 37.8743 0.0000
# 6 0.0000 0.0000 0.0000 0.0000 0.0000 -89.1238
#
#
#
# Elastic Compliance Matrix: (Units=1/GPa)
#
#
# Indices 1 2 3 4 5 6 
#
# 1 0.010571 -0.000067 -0.006459 0.000000 0.000000 0.000000
# 2 -0.000067 0.020124 0.000363 0.000000 0.000000 0.000000
# 3 -0.006459 0.000363 0.014911 0.000000 0.000000 0.000000
# 4 0.000000 0.000000 0.000000 0.000334 0.000000 0.000000
# 5 0.000000 0.000000 0.000000 0.000000 0.026403 0.000000
# 6 0.000000 0.000000 0.000000 0.000000 0.000000 -0.011220
#
#
# Mechanical properties :
#
#
# Convention : Reuss Voigt Hill
#
# Bulk Modulus (GPa) = 30.04915 41.89338 35.97126
# Shear Modulus (GPa) = 59.14164 602.57743 330.85953
#
# Velocity S-wave (km/s) = 5.10557 16.29686 12.07590
# Velocity P-wave (km/s) = 6.92821 19.30237 14.50141
#
# Compressibility (1/GPa) = 0.03327881
#
# Stress axis : x y z
#
# Youngs Moduli (GPa) = 94.59640 49.69185 67.06646
#
# Poissons Ratio (x) = 0.00334 0.43319
# Poissons Ratio (y) = 0.00636 -0.02433
# Poissons Ratio (z) = 0.61100 -0.01803
#
# Static dielectric constant tensor:
#      x y z
#    x 1.817160 0.000000 0.000000 
#    y 0.000000 1.939600 0.000000 
#    z 0.000000 0.000000 1.788020 
# 
# From -- ./inp_files/22570.got.cif
#   From: 2010.05.17/outbox.cif.g08.bks.cpg/sg62_12_cif.got.tgz:22570.got - 2010.06.03 15:25:27.
