data_PCOD9463402
_publ_section_title
;
Structure prediction by ZEFSAII (Michael W. Deem and Ramdas Pophale) SiO2 
 PCOD9463402
Probable space group: P N M A
;
_chemical_formula_sum "Si O2"
_cell_formula_units_Z 64
_cell_length_a 19.541535
_cell_length_b 8.015400
_cell_length_c 16.839711
_cell_angle_alpha 90.000000
_cell_angle_beta 90.000000
_cell_angle_gamma 90.000000
_cell_volume 2637.658152
_symmetry_space_group_name_H-M "P N M A"
_symmetry_group_IT_number 62
_symmetry_cell_setting 'orthorhombic'
loop_
_space_group_symop_operation_xyz
x,y,z
1/2-x,-y,1/2+z
1/2+x,1/2-y,1/2-z
-x,1/2+y,-z
-x,-y,-z
1/2+x,y,1/2-z
1/2-x,1/2+y,1/2+z
x,1/2-y,z
loop_
_atom_site_type_symbol
_atom_site_label
_atom_site_fract_x
_atom_site_fract_y
_atom_site_fract_z
Si Si1 0.700474 0.450900 0.497382
Si Si2 0.171133 0.556994 0.423696
Si Si3 0.921568 0.057880 0.094774
Si Si4 0.604541 0.047589 0.914762
Si Si5 0.831779 0.945229 0.242178
Si Si6 0.036020 0.548186 0.351601
Si Si7 0.794676 0.943474 0.823219
Si Si8 0.947404 0.443792 0.824214
O O1 0.707234 0.250000 0.494611
O O2 0.753644 0.516674 0.563398
O O3 0.623704 0.489923 0.522509
O O4 0.720643 0.517689 0.410846
O O5 0.179425 0.750000 0.399412
O O6 0.139629 0.544872 0.512432
O O7 0.111295 0.479344 0.370671
O O8 0.935108 0.250000 0.081317
O O9 0.872652 0.035613 0.172305
O O10 0.994436 0.973773 0.111078
O O11 0.608075 0.250000 0.926540
O O12 0.638323 0.011341 0.829247
O O13 0.525517 0.992310 0.907056
O O14 0.844358 0.750000 0.227350
O O15 0.750224 0.972600 0.254390
O O16 0.039483 0.750000 0.360719
O O17 0.017780 0.516742 0.260538
O O18 0.775047 0.750000 0.821060
O O19 0.876565 0.957553 0.822333
O O20 0.927552 0.250000 0.824899
#
# Coordination Sequence:
#
# PCOD9463402 Si02
#       8
#     8   8   8   8   8   8   8   8
#     4  10  23  42  64  90 126 168 209 260 318 384
#     4  10  20  36  59  89 125 164 206 252 307 368
#     4  12  26  43  66  95 127 162 210 271 321 374
#     4  10  19  35  59  88 124 163 205 250 301 371
#     4  11  22  40  66  92 126 171 211 252 312 381
#     4   9  19  36  58  88 123 162 207 250 298 370
#     4  11  24  43  65  96 130 163 210 264 317 371
#     4  11  23  43  67  92 123 167 213 259 319 387
#
# _framework density 24.263947000000002
#
# number of rings (size 3 to 8) (size 9 to 14) (size 15 to 20)
#    0.000    1.500    2.500    2.625    1.750    2.500 
#    0.000    1.250    0.000    0.000    0.000    0.000 
#    0.000    0.000    0.000    0.000    0.000    0.000 
#
# Total GULP energy -357865.144662 kJ/mol
# GULP energy per Si atom -5591.642885 kJ/mol
# Density = 2.420872 g / cm^3
# Si number density = 24.263947 Si / 1000 Ang^3
#
#
#
# Elastic Constant Matrix: (Units=GPa)
#
#
# Indices 1 2 3 4 5 6 
#
# 1 112.5488 -6.1269 3.5445 0.0000 0.0000 0.0000
# 2 -6.1269 35.4145 -0.6236 0.0000 0.0000 0.0000
# 3 3.5445 -0.6236 42.7986 0.0000 0.0000 0.0000
# 4 0.0000 0.0000 0.0000 19.4222 0.0000 0.0000
# 5 0.0000 0.0000 0.0000 0.0000 44.2553 0.0000
# 6 0.0000 0.0000 0.0000 0.0000 0.0000 21.9790
#
#
#
# Elastic Compliance Matrix: (Units=1/GPa)
#
#
# Indices 1 2 3 4 5 6 
#
# 1 0.008992 0.001543 -0.000722 0.000000 0.000000 0.000000
# 2 0.001543 0.028509 0.000288 0.000000 0.000000 0.000000
# 3 -0.000722 0.000288 0.023429 0.000000 0.000000 0.000000
# 4 0.000000 0.000000 0.000000 0.051487 0.000000 0.000000
# 5 0.000000 0.000000 0.000000 0.000000 0.022596 0.000000
# 6 0.000000 0.000000 0.000000 0.000000 0.000000 0.045498
#
#
# Mechanical properties :
#
#
# Convention : Reuss Voigt Hill
#
# Bulk Modulus (GPa) = 15.83614 20.48332 18.15973
# Shear Modulus (GPa) = 25.08228 30.06249 27.57239
#
# Velocity S-wave (km/s) = 3.21865 3.52373 3.37464
# Velocity P-wave (km/s) = 4.51151 5.00158 4.76285
#
# Compressibility (1/GPa) = 0.06314671
#
# Stress axis : x y z
#
# Youngs Moduli (GPa) = 111.21282 35.07657 42.68165
#
# Poissons Ratio (x) = -0.05412 0.03083
# Poissons Ratio (y) = -0.17159 -0.01228
# Poissons Ratio (z) = 0.08032 -0.01009
#
# Static dielectric constant tensor:
#      x y z
#    x 2.003180 0.000000 0.000000 
#    y 0.000000 1.836770 0.000000 
#    z 0.000000 0.000000 1.952590 
# 
# From -- ./inp_files/24847.got.cif
#   From: 2010.05.17/outbox.cif.g08.bks.cpg/sg62_13_cif.got.tgz:24847.got - 2010.06.03 15:25:27.
