data_PCOD9463444
_publ_section_title
;
Structure prediction by ZEFSAII (Michael W. Deem and Ramdas Pophale) SiO2 
 PCOD9463444
Probable space group: P N M A
;
_chemical_formula_sum "Si O2"
_cell_formula_units_Z 64
_cell_length_a 12.047410
_cell_length_b 8.151432
_cell_length_c 31.635581
_cell_angle_alpha 90.000000
_cell_angle_beta 90.000000
_cell_angle_gamma 90.000000
_cell_volume 3106.729315
_symmetry_space_group_name_H-M "P N M A"
_symmetry_group_IT_number 62
_symmetry_cell_setting 'orthorhombic'
loop_
_space_group_symop_operation_xyz
x,y,z
1/2-x,-y,1/2+z
1/2+x,1/2-y,1/2-z
-x,1/2+y,-z
-x,-y,-z
1/2+x,y,1/2-z
1/2-x,1/2+y,1/2+z
x,1/2-y,z
loop_
_atom_site_type_symbol
_atom_site_label
_atom_site_fract_x
_atom_site_fract_y
_atom_site_fract_z
Si Si1 0.481807 0.057035 0.933294
Si Si2 0.217653 0.446147 0.539627
Si Si3 0.511678 0.447910 0.160733
Si Si4 0.161231 0.058750 0.123728
Si Si5 0.764611 0.442519 0.050436
Si Si6 0.750009 0.051203 0.198329
Si Si7 0.915625 0.560418 0.126345
Si Si8 0.287561 0.449152 0.206525
O O1 0.465753 0.250000 0.942411
O O2 0.590555 0.991660 0.957589
O O3 0.509092 0.033872 0.883809
O O4 0.366618 0.965049 0.941078
O O5 0.208373 0.250000 0.535064
O O6 0.282034 0.480940 0.582699
O O7 0.279619 0.505943 0.497476
O O8 0.510942 0.250000 0.153950
O O9 0.631418 0.495315 0.178676
O O10 0.413303 0.486890 0.193079
O O11 0.191573 0.250000 0.122084
O O12 0.209452 0.992418 0.168156
O O13 0.029367 0.038844 0.122565
O O14 0.792344 0.250000 0.053091
O O15 0.836106 0.530499 0.086134
O O16 0.755299 0.250000 0.198172
O O17 0.760203 0.991882 0.246516
O O18 0.846626 0.988246 0.167876
O O19 0.946531 0.750000 0.128279
O O20 0.277062 0.250000 0.208099
#
# Coordination Sequence:
#
# PCOD9463444 Si02
#       8
#     8   8   8   8   8   8   8   8
#     4  11  21  36  60  92 129 160 192 246 307 358
#     4  10  23  41  62  91 126 160 198 249 305 359
#     4  10  19  35  61  91 123 160 200 247 295 349
#     4  11  23  41  66  91 119 161 207 250 300 363
#     4  11  23  41  64  89 119 161 208 249 297 360
#     4  10  21  38  64  92 122 159 203 250 295 353
#     4  12  26  43  61  87 123 159 200 255 312 363
#     4   9  20  37  62  95 122 156 205 250 292 350
#
# _framework density 20.600442000000001
#
# number of rings (size 3 to 8) (size 9 to 14) (size 15 to 20)
#    0.000    1.500    2.500    2.625    1.750    2.000 
#    0.000    1.875    0.000    0.000    0.000    0.000 
#    0.000    0.000    0.000    0.000    0.000    0.000 
#
# Total GULP energy -357697.852607 kJ/mol
# GULP energy per Si atom -5589.028947 kJ/mol
# Density = 2.055355 g / cm^3
# Si number density = 20.600442 Si / 1000 Ang^3
#
#
#
# Elastic Constant Matrix: (Units=GPa)
#
#
# Indices 1 2 3 4 5 6 
#
# 1 74.6213 -16.2528 20.4537 0.0000 0.0000 0.0000
# 2 -16.2528 15.6506 -4.6666 0.0000 0.0000 0.0000
# 3 20.4537 -4.6666 119.1264 0.0000 0.0000 0.0000
# 4 0.0000 0.0000 0.0000 22.8235 0.0000 0.0000
# 5 0.0000 0.0000 0.0000 0.0000 17.9303 0.0000
# 6 0.0000 0.0000 0.0000 0.0000 0.0000 18.6175
#
#
#
# Elastic Compliance Matrix: (Units=1/GPa)
#
#
# Indices 1 2 3 4 5 6 
#
# 1 0.017962 0.017943 -0.002381 0.000000 0.000000 0.000000
# 2 0.017943 0.082574 0.000154 0.000000 0.000000 0.000000
# 3 -0.002381 0.000154 0.008809 0.000000 0.000000 0.000000
# 4 0.000000 0.000000 0.000000 0.043815 0.000000 0.000000
# 5 0.000000 0.000000 0.000000 0.000000 0.055772 0.000000
# 6 0.000000 0.000000 0.000000 0.000000 0.000000 0.053713
#
#
# Mechanical properties :
#
#
# Convention : Reuss Voigt Hill
#
# Bulk Modulus (GPa) = 7.10347 23.16301 15.13324
# Shear Modulus (GPa) = 17.97667 25.86518 21.92092
#
# Velocity S-wave (km/s) = 2.95724 3.54724 3.26559
# Velocity P-wave (km/s) = 3.88794 5.29580 4.64552
#
# Compressibility (1/GPa) = 0.14077619
#
# Stress axis : x y z
#
# Youngs Moduli (GPa) = 55.67426 12.11033 113.51632
#
# Poissons Ratio (x) = -0.21729 0.27029
# Poissons Ratio (y) = -0.99895 -0.01748
# Poissons Ratio (z) = 0.13257 -0.00186
#
# Static dielectric constant tensor:
#      x y z
#    x 1.701110 0.000000 0.000000 
#    y 0.000000 1.730270 0.000000 
#    z 0.000000 0.000000 1.741110 
# 
# From -- ./inp_files/32595.got.cif
#   From: 2010.05.17/outbox.cif.g08.bks.cpg/sg62_17_cif.got.tgz:32595.got - 2010.06.03 15:25:27.
