data_PCOD9463312
_publ_section_title
;
Structure prediction by ZEFSAII (Michael W. Deem and Ramdas Pophale) SiO2 
 PCOD9463312
Probable space group: P N M A
;
_chemical_formula_sum "Si O2"
_cell_formula_units_Z 64
_cell_length_a 19.617324
_cell_length_b 9.229563
_cell_length_c 20.324777
_cell_angle_alpha 90.000000
_cell_angle_beta 90.000000
_cell_angle_gamma 90.000000
_cell_volume 3679.990460
_symmetry_space_group_name_H-M "P N M A"
_symmetry_group_IT_number 62
_symmetry_cell_setting 'orthorhombic'
loop_
_space_group_symop_operation_xyz
x,y,z
1/2-x,-y,1/2+z
1/2+x,1/2-y,1/2-z
-x,1/2+y,-z
-x,-y,-z
1/2+x,y,1/2-z
1/2-x,1/2+y,1/2+z
x,1/2-y,z
loop_
_atom_site_type_symbol
_atom_site_label
_atom_site_fract_x
_atom_site_fract_y
_atom_site_fract_z
Si Si1 0.093728 0.578055 0.185569
Si Si2 0.253251 0.921543 0.216175
Si Si3 0.062160 0.924366 0.036841
Si Si4 0.714409 0.576623 0.507911
Si Si5 0.724854 0.422586 0.151224
Si Si6 0.067996 0.076856 0.318767
Si Si7 0.529960 0.576611 0.936328
Si Si8 0.186367 0.577236 0.595031
O O1 0.082317 0.750000 0.191988
O O2 0.175362 0.554826 0.190947
O O3 0.067845 0.532022 0.113753
O O4 0.061811 0.497297 0.247873
O O5 0.266005 0.750000 0.216304
O O6 0.256805 0.987948 0.288924
O O7 0.301131 0.004728 0.165565
O O8 0.053953 0.750000 0.034749
O O9 0.135001 0.958368 0.003199
O O10 0.000000 0.000000 0.000000
O O11 0.722297 0.750000 0.496431
O O12 0.741197 0.544708 0.581216
O O13 0.760283 0.491911 0.455712
O O14 0.732315 0.250000 0.163447
O O15 0.643713 0.454957 0.152615
O O16 0.063425 0.250000 0.310337
O O17 0.011729 0.030258 0.371469
O O18 0.520971 0.750000 0.942599
O O19 0.609790 0.546600 0.928618
O O20 0.500000 0.500000 0.000000
O O21 0.195707 0.750000 0.599129
#
# Coordination Sequence:
#
# PCOD9463312 Si02
#       8
#     8   8   8   8   8   8   8   8
#     4   9  18  35  57  79 106 140 182 226 267 323
#     4  10  19  35  57  79 108 143 181 224 274 329
#     4  10  21  38  57  80 109 142 183 229 280 334
#     4  10  20  38  60  82 112 148 184 224 280 338
#     4   9  18  33  57  84 109 141 182 226 270 323
#     4   9  18  34  55  81 110 144 185 222 266 322
#     4  10  22  38  55  81 115 149 186 229 275 330
#     4  11  22  35  56  84 114 145 186 234 275 325
#
# _framework density 17.391349999999999
#
# number of rings (size 3 to 8) (size 9 to 14) (size 15 to 20)
#    0.000    2.250    1.250    1.500    0.000    4.500 
#    2.250    2.500    0.000    0.000    0.000    0.000 
#    0.000    0.000    0.000    0.000    0.000    0.000 
#
# Total GULP energy -357199.217335 kJ/mol
# GULP energy per Si atom -5581.237771 kJ/mol
# Density = 1.735177 g / cm^3
# Si number density = 17.391350 Si / 1000 Ang^3
#
#
#
# Elastic Constant Matrix: (Units=GPa)
#
#
# Indices 1 2 3 4 5 6 
#
# 1 103.0103 51.8550 73.2532 0.0000 0.0000 0.0000
# 2 51.8550 35.1760 48.3929 0.0000 0.0000 0.0000
# 3 73.2532 48.3929 126.4614 0.0000 0.0000 0.0000
# 4 0.0000 0.0000 0.0000 36.8796 0.0000 0.0000
# 5 0.0000 0.0000 0.0000 0.0000 31.7699 0.0000
# 6 0.0000 0.0000 0.0000 0.0000 0.0000 24.0238
#
#
#
# Elastic Compliance Matrix: (Units=1/GPa)
#
#
# Indices 1 2 3 4 5 6 
#
# 1 0.037726 -0.053955 -0.001206 0.000000 0.000000 0.000000
# 2 -0.053955 0.137198 -0.021248 0.000000 0.000000 0.000000
# 3 -0.001206 -0.021248 0.016737 0.000000 0.000000 0.000000
# 4 0.000000 0.000000 0.000000 0.027115 0.000000 0.000000
# 5 0.000000 0.000000 0.000000 0.000000 0.031476 0.000000
# 6 0.000000 0.000000 0.000000 0.000000 0.000000 0.041625
#
#
# Mechanical properties :
#
#
# Convention : Reuss Voigt Hill
#
# Bulk Modulus (GPa) = 25.74441 67.96111 46.85276
# Shear Modulus (GPa) = 10.92551 24.61110 17.76830
#
# Velocity S-wave (km/s) = 2.50914 3.76591 3.19983
# Velocity P-wave (km/s) = 4.81970 7.62048 6.37579
#
# Compressibility (1/GPa) = 0.03884339
#
# Stress axis : x y z
#
# Youngs Moduli (GPa) = 26.50678 7.28872 59.74754
#
# Poissons Ratio (x) = 0.39326 0.07206
# Poissons Ratio (y) = 1.43018 1.26951
# Poissons Ratio (z) = 0.03197 0.15487
#
# Static dielectric constant tensor:
#      x y z
#    x 1.577140 0.000000 0.000000 
#    y 0.000000 1.578260 0.000000 
#    z 0.000000 0.000000 1.570210 
# 
# From -- ./inp_files/24709.got.cif
#   From: 2010.05.17/outbox.cif.g08.bks.cpg/sg62_13_cif.got.tgz:24709.got - 2010.06.03 15:25:27.
