data_PCOD9463162
_publ_section_title
;
Structure prediction by ZEFSAII (Michael W. Deem and Ramdas Pophale) SiO2 
 PCOD9463162
Probable space group: P N M A
;
_chemical_formula_sum "Si O2"
_cell_formula_units_Z 64
_cell_length_a 33.527465
_cell_length_b 8.765496
_cell_length_c 10.528843
_cell_angle_alpha 90.000000
_cell_angle_beta 90.000000
_cell_angle_gamma 90.000000
_cell_volume 3094.267555
_symmetry_space_group_name_H-M "P N M A"
_symmetry_group_IT_number 62
_symmetry_cell_setting 'orthorhombic'
loop_
_space_group_symop_operation_xyz
x,y,z
1/2-x,-y,1/2+z
1/2+x,1/2-y,1/2-z
-x,1/2+y,-z
-x,-y,-z
1/2+x,y,1/2-z
1/2-x,1/2+y,1/2+z
x,1/2-y,z
loop_
_atom_site_type_symbol
_atom_site_label
_atom_site_fract_x
_atom_site_fract_y
_atom_site_fract_z
Si Si1 0.533840 0.432452 0.288953
Si Si2 0.714710 0.932082 0.729027
Si Si3 0.734521 0.934334 0.004114
Si Si4 0.453846 0.932218 0.247655
Si Si5 0.350804 0.067009 0.886675
Si Si6 0.620140 0.066636 0.375798
Si Si7 0.634405 0.433673 0.658081
Si Si8 0.562964 0.566844 0.022133
O O1 0.530779 0.250000 0.286622
O O2 0.491365 0.502743 0.324855
O O3 0.573037 0.474723 0.370168
O O4 0.544062 0.495319 0.148367
O O5 0.716003 0.750000 0.723302
O O6 0.733825 0.000918 0.602591
O O7 0.668997 0.986109 0.736861
O O8 0.737871 0.981653 0.856963
O O9 0.736568 0.750000 0.007764
O O10 0.690722 0.983574 0.053174
O O11 0.456801 0.750000 0.244516
O O12 0.410420 0.973956 0.301198
O O13 0.455055 0.998771 0.105447
O O14 0.349939 0.250000 0.878769
O O15 0.389894 0.026850 0.969064
O O16 0.358311 0.002409 0.746265
O O17 0.622098 0.250000 0.366171
O O18 0.638509 0.021952 0.510149
O O19 0.638575 0.250000 0.668455
O O20 0.558431 0.750000 0.024423
#
# Coordination Sequence:
#
# PCOD9463162 Si02
#       8
#     8   8   8   8   8   8   8   8
#     4  10  20  35  55  82 114 150 196 246 296 357
#     4  11  25  43  66  95 125 162 206 250 303 367
#     4  10  23  43  64  92 130 162 198 252 305 362
#     4  11  22  35  54  80 113 154 196 242 300 358
#     4   9  19  36  60  86 115 151 193 243 298 353
#     4   9  20  38  59  84 116 155 198 246 299 355
#     4  10  23  42  61  83 118 158 197 249 305 360
#     4  10  19  34  56  82 114 150 191 244 299 355
#
# _framework density 20.683409000000001
#
# number of rings (size 3 to 8) (size 9 to 14) (size 15 to 20)
#    0.000    2.000    0.000    2.625    1.750    5.500 
#    0.000    0.000    0.000    0.000    0.000    0.000 
#    0.000    0.000    0.000    0.000    0.000    0.000 
#
# Total GULP energy -357681.268589 kJ/mol
# GULP energy per Si atom -5588.769822 kJ/mol
# Density = 2.063633 g / cm^3
# Si number density = 20.683409 Si / 1000 Ang^3
#
#
#
# Elastic Constant Matrix: (Units=GPa)
#
#
# Indices 1 2 3 4 5 6 
#
# 1 81.8677 23.3288 28.0181 0.0000 0.0000 0.0000
# 2 23.3288 24.7368 14.0798 0.0000 0.0000 0.0000
# 3 28.0181 14.0798 73.7361 0.0000 0.0000 0.0000
# 4 0.0000 0.0000 0.0000 19.3894 0.0000 0.0000
# 5 0.0000 0.0000 0.0000 0.0000 22.7139 0.0000
# 6 0.0000 0.0000 0.0000 0.0000 0.0000 26.4441
#
#
#
# Elastic Compliance Matrix: (Units=1/GPa)
#
#
# Indices 1 2 3 4 5 6 
#
# 1 0.017680 -0.014417 -0.003965 0.000000 0.000000 0.000000
# 2 -0.014417 0.057111 -0.005427 0.000000 0.000000 0.000000
# 3 -0.003965 -0.005427 0.016105 0.000000 0.000000 0.000000
# 4 0.000000 0.000000 0.000000 0.051575 0.000000 0.000000
# 5 0.000000 0.000000 0.000000 0.000000 0.044026 0.000000
# 6 0.000000 0.000000 0.000000 0.000000 0.000000 0.037816
#
#
# Mechanical properties :
#
#
# Convention : Reuss Voigt Hill
#
# Bulk Modulus (GPa) = 23.10667 34.57712 28.84189
# Shear Modulus (GPa) = 17.46077 21.37040 19.41559
#
# Velocity S-wave (km/s) = 2.90865 3.21785 3.06715
# Velocity P-wave (km/s) = 4.74090 5.52808 5.14956
#
# Compressibility (1/GPa) = 0.04327755
#
# Stress axis : x y z
#
# Youngs Moduli (GPa) = 56.56102 17.50977 62.09309
#
# Poissons Ratio (x) = 0.25244 0.24621
# Poissons Ratio (y) = 0.81543 0.33699
# Poissons Ratio (z) = 0.22427 0.09503
#
# Static dielectric constant tensor:
#      x y z
#    x 1.774650 0.000000 0.000000 
#    y 0.000000 1.690120 0.000000 
#    z 0.000000 0.000000 1.724010 
# 
# From -- ./inp_files/15854.got.cif
#   From: 2010.05.17/outbox.cif.g08.bks.cpg/sg62_8_cif.got.tgz:15854.got - 2010.06.03 15:25:27.
