data_PCOD9463477
_publ_section_title
;
Structure prediction by ZEFSAII (Michael W. Deem and Ramdas Pophale) SiO2 
 PCOD9463477
Probable space group: P N M A
;
_chemical_formula_sum "Si O2"
_cell_formula_units_Z 64
_cell_length_a 9.646260
_cell_length_b 26.945151
_cell_length_c 12.006242
_cell_angle_alpha 90.000000
_cell_angle_beta 90.000000
_cell_angle_gamma 90.000000
_cell_volume 3120.661608
_symmetry_space_group_name_H-M "P N M A"
_symmetry_group_IT_number 62
_symmetry_cell_setting 'orthorhombic'
loop_
_space_group_symop_operation_xyz
x,y,z
1/2-x,-y,1/2+z
1/2+x,1/2-y,1/2-z
-x,1/2+y,-z
-x,-y,-z
1/2+x,y,1/2-z
1/2-x,1/2+y,1/2+z
x,1/2-y,z
loop_
_atom_site_type_symbol
_atom_site_label
_atom_site_fract_x
_atom_site_fract_y
_atom_site_fract_z
Si Si1 0.229257 0.523558 0.483857
Si Si2 0.165793 0.409926 0.253969
Si Si3 0.566946 0.309878 0.643454
Si Si4 0.465885 0.963928 0.145747
Si Si5 0.421017 0.025363 0.339371
Si Si6 0.557710 0.131033 0.011546
Si Si7 0.244279 0.361675 0.041305
Si Si8 0.248092 0.309762 0.641429
O O1 0.135394 0.502243 0.582571
O O2 0.359340 0.488600 0.459243
O O3 0.260656 0.580864 0.501774
O O4 0.124069 0.520436 0.378770
O O5 0.305824 0.438370 0.286101
O O6 0.095586 0.392609 0.369173
O O7 0.203381 0.364874 0.170902
O O8 0.062824 0.445952 0.184875
O O9 0.566752 0.250000 0.640378
O O10 0.640078 0.330611 0.533609
O O11 0.407297 0.326724 0.652529
O O12 0.657805 0.324962 0.750762
O O13 0.432715 0.972812 0.274003
O O14 0.446492 0.912300 0.082288
O O15 0.403911 0.153857 0.021567
O O16 0.673200 0.168602 0.967274
O O17 0.247696 0.250000 0.637227
#
# Coordination Sequence:
#
# PCOD9463477 Si02
#       8
#     8   8   8   8   8   8   8   8
#     4  10  20  36  55  80 119 164 209 251 299 358
#     4  12  23  39  60  88 126 173 212 251 311 364
#     4  10  23  45  70  96 125 155 198 256 316 377
#     4  10  19  36  55  80 119 163 207 251 303 354
#     4  12  21  38  57  80 123 171 212 258 304 357
#     4  11  23  40  64  90 126 167 209 260 312 372
#     4  11  24  40  62  94 124 165 214 259 312 371
#     4  10  23  45  71  97 124 157 198 253 319 378
#
# _framework density 20.508472000000001
#
# number of rings (size 3 to 8) (size 9 to 14) (size 15 to 20)
#    0.000    1.250    5.000    1.500    3.500    2.000 
#    2.250    0.625    0.000    0.000    0.000    0.000 
#    0.000    0.000    0.000    0.000    0.000    0.000 
#
# Total GULP energy -357479.279748 kJ/mol
# GULP energy per Si atom -5585.613746 kJ/mol
# Density = 2.046179 g / cm^3
# Si number density = 20.508472 Si / 1000 Ang^3
#
#
#
# Elastic Constant Matrix: (Units=GPa)
#
#
# Indices 1 2 3 4 5 6 
#
# 1 148.0260 23.3594 35.7003 0.0000 0.0000 0.0000
# 2 23.3594 17.7585 12.0819 0.0000 0.0000 0.0000
# 3 35.7003 12.0819 60.5709 0.0000 0.0000 0.0000
# 4 0.0000 0.0000 0.0000 31.7198 0.0000 0.0000
# 5 0.0000 0.0000 0.0000 0.0000 30.9968 0.0000
# 6 0.0000 0.0000 0.0000 0.0000 0.0000 29.9132
#
#
#
# Elastic Compliance Matrix: (Units=1/GPa)
#
#
# Indices 1 2 3 4 5 6 
#
# 1 0.009107 -0.009635 -0.003446 0.000000 0.000000 0.000000
# 2 -0.009635 0.075347 -0.009350 0.000000 0.000000 0.000000
# 3 -0.003446 -0.009350 0.020406 0.000000 0.000000 0.000000
# 4 0.000000 0.000000 0.000000 0.031526 0.000000 0.000000
# 5 0.000000 0.000000 0.000000 0.000000 0.032261 0.000000
# 6 0.000000 0.000000 0.000000 0.000000 0.000000 0.033430
#
#
# Mechanical properties :
#
#
# Convention : Reuss Voigt Hill
#
# Bulk Modulus (GPa) = 16.66754 40.95986 28.81370
# Shear Modulus (GPa) = 18.73094 28.87353 23.80224
#
# Velocity S-wave (km/s) = 3.02541 3.75625 3.41046
# Velocity P-wave (km/s) = 4.51098 6.23122 5.43953
#
# Compressibility (1/GPa) = 0.05999684
#
# Stress axis : x y z
#
# Youngs Moduli (GPa) = 109.80454 13.27202 49.00615
#
# Poissons Ratio (x) = 0.12788 0.16887
# Poissons Ratio (y) = 1.05797 0.45822
# Poissons Ratio (z) = 0.37837 0.12410
#
# Static dielectric constant tensor:
#      x y z
#    x 1.753500 0.000000 0.000000 
#    y 0.000000 1.709810 0.000000 
#    z 0.000000 0.000000 1.766210 
# 
# From -- ./inp_files/11559.got.cif
#   From: 2010.05.17/outbox.cif.g08.bks.cpg/sg62_6_cif.got.tgz:11559.got - 2010.06.03 15:25:27.
