data_PCOD9463487
_publ_section_title
;
Structure prediction by ZEFSAII (Michael W. Deem and Ramdas Pophale) SiO2 
 PCOD9463487
Probable space group: P N M A
;
_chemical_formula_sum "Si O2"
_cell_formula_units_Z 64
_cell_length_a 17.479724
_cell_length_b 12.774845
_cell_length_c 16.515470
_cell_angle_alpha 90.000000
_cell_angle_beta 90.000000
_cell_angle_gamma 90.000000
_cell_volume 3687.917081
_symmetry_space_group_name_H-M "P N M A"
_symmetry_group_IT_number 62
_symmetry_cell_setting 'orthorhombic'
loop_
_space_group_symop_operation_xyz
x,y,z
1/2-x,-y,1/2+z
1/2+x,1/2-y,1/2-z
-x,1/2+y,-z
-x,-y,-z
1/2+x,y,1/2-z
1/2-x,1/2+y,1/2+z
x,1/2-y,z
loop_
_atom_site_type_symbol
_atom_site_label
_atom_site_fract_x
_atom_site_fract_y
_atom_site_fract_z
Si Si1 0.934678 0.869139 0.660819
Si Si2 0.606668 0.871142 0.902877
Si Si3 0.909914 0.979140 0.993198
Si Si4 0.312964 0.626246 0.364363
Si Si5 0.221559 0.016252 0.697072
Si Si6 0.864728 0.629056 0.825668
Si Si7 0.667369 0.525306 0.059391
Si Si8 0.223715 0.871299 0.041828
O O1 0.906343 0.750000 0.642320
O O2 0.930435 0.879603 0.757871
O O3 0.883578 0.959089 0.621010
O O4 0.019725 0.877245 0.626531
O O5 0.631787 0.750000 0.897861
O O6 0.658431 0.945469 0.847347
O O7 0.616985 0.912762 0.994032
O O8 0.873892 0.922888 0.072315
O O9 0.890585 0.910563 0.913451
O O10 0.860594 0.084416 0.977729
O O11 0.000000 0.000000 0.000000
O O12 0.325764 0.750000 0.355433
O O13 0.311158 0.566698 0.278449
O O14 0.228455 0.603398 0.400595
O O15 0.252163 0.103654 0.634193
O O16 0.294290 0.939725 0.707441
O O17 0.841406 0.750000 0.831883
O O18 0.718888 0.440724 0.011555
O O19 0.229970 0.750000 0.023960
#
# Coordination Sequence:
#
# PCOD9463487 Si02
#       8
#     8   8   8   8   8   8   8   8
#     4  10  20  34  56  86 117 147 181 226 282 337
#     4  10  21  35  56  84 114 148 184 228 278 332
#     4  10  23  38  58  84 116 151 192 239 290 343
#     4  11  22  37  59  83 109 147 194 235 282 343
#     4  10  20  36  57  81 113 147 191 238 276 329
#     4  10  20  37  59  81 112 152 190 234 284 335
#     4  10  19  36  57  82 113 144 183 230 276 337
#     4   9  19  35  56  81 109 147 187 229 281 334
#
# _framework density 17.35397
#
# number of rings (size 3 to 8) (size 9 to 14) (size 15 to 20)
#    0.000    2.000    1.250    3.000    1.750    1.000 
#    0.000    0.625    0.000    2.250    0.000    0.000 
#    0.000    0.000    0.000    0.000    0.000    0.000 
#
# Total GULP energy -356979.227248 kJ/mol
# GULP energy per Si atom -5577.800426 kJ/mol
# Density = 1.731447 g / cm^3
# Si number density = 17.353970 Si / 1000 Ang^3
#
#
#
# Elastic Constant Matrix: (Units=GPa)
#
#
# Indices 1 2 3 4 5 6 
#
# 1 70.8914 26.9881 28.5672 0.0000 0.0000 0.0000
# 2 26.9881 95.9023 41.6977 0.0000 0.0000 0.0000
# 3 28.5672 41.6977 108.8663 0.0000 0.0000 0.0000
# 4 0.0000 0.0000 0.0000 17.9719 0.0000 0.0000
# 5 0.0000 0.0000 0.0000 0.0000 26.8242 0.0000
# 6 0.0000 0.0000 0.0000 0.0000 0.0000 14.9823
#
#
#
# Elastic Compliance Matrix: (Units=1/GPa)
#
#
# Indices 1 2 3 4 5 6 
#
# 1 0.016618 -0.003336 -0.003083 0.000000 0.000000 0.000000
# 2 -0.003336 0.013180 -0.004173 0.000000 0.000000 0.000000
# 3 -0.003083 -0.004173 0.011593 0.000000 0.000000 0.000000
# 4 0.000000 0.000000 0.000000 0.055642 0.000000 0.000000
# 5 0.000000 0.000000 0.000000 0.000000 0.037280 0.000000
# 6 0.000000 0.000000 0.000000 0.000000 0.000000 0.066746
#
#
# Mechanical properties :
#
#
# Convention : Reuss Voigt Hill
#
# Bulk Modulus (GPa) = 49.48614 52.24067 50.86341
# Shear Modulus (GPa) = 21.83599 23.84947 22.84273
#
# Velocity S-wave (km/s) = 3.55106 3.71117 3.63200
# Velocity P-wave (km/s) = 6.73729 6.96650 6.85285
#
# Compressibility (1/GPa) = 0.02020768
#
# Stress axis : x y z
#
# Youngs Moduli (GPa) = 60.17391 75.86976 86.25990
#
# Poissons Ratio (x) = 0.25312 0.26594
# Poissons Ratio (y) = 0.20075 0.35996
# Poissons Ratio (z) = 0.18551 0.31660
#
# Static dielectric constant tensor:
#      x y z
#    x 1.567940 0.000000 0.000000 
#    y 0.000000 1.568080 0.000000 
#    z 0.000000 0.000000 1.595730 
# 
# From -- ./inp_files/19922.got.cif
#   From: 2010.05.17/outbox.cif.g08.bks.cpg/sg62_10_cif.got.tgz:19922.got - 2010.06.03 15:25:27.
