data_PCOD9463366
_publ_section_title
;
Structure prediction by ZEFSAII (Michael W. Deem and Ramdas Pophale) SiO2 
 PCOD9463366
Probable space group: P N M A
;
_chemical_formula_sum "Si O2"
_cell_formula_units_Z 40
_cell_length_a 13.269506
_cell_length_b 11.340052
_cell_length_c 13.619047
_cell_angle_alpha 90.000000
_cell_angle_beta 90.000000
_cell_angle_gamma 90.000000
_cell_volume 2049.351811
_symmetry_space_group_name_H-M "P N M A"
_symmetry_group_IT_number 62
_symmetry_cell_setting 'orthorhombic'
loop_
_space_group_symop_operation_xyz
x,y,z
1/2-x,-y,1/2+z
1/2+x,1/2-y,1/2-z
-x,1/2+y,-z
-x,-y,-z
1/2+x,y,1/2-z
1/2-x,1/2+y,1/2+z
x,1/2-y,z
loop_
_atom_site_type_symbol
_atom_site_label
_atom_site_fract_x
_atom_site_fract_y
_atom_site_fract_z
Si Si1 0.566575 0.611968 0.268456
Si Si2 0.131617 0.521483 0.704704
Si Si3 0.005550 0.125642 0.444498
Si Si4 0.794667 0.963503 0.636856
Si Si5 0.278086 0.110399 0.564353
O O1 0.545753 0.750000 0.263663
O O2 0.464621 0.538715 0.255801
O O3 0.646337 0.575826 0.182736
O O4 0.622420 0.585890 0.371515
O O5 0.213070 0.569635 0.781270
O O6 0.186808 0.423946 0.636990
O O7 0.085499 0.617703 0.632009
O O8 0.000641 0.250000 0.500979
O O9 0.111479 0.121369 0.386883
O O10 0.000000 0.000000 0.500000
O O11 0.736689 0.967300 0.533184
O O12 0.275784 0.250000 0.540525
#
# Coordination Sequence:
#
# PCOD9463366 Si02
#       5
#     8   8   8   8   8
#     4   9  20  36  57  86 120 158 206 254 302 361
#     4  10  21  38  58  87 119 156 199 254 298 360
#     4  11  23  39  62  90 120 159 203 250 301 357
#     4  10  21  36  59  86 119 157 198 248 305 361
#     4  10  19  35  58  84 118 162 201 248 307 362
#
# _framework density 19.518367000000001
#
# number of rings (size 3 to 8) (size 9 to 14) (size 15 to 20)
#    0.000    2.000    2.000    1.200    0.000    6.400 
#    0.000    0.000    0.000    1.200    0.000    0.000 
#    0.000    0.000    0.000    0.000    0.000    0.000 
#
# Total GULP energy -222842.373513 kJ/mol
# GULP energy per Si atom -5571.059338 kJ/mol
# Density = 1.947394 g / cm^3
# Si number density = 19.518367 Si / 1000 Ang^3
#
#
#
# Elastic Constant Matrix: (Units=GPa)
#
#
# Indices 1 2 3 4 5 6 
#
# 1 86.4195 30.2976 38.3120 0.0000 0.0000 0.0000
# 2 30.2976 91.1370 23.4247 0.0000 0.0000 0.0000
# 3 38.3120 23.4247 94.1512 0.0000 0.0000 0.0000
# 4 0.0000 0.0000 0.0000 16.7926 0.0000 0.0000
# 5 0.0000 0.0000 0.0000 0.0000 41.0575 0.0000
# 6 0.0000 0.0000 0.0000 0.0000 0.0000 0.9286
#
#
#
# Elastic Compliance Matrix: (Units=1/GPa)
#
#
# Indices 1 2 3 4 5 6 
#
# 1 0.015203 -0.003701 -0.005266 0.000000 0.000000 0.000000
# 2 -0.003701 0.012623 -0.001635 0.000000 0.000000 0.000000
# 3 -0.005266 -0.001635 0.013171 0.000000 0.000000 0.000000
# 4 0.000000 0.000000 0.000000 0.059550 0.000000 0.000000
# 5 0.000000 0.000000 0.000000 0.000000 0.024356 0.000000
# 6 0.000000 0.000000 0.000000 0.000000 0.000000 1.076856
#
#
# Mechanical properties :
#
#
# Convention : Reuss Voigt Hill
#
# Bulk Modulus (GPa) = 50.51903 50.64182 50.58042
# Shear Modulus (GPa) = 4.06650 23.73396 13.90023
#
# Velocity S-wave (km/s) = 1.44497 3.49087 2.67153
# Velocity P-wave (km/s) = 5.35938 6.50003 5.95707
#
# Compressibility (1/GPa) = 0.01979452
#
# Stress axis : x y z
#
# Youngs Moduli (GPa) = 65.77488 79.22091 75.92618
#
# Poissons Ratio (x) = 0.29318 0.39981
# Poissons Ratio (y) = 0.24342 0.12411
# Poissons Ratio (z) = 0.34636 0.12950
#
# Static dielectric constant tensor:
#      x y z
#    x 1.690740 0.000000 0.000000 
#    y 0.000000 1.694080 0.000000 
#    z 0.000000 0.000000 1.732830 
# 
# From -- ./inp_files/17813.got.cif
#   From: 2010.05.17/outbox.cif.g08.bks.cpg/sg62_9_cif.got.tgz:17813.got - 2010.06.03 15:25:27.
