data_PCOD9463249
_publ_section_title
;
Structure prediction by ZEFSAII (Michael W. Deem and Ramdas Pophale) SiO2 
 PCOD9463249
Probable space group: P N M A
;
_chemical_formula_sum "Si O2"
_cell_formula_units_Z 56
_cell_length_a 33.655543
_cell_length_b 14.785978
_cell_length_c 5.271329
_cell_angle_alpha 90.000000
_cell_angle_beta 90.000000
_cell_angle_gamma 90.000000
_cell_volume 2623.172074
_symmetry_space_group_name_H-M "P N M A"
_symmetry_group_IT_number 62
_symmetry_cell_setting 'orthorhombic'
loop_
_space_group_symop_operation_xyz
x,y,z
1/2-x,-y,1/2+z
1/2+x,1/2-y,1/2-z
-x,1/2+y,-z
-x,-y,-z
1/2+x,y,1/2-z
1/2-x,1/2+y,1/2+z
x,1/2-y,z
loop_
_atom_site_type_symbol
_atom_site_label
_atom_site_fract_x
_atom_site_fract_y
_atom_site_fract_z
Si Si1 0.012202 0.944173 0.254336
Si Si2 0.559579 0.344547 0.593714
Si Si3 0.327987 0.452624 0.491944
Si Si4 0.204034 0.644231 0.486284
Si Si5 0.594949 0.504883 0.298012
Si Si6 0.298066 0.852300 0.407159
Si Si7 0.866946 0.649375 0.482454
O O1 0.981153 0.861913 0.241804
O O2 0.059622 0.926850 0.275907
O O3 0.000000 0.000000 0.500000
O O4 0.000000 0.000000 0.000000
O O5 0.556371 0.250000 0.455997
O O6 0.568957 0.422038 0.398057
O O7 0.598263 0.344740 0.772454
O O8 0.317597 0.393029 0.736986
O O9 0.375866 0.456050 0.488546
O O10 0.313596 0.556062 0.535802
O O11 0.307977 0.412266 0.237818
O O12 0.194954 0.750000 0.532313
O O13 0.250715 0.638150 0.414092
O O14 0.623020 0.448069 0.106817
O O15 0.305920 0.750000 0.508383
O O16 0.323258 0.854655 0.145227
O O17 0.869092 0.750000 0.613087
#
# Coordination Sequence:
#
# PCOD9463249 Si02
#       7
#     8   8   8   8   8   8   8
#     4  10  21  38  60  87 124 169 210 255 314 389
#     4  10  20  37  59  90 130 172 213 266 335 408
#     4  12  24  42  70  97 131 175 226 278 343 407
#     4  11  26  47  67  92 129 179 231 284 337 398
#     4  11  22  36  63  94 134 171 227 275 339 405
#     4  10  22  41  66 100 138 171 218 278 345 420
#     4  10  19  34  59  95 136 174 213 269 341 413
#
# _framework density 21.348199999999999
#
# number of rings (size 3 to 8) (size 9 to 14) (size 15 to 20)
#    0.000    1.429    2.857    2.571    0.000    1.714 
#    0.000    6.429    0.000    0.000    0.000    0.000 
#    0.000    0.000    0.000    0.000    0.000    0.000 
#
# Total GULP energy -311749.035789 kJ/mol
# GULP energy per Si atom -5566.947068 kJ/mol
# Density = 2.129961 g / cm^3
# Si number density = 21.348200 Si / 1000 Ang^3
#
#
#
# Elastic Constant Matrix: (Units=GPa)
#
#
# Indices 1 2 3 4 5 6 
#
# 1 129.8423 50.1854 30.7511 0.0000 0.0000 0.0000
# 2 50.1854 68.1014 28.3408 0.0000 0.0000 0.0000
# 3 30.7511 28.3408 70.0149 0.0000 0.0000 0.0000
# 4 0.0000 0.0000 0.0000 15.9774 0.0000 0.0000
# 5 0.0000 0.0000 0.0000 0.0000 26.8399 0.0000
# 6 0.0000 0.0000 0.0000 0.0000 0.0000 34.2849
#
#
#
# Elastic Compliance Matrix: (Units=1/GPa)
#
#
# Indices 1 2 3 4 5 6 
#
# 1 0.010966 -0.007308 -0.001858 0.000000 0.000000 0.000000
# 2 -0.007308 0.022529 -0.005910 0.000000 0.000000 0.000000
# 3 -0.001858 -0.005910 0.017491 0.000000 0.000000 0.000000
# 4 0.000000 0.000000 0.000000 0.062588 0.000000 0.000000
# 5 0.000000 0.000000 0.000000 0.000000 0.037258 0.000000
# 6 0.000000 0.000000 0.000000 0.000000 0.000000 0.029167
#
#
# Mechanical properties :
#
#
# Convention : Reuss Voigt Hill
#
# Bulk Modulus (GPa) = 47.99779 54.05702 51.02740
# Shear Modulus (GPa) = 23.03127 25.99920 24.51524
#
# Velocity S-wave (km/s) = 3.28813 3.49358 3.39241
# Velocity P-wave (km/s) = 6.07847 6.45368 6.26889
#
# Compressibility (1/GPa) = 0.02083429
#
# Stress axis : x y z
#
# Youngs Moduli (GPa) = 91.18765 44.38782 57.17239
#
# Poissons Ratio (x) = 0.32439 0.10625
# Poissons Ratio (y) = 0.66640 0.33786
# Poissons Ratio (z) = 0.16946 0.26231
#
# Static dielectric constant tensor:
#      x y z
#    x 1.864430 0.000000 0.000000 
#    y 0.000000 1.845500 0.000000 
#    z 0.000000 0.000000 1.814610 
# 
# From -- ./inp_files/3584.got.cif
#   From: 2010.05.17/outbox.cif.g08.bks.cpg/sg62_2_cif.got.tgz:3584.got - 2010.06.03 15:25:27.
