data_PCOD9463113
_publ_section_title
;
Structure prediction by ZEFSAII (Michael W. Deem and Ramdas Pophale) SiO2 
 PCOD9463113
Probable space group: P N M A
;
_chemical_formula_sum "Si O2"
_cell_formula_units_Z 56
_cell_length_a 15.117807
_cell_length_b 8.430053
_cell_length_c 22.528111
_cell_angle_alpha 90.000000
_cell_angle_beta 90.000000
_cell_angle_gamma 90.000000
_cell_volume 2871.070647
_symmetry_space_group_name_H-M "P N M A"
_symmetry_group_IT_number 62
_symmetry_cell_setting 'orthorhombic'
loop_
_space_group_symop_operation_xyz
x,y,z
1/2-x,-y,1/2+z
1/2+x,1/2-y,1/2-z
-x,1/2+y,-z
-x,-y,-z
1/2+x,y,1/2-z
1/2-x,1/2+y,1/2+z
x,1/2-y,z
loop_
_atom_site_type_symbol
_atom_site_label
_atom_site_fract_x
_atom_site_fract_y
_atom_site_fract_z
Si Si1 0.798657 0.441363 0.119201
Si Si2 0.983313 0.560578 0.641920
Si Si3 0.655291 0.441244 0.903117
Si Si4 0.636833 0.057242 0.035721
Si Si5 0.325311 0.060930 0.778734
Si Si6 0.487291 0.060041 0.432406
Si Si7 0.153355 0.558172 0.143072
O O1 0.800035 0.250000 0.120893
O O2 0.727084 0.489827 0.069115
O O3 0.756196 0.496438 0.181604
O O4 0.895579 0.496739 0.098617
O O5 0.977133 0.750000 0.645953
O O6 0.942864 0.507589 0.578332
O O7 0.916520 0.487429 0.689232
O O8 0.084229 0.506947 0.643237
O O9 0.649251 0.250000 0.901957
O O10 0.755781 0.484510 0.889670
O O11 0.632770 0.501712 0.968988
O O12 0.636628 0.250000 0.033550
O O13 0.316884 0.250000 0.778054
O O14 0.333591 0.004553 0.711035
O O15 0.482739 0.250000 0.435309
O O16 0.500000 0.000000 0.500000
O O17 0.569344 0.009663 0.391349
O O18 0.145188 0.750000 0.142905
#
# Coordination Sequence:
#
# PCOD9463113 Si02
#       7
#     8   8   8   8   8   8   8
#     4   9  19  37  59  83 112 147 186 233 285 336
#     4  10  20  34  53  80 112 144 179 223 273 333
#     4  10  19  34  55  78 106 142 180 223 278 333
#     4   8  15  30  53  78 106 137 170 212 266 325
#     4  10  21  38  58  81 109 146 191 236 284 341
#     4  11  23  39  62  90 120 155 196 242 294 348
#     4  10  23  40  57  80 113 149 190 241 289 336
#
# _framework density 19.504919999999998
#
# number of rings (size 3 to 8) (size 9 to 14) (size 15 to 20)
#    0.000    2.286    0.000    3.429    0.000    6.286 
#    0.000    7.143    0.000    0.000    0.000    0.000 
#    0.000    0.000    0.000    0.000    0.000    0.000 
#
# Total GULP energy -312494.341340 kJ/mol
# GULP energy per Si atom -5580.256095 kJ/mol
# Density = 1.946053 g / cm^3
# Si number density = 19.504920 Si / 1000 Ang^3
#
#
#
# Elastic Constant Matrix: (Units=GPa)
#
#
# Indices 1 2 3 4 5 6 
#
# 1 122.6886 17.2126 27.3977 0.0000 0.0000 0.0000
# 2 17.2126 17.7045 14.1592 0.0000 0.0000 0.0000
# 3 27.3977 14.1592 95.6156 0.0000 0.0000 0.0000
# 4 0.0000 0.0000 0.0000 25.4826 0.0000 0.0000
# 5 0.0000 0.0000 0.0000 0.0000 12.0798 0.0000
# 6 0.0000 0.0000 0.0000 0.0000 0.0000 27.6853
#
#
#
# Elastic Compliance Matrix: (Units=1/GPa)
#
#
# Indices 1 2 3 4 5 6 
#
# 1 0.009639 -0.008124 -0.001559 0.000000 0.000000 0.000000
# 2 -0.008124 0.070919 -0.008174 0.000000 0.000000 0.000000
# 3 -0.001559 -0.008174 0.012116 0.000000 0.000000 0.000000
# 4 0.000000 0.000000 0.000000 0.039243 0.000000 0.000000
# 5 0.000000 0.000000 0.000000 0.000000 0.082783 0.000000
# 6 0.000000 0.000000 0.000000 0.000000 0.000000 0.036120
#
#
# Mechanical properties :
#
#
# Convention : Reuss Voigt Hill
#
# Bulk Modulus (GPa) = 17.55654 39.28307 28.41980
# Shear Modulus (GPa) = 16.36561 24.86548 20.61554
#
# Velocity S-wave (km/s) = 2.89978 3.57435 3.25459
# Velocity P-wave (km/s) = 4.49803 6.10069 5.35960
#
# Compressibility (1/GPa) = 0.05695883
#
# Stress axis : x y z
#
# Youngs Moduli (GPa) = 103.74968 14.10069 82.53790
#
# Poissons Ratio (x) = 0.11456 0.12866
# Poissons Ratio (y) = 0.84288 0.67467
# Poissons Ratio (z) = 0.16172 0.11526
#
# Static dielectric constant tensor:
#      x y z
#    x 1.675500 0.000000 0.000000 
#    y 0.000000 1.671530 0.000000 
#    z 0.000000 0.000000 1.683220 
# 
# From -- ./inp_files/27132.got.cif
#   From: 2010.05.17/outbox.cif.g08.bks.cpg/sg62_14_cif.got.tgz:27132.got - 2010.06.03 15:25:27.
