data_PCOD9463420
_publ_section_title
;
Structure prediction by ZEFSAII (Michael W. Deem and Ramdas Pophale) SiO2 
 PCOD9463420
Probable space group: P N M A
;
_chemical_formula_sum "Si O2"
_cell_formula_units_Z 40
_cell_length_a 13.175172
_cell_length_b 13.963901
_cell_length_c 12.208319
_cell_angle_alpha 90.000000
_cell_angle_beta 90.000000
_cell_angle_gamma 90.000000
_cell_volume 2246.047432
_symmetry_space_group_name_H-M "P N M A"
_symmetry_group_IT_number 62
_symmetry_cell_setting 'orthorhombic'
loop_
_space_group_symop_operation_xyz
x,y,z
1/2-x,-y,1/2+z
1/2+x,1/2-y,1/2-z
-x,1/2+y,-z
-x,-y,-z
1/2+x,y,1/2-z
1/2-x,1/2+y,1/2+z
x,1/2-y,z
loop_
_atom_site_type_symbol
_atom_site_label
_atom_site_fract_x
_atom_site_fract_y
_atom_site_fract_z
Si Si1 0.782440 0.861945 0.514216
Si Si2 0.536408 0.141168 0.839107
Si Si3 0.639390 0.001667 0.198952
Si Si4 0.183294 0.359757 0.857469
Si Si5 0.612554 0.486081 0.452850
O O1 0.759098 0.750000 0.527857
O O2 0.869280 0.870716 0.421422
O O3 0.683527 0.922192 0.479445
O O4 0.828392 0.909723 0.623470
O O5 0.496200 0.250000 0.854230
O O6 0.453262 0.059163 0.852099
O O7 0.582441 0.134542 0.716853
O O8 0.733845 0.928406 0.197172
O O9 0.613352 0.029537 0.322985
O O10 0.217160 0.250000 0.857043
O O11 0.161497 0.399193 0.978286
O O12 0.500000 0.500000 0.500000
#
# Coordination Sequence:
#
# PCOD9463420 Si02
#       5
#     8   8   8   8   8
#     4  10  23  40  58  84 121 159 194 236 293 353
#     4  10  19  35  60  86 113 152 196 239 284 339
#     4  11  21  37  62  84 119 151 200 239 292 343
#     4  10  21  36  56  85 115 149 191 242 290 341
#     4  11  22  37  59  87 117 151 192 245 296 342
#
# _framework density 17.809062999999998
#
# number of rings (size 3 to 8) (size 9 to 14) (size 15 to 20)
#    0.000    1.600    4.000    1.200    0.000    2.400 
#    0.000    0.000    0.000    0.000    0.000    0.000 
#    0.000    0.000    0.000    0.000    0.000    0.000 
#
# Total GULP energy -223248.348661 kJ/mol
# GULP energy per Si atom -5581.208717 kJ/mol
# Density = 1.776853 g / cm^3
# Si number density = 17.809063 Si / 1000 Ang^3
#
#
#
# Elastic Constant Matrix: (Units=GPa)
#
#
# Indices 1 2 3 4 5 6 
#
# 1 50.4973 3.6623 13.3832 0.0000 0.0000 0.0000
# 2 3.6623 65.5017 30.4471 0.0000 0.0000 0.0000
# 3 13.3832 30.4471 107.5653 0.0000 0.0000 0.0000
# 4 0.0000 0.0000 0.0000 11.7810 0.0000 0.0000
# 5 0.0000 0.0000 0.0000 0.0000 25.2681 0.0000
# 6 0.0000 0.0000 0.0000 0.0000 0.0000 15.1422
#
#
#
# Elastic Compliance Matrix: (Units=1/GPa)
#
#
# Indices 1 2 3 4 5 6 
#
# 1 0.020478 0.000045 -0.002561 0.000000 0.000000 0.000000
# 2 0.000045 0.017580 -0.004982 0.000000 0.000000 0.000000
# 3 -0.002561 -0.004982 0.011025 0.000000 0.000000 0.000000
# 4 0.000000 0.000000 0.000000 0.084882 0.000000 0.000000
# 5 0.000000 0.000000 0.000000 0.000000 0.039576 0.000000
# 6 0.000000 0.000000 0.000000 0.000000 0.000000 0.066040
#
#
# Mechanical properties :
#
#
# Convention : Reuss Voigt Hill
#
# Bulk Modulus (GPa) = 29.33463 35.39437 32.36450
# Shear Modulus (GPa) = 18.80129 22.17641 20.48885
#
# Velocity S-wave (km/s) = 3.25270 3.53261 3.39554
# Velocity P-wave (km/s) = 5.53301 6.04621 5.79529
#
# Compressibility (1/GPa) = 0.03408941
#
# Stress axis : x y z
#
# Youngs Moduli (GPa) = 48.83194 56.88318 90.69969
#
# Poissons Ratio (x) = -0.00258 0.23226
# Poissons Ratio (y) = -0.00221 0.45184
# Poissons Ratio (z) = 0.12505 0.28338
#
# Static dielectric constant tensor:
#      x y z
#    x 1.608320 0.000000 0.000000 
#    y 0.000000 1.582650 0.000000 
#    z 0.000000 0.000000 1.603910 
# 
# From -- ./inp_files/6092.got.cif
#   From: 2010.05.17/outbox.cif.g08.bks.cpg/sg62_4_cif.got.tgz:6092.got - 2010.06.03 15:25:27.
