data_PCOD9463365
_publ_section_title
;
Structure prediction by ZEFSAII (Michael W. Deem and Ramdas Pophale) SiO2 
 PCOD9463365
Probable space group: P N M A
;
_chemical_formula_sum "Si O2"
_cell_formula_units_Z 64
_cell_length_a 15.323345
_cell_length_b 7.798501
_cell_length_c 25.047319
_cell_angle_alpha 90.000000
_cell_angle_beta 90.000000
_cell_angle_gamma 90.000000
_cell_volume 2993.132612
_symmetry_space_group_name_H-M "P N M A"
_symmetry_group_IT_number 62
_symmetry_cell_setting 'orthorhombic'
loop_
_space_group_symop_operation_xyz
x,y,z
1/2-x,-y,1/2+z
1/2+x,1/2-y,1/2-z
-x,1/2+y,-z
-x,-y,-z
1/2+x,y,1/2-z
1/2-x,1/2+y,1/2+z
x,1/2-y,z
loop_
_atom_site_type_symbol
_atom_site_label
_atom_site_fract_x
_atom_site_fract_y
_atom_site_fract_z
Si Si1 0.096864 0.545524 0.020395
Si Si2 0.559261 0.544728 0.365070
Si Si3 0.637989 0.050530 0.253988
Si Si4 0.497817 0.044963 0.169506
Si Si5 0.328988 0.052670 0.226722
Si Si6 0.864337 0.955533 0.157101
Si Si7 0.443478 0.045293 0.948409
Si Si8 0.251683 0.545156 0.438108
O O1 0.100676 0.750000 0.022545
O O2 0.174010 0.486304 0.981949
O O3 0.106158 0.481522 0.081387
O O4 0.000000 0.500000 0.000000
O O5 0.572671 0.750000 0.359301
O O6 0.588167 0.460736 0.310079
O O7 0.455979 0.517251 0.372441
O O8 0.653391 0.250000 0.239462
O O9 0.576411 0.976251 0.207250
O O10 0.733275 0.971317 0.265543
O O11 0.494650 0.250000 0.179550
O O12 0.403499 0.975727 0.188637
O O13 0.516466 0.016120 0.107579
O O14 0.315078 0.250000 0.209094
O O15 0.367598 0.045953 0.286223
O O16 0.855774 0.750000 0.166034
O O17 0.787088 0.019302 0.118995
O O18 0.439992 0.250000 0.945681
O O19 0.343914 0.978097 0.952439
O O20 0.500000 0.000000 0.000000
O O21 0.245301 0.750000 0.432332
#
# Coordination Sequence:
#
# PCOD9463365 Si02
#       8
#     8   8   8   8   8   8   8   8
#     4  11  22  37  58  87 123 160 198 244 294 354
#     4  10  21  36  55  82 119 154 189 237 287 345
#     4  10  21  37  58  86 120 155 192 238 291 349
#     4  10  21  39  61  87 121 153 195 248 292 351
#     4  10  21  36  57  87 119 154 195 238 291 350
#     4  10  19  35  58  84 117 152 194 244 291 347
#     4  11  25  44  67  89 117 156 202 254 305 358
#     4  10  22  41  62  88 119 156 202 254 307 358
#
# _framework density 21.382277999999999
#
# number of rings (size 3 to 8) (size 9 to 14) (size 15 to 20)
#    0.000    1.750    2.500    1.500    0.000    5.000 
#    0.000    3.750    0.000    0.000    0.000    0.000 
#    0.000    0.000    0.000    0.000    0.000    0.000 
#
# Total GULP energy -357364.023762 kJ/mol
# GULP energy per Si atom -5583.812871 kJ/mol
# Density = 2.133361 g / cm^3
# Si number density = 21.382278 Si / 1000 Ang^3
#
#
#
# Elastic Constant Matrix: (Units=GPa)
#
#
# Indices 1 2 3 4 5 6 
#
# 1 146.7261 7.5122 63.9282 0.0000 0.0000 0.0000
# 2 7.5122 25.5750 -10.4704 0.0000 0.0000 0.0000
# 3 63.9282 -10.4704 134.6326 0.0000 0.0000 0.0000
# 4 0.0000 0.0000 0.0000 24.0214 0.0000 0.0000
# 5 0.0000 0.0000 0.0000 0.0000 29.3979 0.0000
# 6 0.0000 0.0000 0.0000 0.0000 0.0000 13.3613
#
#
#
# Elastic Compliance Matrix: (Units=1/GPa)
#
#
# Indices 1 2 3 4 5 6 
#
# 1 0.009085 -0.004580 -0.004670 0.000000 0.000000 0.000000
# 2 -0.004580 0.042696 0.005495 0.000000 0.000000 0.000000
# 3 -0.004670 0.005495 0.010072 0.000000 0.000000 0.000000
# 4 0.000000 0.000000 0.000000 0.041629 0.000000 0.000000
# 5 0.000000 0.000000 0.000000 0.000000 0.034016 0.000000
# 6 0.000000 0.000000 0.000000 0.000000 0.000000 0.074843
#
#
# Mechanical properties :
#
#
# Convention : Reuss Voigt Hill
#
# Bulk Modulus (GPa) = 18.40159 47.65263 33.02711
# Shear Modulus (GPa) = 21.01145 29.75371 25.38258
#
# Velocity S-wave (km/s) = 3.13814 3.73435 3.44915
# Velocity P-wave (km/s) = 4.66425 6.39752 5.59837
#
# Compressibility (1/GPa) = 0.05434312
#
# Stress axis : x y z
#
# Youngs Moduli (GPa) = 110.07662 23.42153 99.28104
#
# Poissons Ratio (x) = 0.10728 0.46363
# Poissons Ratio (y) = 0.50418 -0.54558
# Poissons Ratio (z) = 0.51404 -0.12871
#
# Static dielectric constant tensor:
#      x y z
#    x 1.820670 0.000000 0.000000 
#    y 0.000000 1.786370 0.000000 
#    z 0.000000 0.000000 1.772300 
# 
# From -- ./inp_files/29856.got.cif
#   From: 2010.05.17/outbox.cif.g08.bks.cpg/sg62_15_cif.got.tgz:29856.got - 2010.06.03 15:25:27.
