data_PCOD9463078
_publ_section_title
;
Structure prediction by ZEFSAII (Michael W. Deem and Ramdas Pophale) SiO2 
 PCOD9463078
Probable space group: P N M A
;
_chemical_formula_sum "Si O2"
_cell_formula_units_Z 64
_cell_length_a 9.730971
_cell_length_b 20.951593
_cell_length_c 18.709257
_cell_angle_alpha 90.000000
_cell_angle_beta 90.000000
_cell_angle_gamma 90.000000
_cell_volume 3814.431042
_symmetry_space_group_name_H-M "P N M A"
_symmetry_group_IT_number 62
_symmetry_cell_setting 'orthorhombic'
loop_
_space_group_symop_operation_xyz
x,y,z
1/2-x,-y,1/2+z
1/2+x,1/2-y,1/2-z
-x,1/2+y,-z
-x,-y,-z
1/2+x,y,1/2-z
1/2-x,1/2+y,1/2+z
x,1/2-y,z
loop_
_atom_site_type_symbol
_atom_site_label
_atom_site_fract_x
_atom_site_fract_y
_atom_site_fract_z
Si Si1 0.885374 0.973336 0.315688
Si Si2 0.074758 0.176454 0.421836
Si Si3 0.917662 0.062926 0.977031
Si Si4 0.041417 0.389364 0.112834
Si Si5 0.662640 0.882074 0.839591
Si Si6 0.590251 0.059963 0.972375
Si Si7 0.311857 0.324008 0.309838
Si Si8 0.939896 0.469319 0.823180
O O1 0.928076 0.935369 0.386880
O O2 0.906290 0.048224 0.335114
O O3 0.721465 0.968282 0.303816
O O4 0.968412 0.954828 0.245288
O O5 0.086066 0.250000 0.445938
O O6 0.056988 0.124284 0.484107
O O7 0.208092 0.159864 0.374031
O O8 0.947068 0.167867 0.368255
O O9 0.754758 0.049513 0.982501
O O10 0.953168 0.074390 0.893981
O O11 0.969999 0.112979 0.035427
O O12 0.000000 0.000000 0.000000
O O13 0.204685 0.382399 0.109730
O O14 0.021526 0.459078 0.149710
O O15 0.965047 0.339108 0.163104
O O16 0.714400 0.865008 0.760568
O O17 0.500000 0.000000 0.000000
O O18 0.293957 0.250000 0.292767
#
# Coordination Sequence:
#
# PCOD9463078 Si02
#       8
#     8   8   8   8   8   8   8   8
#     4  10  20  32  52  82 108 140 173 222 280 326
#     4  11  24  39  54  77 112 151 191 233 272 324
#     4   9  19  34  52  78 109 141 175 225 273 322
#     4  10  19  34  53  72 109 148 181 221 263 317
#     4  11  21  33  50  80 112 146 186 224 263 316
#     4  11  21  36  58  81 108 142 192 228 277 332
#     4  11  22  35  53  74 106 156 191 215 260 319
#     4   9  19  32  49  78 110 132 169 218 279 321
#
# _framework density 16.778388
#
# number of rings (size 3 to 8) (size 9 to 14) (size 15 to 20)
#    0.000    1.750    3.750    1.875    1.750    4.000 
#    0.000    0.000    0.000    0.000    0.000    4.375 
#    0.000    0.000    0.000    0.000    0.000    0.000 
#
# Total GULP energy -356789.514389 kJ/mol
# GULP energy per Si atom -5574.836162 kJ/mol
# Density = 1.674020 g / cm^3
# Si number density = 16.778388 Si / 1000 Ang^3
#
#
#
# Elastic Constant Matrix: (Units=GPa)
#
#
# Indices 1 2 3 4 5 6 
#
# 1 54.5561 10.5176 42.2928 0.0000 0.0000 0.0000
# 2 10.5176 53.5206 36.6650 0.0000 0.0000 0.0000
# 3 42.2928 36.6650 118.7098 0.0000 0.0000 0.0000
# 4 0.0000 0.0000 0.0000 22.8586 0.0000 0.0000
# 5 0.0000 0.0000 0.0000 0.0000 29.3108 0.0000
# 6 0.0000 0.0000 0.0000 0.0000 0.0000 13.0702
#
#
#
# Elastic Compliance Matrix: (Units=1/GPa)
#
#
# Indices 1 2 3 4 5 6 
#
# 1 0.025423 0.001533 -0.009531 0.000000 0.000000 0.000000
# 2 0.001533 0.023791 -0.007895 0.000000 0.000000 0.000000
# 3 -0.009531 -0.007895 0.014258 0.000000 0.000000 0.000000
# 4 0.000000 0.000000 0.000000 0.043747 0.000000 0.000000
# 5 0.000000 0.000000 0.000000 0.000000 0.034117 0.000000
# 6 0.000000 0.000000 0.000000 0.000000 0.000000 0.076510
#
#
# Mechanical properties :
#
#
# Convention : Reuss Voigt Hill
#
# Bulk Modulus (GPa) = 31.55806 45.08191 38.31999
# Shear Modulus (GPa) = 19.21648 22.20197 20.70923
#
# Velocity S-wave (km/s) = 3.38792 3.64159 3.51704
# Velocity P-wave (km/s) = 5.84410 6.67900 6.27545
#
# Compressibility (1/GPa) = 0.03168763
#
# Stress axis : x y z
#
# Youngs Moduli (GPa) = 39.33488 42.03209 70.13681
#
# Poissons Ratio (x) = -0.06445 0.66847
# Poissons Ratio (y) = -0.06032 0.55370
# Poissons Ratio (z) = 0.37490 0.33182
#
# Static dielectric constant tensor:
#      x y z
#    x 1.581410 0.000000 0.000000 
#    y 0.000000 1.584220 0.000000 
#    z 0.000000 0.000000 1.599260 
# 
# From -- ./inp_files/22637.got.cif
#   From: 2010.05.17/outbox.cif.g08.bks.cpg/sg62_12_cif.got.tgz:22637.got - 2010.06.03 15:25:27.
