data_PCOD9463586
_publ_section_title
;
Structure prediction by ZEFSAII (Michael W. Deem and Ramdas Pophale) SiO2 
 PCOD9463586
Probable space group: P N M A
;
_chemical_formula_sum "Si O2"
_cell_formula_units_Z 64
_cell_length_a 21.742494
_cell_length_b 7.917160
_cell_length_c 18.183933
_cell_angle_alpha 90.000000
_cell_angle_beta 90.000000
_cell_angle_gamma 90.000000
_cell_volume 3130.160475
_symmetry_space_group_name_H-M "P N M A"
_symmetry_group_IT_number 62
_symmetry_cell_setting 'orthorhombic'
loop_
_space_group_symop_operation_xyz
x,y,z
1/2-x,-y,1/2+z
1/2+x,1/2-y,1/2-z
-x,1/2+y,-z
-x,-y,-z
1/2+x,y,1/2-z
1/2-x,1/2+y,1/2+z
x,1/2-y,z
loop_
_atom_site_type_symbol
_atom_site_label
_atom_site_fract_x
_atom_site_fract_y
_atom_site_fract_z
Si Si1 0.887081 0.438466 0.158716
Si Si2 0.838726 0.457264 0.570121
Si Si3 0.296766 0.549199 0.470644
Si Si4 0.864939 0.549486 0.881995
Si Si5 0.961502 0.455260 0.289819
Si Si6 0.605085 0.952150 0.226718
Si Si7 0.501107 0.558316 0.417019
Si Si8 0.439641 0.453068 0.044975
O O1 0.862803 0.250000 0.170971
O O2 0.844947 0.518395 0.095545
O O3 0.906340 0.519188 0.236643
O O4 0.955431 0.436205 0.124808
O O5 0.838809 0.250000 0.571737
O O6 0.769512 0.516809 0.554806
O O7 0.867775 0.511121 0.648151
O O8 0.881816 0.512399 0.502705
O O9 0.290178 0.750000 0.478816
O O10 0.320877 0.489468 0.551108
O O11 0.874274 0.750000 0.893218
O O12 0.854387 0.521068 0.795112
O O13 0.929310 0.455347 0.892338
O O14 0.959102 0.250000 0.287236
O O15 0.032058 0.502547 0.269344
O O16 0.947584 0.515794 0.372167
O O17 0.608737 0.750000 0.229209
O O18 0.500000 0.500000 0.500000
O O19 0.478469 0.750000 0.408499
O O20 0.435368 0.250000 0.049291
O O21 0.500000 0.500000 0.000000
#
# Coordination Sequence:
#
# PCOD9463586 Si02
#       8
#     8   8   8   8   8   8   8   8
#     4  11  22  36  55  84 120 155 194 242 293 346
#     4   9  20  40  62  84 112 154 201 244 296 358
#     4  10  22  41  61  79 111 161 206 241 290 355
#     4  11  22  36  56  85 117 152 198 244 293 353
#     4  10  21  35  56  88 122 147 182 238 299 353
#     4  11  21  35  60  88 116 149 190 240 298 356
#     4  12  22  33  54  83 114 152 192 237 292 344
#     4  10  19  36  62  88 115 147 188 240 296 353
#
# _framework density 20.446235999999999
#
# number of rings (size 3 to 8) (size 9 to 14) (size 15 to 20)
#    0.000    1.500    3.750    2.250    0.000    1.000 
#    2.250    1.875    0.000    0.000    0.000    0.000 
#    0.000    0.000    0.000    0.000    0.000    0.000 
#
# Total GULP energy -356883.856830 kJ/mol
# GULP energy per Si atom -5576.310263 kJ/mol
# Density = 2.039970 g / cm^3
# Si number density = 20.446236 Si / 1000 Ang^3
#
#
#
# Elastic Constant Matrix: (Units=GPa)
#
#
# Indices 1 2 3 4 5 6 
#
# 1 110.8649 2.9865 57.7934 0.0000 0.0000 0.0000
# 2 2.9865 40.9924 3.7335 0.0000 0.0000 0.0000
# 3 57.7934 3.7335 179.5473 0.0000 0.0000 0.0000
# 4 0.0000 0.0000 0.0000 16.3362 0.0000 0.0000
# 5 0.0000 0.0000 0.0000 0.0000 18.5196 0.0000
# 6 0.0000 0.0000 0.0000 0.0000 0.0000 13.9718
#
#
#
# Elastic Compliance Matrix: (Units=1/GPa)
#
#
# Indices 1 2 3 4 5 6 
#
# 1 0.010848 -0.000473 -0.003482 0.000000 0.000000 0.000000
# 2 -0.000473 0.024462 -0.000356 0.000000 0.000000 0.000000
# 3 -0.003482 -0.000356 0.006698 0.000000 0.000000 0.000000
# 4 0.000000 0.000000 0.000000 0.061214 0.000000 0.000000
# 5 0.000000 0.000000 0.000000 0.000000 0.053997 0.000000
# 6 0.000000 0.000000 0.000000 0.000000 0.000000 0.071573
#
#
# Mechanical properties :
#
#
# Convention : Reuss Voigt Hill
#
# Bulk Modulus (GPa) = 29.95415 51.15907 40.55661
# Shear Modulus (GPa) = 20.11734 27.55826 23.83780
#
# Velocity S-wave (km/s) = 3.14014 3.67528 3.41820
# Velocity P-wave (km/s) = 5.27535 6.56398 5.95463
#
# Compressibility (1/GPa) = 0.03338436
#
# Stress axis : x y z
#
# Youngs Moduli (GPa) = 92.18426 40.88027 149.30404
#
# Poissons Ratio (x) = 0.01934 0.51986
# Poissons Ratio (y) = 0.04362 0.05320
# Poissons Ratio (z) = 0.32098 0.01457
#
# Static dielectric constant tensor:
#      x y z
#    x 1.685630 0.000000 0.000000 
#    y 0.000000 1.729720 0.000000 
#    z 0.000000 0.000000 1.901870 
# 
# From -- ./inp_files/24700.got.cif
#   From: 2010.05.17/outbox.cif.g08.bks.cpg/sg62_13_cif.got.tgz:24700.got - 2010.06.03 15:25:27.
