data_PCOD9463190
_publ_section_title
;
Structure prediction by ZEFSAII (Michael W. Deem and Ramdas Pophale) SiO2 
 PCOD9463190
Probable space group: P N M A
;
_chemical_formula_sum "Si O2"
_cell_formula_units_Z 64
_cell_length_a 22.929803
_cell_length_b 8.471310
_cell_length_c 16.617228
_cell_angle_alpha 90.000000
_cell_angle_beta 90.000000
_cell_angle_gamma 90.000000
_cell_volume 3227.821254
_symmetry_space_group_name_H-M "P N M A"
_symmetry_group_IT_number 62
_symmetry_cell_setting 'orthorhombic'
loop_
_space_group_symop_operation_xyz
x,y,z
1/2-x,-y,1/2+z
1/2+x,1/2-y,1/2-z
-x,1/2+y,-z
-x,-y,-z
1/2+x,y,1/2-z
1/2-x,1/2+y,1/2+z
x,1/2-y,z
loop_
_atom_site_type_symbol
_atom_site_label
_atom_site_fract_x
_atom_site_fract_y
_atom_site_fract_z
Si Si1 0.839980 0.425358 0.806511
Si Si2 0.451475 0.941092 0.936637
Si Si3 0.989136 0.434723 0.089872
Si Si4 0.047711 0.434476 0.253071
Si Si5 0.819970 0.440057 0.547727
Si Si6 0.707814 0.429323 0.456798
Si Si7 0.247773 0.431935 0.296601
Si Si8 0.147884 0.568094 0.896520
O O1 0.861617 0.250000 0.791774
O O2 0.883572 0.543435 0.762218
O O3 0.830760 0.463064 0.899107
O O4 0.776460 0.452793 0.770066
O O5 0.450044 0.750000 0.936822
O O6 0.464878 0.994458 0.843697
O O7 0.386615 0.003862 0.958996
O O8 0.500000 0.000000 0.000000
O O9 0.005928 0.250000 0.085545
O O10 0.920656 0.448226 0.107805
O O11 0.020718 0.503838 0.169793
O O12 0.000000 0.500000 0.000000
O O13 0.031354 0.250000 0.254105
O O14 0.818792 0.250000 0.560601
O O15 0.775357 0.472617 0.473629
O O16 0.789111 0.526132 0.623156
O O17 0.705638 0.250000 0.426766
O O18 0.675667 0.445706 0.541827
O O19 0.237674 0.250000 0.274867
O O20 0.315784 0.452278 0.315219
O O21 0.160993 0.750000 0.923070
#
# Coordination Sequence:
#
# PCOD9463190 Si02
#       8
#     8   8   8   8   8   8   8   8
#     4  12  23  35  56  85 117 149 194 246 293 355
#     4  11  23  40  63  87 118 161 208 260 311 363
#     4  10  21  38  59  87 121 158 200 243 295 358
#     4  10  22  40  62  87 119 162 208 251 303 366
#     4  10  20  37  60  86 113 147 193 244 300 361
#     4  10  21  36  57  85 117 151 189 237 296 361
#     4  10  19  34  57  82 112 148 185 232 294 355
#     4   9  19  36  57  81 112 149 188 231 286 349
#
# _framework density 19.827617
#
# number of rings (size 3 to 8) (size 9 to 14) (size 15 to 20)
#    0.000    1.750    1.250    3.375    0.000    5.500 
#    2.250    0.000    0.000    0.000    0.000    0.000 
#    0.000    0.000    0.000    0.000    0.000    0.000 
#
# Total GULP energy -356725.386400 kJ/mol
# GULP energy per Si atom -5573.834162 kJ/mol
# Density = 1.978249 g / cm^3
# Si number density = 19.827617 Si / 1000 Ang^3
#
#
#
# Elastic Constant Matrix: (Units=GPa)
#
#
# Indices 1 2 3 4 5 6 
#
# 1 55.2670 11.0595 23.4566 0.0000 0.0000 0.0000
# 2 11.0595 29.1937 11.3712 0.0000 0.0000 0.0000
# 3 23.4566 11.3712 89.7843 0.0000 0.0000 0.0000
# 4 0.0000 0.0000 0.0000 23.7294 0.0000 0.0000
# 5 0.0000 0.0000 0.0000 0.0000 24.0879 0.0000
# 6 0.0000 0.0000 0.0000 0.0000 0.0000 15.1853
#
#
#
# Elastic Compliance Matrix: (Units=1/GPa)
#
#
# Indices 1 2 3 4 5 6 
#
# 1 0.021376 -0.006230 -0.004796 0.000000 0.000000 0.000000
# 2 -0.006230 0.037847 -0.003166 0.000000 0.000000 0.000000
# 3 -0.004796 -0.003166 0.012792 0.000000 0.000000 0.000000
# 4 0.000000 0.000000 0.000000 0.042142 0.000000 0.000000
# 5 0.000000 0.000000 0.000000 0.000000 0.041515 0.000000
# 6 0.000000 0.000000 0.000000 0.000000 0.000000 0.065853
#
#
# Mechanical properties :
#
#
# Convention : Reuss Voigt Hill
#
# Bulk Modulus (GPa) = 22.91884 29.55772 26.23828
# Shear Modulus (GPa) = 18.90710 21.15770 20.03240
#
# Velocity S-wave (km/s) = 3.09135 3.27017 3.18201
# Velocity P-wave (km/s) = 4.93215 5.40355 5.17322
#
# Compressibility (1/GPa) = 0.04363222
#
# Stress axis : x y z
#
# Youngs Moduli (GPa) = 46.78143 26.42205 78.17624
#
# Poissons Ratio (x) = 0.16461 0.37490
# Poissons Ratio (y) = 0.29145 0.24748
# Poissons Ratio (z) = 0.22434 0.08364
#
# Static dielectric constant tensor:
#      x y z
#    x 1.704400 0.000000 0.000000 
#    y 0.000000 1.712780 0.000000 
#    z 0.000000 0.000000 1.749050 
# 
# From -- ./inp_files/24834.got.cif
#   From: 2010.05.17/outbox.cif.g08.bks.cpg/sg62_13_cif.got.tgz:24834.got - 2010.06.03 15:25:27.
