data_PCOD9463664
_publ_section_title
;
Structure prediction by ZEFSAII (Michael W. Deem and Ramdas Pophale) SiO2 
 PCOD9463664
Probable space group: P N M A
;
_chemical_formula_sum "Si O2"
_cell_formula_units_Z 24
_cell_length_a 23.961720
_cell_length_b 5.510861
_cell_length_c 7.713024
_cell_angle_alpha 90.000000
_cell_angle_beta 90.000000
_cell_angle_gamma 90.000000
_cell_volume 1018.502569
_symmetry_space_group_name_H-M "P N M A"
_symmetry_group_IT_number 62
_symmetry_cell_setting 'orthorhombic'
loop_
_space_group_symop_operation_xyz
x,y,z
1/2-x,-y,1/2+z
1/2+x,1/2-y,1/2-z
-x,1/2+y,-z
-x,-y,-z
1/2+x,y,1/2-z
1/2-x,1/2+y,1/2+z
x,1/2-y,z
loop_
_atom_site_type_symbol
_atom_site_label
_atom_site_fract_x
_atom_site_fract_y
_atom_site_fract_z
Si Si1 0.292489 0.250000 0.873971
Si Si2 0.366851 0.250000 0.539026
Si Si3 0.664201 0.250000 0.530770
Si Si4 0.844594 0.750000 0.608936
Si Si5 0.967567 0.750000 0.460535
Si Si6 0.009347 0.750000 0.100056
O O1 0.315276 0.250000 0.675054
O O2 0.316154 0.500465 0.953054
O O3 0.226533 0.250000 0.896918
O O4 0.363474 0.492966 0.426231
O O5 0.424578 0.250000 0.647445
O O6 0.661305 0.250000 0.318800
O O7 0.908889 0.750000 0.556488
O O8 0.000000 0.500000 0.500000
O O9 0.966157 0.750000 0.254972
O O10 0.000000 0.500000 0.000000
#
# Coordination Sequence:
#
# PCOD9463664 Si02
#       6
#     4   4   4   4   4   4
#     4  10  20  37  61  90 125 170 215 269 332 394
#     4  10  21  40  61  88 126 170 215 269 330 400
#     4  10  19  37  62  89 122 164 214 275 330 387
#     4  10  21  37  59  94 126 162 216 273 328 396
#     4  12  23  43  74 103 135 182 231 282 344 413
#     4  12  26  46  69 102 142 184 229 288 350 410
#
# _framework density 23.564005999999999
#
# number of rings (size 3 to 8) (size 9 to 14) (size 15 to 20)
#    0.000    1.333    0.000    8.000    0.000    0.000 
#    0.000   20.000    0.000    0.000    0.000    0.000 
#    0.000    0.000    0.000    0.000    0.000    0.000 
#
# Total GULP energy -134185.973145 kJ/mol
# GULP energy per Si atom -5591.082214 kJ/mol
# Density = 2.351037 g / cm^3
# Si number density = 23.564006 Si / 1000 Ang^3
#
#
#
# Elastic Constant Matrix: (Units=GPa)
#
#
# Indices 1 2 3 4 5 6 
#
# 1 112.6033 47.2101 16.6013 0.0000 0.0000 0.0000
# 2 47.2101 274.2066 24.1147 0.0000 0.0000 0.0000
# 3 16.6013 24.1147 66.0371 0.0000 0.0000 0.0000
# 4 0.0000 0.0000 0.0000 22.9631 0.0000 0.0000
# 5 0.0000 0.0000 0.0000 0.0000 28.7822 0.0000
# 6 0.0000 0.0000 0.0000 0.0000 0.0000 47.8745
#
#
#
# Elastic Compliance Matrix: (Units=1/GPa)
#
#
# Indices 1 2 3 4 5 6 
#
# 1 0.009799 -0.001519 -0.001909 0.000000 0.000000 0.000000
# 2 -0.001519 0.004003 -0.001080 0.000000 0.000000 0.000000
# 3 -0.001909 -0.001080 0.016017 0.000000 0.000000 0.000000
# 4 0.000000 0.000000 0.000000 0.043548 0.000000 0.000000
# 5 0.000000 0.000000 0.000000 0.000000 0.034744 0.000000
# 6 0.000000 0.000000 0.000000 0.000000 0.000000 0.020888
#
#
# Mechanical properties :
#
#
# Convention : Reuss Voigt Hill
#
# Bulk Modulus (GPa) = 48.06781 69.85546 58.96164
# Shear Modulus (GPa) = 34.49469 44.25202 39.37336
#
# Velocity S-wave (km/s) = 3.83021 4.33823 4.09211
# Velocity P-wave (km/s) = 6.32485 7.40291 6.88501
#
# Compressibility (1/GPa) = 0.02080394
#
# Stress axis : x y z
#
# Youngs Moduli (GPa) = 102.05021 249.78553 62.43282
#
# Poissons Ratio (x) = 0.37949 0.11916
# Poissons Ratio (y) = 0.15504 0.06743
# Poissons Ratio (z) = 0.19478 0.26977
#
# Static dielectric constant tensor:
#      x y z
#    x 1.922790 0.000000 0.000000 
#    y 0.000000 1.897630 0.000000 
#    z 0.000000 0.000000 1.914870 
# 
# From -- ./inp_files/8197.got.cif
#   From: 2010.05.17/outbox.cif.g08.bks.cpg/sg62_5_cif.got.tgz:8197.got - 2010.06.03 15:25:27.
