data_PCOD9463017
_publ_section_title
;
Structure prediction by ZEFSAII (Michael W. Deem and Ramdas Pophale) SiO2 
 PCOD9463017
Probable space group: P N M A
;
_chemical_formula_sum "Si O2"
_cell_formula_units_Z 64
_cell_length_a 20.937731
_cell_length_b 8.677079
_cell_length_c 19.911730
_cell_angle_alpha 90.000000
_cell_angle_beta 90.000000
_cell_angle_gamma 90.000000
_cell_volume 3617.530172
_symmetry_space_group_name_H-M "P N M A"
_symmetry_group_IT_number 62
_symmetry_cell_setting 'orthorhombic'
loop_
_space_group_symop_operation_xyz
x,y,z
1/2-x,-y,1/2+z
1/2+x,1/2-y,1/2-z
-x,1/2+y,-z
-x,-y,-z
1/2+x,y,1/2-z
1/2-x,1/2+y,1/2+z
x,1/2-y,z
loop_
_atom_site_type_symbol
_atom_site_label
_atom_site_fract_x
_atom_site_fract_y
_atom_site_fract_z
Si Si1 0.860618 0.064090 0.178897
Si Si2 0.688660 0.564870 0.961050
Si Si3 0.187215 0.564835 0.965315
Si Si4 0.360144 0.565311 0.175959
Si Si5 0.009404 0.065173 0.178358
Si Si6 0.937884 0.935737 0.962398
Si Si7 0.509075 0.564857 0.178693
Si Si8 0.561020 0.563889 0.038981
O O1 0.858684 0.250000 0.184662
O O2 0.820696 0.018344 0.113103
O O3 0.935106 0.018758 0.166980
O O4 0.840571 0.992237 0.249986
O O5 0.690782 0.750000 0.959862
O O6 0.679921 0.504067 0.885274
O O7 0.750673 0.501404 0.998494
O O8 0.625889 0.514305 0.002892
O O9 0.188186 0.750000 0.967404
O O10 0.124918 0.504762 0.004257
O O11 0.357322 0.750000 0.173407
O O12 0.434929 0.517014 0.167075
O O13 0.009763 0.250000 0.181907
O O14 0.052547 0.019058 0.115499
O O15 0.029912 0.998908 0.249670
O O16 0.936830 0.750000 0.966815
O O17 0.000000 0.000000 0.000000
O O18 0.509211 0.750000 0.181463
O O19 0.552354 0.514889 0.116297
O O20 0.558910 0.750000 0.037072
O O21 0.500000 0.500000 0.000000
#
# Coordination Sequence:
#
# PCOD9463017 Si02
#       8
#     8   8   8   8   8   8   8   8
#     4   9  18  35  56  80 111 146 188 233 281 338
#     4  11  23  38  57  83 115 154 191 234 287 342
#     4  11  23  40  59  83 115 153 193 238 287 339
#     4  10  19  33  56  84 112 145 188 234 281 338
#     4   9  18  33  53  81 113 145 183 229 280 334
#     4  11  21  36  58  85 115 147 188 235 283 339
#     4   9  18  32  52  82 113 143 185 234 280 331
#     4  10  20  35  56  82 112 143 183 229 278 330
#
# _framework density 17.691628000000001
#
# number of rings (size 3 to 8) (size 9 to 14) (size 15 to 20)
#    0.000    2.000    2.500    1.500    0.000    3.500 
#    0.000    1.250    0.000    6.000    0.000    0.000 
#    0.000    0.000    0.000    0.000    0.000    0.000 
#
# Total GULP energy -357184.014907 kJ/mol
# GULP energy per Si atom -5581.000233 kJ/mol
# Density = 1.765136 g / cm^3
# Si number density = 17.691628 Si / 1000 Ang^3
#
#
#
# Elastic Constant Matrix: (Units=GPa)
#
#
# Indices 1 2 3 4 5 6 
#
# 1 113.3356 32.9055 83.7339 0.0000 0.0000 0.0000
# 2 32.9055 34.0255 47.0341 0.0000 0.0000 0.0000
# 3 83.7339 47.0341 195.0291 0.0000 0.0000 0.0000
# 4 0.0000 0.0000 0.0000 32.0840 0.0000 0.0000
# 5 0.0000 0.0000 0.0000 0.0000 28.9740 0.0000
# 6 0.0000 0.0000 0.0000 0.0000 0.0000 24.0205
#
#
#
# Elastic Compliance Matrix: (Units=1/GPa)
#
#
# Indices 1 2 3 4 5 6 
#
# 1 0.014233 -0.007976 -0.004187 0.000000 0.000000 0.000000
# 2 -0.007976 0.048557 -0.008286 0.000000 0.000000 0.000000
# 3 -0.004187 -0.008286 0.008923 0.000000 0.000000 0.000000
# 4 0.000000 0.000000 0.000000 0.031168 0.000000 0.000000
# 5 0.000000 0.000000 0.000000 0.000000 0.034514 0.000000
# 6 0.000000 0.000000 0.000000 0.000000 0.000000 0.041631
#
#
# Mechanical properties :
#
#
# Convention : Reuss Voigt Hill
#
# Bulk Modulus (GPa) = 32.45193 74.41525 53.43359
# Shear Modulus (GPa) = 21.72068 28.93015 25.32542
#
# Velocity S-wave (km/s) = 3.50771 4.04820 3.78761
# Velocity P-wave (km/s) = 5.89816 8.00027 7.02825
#
# Compressibility (1/GPa) = 0.03081480
#
# Stress axis : x y z
#
# Youngs Moduli (GPa) = 70.26119 20.59440 112.06613
#
# Poissons Ratio (x) = 0.16427 0.46922
# Poissons Ratio (y) = 0.56043 0.92854
# Poissons Ratio (z) = 0.29419 0.17064
#
# Static dielectric constant tensor:
#      x y z
#    x 1.577560 0.000000 0.000000 
#    y 0.000000 1.603750 0.000000 
#    z 0.000000 0.000000 1.611610 
# 
# From -- ./inp_files/24820.got.cif
#   From: 2010.05.17/outbox.cif.g08.bks.cpg/sg62_13_cif.got.tgz:24820.got - 2010.06.03 15:25:27.
