data_PCOD9463634
_publ_section_title
;
Structure prediction by ZEFSAII (Michael W. Deem and Ramdas Pophale) SiO2 
 PCOD9463634
Probable space group: P N M A
;
_chemical_formula_sum "Si O2"
_cell_formula_units_Z 64
_cell_length_a 15.710218
_cell_length_b 7.672815
_cell_length_c 24.314778
_cell_angle_alpha 90.000000
_cell_angle_beta 90.000000
_cell_angle_gamma 90.000000
_cell_volume 2930.942154
_symmetry_space_group_name_H-M "P N M A"
_symmetry_group_IT_number 62
_symmetry_cell_setting 'orthorhombic'
loop_
_space_group_symop_operation_xyz
x,y,z
1/2-x,-y,1/2+z
1/2+x,1/2-y,1/2-z
-x,1/2+y,-z
-x,-y,-z
1/2+x,y,1/2-z
1/2-x,1/2+y,1/2+z
x,1/2-y,z
loop_
_atom_site_type_symbol
_atom_site_label
_atom_site_fract_x
_atom_site_fract_y
_atom_site_fract_z
Si Si1 0.395993 0.538766 0.122542
Si Si2 0.823546 0.541788 0.494977
Si Si3 0.074816 0.461817 0.887016
Si Si4 0.389181 0.956073 0.624230
Si Si5 0.747275 0.955385 0.792725
Si Si6 0.413695 0.041016 0.895135
Si Si7 0.748187 0.453329 0.667007
Si Si8 0.368337 0.952998 0.502268
O O1 0.396274 0.750000 0.121835
O O2 0.351154 0.480715 0.065626
O O3 0.340241 0.481690 0.174246
O O4 0.493368 0.475692 0.122047
O O5 0.814461 0.750000 0.493460
O O6 0.892247 0.495606 0.541284
O O7 0.732059 0.464697 0.511087
O O8 0.074564 0.250000 0.887140
O O9 0.159849 0.525810 0.856774
O O10 0.080462 0.525840 0.950352
O O11 0.987120 0.520387 0.859912
O O12 0.369865 0.750000 0.619962
O O13 0.321988 0.027809 0.667821
O O14 0.379484 0.032823 0.562727
O O15 0.761341 0.750000 0.784817
O O16 0.748241 0.035393 0.732500
O O17 0.416830 0.250000 0.888074
O O18 0.334043 0.971017 0.859771
O O19 0.747854 0.250000 0.650887
O O20 0.392170 0.750000 0.505887
#
# Coordination Sequence:
#
# PCOD9463634 Si02
#       8
#     8   8   8   8   8   8   8   8
#     4  10  22  39  61  90 120 154 196 238 287 350
#     4  11  21  33  57  93 124 152 190 240 291 344
#     4  10  21  37  61  88 114 152 195 235 286 346
#     4  10  22  38  59  87 119 154 189 236 296 347
#     4  11  24  41  61  84 115 155 195 244 297 342
#     4  10  21  40  63  85 118 159 195 237 290 350
#     4  10  22  41  62  83 112 154 200 242 288 344
#     4  10  19  37  60  84 119 157 191 231 290 358
#
# _framework density 21.835982000000001
#
# number of rings (size 3 to 8) (size 9 to 14) (size 15 to 20)
#    0.000    1.750    2.500    1.500    0.000    5.000 
#    0.000    3.750    0.000    0.000    0.000    0.000 
#    0.000    0.000    0.000    0.000    0.000    0.000 
#
# Total GULP energy -357711.334821 kJ/mol
# GULP energy per Si atom -5589.239607 kJ/mol
# Density = 2.178628 g / cm^3
# Si number density = 21.835982 Si / 1000 Ang^3
#
#
#
# Elastic Constant Matrix: (Units=GPa)
#
#
# Indices 1 2 3 4 5 6 
#
# 1 79.6619 1.4235 19.4844 0.0000 0.0000 0.0000
# 2 1.4235 34.9007 -7.9811 0.0000 0.0000 0.0000
# 3 19.4844 -7.9811 90.2294 0.0000 0.0000 0.0000
# 4 0.0000 0.0000 0.0000 19.1276 0.0000 0.0000
# 5 0.0000 0.0000 0.0000 0.0000 10.2430 0.0000
# 6 0.0000 0.0000 0.0000 0.0000 0.0000 8.2121
#
#
#
# Elastic Compliance Matrix: (Units=1/GPa)
#
#
# Indices 1 2 3 4 5 6 
#
# 1 0.013304 -0.001224 -0.002981 0.000000 0.000000 0.000000
# 2 -0.001224 0.029357 0.002861 0.000000 0.000000 0.000000
# 3 -0.002981 0.002861 0.011980 0.000000 0.000000 0.000000
# 4 0.000000 0.000000 0.000000 0.052280 0.000000 0.000000
# 5 0.000000 0.000000 0.000000 0.000000 0.097627 0.000000
# 6 0.000000 0.000000 0.000000 0.000000 0.000000 0.121772
#
#
# Mechanical properties :
#
#
# Convention : Reuss Voigt Hill
#
# Bulk Modulus (GPa) = 19.24862 25.62729 22.43795
# Shear Modulus (GPa) = 14.43724 20.30756 17.37240
#
# Velocity S-wave (km/s) = 2.57411 3.05291 2.82367
# Velocity P-wave (km/s) = 4.20344 4.91820 4.57480
#
# Compressibility (1/GPa) = 0.05195178
#
# Stress axis : x y z
#
# Youngs Moduli (GPa) = 75.16482 34.06348 83.47442
#
# Poissons Ratio (x) = 0.04171 0.24886
# Poissons Ratio (y) = 0.09203 -0.23883
# Poissons Ratio (z) = 0.22408 -0.09746
#
# Static dielectric constant tensor:
#      x y z
#    x 1.802480 0.000000 0.000000 
#    y 0.000000 1.807790 0.000000 
#    z 0.000000 0.000000 1.772460 
# 
# From -- ./inp_files/29725.got.cif
#   From: 2010.05.17/outbox.cif.g08.bks.cpg/sg62_15_cif.got.tgz:29725.got - 2010.06.03 15:25:27.
