data_PCOD9463219
_publ_section_title
;
Structure prediction by ZEFSAII (Michael W. Deem and Ramdas Pophale) SiO2 
 PCOD9463219
Probable space group: P N M A
;
_chemical_formula_sum "Si O2"
_cell_formula_units_Z 64
_cell_length_a 14.975201
_cell_length_b 11.847370
_cell_length_c 17.748553
_cell_angle_alpha 90.000000
_cell_angle_beta 90.000000
_cell_angle_gamma 90.000000
_cell_volume 3148.890538
_symmetry_space_group_name_H-M "P N M A"
_symmetry_group_IT_number 62
_symmetry_cell_setting 'orthorhombic'
loop_
_space_group_symop_operation_xyz
x,y,z
1/2-x,-y,1/2+z
1/2+x,1/2-y,1/2-z
-x,1/2+y,-z
-x,-y,-z
1/2+x,y,1/2-z
1/2-x,1/2+y,1/2+z
x,1/2-y,z
loop_
_atom_site_type_symbol
_atom_site_label
_atom_site_fract_x
_atom_site_fract_y
_atom_site_fract_z
Si Si1 0.858125 0.575197 0.020562
Si Si2 0.212111 0.961565 0.583242
Si Si3 0.243727 0.520007 0.839339
Si Si4 0.130003 0.380170 0.454402
Si Si5 0.463516 0.432009 0.589866
Si Si6 0.187404 0.880051 0.201597
Si Si7 0.447985 0.384764 0.307041
Si Si8 0.472112 0.118329 0.141386
O O1 0.798356 0.556582 0.094199
O O2 0.950298 0.626581 0.052295
O O3 0.789701 0.614233 0.955523
O O4 0.895916 0.462056 0.978223
O O5 0.130284 0.894810 0.618592
O O6 0.171422 0.042456 0.518801
O O7 0.253163 0.044195 0.645594
O O8 0.305528 0.609619 0.881942
O O9 0.299914 0.445294 0.780596
O O10 0.156439 0.581075 0.805773
O O11 0.122781 0.250000 0.479491
O O12 0.036675 0.428541 0.422897
O O13 0.408451 0.378715 0.658671
O O14 0.502641 0.547688 0.626635
O O15 0.216887 0.750000 0.209028
O O16 0.457119 0.250000 0.315216
O O17 0.486160 0.424390 0.226170
O O18 0.495109 0.250000 0.144569
#
# Coordination Sequence:
#
# PCOD9463219 Si02
#       8
#     8   8   8   8   8   8   8   8
#     4   8  18  35  58  81 113 151 186 238 301 335
#     4  10  19  37  58  82 114 150 191 247 287 352
#     4  10  19  36  57  83 118 148 191 245 289 346
#     4  10  20  34  57  84 110 148 193 239 294 346
#     4   9  18  37  57  84 117 147 192 246 290 345
#     4  11  22  37  58  81 113 158 199 238 295 359
#     4  10  19  34  58  85 114 147 187 233 294 353
#     4  10  20  34  53  82 115 149 188 237 299 351
#
# _framework density 20.324618999999998
#
# number of rings (size 3 to 8) (size 9 to 14) (size 15 to 20)
#    0.000    2.250    1.250    1.875    0.000    0.000 
#    0.000   21.875    0.000    3.750    0.000    0.000 
#    0.000    0.000    0.000    0.000    0.000    0.000 
#
# Total GULP energy -356289.526466 kJ/mol
# GULP energy per Si atom -5567.023851 kJ/mol
# Density = 2.027836 g / cm^3
# Si number density = 20.324619 Si / 1000 Ang^3
#
#
#
# Elastic Constant Matrix: (Units=GPa)
#
#
# Indices 1 2 3 4 5 6 
#
# 1 62.1594 -4.1916 11.2809 0.0000 0.0000 0.0000
# 2 -4.1916 52.4297 18.4739 0.0000 0.0000 0.0000
# 3 11.2809 18.4739 106.8893 0.0000 0.0000 0.0000
# 4 0.0000 0.0000 0.0000 1.6668 0.0000 0.0000
# 5 0.0000 0.0000 0.0000 0.0000 42.3868 0.0000
# 6 0.0000 0.0000 0.0000 0.0000 0.0000 14.8121
#
#
#
# Elastic Compliance Matrix: (Units=1/GPa)
#
#
# Indices 1 2 3 4 5 6 
#
# 1 0.016611 0.002072 -0.002111 0.000000 0.000000 0.000000
# 2 0.002072 0.020568 -0.003774 0.000000 0.000000 0.000000
# 3 -0.002111 -0.003774 0.010230 0.000000 0.000000 0.000000
# 4 0.000000 0.000000 0.000000 0.599965 0.000000 0.000000
# 5 0.000000 0.000000 0.000000 0.000000 0.023592 0.000000
# 6 0.000000 0.000000 0.000000 0.000000 0.000000 0.067512
#
#
# Mechanical properties :
#
#
# Convention : Reuss Voigt Hill
#
# Bulk Modulus (GPa) = 25.13590 30.28942 27.71266
# Shear Modulus (GPa) = 6.58444 24.83415 15.70930
#
# Velocity S-wave (km/s) = 1.80185 3.49933 2.78316
# Velocity P-wave (km/s) = 4.08937 5.59126 4.89822
#
# Compressibility (1/GPa) = 0.03978373
#
# Stress axis : x y z
#
# Youngs Moduli (GPa) = 60.20284 48.61819 97.74723
#
# Poissons Ratio (x) = -0.10073 0.20636
# Poissons Ratio (y) = -0.12473 0.36885
# Poissons Ratio (z) = 0.12710 0.18346
#
# Static dielectric constant tensor:
#      x y z
#    x 1.773280 0.000000 0.000000 
#    y 0.000000 1.685670 0.000000 
#    z 0.000000 0.000000 1.741200 
# 
# From -- ./inp_files/24016.got.cif
#   From: 2010.05.17/outbox.cif.g08.bks.cpg/sg62_13_cif.got.tgz:24016.got - 2010.06.03 15:25:27.
