data_PCOD9463833
_publ_section_title
;
Structure prediction by ZEFSAII (Michael W. Deem and Ramdas Pophale) SiO2 
 PCOD9463833
Probable space group: P N M A
;
_chemical_formula_sum "Si O2"
_cell_formula_units_Z 64
_cell_length_a 17.838031
_cell_length_b 9.180948
_cell_length_c 23.483811
_cell_angle_alpha 90.000000
_cell_angle_beta 90.000000
_cell_angle_gamma 90.000000
_cell_volume 3845.944550
_symmetry_space_group_name_H-M "P N M A"
_symmetry_group_IT_number 62
_symmetry_cell_setting 'orthorhombic'
loop_
_space_group_symop_operation_xyz
x,y,z
1/2-x,-y,1/2+z
1/2+x,1/2-y,1/2-z
-x,1/2+y,-z
-x,-y,-z
1/2+x,y,1/2-z
1/2-x,1/2+y,1/2+z
x,1/2-y,z
loop_
_atom_site_type_symbol
_atom_site_label
_atom_site_fract_x
_atom_site_fract_y
_atom_site_fract_z
Si Si1 0.887202 0.583477 0.023469
Si Si2 0.682037 0.919932 0.139550
Si Si3 0.902080 0.078043 0.528906
Si Si4 0.541293 0.921547 0.913112
Si Si5 0.328058 0.077791 0.368041
Si Si6 0.517686 0.576411 0.192631
Si Si7 0.946644 0.417098 0.919740
Si Si8 0.988633 0.075978 0.187585
O O1 0.862217 0.750000 0.016295
O O2 0.840576 0.500532 0.071452
O O3 0.971938 0.586927 0.049136
O O4 0.892539 0.498832 0.963934
O O5 0.699447 0.750000 0.148735
O O6 0.666519 0.941448 0.071903
O O7 0.602726 0.951251 0.170154
O O8 0.751574 0.016765 0.158172
O O9 0.925317 0.250000 0.535444
O O10 0.895227 0.052340 0.461382
O O11 0.966171 0.972633 0.553642
O O12 0.538881 0.750000 0.900233
O O13 0.538485 0.012893 0.855319
O O14 0.323652 0.250000 0.376386
O O15 0.402252 0.047348 0.330769
O O16 0.508667 0.750000 0.197552
O O17 0.505142 0.497288 0.252186
O O18 0.924191 0.250000 0.909339
O O19 0.960169 0.504875 0.861670
O O20 0.999346 0.250000 0.189335
#
# Coordination Sequence:
#
# PCOD9463833 Si02
#       8
#     8   8   8   8   8   8   8   8
#     4   9  16  27  45  68  94 123 152 185 231 284
#     4   9  18  32  49  70  97 127 159 199 247 298
#     4   8  15  27  43  66  94 121 150 186 230 281
#     4   9  15  25  44  68  93 120 150 188 233 278
#     4  10  20  32  48  72  99 126 160 204 250 298
#     4  10  20  33  49  71  98 129 168 209 247 291
#     4   9  16  27  45  69  95 121 151 190 234 278
#     4  10  20  33  49  71  98 129 168 208 246 291
#
# _framework density 16.640906000000001
#
# number of rings (size 3 to 8) (size 9 to 14) (size 15 to 20)
#    0.000    2.750    0.000    3.000    0.000    7.500 
#    0.000    0.000    0.000    1.500    0.000    5.250 
#    0.000    0.000    0.000    0.000    0.000    0.000 
#
# Total GULP energy -356387.645629 kJ/mol
# GULP energy per Si atom -5568.556963 kJ/mol
# Density = 1.660303 g / cm^3
# Si number density = 16.640906 Si / 1000 Ang^3
#
#
#
# Elastic Constant Matrix: (Units=GPa)
#
#
# Indices 1 2 3 4 5 6 
#
# 1 43.1834 41.3043 29.3677 0.0000 0.0000 0.0000
# 2 41.3043 99.9744 72.8065 0.0000 0.0000 0.0000
# 3 29.3677 72.8065 136.2438 0.0000 0.0000 0.0000
# 4 0.0000 0.0000 0.0000 32.0110 0.0000 0.0000
# 5 0.0000 0.0000 0.0000 0.0000 8.4873 0.0000
# 6 0.0000 0.0000 0.0000 0.0000 0.0000 20.9685
#
#
#
# Elastic Compliance Matrix: (Units=1/GPa)
#
#
# Indices 1 2 3 4 5 6 
#
# 1 0.038296 -0.016061 0.000328 0.000000 0.000000 0.000000
# 2 -0.016061 0.023111 -0.008888 0.000000 0.000000 0.000000
# 3 0.000328 -0.008888 0.012019 0.000000 0.000000 0.000000
# 4 0.000000 0.000000 0.000000 0.031239 0.000000 0.000000
# 5 0.000000 0.000000 0.000000 0.000000 0.117823 0.000000
# 6 0.000000 0.000000 0.000000 0.000000 0.000000 0.047691
#
#
# Mechanical properties :
#
#
# Convention : Reuss Voigt Hill
#
# Bulk Modulus (GPa) = 41.35045 62.92873 52.13959
# Shear Modulus (GPa) = 15.26807 21.35491 18.31149
#
# Velocity S-wave (km/s) = 3.03232 3.58617 3.32081
# Velocity P-wave (km/s) = 6.09611 7.41925 6.78999
#
# Compressibility (1/GPa) = 0.02418353
#
# Stress axis : x y z
#
# Youngs Moduli (GPa) = 26.11249 43.26994 83.20293
#
# Poissons Ratio (x) = 0.69494 -0.02727
# Poissons Ratio (y) = 0.41938 0.73952
# Poissons Ratio (z) = -0.00856 0.38459
#
# Static dielectric constant tensor:
#      x y z
#    x 1.575440 0.000000 0.000000 
#    y 0.000000 1.558110 0.000000 
#    z 0.000000 0.000000 1.567980 
# 
# From -- ./inp_files/30077.got.cif
#   From: 2010.05.17/outbox.cif.g08.bks.cpg/sg62_16_cif.got.tgz:30077.got - 2010.06.03 15:25:27.
