data_PCOD9463981
_publ_section_title
;
Structure prediction by ZEFSAII (Michael W. Deem and Ramdas Pophale) SiO2 
 PCOD9463981
Probable space group: P N M A
;
_chemical_formula_sum "Si O2"
_cell_formula_units_Z 56
_cell_length_a 15.872487
_cell_length_b 8.069321
_cell_length_c 19.769357
_cell_angle_alpha 90.000000
_cell_angle_beta 90.000000
_cell_angle_gamma 90.000000
_cell_volume 2532.063054
_symmetry_space_group_name_H-M "P N M A"
_symmetry_group_IT_number 62
_symmetry_cell_setting 'orthorhombic'
loop_
_space_group_symop_operation_xyz
x,y,z
1/2-x,-y,1/2+z
1/2+x,1/2-y,1/2-z
-x,1/2+y,-z
-x,-y,-z
1/2+x,y,1/2-z
1/2-x,1/2+y,1/2+z
x,1/2-y,z
loop_
_atom_site_type_symbol
_atom_site_label
_atom_site_fract_x
_atom_site_fract_y
_atom_site_fract_z
Si Si1 0.724995 0.060130 0.593325
Si Si2 0.269888 0.549917 0.259842
Si Si3 0.033848 0.050668 0.754084
Si Si4 0.595781 0.048955 0.492675
Si Si5 0.005587 0.450127 0.602290
Si Si6 0.124219 0.446591 0.156887
Si Si7 0.136885 0.438927 0.497865
O O1 0.703372 0.250000 0.609305
O O2 0.758634 0.994264 0.664547
O O3 0.644419 0.980331 0.558325
O O4 0.792795 0.053535 0.533763
O O5 0.268304 0.750000 0.253641
O O6 0.368304 0.495298 0.257825
O O7 0.204042 0.491696 0.203545
O O8 0.037030 0.250000 0.755735
O O9 0.000446 0.001393 0.679913
O O10 0.964709 0.999404 0.809203
O O11 0.603463 0.250000 0.493820
O O12 0.630171 0.988031 0.420135
O O13 0.500000 0.000000 0.500000
O O14 0.991117 0.250000 0.596138
O O15 0.097942 0.481505 0.570514
O O16 0.940143 0.544222 0.554973
O O17 0.121950 0.250000 0.152446
O O18 0.167301 0.250000 0.499010
#
# Coordination Sequence:
#
# PCOD9463981 Si02
#       7
#     8   8   8   8   8   8   8
#     4  10  21  38  58  81 113 152 195 240 290 349
#     4  10  22  39  62  88 116 158 209 252 296 358
#     4  10  21  39  62  84 113 157 207 249 291 354
#     4  10  23  42  63  88 119 158 203 250 302 357
#     4   9  19  35  54  79 112 147 187 233 282 343
#     4  11  24  40  60  92 129 160 197 253 317 370
#     4  10  20  33  53  83 112 143 185 232 286 343
#
# _framework density 22.116354999999999
#
# number of rings (size 3 to 8) (size 9 to 14) (size 15 to 20)
#    0.000    2.000    0.000    2.571    2.000    8.571 
#    0.000    0.000    0.000    0.000    0.000    0.000 
#    0.000    0.000    0.000    0.000    0.000    0.000 
#
# Total GULP energy -312535.302169 kJ/mol
# GULP energy per Si atom -5580.987539 kJ/mol
# Density = 2.206602 g / cm^3
# Si number density = 22.116355 Si / 1000 Ang^3
#
#
#
# Elastic Constant Matrix: (Units=GPa)
#
#
# Indices 1 2 3 4 5 6 
#
# 1 73.7866 1.5624 10.5087 0.0000 0.0000 0.0000
# 2 1.5624 13.2535 13.3706 0.0000 0.0000 0.0000
# 3 10.5087 13.3706 95.7535 0.0000 0.0000 0.0000
# 4 0.0000 0.0000 0.0000 18.7587 0.0000 0.0000
# 5 0.0000 0.0000 0.0000 0.0000 33.0500 0.0000
# 6 0.0000 0.0000 0.0000 0.0000 0.0000 25.0879
#
#
#
# Elastic Compliance Matrix: (Units=1/GPa)
#
#
# Indices 1 2 3 4 5 6 
#
# 1 0.013768 -0.000115 -0.001495 0.000000 0.000000 0.000000
# 2 -0.000115 0.087824 -0.012251 0.000000 0.000000 0.000000
# 3 -0.001495 -0.012251 0.012318 0.000000 0.000000 0.000000
# 4 0.000000 0.000000 0.000000 0.053309 0.000000 0.000000
# 5 0.000000 0.000000 0.000000 0.000000 0.030257 0.000000
# 6 0.000000 0.000000 0.000000 0.000000 0.000000 0.039860
#
#
# Mechanical properties :
#
#
# Convention : Reuss Voigt Hill
#
# Bulk Modulus (GPa) = 11.60239 25.96410 18.78325
# Shear Modulus (GPa) = 17.01913 25.86943 21.44428
#
# Velocity S-wave (km/s) = 2.77704 3.42379 3.11724
# Velocity P-wave (km/s) = 3.94209 5.23403 4.63331
#
# Compressibility (1/GPa) = 0.08618913
#
# Stress axis : x y z
#
# Youngs Moduli (GPa) = 72.63248 11.38638 81.18075
#
# Poissons Ratio (x) = 0.00131 0.12136
# Poissons Ratio (y) = 0.00835 0.99452
# Poissons Ratio (z) = 0.10858 0.13949
#
# Static dielectric constant tensor:
#      x y z
#    x 1.850650 0.000000 0.000000 
#    y 0.000000 1.796390 0.000000 
#    z 0.000000 0.000000 1.839600 
# 
# From -- ./inp_files/27237.got.cif
#   From: 2010.05.17/outbox.cif.g08.bks.cpg/sg62_14_cif.got.tgz:27237.got - 2010.06.03 15:25:27.
