data_PCOD9463752
_publ_section_title
;
Structure prediction by ZEFSAII (Michael W. Deem and Ramdas Pophale) SiO2 
 PCOD9463752
Probable space group: P N M A
;
_chemical_formula_sum "Si O2"
_cell_formula_units_Z 64
_cell_length_a 15.730559
_cell_length_b 8.294013
_cell_length_c 25.070117
_cell_angle_alpha 90.000000
_cell_angle_beta 90.000000
_cell_angle_gamma 90.000000
_cell_volume 3270.884648
_symmetry_space_group_name_H-M "P N M A"
_symmetry_group_IT_number 62
_symmetry_cell_setting 'orthorhombic'
loop_
_space_group_symop_operation_xyz
x,y,z
1/2-x,-y,1/2+z
1/2+x,1/2-y,1/2-z
-x,1/2+y,-z
-x,-y,-z
1/2+x,y,1/2-z
1/2-x,1/2+y,1/2+z
x,1/2-y,z
loop_
_atom_site_type_symbol
_atom_site_label
_atom_site_fract_x
_atom_site_fract_y
_atom_site_fract_z
Si Si1 0.747506 0.444775 0.937785
Si Si2 0.091515 0.944035 0.761253
Si Si3 0.093836 0.054961 0.484992
Si Si4 0.598461 0.937582 0.245107
Si Si5 0.351215 0.062132 0.374657
Si Si6 0.257028 0.442926 0.184406
Si Si7 0.148539 0.437416 0.368323
Si Si8 0.404696 0.054343 0.489542
O O1 0.746861 0.250000 0.938862
O O2 0.743679 0.496964 0.876385
O O3 0.834243 0.499304 0.967306
O O4 0.666365 0.499907 0.973177
O O5 0.101852 0.750000 0.762430
O O6 0.115331 0.010575 0.819720
O O7 0.159667 0.002671 0.717201
O O8 0.993794 0.983103 0.751226
O O9 0.097736 0.250000 0.484373
O O10 0.113195 0.001334 0.424565
O O11 0.000000 0.000000 0.500000
O O12 0.591265 0.750000 0.257571
O O13 0.672370 0.008741 0.282890
O O14 0.623784 0.964654 0.183691
O O15 0.379498 0.250000 0.375081
O O16 0.249903 0.062321 0.373011
O O17 0.380051 0.991856 0.430782
O O18 0.260197 0.250000 0.182993
O O19 0.121281 0.250000 0.360551
O O20 0.400909 0.250000 0.489297
O O21 0.500000 0.000000 0.500000
#
# Coordination Sequence:
#
# PCOD9463752 Si02
#       8
#     8   8   8   8   8   8   8   8
#     4  10  22  41  61  87 128 165 196 246 312 365
#     4  10  22  41  65  90 117 156 207 256 298 357
#     4  10  22  39  63  90 122 162 204 251 304 362
#     4  12  26  41  61  92 128 161 196 252 315 368
#     4   9  17  37  66  87 109 149 203 253 293 343
#     4  11  24  43  66  89 119 163 211 254 299 363
#     4  10  19  40  67  88 115 159 210 254 299 360
#     4  10  21  38  61  89 119 156 198 243 297 354
#
# _framework density 19.566573000000002
#
# number of rings (size 3 to 8) (size 9 to 14) (size 15 to 20)
#    0.000    1.750    2.500    1.500    3.500    2.500 
#    0.000    0.625    0.000    0.000    0.000    0.000 
#    0.000    0.000    0.000    0.000    0.000    0.000 
#
# Total GULP energy -357287.259560 kJ/mol
# GULP energy per Si atom -5582.613431 kJ/mol
# Density = 1.952204 g / cm^3
# Si number density = 19.566573 Si / 1000 Ang^3
#
#
#
# Elastic Constant Matrix: (Units=GPa)
#
#
# Indices 1 2 3 4 5 6 
#
# 1 128.1184 4.0558 72.0795 0.0000 0.0000 0.0000
# 2 4.0558 14.2786 11.8668 0.0000 0.0000 0.0000
# 3 72.0795 11.8668 163.8170 0.0000 0.0000 0.0000
# 4 0.0000 0.0000 0.0000 27.5596 0.0000 0.0000
# 5 0.0000 0.0000 0.0000 0.0000 32.6712 0.0000
# 6 0.0000 0.0000 0.0000 0.0000 0.0000 29.6199
#
#
#
# Elastic Compliance Matrix: (Units=1/GPa)
#
#
# Indices 1 2 3 4 5 6 
#
# 1 0.010384 0.000902 -0.004634 0.000000 0.000000 0.000000
# 2 0.000902 0.074600 -0.005801 0.000000 0.000000 0.000000
# 3 -0.004634 -0.005801 0.008564 0.000000 0.000000 0.000000
# 4 0.000000 0.000000 0.000000 0.036285 0.000000 0.000000
# 5 0.000000 0.000000 0.000000 0.000000 0.030608 0.000000
# 6 0.000000 0.000000 0.000000 0.000000 0.000000 0.033761
#
#
# Mechanical properties :
#
#
# Convention : Reuss Voigt Hill
#
# Bulk Modulus (GPa) = 13.42623 53.57980 33.50301
# Shear Modulus (GPa) = 21.00004 32.51761 26.75883
#
# Velocity S-wave (km/s) = 3.27962 4.08106 3.70209
# Velocity P-wave (km/s) = 4.60629 7.04624 5.95262
#
# Compressibility (1/GPa) = 0.07448110
#
# Stress axis : x y z
#
# Youngs Moduli (GPa) = 96.30225 13.40488 116.77242
#
# Poissons Ratio (x) = -0.01209 0.54116
# Poissons Ratio (y) = -0.08687 0.67738
# Poissons Ratio (z) = 0.44629 0.07776
#
# Static dielectric constant tensor:
#      x y z
#    x 1.671870 0.000000 0.000000 
#    y 0.000000 1.693080 0.000000 
#    z 0.000000 0.000000 1.673370 
# 
# From -- ./inp_files/29881.got.cif
#   From: 2010.05.17/outbox.cif.g08.bks.cpg/sg62_15_cif.got.tgz:29881.got - 2010.06.03 15:25:27.
