data_PCOD9463542
_publ_section_title
;
Structure prediction by ZEFSAII (Michael W. Deem and Ramdas Pophale) SiO2 
 PCOD9463542
Probable space group: P N M A
;
_chemical_formula_sum "Si O2"
_cell_formula_units_Z 48
_cell_length_a 9.709624
_cell_length_b 8.513431
_cell_length_c 32.931335
_cell_angle_alpha 90.000000
_cell_angle_beta 90.000000
_cell_angle_gamma 90.000000
_cell_volume 2722.177060
_symmetry_space_group_name_H-M "P N M A"
_symmetry_group_IT_number 62
_symmetry_cell_setting 'orthorhombic'
loop_
_space_group_symop_operation_xyz
x,y,z
1/2-x,-y,1/2+z
1/2+x,1/2-y,1/2-z
-x,1/2+y,-z
-x,-y,-z
1/2+x,y,1/2-z
1/2-x,1/2+y,1/2+z
x,1/2-y,z
loop_
_atom_site_type_symbol
_atom_site_label
_atom_site_fract_x
_atom_site_fract_y
_atom_site_fract_z
Si Si1 0.073124 0.934689 0.675076
Si Si2 0.343961 0.750000 0.224183
Si Si3 0.515728 0.067031 0.955150
Si Si4 0.476203 0.924689 0.379326
Si Si5 0.175281 0.434216 0.384221
Si Si6 0.252396 0.571699 0.593212
Si Si7 0.030734 0.750000 0.199106
O O1 0.079800 0.750000 0.690270
O O2 0.179279 0.943778 0.637220
O O3 0.922984 0.959989 0.654810
O O4 0.105740 0.085403 0.703262
O O5 0.178338 0.750000 0.220780
O O6 0.407924 0.750000 0.268927
O O7 0.485118 0.250000 0.955261
O O8 0.412634 0.985437 0.923317
O O9 0.668578 0.037443 0.937445
O O10 0.500000 0.000000 0.000000
O O11 0.488248 0.750000 0.397566
O O12 0.517445 0.896599 0.332038
O O13 0.320136 0.979435 0.381665
O O14 0.588317 0.032570 0.400736
O O15 0.201933 0.250000 0.386846
O O16 0.231852 0.750000 0.579468
#
# Coordination Sequence:
#
# PCOD9463542 Si02
#       7
#     8   4   8   8   8   8   4
#     4   9  20  36  60  85 112 155 207 243 303 368
#     4  12  22  42  60  86 124 160 198 266 314 362
#     4  11  22  37  60  90 122 155 194 244 300 363
#     4  10  20  37  56  87 113 153 203 241 295 363
#     4  10  21  36  58  88 117 154 201 252 294 357
#     4  10  19  36  60  84 114 155 198 250 293 359
#     4  10  26  36  62  88 120 158 210 246 318 366
#
# _framework density 17.632946
#
# number of rings (size 3 to 8) (size 9 to 14) (size 15 to 20)
#    0.500    1.333    1.667    4.000    8.167    0.000 
#    0.000    3.333    0.000    0.000    0.000    0.000 
#    0.000    0.000    0.000    0.000    0.000    0.000 
#
# Total GULP energy -267474.252760 kJ/mol
# GULP energy per Si atom -5572.380266 kJ/mol
# Density = 1.759281 g / cm^3
# Si number density = 17.632946 Si / 1000 Ang^3
#
#
#
# Elastic Constant Matrix: (Units=GPa)
#
#
# Indices 1 2 3 4 5 6 
#
# 1 97.7316 -9.5762 13.8373 0.0000 0.0000 0.0000
# 2 -9.5762 45.5248 6.2584 0.0000 0.0000 0.0000
# 3 13.8373 6.2584 45.4848 0.0000 0.0000 0.0000
# 4 0.0000 0.0000 0.0000 18.7672 0.0000 0.0000
# 5 0.0000 0.0000 0.0000 0.0000 12.5136 0.0000
# 6 0.0000 0.0000 0.0000 0.0000 0.0000 34.7584
#
#
#
# Elastic Compliance Matrix: (Units=1/GPa)
#
#
# Indices 1 2 3 4 5 6 
#
# 1 0.011041 0.002838 -0.003749 0.000000 0.000000 0.000000
# 2 0.002838 0.023119 -0.004044 0.000000 0.000000 0.000000
# 3 -0.003749 -0.004044 0.023682 0.000000 0.000000 0.000000
# 4 0.000000 0.000000 0.000000 0.053285 0.000000 0.000000
# 5 0.000000 0.000000 0.000000 0.000000 0.079913 0.000000
# 6 0.000000 0.000000 0.000000 0.000000 0.000000 0.028770
#
#
# Mechanical properties :
#
#
# Convention : Reuss Voigt Hill
#
# Bulk Modulus (GPa) = 20.86335 23.30890 22.08613
# Shear Modulus (GPa) = 20.35015 25.08929 22.71972
#
# Velocity S-wave (km/s) = 3.40089 3.77618 3.59344
# Velocity P-wave (km/s) = 5.22294 5.67982 5.45616
#
# Compressibility (1/GPa) = 0.04793093
#
# Stress axis : x y z
#
# Youngs Moduli (GPa) = 90.57126 43.25450 42.22531
#
# Poissons Ratio (x) = -0.12275 0.15832
# Poissons Ratio (y) = -0.25703 0.17077
# Poissons Ratio (z) = 0.33958 0.17494
#
# Static dielectric constant tensor:
#      x y z
#    x 1.575350 0.000000 0.000000 
#    y 0.000000 1.591000 0.000000 
#    z 0.000000 0.000000 1.573980 
# 
# From -- ./inp_files/32103.got.cif
#   From: 2010.05.17/outbox.cif.g08.bks.cpg/sg62_17_cif.got.tgz:32103.got - 2010.06.03 15:25:27.
