data_PCOD9463139
_publ_section_title
;
Structure prediction by ZEFSAII (Michael W. Deem and Ramdas Pophale) SiO2 
 PCOD9463139
Probable space group: P N M A
;
_chemical_formula_sum "Si O2"
_cell_formula_units_Z 64
_cell_length_a 10.761189
_cell_length_b 7.441235
_cell_length_c 34.094476
_cell_angle_alpha 90.000000
_cell_angle_beta 90.000000
_cell_angle_gamma 90.000000
_cell_volume 2730.167543
_symmetry_space_group_name_H-M "P N M A"
_symmetry_group_IT_number 62
_symmetry_cell_setting 'orthorhombic'
loop_
_space_group_symop_operation_xyz
x,y,z
1/2-x,-y,1/2+z
1/2+x,1/2-y,1/2-z
-x,1/2+y,-z
-x,-y,-z
1/2+x,y,1/2-z
1/2-x,1/2+y,1/2+z
x,1/2-y,z
loop_
_atom_site_type_symbol
_atom_site_label
_atom_site_fract_x
_atom_site_fract_y
_atom_site_fract_z
Si Si1 0.682604 0.049060 0.362037
Si Si2 0.185595 0.030306 0.989494
Si Si3 0.304224 0.035947 0.066397
Si Si4 0.277910 0.462587 0.864028
Si Si5 0.786830 0.455376 0.223588
Si Si6 0.965188 0.536562 0.081633
Si Si7 0.917714 0.034720 0.563578
Si Si8 0.069505 0.471133 0.219260
O O1 0.724042 0.250000 0.350659
O O2 0.787512 0.961277 0.389528
O O3 0.622922 0.968828 0.323045
O O4 0.573155 0.055918 0.394266
O O5 0.181765 0.250000 0.989682
O O6 0.072403 0.970312 0.961753
O O7 0.310517 0.974165 0.966019
O O8 0.207671 0.966909 0.033738
O O9 0.286550 0.250000 0.069184
O O10 0.443523 0.009437 0.051633
O O11 0.294673 0.250000 0.857106
O O12 0.253832 0.544514 0.821787
O O13 0.156943 0.485901 0.891328
O O14 0.387686 0.530898 0.892249
O O15 0.798923 0.250000 0.237474
O O16 0.672178 0.529972 0.248995
O O17 0.927085 0.533154 0.226076
O O18 0.989976 0.750000 0.080188
O O19 0.905826 0.250000 0.564816
O O20 0.062413 0.250000 0.218561
#
# Coordination Sequence:
#
# PCOD9463139 Si02
#       8
#     8   8   8   8   8   8   8   8
#     4  10  20  34  50  73 105 134 166 216 261 301
#     4   8  16  32  51  73 101 135 172 215 262 304
#     4  10  20  32  49  74 105 137 172 216 261 300
#     4   9  18  33  53  77 100 128 167 211 255 299
#     4  10  19  34  56  77 100 135 173 211 257 316
#     4   9  17  32  54  73  96 134 175 208 251 310
#     4   9  18  33  52  72 102 138 171 209 255 311
#     4   9  19  34  53  77 104 133 169 212 261 312
#
# _framework density 23.441783000000001
#
# number of rings (size 3 to 8) (size 9 to 14) (size 15 to 20)
#    0.000    2.750    1.250    1.875    0.000    2.500 
#    0.000    6.250    0.000    0.000    0.000    0.000 
#    0.000    0.000    0.000    0.000    0.000    0.000 
#
# Total GULP energy -357135.970981 kJ/mol
# GULP energy per Si atom -5580.249547 kJ/mol
# Density = 2.338843 g / cm^3
# Si number density = 23.441783 Si / 1000 Ang^3
#
#
#
# Elastic Constant Matrix: (Units=GPa)
#
#
# Indices 1 2 3 4 5 6 
#
# 1 82.1639 -1.5492 52.2430 0.0000 0.0000 0.0000
# 2 -1.5492 63.6900 6.3414 0.0000 0.0000 0.0000
# 3 52.2430 6.3414 147.1476 0.0000 0.0000 0.0000
# 4 0.0000 0.0000 0.0000 6.0194 0.0000 0.0000
# 5 0.0000 0.0000 0.0000 0.0000 32.9071 0.0000
# 6 0.0000 0.0000 0.0000 0.0000 0.0000 10.3131
#
#
#
# Elastic Compliance Matrix: (Units=1/GPa)
#
#
# Indices 1 2 3 4 5 6 
#
# 1 0.015776 0.000945 -0.005642 0.000000 0.000000 0.000000
# 2 0.000945 0.015825 -0.001018 0.000000 0.000000 0.000000
# 3 -0.005642 -0.001018 0.008843 0.000000 0.000000 0.000000
# 4 0.000000 0.000000 0.000000 0.166131 0.000000 0.000000
# 5 0.000000 0.000000 0.000000 0.000000 0.030389 0.000000
# 6 0.000000 0.000000 0.000000 0.000000 0.000000 0.096964
#
#
# Mechanical properties :
#
#
# Convention : Reuss Voigt Hill
#
# Bulk Modulus (GPa) = 34.46365 45.23021 39.84693
# Shear Modulus (GPa) = 14.08341 25.57899 19.83120
#
# Velocity S-wave (km/s) = 2.45375 3.30687 2.91172
# Velocity P-wave (km/s) = 4.77091 5.82384 5.32347
#
# Compressibility (1/GPa) = 0.02901608
#
# Stress axis : x y z
#
# Youngs Moduli (GPa) = 63.38791 63.18965 113.08630
#
# Poissons Ratio (x) = -0.05974 0.63801
# Poissons Ratio (y) = -0.05993 0.11509
# Poissons Ratio (z) = 0.35762 0.06431
#
# Static dielectric constant tensor:
#      x y z
#    x 1.921580 0.000000 0.000000 
#    y 0.000000 1.879090 0.000000 
#    z 0.000000 0.000000 1.886920 
# 
# From -- ./inp_files/32487.got.cif
#   From: 2010.05.17/outbox.cif.g08.bks.cpg/sg62_17_cif.got.tgz:32487.got - 2010.06.03 15:25:27.
