data_PCOD9463400
_publ_section_title
;
Structure prediction by ZEFSAII (Michael W. Deem and Ramdas Pophale) SiO2 
 PCOD9463400
Probable space group: P N M A
;
_chemical_formula_sum "Si O2"
_cell_formula_units_Z 64
_cell_length_a 12.547595
_cell_length_b 13.994892
_cell_length_c 20.279301
_cell_angle_alpha 90.000000
_cell_angle_beta 90.000000
_cell_angle_gamma 90.000000
_cell_volume 3561.090618
_symmetry_space_group_name_H-M "P N M A"
_symmetry_group_IT_number 62
_symmetry_cell_setting 'orthorhombic'
loop_
_space_group_symop_operation_xyz
x,y,z
1/2-x,-y,1/2+z
1/2+x,1/2-y,1/2-z
-x,1/2+y,-z
-x,-y,-z
1/2+x,y,1/2-z
1/2-x,1/2+y,1/2+z
x,1/2-y,z
loop_
_atom_site_type_symbol
_atom_site_label
_atom_site_fract_x
_atom_site_fract_y
_atom_site_fract_z
Si Si1 0.099767 0.855562 0.859894
Si Si2 0.392355 0.437896 0.501439
Si Si3 0.029813 0.492091 0.230047
Si Si4 0.495976 0.858564 0.053716
Si Si5 0.840596 0.983487 0.527956
Si Si6 0.095136 0.355838 0.692364
Si Si7 0.152373 0.363839 0.337846
Si Si8 0.661999 0.859857 0.353512
O O1 0.062112 0.750000 0.842451
O O2 0.218973 0.867741 0.830669
O O3 0.021676 0.931999 0.828768
O O4 0.103842 0.866466 0.939007
O O5 0.500000 0.500000 0.500000
O O6 0.284065 0.496071 0.485347
O O7 0.372283 0.389904 0.572492
O O8 0.088146 0.420593 0.281296
O O9 0.109939 0.568609 0.198722
O O10 0.936413 0.555102 0.263157
O O11 0.490954 0.750000 0.029293
O O12 0.488950 0.856602 0.132486
O O13 0.599390 0.916122 0.031421
O O14 0.395955 0.919392 0.027916
O O15 0.864444 0.922569 0.594254
O O16 0.090696 0.250000 0.724604
O O17 0.211357 0.364237 0.659485
O O18 0.124378 0.250000 0.341978
O O19 0.629050 0.750000 0.342670
#
# Coordination Sequence:
#
# PCOD9463400 Si02
#       8
#     8   8   8   8   8   8   8   8
#     4  10  22  38  59  82 111 149 193 238 285 341
#     4  11  21  40  62  84 113 153 202 249 291 345
#     4  12  21  38  58  84 121 152 187 235 291 348
#     4  10  19  35  59  88 119 150 191 245 297 345
#     4  10  20  36  62  86 115 152 195 246 293 344
#     4  10  21  37  59  88 117 154 195 235 291 358
#     4  10  21  36  56  85 114 148 192 232 281 342
#     4  11  23  39  61  86 115 153 198 242 291 354
#
# _framework density 17.972023
#
# number of rings (size 3 to 8) (size 9 to 14) (size 15 to 20)
#    0.000    1.500    3.750    2.250    0.000    1.000 
#    0.000    1.250    0.000    0.000    0.000    0.000 
#    0.000    0.000    0.000    0.000    0.000    0.000 
#
# Total GULP energy -356850.775455 kJ/mol
# GULP energy per Si atom -5575.793366 kJ/mol
# Density = 1.793112 g / cm^3
# Si number density = 17.972023 Si / 1000 Ang^3
#
#
#
# Elastic Constant Matrix: (Units=GPa)
#
#
# Indices 1 2 3 4 5 6 
#
# 1 75.8440 36.4014 5.8189 0.0000 0.0000 0.0000
# 2 36.4014 90.6658 7.8356 0.0000 0.0000 0.0000
# 3 5.8189 7.8356 51.6232 0.0000 0.0000 0.0000
# 4 0.0000 0.0000 0.0000 17.5476 0.0000 0.0000
# 5 0.0000 0.0000 0.0000 0.0000 26.0120 0.0000
# 6 0.0000 0.0000 0.0000 0.0000 0.0000 19.4563
#
#
#
# Elastic Compliance Matrix: (Units=1/GPa)
#
#
# Indices 1 2 3 4 5 6 
#
# 1 0.016370 -0.006498 -0.000859 0.000000 0.000000 0.000000
# 2 -0.006498 0.013756 -0.001355 0.000000 0.000000 0.000000
# 3 -0.000859 -0.001355 0.019674 0.000000 0.000000 0.000000
# 4 0.000000 0.000000 0.000000 0.056988 0.000000 0.000000
# 5 0.000000 0.000000 0.000000 0.000000 0.038444 0.000000
# 6 0.000000 0.000000 0.000000 0.000000 0.000000 0.051397
#
#
# Mechanical properties :
#
#
# Convention : Reuss Voigt Hill
#
# Bulk Modulus (GPa) = 30.88880 35.36054 33.12467
# Shear Modulus (GPa) = 22.23767 23.80831 23.02299
#
# Velocity S-wave (km/s) = 3.52141 3.64365 3.58305
# Velocity P-wave (km/s) = 5.81019 6.11716 5.96565
#
# Compressibility (1/GPa) = 0.03237420
#
# Stress axis : x y z
#
# Youngs Moduli (GPa) = 61.08898 72.69807 50.82934
#
# Poissons Ratio (x) = 0.47239 0.04366
# Poissons Ratio (y) = 0.39695 0.06890
# Poissons Ratio (z) = 0.05247 0.09854
#
# Static dielectric constant tensor:
#      x y z
#    x 1.599450 0.000000 0.000000 
#    y 0.000000 1.603240 0.000000 
#    z 0.000000 0.000000 1.616360 
# 
# From -- ./inp_files/23222.got.cif
#   From: 2010.05.17/outbox.cif.g08.bks.cpg/sg62_12_cif.got.tgz:23222.got - 2010.06.03 15:25:27.
