data_PCOD9463764
_publ_section_title
;
Structure prediction by ZEFSAII (Michael W. Deem and Ramdas Pophale) SiO2 
 PCOD9463764
Probable space group: P N M A
;
_chemical_formula_sum "Si O2"
_cell_formula_units_Z 48
_cell_length_a 14.215015
_cell_length_b 14.277119
_cell_length_c 11.926183
_cell_angle_alpha 90.000000
_cell_angle_beta 90.000000
_cell_angle_gamma 90.000000
_cell_volume 2420.412409
_symmetry_space_group_name_H-M "P N M A"
_symmetry_group_IT_number 62
_symmetry_cell_setting 'orthorhombic'
loop_
_space_group_symop_operation_xyz
x,y,z
1/2-x,-y,1/2+z
1/2+x,1/2-y,1/2-z
-x,1/2+y,-z
-x,-y,-z
1/2+x,y,1/2-z
1/2-x,1/2+y,1/2+z
x,1/2-y,z
loop_
_atom_site_type_symbol
_atom_site_label
_atom_site_fract_x
_atom_site_fract_y
_atom_site_fract_z
Si Si1 0.194889 0.145760 0.737540
Si Si2 0.878134 0.072335 0.032991
Si Si3 0.370346 0.041713 0.849649
Si Si4 0.704386 0.527186 0.919357
Si Si5 0.235643 0.143947 0.290317
Si Si6 0.012352 0.416048 0.839748
O O1 0.212080 0.250000 0.694781
O O2 0.284720 0.105218 0.802792
O O3 0.104798 0.144223 0.818549
O O4 0.176173 0.069257 0.641653
O O5 0.813772 0.136108 0.111647
O O6 0.937585 0.118077 0.932654
O O7 0.949166 0.014777 0.112144
O O8 0.805204 0.998328 0.976245
O O9 0.459797 0.069850 0.777692
O O10 0.342077 0.934167 0.821832
O O11 0.368141 0.052710 0.982987
O O12 0.719126 0.605563 0.825172
O O13 0.201943 0.250000 0.279917
#
# Coordination Sequence:
#
# PCOD9463764 Si02
#       6
#     8   8   8   8   8   8
#     4  11  23  39  61  95 126 158 210 254 307 367
#     4  10  20  38  67  88 117 160 208 256 301 362
#     4  10  22  41  64  86 129 165 201 256 312 364
#     4  10  19  42  60  86 125 166 194 258 312 361
#     4  10  20  38  61  91 123 162 204 249 309 366
#     4  11  20  40  67  89 119 162 211 249 312 354
#
# _framework density 19.831330000000001
#
# number of rings (size 3 to 8) (size 9 to 14) (size 15 to 20)
#    0.000    1.667    8.333    0.000    0.000    5.333 
#    0.000    0.833    0.000    0.000    0.000    0.000 
#    0.000    0.000    0.000    0.000    0.000    0.000 
#
# Total GULP energy -267816.243296 kJ/mol
# GULP energy per Si atom -5579.505069 kJ/mol
# Density = 1.978619 g / cm^3
# Si number density = 19.831330 Si / 1000 Ang^3
#
#
#
# Elastic Constant Matrix: (Units=GPa)
#
#
# Indices 1 2 3 4 5 6 
#
# 1 59.1114 15.5982 2.7345 0.0000 0.0000 0.0000
# 2 15.5982 56.5863 -10.7756 0.0000 0.0000 0.0000
# 3 2.7345 -10.7756 63.7961 0.0000 0.0000 0.0000
# 4 0.0000 0.0000 0.0000 -11.3570 0.0000 0.0000
# 5 0.0000 0.0000 0.0000 0.0000 34.5148 0.0000
# 6 0.0000 0.0000 0.0000 0.0000 0.0000 2.8779
#
#
#
# Elastic Compliance Matrix: (Units=1/GPa)
#
#
# Indices 1 2 3 4 5 6 
#
# 1 0.018421 -0.005402 -0.001702 0.000000 0.000000 0.000000
# 2 -0.005402 0.019844 0.003583 0.000000 0.000000 0.000000
# 3 -0.001702 0.003583 0.016353 0.000000 0.000000 0.000000
# 4 0.000000 0.000000 0.000000 -0.088051 0.000000 0.000000
# 5 0.000000 0.000000 0.000000 0.000000 0.028973 0.000000
# 6 0.000000 0.000000 0.000000 0.000000 0.000000 0.347472
#
#
# Mechanical properties :
#
#
# Convention : Reuss Voigt Hill
#
# Bulk Modulus (GPa) = 21.01880 21.62312 21.32096
# Shear Modulus (GPa) = 13.66448 16.66958 15.16703
#
# Velocity S-wave (km/s) = 2.62779 2.90240 2.76850
# Velocity P-wave (km/s) = 4.45296 4.70734 4.58192
#
# Compressibility (1/GPa) = 0.04757645
#
# Stress axis : x y z
#
# Youngs Moduli (GPa) = 54.28464 50.39419 61.15035
#
# Poissons Ratio (x) = 0.27223 0.10408
# Poissons Ratio (y) = 0.29325 -0.21912
# Poissons Ratio (z) = 0.09239 -0.18058
#
# Static dielectric constant tensor:
#      x y z
#    x 1.719720 0.000000 0.000000 
#    y 0.000000 1.681530 0.000000 
#    z 0.000000 0.000000 1.739500 
# 
# From -- ./inp_files/13250.got.cif
#   From: 2010.05.17/outbox.cif.g08.bks.cpg/sg62_7_cif.got.tgz:13250.got - 2010.06.03 15:25:27.
