data_PCOD9463094
_publ_section_title
;
Structure prediction by ZEFSAII (Michael W. Deem and Ramdas Pophale) SiO2 
 PCOD9463094
Probable space group: P N M A
;
_chemical_formula_sum "Si O2"
_cell_formula_units_Z 48
_cell_length_a 16.903602
_cell_length_b 8.644425
_cell_length_c 19.051790
_cell_angle_alpha 90.000000
_cell_angle_beta 90.000000
_cell_angle_gamma 90.000000
_cell_volume 2783.884129
_symmetry_space_group_name_H-M "P N M A"
_symmetry_group_IT_number 62
_symmetry_cell_setting 'orthorhombic'
loop_
_space_group_symop_operation_xyz
x,y,z
1/2-x,-y,1/2+z
1/2+x,1/2-y,1/2-z
-x,1/2+y,-z
-x,-y,-z
1/2+x,y,1/2-z
1/2-x,1/2+y,1/2+z
x,1/2-y,z
loop_
_atom_site_type_symbol
_atom_site_label
_atom_site_fract_x
_atom_site_fract_y
_atom_site_fract_z
Si Si1 0.169618 0.937971 0.838684
Si Si2 0.085588 0.572234 0.704695
Si Si3 0.011944 0.937093 0.922352
Si Si4 0.340151 0.432821 0.840467
Si Si5 0.919165 0.572055 0.789928
Si Si6 0.009636 0.063463 0.422352
O O1 0.171608 0.750000 0.837015
O O2 0.147491 0.995834 0.759886
O O3 0.097159 0.982688 0.889746
O O4 0.254209 0.002540 0.859398
O O5 0.110044 0.750000 0.692152
O O6 0.003240 0.575908 0.748550
O O7 0.060249 0.504388 0.629969
O O8 0.009916 0.750000 0.922756
O O9 0.943509 0.986516 0.867040
O O10 0.000000 0.000000 0.000000
O O11 0.343345 0.250000 0.849234
O O12 0.361071 0.477246 0.759807
O O13 0.407959 0.509897 0.888139
O O14 0.890971 0.750000 0.794300
O O15 0.007409 0.250000 0.421926
O O16 0.000000 0.000000 0.500000
#
# Coordination Sequence:
#
# PCOD9463094 Si02
#       6
#     8   8   8   8   8   8
#     4   9  17  33  53  72  96 131 168 205 250 300
#     4   7  13  28  51  71  89 119 162 199 234 286
#     4   9  18  32  53  77 102 133 169 206 252 304
#     4  11  21  32  49  76 102 128 165 211 255 296
#     4   8  15  31  51  70  93 127 164 198 241 297
#     4  10  19  34  54  76 102 134 168 205 249 303
#
# _framework density 17.242097999999999
#
# number of rings (size 3 to 8) (size 9 to 14) (size 15 to 20)
#    0.000    3.000    0.000    5.000    0.000    1.333 
#    0.000    9.167    0.000    2.000    0.000    0.000 
#    0.000    0.000    0.000    0.000    0.000    0.000 
#
# Total GULP energy -267208.649554 kJ/mol
# GULP energy per Si atom -5566.846866 kJ/mol
# Density = 1.720285 g / cm^3
# Si number density = 17.242098 Si / 1000 Ang^3
#
#
#
# Elastic Constant Matrix: (Units=GPa)
#
#
# Indices 1 2 3 4 5 6 
#
# 1 75.3153 23.7849 42.5705 0.0000 0.0000 0.0000
# 2 23.7849 42.8708 28.3160 0.0000 0.0000 0.0000
# 3 42.5705 28.3160 149.4937 0.0000 0.0000 0.0000
# 4 0.0000 0.0000 0.0000 29.4842 0.0000 0.0000
# 5 0.0000 0.0000 0.0000 0.0000 16.6453 0.0000
# 6 0.0000 0.0000 0.0000 0.0000 0.0000 12.8192
#
#
#
# Elastic Compliance Matrix: (Units=1/GPa)
#
#
# Indices 1 2 3 4 5 6 
#
# 1 0.017667 -0.007405 -0.003628 0.000000 0.000000 0.000000
# 2 -0.007405 0.029765 -0.003529 0.000000 0.000000 0.000000
# 3 -0.003628 -0.003529 0.008391 0.000000 0.000000 0.000000
# 4 0.000000 0.000000 0.000000 0.033917 0.000000 0.000000
# 5 0.000000 0.000000 0.000000 0.000000 0.060077 0.000000
# 6 0.000000 0.000000 0.000000 0.000000 0.000000 0.078008
#
#
# Mechanical properties :
#
#
# Convention : Reuss Voigt Hill
#
# Bulk Modulus (GPa) = 37.45621 50.78028 44.11825
# Shear Modulus (GPa) = 18.80767 23.32365 21.06566
#
# Velocity S-wave (km/s) = 3.30631 3.68192 3.49916
# Velocity P-wave (km/s) = 6.02880 6.89860 6.47831
#
# Compressibility (1/GPa) = 0.02669784
#
# Stress axis : x y z
#
# Youngs Moduli (GPa) = 56.60298 33.59615 119.17644
#
# Poissons Ratio (x) = 0.24879 0.43241
# Poissons Ratio (y) = 0.41916 0.42059
# Poissons Ratio (z) = 0.20537 0.11857
#
# Static dielectric constant tensor:
#      x y z
#    x 1.582500 0.000000 0.000000 
#    y 0.000000 1.589470 0.000000 
#    z 0.000000 0.000000 1.609410 
# 
# From -- ./inp_files/24211.got.cif
#   From: 2010.05.17/outbox.cif.g08.bks.cpg/sg62_13_cif.got.tgz:24211.got - 2010.06.03 15:25:27.
