data_PCOD9463201
_publ_section_title
;
Structure prediction by ZEFSAII (Michael W. Deem and Ramdas Pophale) SiO2 
 PCOD9463201
Probable space group: P N M A
;
_chemical_formula_sum "Si O2"
_cell_formula_units_Z 64
_cell_length_a 25.628516
_cell_length_b 15.065654
_cell_length_c 8.943791
_cell_angle_alpha 90.000000
_cell_angle_beta 90.000000
_cell_angle_gamma 90.000000
_cell_volume 3453.290314
_symmetry_space_group_name_H-M "P N M A"
_symmetry_group_IT_number 62
_symmetry_cell_setting 'orthorhombic'
loop_
_space_group_symop_operation_xyz
x,y,z
1/2-x,-y,1/2+z
1/2+x,1/2-y,1/2-z
-x,1/2+y,-z
-x,-y,-z
1/2+x,y,1/2-z
1/2-x,1/2+y,1/2+z
x,1/2-y,z
loop_
_atom_site_type_symbol
_atom_site_label
_atom_site_fract_x
_atom_site_fract_y
_atom_site_fract_z
Si Si1 0.109942 0.343420 0.556658
Si Si2 0.992650 0.923490 0.382125
Si Si3 0.361550 0.851777 0.409064
Si Si4 0.821820 0.008563 0.502824
Si Si5 0.391403 0.353176 0.834836
Si Si6 0.713407 0.991321 0.655805
Si Si7 0.135586 0.855439 0.988175
Si Si8 0.054974 0.493099 0.919418
O O1 0.127165 0.250000 0.490111
O O2 0.125537 0.343602 0.732123
O O3 0.138770 0.426087 0.485453
O O4 0.047624 0.352543 0.551078
O O5 0.048699 0.886663 0.333719
O O6 0.960508 0.967413 0.247562
O O7 0.000000 0.000000 0.500000
O O8 0.356111 0.750000 0.465089
O O9 0.408535 0.911664 0.477150
O O10 0.312234 0.918133 0.412000
O O11 0.855924 0.093082 0.549506
O O12 0.800131 0.012251 0.332509
O O13 0.773868 0.994934 0.615330
O O14 0.391604 0.250000 0.873025
O O15 0.367962 0.363506 0.668005
O O16 0.685763 0.906681 0.577477
O O17 0.133345 0.750000 0.951601
O O18 0.087464 0.915751 0.928467
O O19 0.000000 0.500000 0.000000
#
# Coordination Sequence:
#
# PCOD9463201 Si02
#       8
#     8   8   8   8   8   8   8   8
#     4   9  18  34  57  83 111 149 193 234 283 346
#     4  11  20  36  58  85 122 156 191 237 294 356
#     4   8  17  33  56  81 108 144 189 231 278 340
#     4  11  22  40  61  87 118 152 202 249 304 359
#     4  11  23  38  61  88 119 160 203 246 296 363
#     4  10  22  39  62  85 115 155 192 252 303 350
#     4  10  22  40  60  88 121 160 204 245 299 358
#     4  10  19  34  57  85 118 154 193 236 285 342
#
# _framework density 18.533049999999999
#
# number of rings (size 3 to 8) (size 9 to 14) (size 15 to 20)
#    0.000    2.000    2.500    1.875    0.000    2.500 
#    0.000    3.125    0.000    7.500    0.000    0.000 
#    0.000    0.000    0.000    0.000    0.000    0.000 
#
# Total GULP energy -356724.625646 kJ/mol
# GULP energy per Si atom -5573.822276 kJ/mol
# Density = 1.849087 g / cm^3
# Si number density = 18.533050 Si / 1000 Ang^3
#
#
#
# Elastic Constant Matrix: (Units=GPa)
#
#
# Indices 1 2 3 4 5 6 
#
# 1 74.2228 32.8000 17.1226 0.0000 0.0000 0.0000
# 2 32.8000 153.1537 36.6322 0.0000 0.0000 0.0000
# 3 17.1226 36.6322 37.1080 0.0000 0.0000 0.0000
# 4 0.0000 0.0000 0.0000 24.5398 0.0000 0.0000
# 5 0.0000 0.0000 0.0000 0.0000 31.7354 0.0000
# 6 0.0000 0.0000 0.0000 0.0000 0.0000 5.2159
#
#
#
# Elastic Compliance Matrix: (Units=1/GPa)
#
#
# Indices 1 2 3 4 5 6 
#
# 1 0.015586 -0.002118 -0.005101 0.000000 0.000000 0.000000
# 2 -0.002118 0.008835 -0.007745 0.000000 0.000000 0.000000
# 3 -0.005101 -0.007745 0.036948 0.000000 0.000000 0.000000
# 4 0.000000 0.000000 0.000000 0.040750 0.000000 0.000000
# 5 0.000000 0.000000 0.000000 0.000000 0.031511 0.000000
# 6 0.000000 0.000000 0.000000 0.000000 0.000000 0.191721
#
#
# Mechanical properties :
#
#
# Convention : Reuss Voigt Hill
#
# Bulk Modulus (GPa) = 31.80525 48.62157 40.21341
# Shear Modulus (GPa) = 13.67022 24.16020 18.91521
#
# Velocity S-wave (km/s) = 2.71885 3.61450 3.19818
# Velocity P-wave (km/s) = 5.20142 6.61146 5.94837
#
# Compressibility (1/GPa) = 0.03144135
#
# Stress axis : x y z
#
# Youngs Moduli (GPa) = 64.16183 113.18081 27.06525
#
# Poissons Ratio (x) = 0.23969 0.13806
# Poissons Ratio (y) = 0.13588 0.20962
# Poissons Ratio (z) = 0.32729 0.87658
#
# Static dielectric constant tensor:
#      x y z
#    x 1.644350 0.000000 0.000000 
#    y 0.000000 1.609370 0.000000 
#    z 0.000000 0.000000 1.613890 
# 
# From -- ./inp_files/9482.got.cif
#   From: 2010.05.17/outbox.cif.g08.bks.cpg/sg62_5_cif.got.tgz:9482.got - 2010.06.03 15:25:27.
