data_PCOD9463978
_publ_section_title
;
Structure prediction by ZEFSAII (Michael W. Deem and Ramdas Pophale) SiO2 
 PCOD9463978
Probable space group: P N M A
;
_chemical_formula_sum "Si O2"
_cell_formula_units_Z 56
_cell_length_a 14.753066
_cell_length_b 8.840198
_cell_length_c 22.224656
_cell_angle_alpha 90.000000
_cell_angle_beta 90.000000
_cell_angle_gamma 90.000000
_cell_volume 2898.540181
_symmetry_space_group_name_H-M "P N M A"
_symmetry_group_IT_number 62
_symmetry_cell_setting 'orthorhombic'
loop_
_space_group_symop_operation_xyz
x,y,z
1/2-x,-y,1/2+z
1/2+x,1/2-y,1/2-z
-x,1/2+y,-z
-x,-y,-z
1/2+x,y,1/2-z
1/2-x,1/2+y,1/2+z
x,1/2-y,z
loop_
_atom_site_type_symbol
_atom_site_label
_atom_site_fract_x
_atom_site_fract_y
_atom_site_fract_z
Si Si1 0.806628 0.568849 0.117302
Si Si2 0.981119 0.575354 0.653652
Si Si3 0.640390 0.428410 0.907156
Si Si4 0.649943 0.072089 0.040892
Si Si5 0.321726 0.068605 0.774481
Si Si6 0.491257 0.069416 0.432901
Si Si7 0.159476 0.569770 0.137160
O O1 0.818016 0.750000 0.119230
O O2 0.733885 0.522868 0.066267
O O3 0.758367 0.516778 0.180027
O O4 0.901163 0.492069 0.100275
O O5 0.982148 0.750000 0.671570
O O6 0.929320 0.561405 0.589713
O O7 0.917880 0.482998 0.698725
O O8 0.080902 0.513257 0.642148
O O9 0.619816 0.250000 0.901420
O O10 0.747141 0.449464 0.898599
O O11 0.619182 0.478148 0.975094
O O12 0.676825 0.250000 0.036655
O O13 0.317028 0.250000 0.775276
O O14 0.319203 0.019455 0.705403
O O15 0.487006 0.250000 0.437674
O O16 0.500000 0.000000 0.500000
O O17 0.577904 0.017578 0.394118
O O18 0.137724 0.750000 0.138092
#
# Coordination Sequence:
#
# PCOD9463978 Si02
#       7
#     8   8   8   8   8   8   8
#     4  10  20  36  60  87 115 153 195 236 285 344
#     4  10  20  33  53  81 113 147 184 226 274 331
#     4  10  20  34  54  79 108 143 182 226 283 338
#     4   9  18  33  53  81 115 148 183 228 278 332
#     4   9  20  39  60  82 112 150 192 234 283 343
#     4  12  25  41  62  89 120 156 197 245 298 351
#     4  10  22  40  60  83 112 149 194 243 287 337
#
# _framework density 19.320070999999999
#
# number of rings (size 3 to 8) (size 9 to 14) (size 15 to 20)
#    0.000    2.000    0.000    3.429    0.000    5.143 
#    0.000    2.857    0.000    0.000    0.000    0.000 
#    0.000    0.000    0.000    0.000    0.000    0.000 
#
# Total GULP energy -312667.437798 kJ/mol
# GULP energy per Si atom -5583.347104 kJ/mol
# Density = 1.927610 g / cm^3
# Si number density = 19.320071 Si / 1000 Ang^3
#
#
#
# Elastic Constant Matrix: (Units=GPa)
#
#
# Indices 1 2 3 4 5 6 
#
# 1 71.7846 33.3088 13.0864 0.0000 0.0000 0.0000
# 2 33.3088 46.7886 24.8331 0.0000 0.0000 0.0000
# 3 13.0864 24.8331 75.4392 0.0000 0.0000 0.0000
# 4 0.0000 0.0000 0.0000 24.0933 0.0000 0.0000
# 5 0.0000 0.0000 0.0000 0.0000 11.6034 0.0000
# 6 0.0000 0.0000 0.0000 0.0000 0.0000 31.6067
#
#
#
# Elastic Compliance Matrix: (Units=1/GPa)
#
#
# Indices 1 2 3 4 5 6 
#
# 1 0.020950 -0.015734 0.001545 0.000000 0.000000 0.000000
# 2 -0.015734 0.037715 -0.009685 0.000000 0.000000 0.000000
# 3 0.001545 -0.009685 0.016176 0.000000 0.000000 0.000000
# 4 0.000000 0.000000 0.000000 0.041505 0.000000 0.000000
# 5 0.000000 0.000000 0.000000 0.000000 0.086182 0.000000
# 6 0.000000 0.000000 0.000000 0.000000 0.000000 0.031639
#
#
# Mechanical properties :
#
#
# Convention : Reuss Voigt Hill
#
# Bulk Modulus (GPa) = 36.91228 37.38544 37.14886
# Shear Modulus (GPa) = 17.18536 21.64629 19.41582
#
# Velocity S-wave (km/s) = 2.98570 3.35088 3.17354
# Velocity P-wave (km/s) = 5.57073 5.86206 5.71825
#
# Compressibility (1/GPa) = 0.02709125
#
# Stress axis : x y z
#
# Youngs Moduli (GPa) = 47.73330 26.51499 61.82030
#
# Poissons Ratio (x) = 0.41719 -0.09553
# Poissons Ratio (y) = 0.75105 0.59876
# Poissons Ratio (z) = -0.07376 0.25681
#
# Static dielectric constant tensor:
#      x y z
#    x 1.658520 0.000000 0.000000 
#    y 0.000000 1.662730 0.000000 
#    z 0.000000 0.000000 1.688580 
# 
# From -- ./inp_files/27133.got.cif
#   From: 2010.05.17/outbox.cif.g08.bks.cpg/sg62_14_cif.got.tgz:27133.got - 2010.06.03 15:25:27.
