data_PCOD9463723
_publ_section_title
;
Structure prediction by ZEFSAII (Michael W. Deem and Ramdas Pophale) SiO2 
 PCOD9463723
Probable space group: P N M A
;
_chemical_formula_sum "Si O2"
_cell_formula_units_Z 64
_cell_length_a 17.553455
_cell_length_b 16.066251
_cell_length_c 11.586480
_cell_angle_alpha 90.000000
_cell_angle_beta 90.000000
_cell_angle_gamma 90.000000
_cell_volume 3267.598396
_symmetry_space_group_name_H-M "P N M A"
_symmetry_group_IT_number 62
_symmetry_cell_setting 'orthorhombic'
loop_
_space_group_symop_operation_xyz
x,y,z
1/2-x,-y,1/2+z
1/2+x,1/2-y,1/2-z
-x,1/2+y,-z
-x,-y,-z
1/2+x,y,1/2-z
1/2-x,1/2+y,1/2+z
x,1/2-y,z
loop_
_atom_site_type_symbol
_atom_site_label
_atom_site_fract_x
_atom_site_fract_y
_atom_site_fract_z
Si Si1 0.984421 0.584876 0.374929
Si Si2 0.729359 0.650672 0.909008
Si Si3 0.596691 0.060348 0.088823
Si Si4 0.965743 0.409752 0.030605
Si Si5 0.599959 0.345731 0.322731
Si Si6 0.101699 0.655376 0.207905
Si Si7 0.279249 0.053770 0.855435
Si Si8 0.633100 0.533219 0.741663
O O1 0.933934 0.614879 0.482926
O O2 0.930408 0.523399 0.302793
O O3 0.052965 0.527530 0.423261
O O4 0.027881 0.647912 0.291775
O O5 0.716384 0.750000 0.901504
O O6 0.815262 0.632003 0.865174
O O7 0.670629 0.598490 0.830679
O O8 0.724600 0.619003 0.040189
O O9 0.578324 0.099509 0.212150
O O10 0.683933 0.031494 0.092990
O O11 0.905696 0.420522 0.134070
O O12 0.037582 0.358232 0.078204
O O13 0.926170 0.371865 0.918254
O O14 0.000000 0.500000 0.000000
O O15 0.601677 0.250000 0.286646
O O16 0.129878 0.750000 0.208108
O O17 0.165439 0.592396 0.257610
O O18 0.198672 0.028400 0.803699
#
# Coordination Sequence:
#
# PCOD9463723 Si02
#       8
#     8   8   8   8   8   8   8   8
#     4  10  21  38  63  93 120 160 213 255 304 377
#     4  11  25  42  64  98 131 167 216 272 330 383
#     4  10  19  39  62  90 121 164 212 252 307 380
#     4  12  23  41  68  96 123 168 224 265 314 383
#     4  11  23  41  63  93 133 168 207 269 329 378
#     4  11  25  43  62  93 133 168 210 265 322 379
#     4  11  23  40  67  88 129 172 212 257 323 384
#     4  12  23  39  69  95 123 166 217 268 313 386
#
# _framework density 19.58625
#
# number of rings (size 3 to 8) (size 9 to 14) (size 15 to 20)
#    0.000    1.000    5.000    2.250    1.750    1.500 
#    0.000    0.625    0.000    0.000    0.000    0.000 
#    0.000    0.000    0.000    0.000    0.000    0.000 
#
# Total GULP energy -357431.494783 kJ/mol
# GULP energy per Si atom -5584.867106 kJ/mol
# Density = 1.954167 g / cm^3
# Si number density = 19.586250 Si / 1000 Ang^3
#
#
#
# Elastic Constant Matrix: (Units=GPa)
#
#
# Indices 1 2 3 4 5 6 
#
# 1 70.5259 7.9130 6.8971 0.0000 0.0000 0.0000
# 2 7.9130 40.4367 4.8281 0.0000 0.0000 0.0000
# 3 6.8971 4.8281 82.4000 0.0000 0.0000 0.0000
# 4 0.0000 0.0000 0.0000 23.7747 0.0000 0.0000
# 5 0.0000 0.0000 0.0000 0.0000 29.8142 0.0000
# 6 0.0000 0.0000 0.0000 0.0000 0.0000 25.6801
#
#
#
# Elastic Compliance Matrix: (Units=1/GPa)
#
#
# Indices 1 2 3 4 5 6 
#
# 1 0.014589 -0.002728 -0.001061 0.000000 0.000000 0.000000
# 2 -0.002728 0.025414 -0.001261 0.000000 0.000000 0.000000
# 3 -0.001061 -0.001261 0.012299 0.000000 0.000000 0.000000
# 4 0.000000 0.000000 0.000000 0.042062 0.000000 0.000000
# 5 0.000000 0.000000 0.000000 0.000000 0.033541 0.000000
# 6 0.000000 0.000000 0.000000 0.000000 0.000000 0.038941
#
#
# Mechanical properties :
#
#
# Convention : Reuss Voigt Hill
#
# Bulk Modulus (GPa) = 23.69577 25.84878 24.77227
# Shear Modulus (GPa) = 26.17622 27.43542 26.80582
#
# Velocity S-wave (km/s) = 3.65973 3.74672 3.70348
# Velocity P-wave (km/s) = 5.47563 5.65184 5.56443
#
# Compressibility (1/GPa) = 0.04220163
#
# Stress axis : x y z
#
# Youngs Moduli (GPa) = 68.54437 39.34774 81.30984
#
# Poissons Ratio (x) = 0.10735 0.08629
# Poissons Ratio (y) = 0.18700 0.10251
# Poissons Ratio (z) = 0.07275 0.04961
#
# Static dielectric constant tensor:
#      x y z
#    x 1.690880 0.000000 0.000000 
#    y 0.000000 1.704560 0.000000 
#    z 0.000000 0.000000 1.704040 
# 
# From -- ./inp_files/14356.got.cif
#   From: 2010.05.17/outbox.cif.g08.bks.cpg/sg62_8_cif.got.tgz:14356.got - 2010.06.03 15:25:27.
