data_PCOD9463390
_publ_section_title
;
Structure prediction by ZEFSAII (Michael W. Deem and Ramdas Pophale) SiO2 
 PCOD9463390
Probable space group: P N M A
;
_chemical_formula_sum "Si O2"
_cell_formula_units_Z 32
_cell_length_a 11.862664
_cell_length_b 18.029324
_cell_length_c 7.764102
_cell_angle_alpha 90.000000
_cell_angle_beta 90.000000
_cell_angle_gamma 90.000000
_cell_volume 1660.553626
_symmetry_space_group_name_H-M "P N M A"
_symmetry_group_IT_number 62
_symmetry_cell_setting 'orthorhombic'
loop_
_space_group_symop_operation_xyz
x,y,z
1/2-x,-y,1/2+z
1/2+x,1/2-y,1/2-z
-x,1/2+y,-z
-x,-y,-z
1/2+x,y,1/2-z
1/2-x,1/2+y,1/2+z
x,1/2-y,z
loop_
_atom_site_type_symbol
_atom_site_label
_atom_site_fract_x
_atom_site_fract_y
_atom_site_fract_z
Si Si1 0.529098 0.047523 0.668161
Si Si2 0.115675 0.439536 0.384462
Si Si3 0.955027 0.337596 0.594288
Si Si4 0.253407 0.928083 0.527067
O O1 0.460139 0.120825 0.720645
O O2 0.654480 0.074360 0.625739
O O3 0.500000 0.000000 0.500000
O O4 0.488406 0.990472 0.815781
O O5 0.186427 0.420076 0.212016
O O6 0.196341 0.491154 0.500488
O O7 0.061017 0.371732 0.487838
O O8 0.959522 0.250000 0.606312
O O9 0.842188 0.366876 0.501904
#
# Coordination Sequence:
#
# PCOD9463390 Si02
#       4
#     8   8   8   8
#     4   9  19  37  61  82 104 144 198 239 275 332
#     4  10  19  35  59  85 110 147 196 240 276 331
#     4  11  23  36  53  85 123 151 183 233 290 343
#     4  10  19  36  61  82 107 150 197 238 281 332
#
# _framework density 19.270679999999999
#
# number of rings (size 3 to 8) (size 9 to 14) (size 15 to 20)
#    0.000    2.000    0.000    6.000    0.000    2.000 
#    0.000    3.750    0.000    0.000    0.000    0.000 
#    0.000    0.000    0.000    0.000    0.000    0.000 
#
# Total GULP energy -178303.324922 kJ/mol
# GULP energy per Si atom -5571.978904 kJ/mol
# Density = 1.922682 g / cm^3
# Si number density = 19.270680 Si / 1000 Ang^3
#
#
#
# Elastic Constant Matrix: (Units=GPa)
#
#
# Indices 1 2 3 4 5 6 
#
# 1 86.6243 40.8428 29.9337 0.0000 0.0000 0.0000
# 2 40.8428 164.7564 46.1971 0.0000 0.0000 0.0000
# 3 29.9337 46.1971 103.7834 0.0000 0.0000 0.0000
# 4 0.0000 0.0000 0.0000 17.5495 0.0000 0.0000
# 5 0.0000 0.0000 0.0000 0.0000 49.7364 0.0000
# 6 0.0000 0.0000 0.0000 0.0000 0.0000 19.4816
#
#
#
# Elastic Compliance Matrix: (Units=1/GPa)
#
#
# Indices 1 2 3 4 5 6 
#
# 1 0.013748 -0.002624 -0.002797 0.000000 0.000000 0.000000
# 2 -0.002624 0.007436 -0.002553 0.000000 0.000000 0.000000
# 3 -0.002797 -0.002553 0.011579 0.000000 0.000000 0.000000
# 4 0.000000 0.000000 0.000000 0.056982 0.000000 0.000000
# 5 0.000000 0.000000 0.000000 0.000000 0.020106 0.000000
# 6 0.000000 0.000000 0.000000 0.000000 0.000000 0.051330
#
#
# Mechanical properties :
#
#
# Convention : Reuss Voigt Hill
#
# Bulk Modulus (GPa) = 59.47413 65.45681 62.46547
# Shear Modulus (GPa) = 27.36222 33.23286 30.29754
#
# Velocity S-wave (km/s) = 3.77223 4.15725 3.96941
# Velocity P-wave (km/s) = 7.06417 7.55542 7.31392
#
# Compressibility (1/GPa) = 0.01681403
#
# Stress axis : x y z
#
# Youngs Moduli (GPa) = 72.73897 134.48305 86.36491
#
# Poissons Ratio (x) = 0.35284 0.24159
# Poissons Ratio (y) = 0.19084 0.22051
# Poissons Ratio (z) = 0.20347 0.34336
#
# Static dielectric constant tensor:
#      x y z
#    x 1.744800 0.000000 0.000000 
#    y 0.000000 1.644270 0.000000 
#    z 0.000000 0.000000 1.771030 
# 
# From -- ./inp_files/4835.got.cif
#   From: 2010.05.17/outbox.cif.g08.bks.cpg/sg62_3_cif.got.tgz:4835.got - 2010.06.03 15:25:27.
