data_PCOD9463302
_publ_section_title
;
Structure prediction by ZEFSAII (Michael W. Deem and Ramdas Pophale) SiO2 
 PCOD9463302
Probable space group: P N M A
;
_chemical_formula_sum "Si O2"
_cell_formula_units_Z 56
_cell_length_a 22.249985
_cell_length_b 7.656010
_cell_length_c 15.246409
_cell_angle_alpha 90.000000
_cell_angle_beta 90.000000
_cell_angle_gamma 90.000000
_cell_volume 2597.166429
_symmetry_space_group_name_H-M "P N M A"
_symmetry_group_IT_number 62
_symmetry_cell_setting 'orthorhombic'
loop_
_space_group_symop_operation_xyz
x,y,z
1/2-x,-y,1/2+z
1/2+x,1/2-y,1/2-z
-x,1/2+y,-z
-x,-y,-z
1/2+x,y,1/2-z
1/2-x,1/2+y,1/2+z
x,1/2-y,z
loop_
_atom_site_type_symbol
_atom_site_label
_atom_site_fract_x
_atom_site_fract_y
_atom_site_fract_z
Si Si1 0.228795 0.452666 0.726143
Si Si2 0.276096 0.961641 0.913661
Si Si3 0.312685 0.463130 0.570484
Si Si4 0.569559 0.545111 0.512028
Si Si5 0.095125 0.044911 0.472836
Si Si6 0.984343 0.961788 0.364389
Si Si7 0.400083 0.539072 0.287862
O O1 0.218466 0.250000 0.700935
O O2 0.262397 0.462850 0.818756
O O3 0.272251 0.528429 0.651415
O O4 0.162333 0.527803 0.745295
O O5 0.278208 0.750000 0.905325
O O6 0.339403 0.026097 0.952093
O O7 0.223664 0.003954 0.981871
O O8 0.314752 0.250000 0.578867
O O9 0.380592 0.529735 0.555460
O O10 0.500000 0.500000 0.500000
O O11 0.572536 0.750000 0.498974
O O12 0.590792 0.508546 0.611278
O O13 0.103475 0.250000 0.490846
O O14 0.059986 0.974204 0.557624
O O15 0.050394 0.023535 0.390781
O O16 0.985796 0.750000 0.366556
O O17 0.955922 0.017322 0.272560
O O18 0.397707 0.750000 0.284705
#
# Coordination Sequence:
#
# PCOD9463302 Si02
#       7
#     8   8   8   8   8   8   8
#     4  10  20  35  58  84 108 140 187 234 279 333
#     4  10  19  35  56  79 109 142 179 224 279 334
#     4   9  19  37  59  81 110 149 187 229 286 346
#     4  11  23  40  61  83 113 152 194 236 286 343
#     4   9  18  32  52  79 110 143 181 228 280 333
#     4   9  18  33  53  77 108 146 184 224 273 335
#     4  10  20  36  58  83 110 145 190 236 283 338
#
# _framework density 21.561962000000001
#
# number of rings (size 3 to 8) (size 9 to 14) (size 15 to 20)
#    0.000    2.286    1.429    1.286    0.000    5.714 
#    0.000    6.429    0.000    3.429    0.000    0.000 
#    0.000    0.000    0.000    0.000    0.000    0.000 
#
# Total GULP energy -312576.306843 kJ/mol
# GULP energy per Si atom -5581.719765 kJ/mol
# Density = 2.151289 g / cm^3
# Si number density = 21.561962 Si / 1000 Ang^3
#
#
#
# Elastic Constant Matrix: (Units=GPa)
#
#
# Indices 1 2 3 4 5 6 
#
# 1 134.3793 10.0860 35.7203 0.0000 0.0000 0.0000
# 2 10.0860 33.9978 -1.7712 0.0000 0.0000 0.0000
# 3 35.7203 -1.7712 84.4253 0.0000 0.0000 0.0000
# 4 0.0000 0.0000 0.0000 23.3804 0.0000 0.0000
# 5 0.0000 0.0000 0.0000 0.0000 33.4672 0.0000
# 6 0.0000 0.0000 0.0000 0.0000 0.0000 17.6578
#
#
#
# Elastic Compliance Matrix: (Units=1/GPa)
#
#
# Indices 1 2 3 4 5 6 
#
# 1 0.008635 -0.002755 -0.003711 0.000000 0.000000 0.000000
# 2 -0.002755 0.030325 0.001802 0.000000 0.000000 0.000000
# 3 -0.003711 0.001802 0.013453 0.000000 0.000000 0.000000
# 4 0.000000 0.000000 0.000000 0.042771 0.000000 0.000000
# 5 0.000000 0.000000 0.000000 0.000000 0.029880 0.000000
# 6 0.000000 0.000000 0.000000 0.000000 0.000000 0.056632
#
#
# Mechanical properties :
#
#
# Convention : Reuss Voigt Hill
#
# Bulk Modulus (GPa) = 23.21062 37.87472 30.54267
# Shear Modulus (GPa) = 24.34447 28.81892 26.58170
#
# Velocity S-wave (km/s) = 3.36377 3.65987 3.51494
# Velocity P-wave (km/s) = 5.08671 5.95510 5.53795
#
# Compressibility (1/GPa) = 0.04308373
#
# Stress axis : x y z
#
# Youngs Moduli (GPa) = 115.80899 32.97629 74.33394
#
# Poissons Ratio (x) = 0.09085 0.27587
# Poissons Ratio (y) = 0.31906 -0.13394
# Poissons Ratio (z) = 0.42979 -0.05942
#
# Static dielectric constant tensor:
#      x y z
#    x 1.786200 0.000000 0.000000 
#    y 0.000000 1.805740 0.000000 
#    z 0.000000 0.000000 1.749990 
# 
# From -- ./inp_files/20247.got.cif
#   From: 2010.05.17/outbox.cif.g08.bks.cpg/sg62_11_cif.got.tgz:20247.got - 2010.06.03 15:25:27.
