data_PCOD9463997
_publ_section_title
;
Structure prediction by ZEFSAII (Michael W. Deem and Ramdas Pophale) SiO2 
 PCOD9463997
Probable space group: P N M A
;
_chemical_formula_sum "Si O2"
_cell_formula_units_Z 52
_cell_length_a 13.077055
_cell_length_b 7.295874
_cell_length_c 27.191240
_cell_angle_alpha 90.000000
_cell_angle_beta 90.000000
_cell_angle_gamma 90.000000
_cell_volume 2594.276661
_symmetry_space_group_name_H-M "P N M A"
_symmetry_group_IT_number 62
_symmetry_cell_setting 'orthorhombic'
loop_
_space_group_symop_operation_xyz
x,y,z
1/2-x,-y,1/2+z
1/2+x,1/2-y,1/2-z
-x,1/2+y,-z
-x,-y,-z
1/2+x,y,1/2-z
1/2-x,1/2+y,1/2+z
x,1/2-y,z
loop_
_atom_site_type_symbol
_atom_site_label
_atom_site_fract_x
_atom_site_fract_y
_atom_site_fract_z
Si Si1 0.354203 0.250000 0.158648
Si Si2 0.050098 0.971945 0.124856
Si Si3 0.369780 0.750000 0.701026
Si Si4 0.926816 0.750000 0.687494
Si Si5 0.881411 0.028810 0.601950
Si Si6 0.899900 0.969796 0.426418
Si Si7 0.191557 0.969490 0.033017
Si Si8 0.656744 0.039571 0.574636
O O1 0.247889 0.250000 0.185471
O O2 0.451129 0.250000 0.194171
O O3 0.366669 0.426062 0.123175
O O4 0.052458 0.750000 0.129591
O O5 0.132251 0.024305 0.082447
O O6 0.939274 0.034070 0.104681
O O7 0.078554 0.074303 0.174797
O O8 0.377797 0.750000 0.759371
O O9 0.899288 0.575152 0.653425
O O10 0.882311 0.250000 0.607170
O O11 0.770896 0.965017 0.582787
O O12 0.980161 0.981933 0.567685
O O13 0.893567 0.750000 0.421301
O O14 0.811169 0.026289 0.464557
O O15 0.188458 0.750000 0.031341
O O16 0.137802 0.034765 0.983603
O O17 0.663115 0.250000 0.590264
#
# Coordination Sequence:
#
# PCOD9463997 Si02
#       8
#     4   8   4   4   8   8   8   8
#     4  10  20  38  60  84 114 152 188 244 299 336
#     4  10  23  40  55  84 123 153 198 249 288 353
#     4  12  24  38  68  88 110 160 199 250 304 347
#     4  10  24  40  62  92 114 148 203 252 305 353
#     4   9  20  40  59  81 119 157 191 246 303 350
#     4   9  18  35  57  81 114 152 194 239 279 342
#     4  10  20  33  55  85 117 160 201 235 292 348
#     4  10  22  36  57  85 121 165 193 234 300 358
#
# _framework density 20.044122000000002
#
# number of rings (size 3 to 8) (size 9 to 14) (size 15 to 20)
#    0.000    2.154    1.538    0.462    4.308    2.462 
#    0.000    0.000    0.000    0.000    0.000    0.000 
#    0.000    0.000    0.000    0.000    0.000    0.000 
#
# Total GULP energy -290079.445663 kJ/mol
# GULP energy per Si atom -5578.450878 kJ/mol
# Density = 1.999850 g / cm^3
# Si number density = 20.044122 Si / 1000 Ang^3
#
#
#
# Elastic Constant Matrix: (Units=GPa)
#
#
# Indices 1 2 3 4 5 6 
#
# 1 111.7635 8.7926 6.1226 0.0000 0.0000 0.0000
# 2 8.7926 77.5744 -4.7556 0.0000 0.0000 0.0000
# 3 6.1226 -4.7556 38.0333 0.0000 0.0000 0.0000
# 4 0.0000 0.0000 0.0000 23.0734 0.0000 0.0000
# 5 0.0000 0.0000 0.0000 0.0000 20.4391 0.0000
# 6 0.0000 0.0000 0.0000 0.0000 0.0000 6.5815
#
#
#
# Elastic Compliance Matrix: (Units=1/GPa)
#
#
# Indices 1 2 3 4 5 6 
#
# 1 0.009125 -0.001133 -0.001611 0.000000 0.000000 0.000000
# 2 -0.001133 0.013131 0.001824 0.000000 0.000000 0.000000
# 3 -0.001611 0.001824 0.026780 0.000000 0.000000 0.000000
# 4 0.000000 0.000000 0.000000 0.043340 0.000000 0.000000
# 5 0.000000 0.000000 0.000000 0.000000 0.048926 0.000000
# 6 0.000000 0.000000 0.000000 0.000000 0.000000 0.151942
#
#
# Mechanical properties :
#
#
# Convention : Reuss Voigt Hill
#
# Bulk Modulus (GPa) = 21.18759 27.52116 24.35437
# Shear Modulus (GPa) = 16.08677 24.49957 20.29317
#
# Velocity S-wave (km/s) = 2.83604 3.49991 3.18531
# Velocity P-wave (km/s) = 4.61709 5.48567 5.07002
#
# Compressibility (1/GPa) = 0.04719745
#
# Stress axis : x y z
#
# Youngs Moduli (GPa) = 109.59109 76.15503 37.34115
#
# Poissons Ratio (x) = 0.08628 0.06014
# Poissons Ratio (y) = 0.12416 -0.06812
# Poissons Ratio (z) = 0.17651 -0.13893
#
# Static dielectric constant tensor:
#      x y z
#    x 1.765970 0.000000 0.000000 
#    y 0.000000 1.708720 0.000000 
#    z 0.000000 0.000000 1.643260 
# 
# From -- ./inp_files/32386.got.cif
#   From: 2010.05.17/outbox.cif.g08.bks.cpg/sg62_17_cif.got.tgz:32386.got - 2010.06.03 15:25:27.
