data_PCOD9463463
_publ_section_title
;
Structure prediction by ZEFSAII (Michael W. Deem and Ramdas Pophale) SiO2 
 PCOD9463463
Probable space group: P N M A
;
_chemical_formula_sum "Si O2"
_cell_formula_units_Z 64
_cell_length_a 11.627686
_cell_length_b 14.573707
_cell_length_c 14.831957
_cell_angle_alpha 90.000000
_cell_angle_beta 90.000000
_cell_angle_gamma 90.000000
_cell_volume 2513.401020
_symmetry_space_group_name_H-M "P N M A"
_symmetry_group_IT_number 62
_symmetry_cell_setting 'orthorhombic'
loop_
_space_group_symop_operation_xyz
x,y,z
1/2-x,-y,1/2+z
1/2+x,1/2-y,1/2-z
-x,1/2+y,-z
-x,-y,-z
1/2+x,y,1/2-z
1/2-x,1/2+y,1/2+z
x,1/2-y,z
loop_
_atom_site_type_symbol
_atom_site_label
_atom_site_fract_x
_atom_site_fract_y
_atom_site_fract_z
Si Si1 0.196708 0.158585 0.638554
Si Si2 0.059890 0.584866 0.614836
Si Si3 0.046359 0.605782 0.341011
Si Si4 0.998253 0.140736 0.984491
Si Si5 0.190473 0.351999 0.427698
Si Si6 0.127809 0.972227 0.165017
Si Si7 0.998510 0.144920 0.194208
Si Si8 0.757417 0.434188 0.545684
O O1 0.254695 0.250000 0.677812
O O2 0.218531 0.157108 0.532635
O O3 0.244306 0.064364 0.676783
O O4 0.062971 0.166069 0.648631
O O5 0.001163 0.485562 0.610439
O O6 0.078316 0.612917 0.720388
O O7 0.168527 0.580488 0.547409
O O8 0.948726 0.645224 0.584865
O O9 0.056318 0.584023 0.237222
O O10 0.168912 0.626004 0.383623
O O11 0.989900 0.250000 0.959215
O O12 0.130172 0.105761 0.970761
O O13 0.923388 0.067546 0.927609
O O14 0.959196 0.136456 0.089825
O O15 0.227581 0.250000 0.386857
O O16 0.234102 0.459836 0.414147
O O17 0.107351 0.076507 0.191360
O O18 0.029595 0.250000 0.208367
#
# Coordination Sequence:
#
# PCOD9463463 Si02
#       8
#     8   8   8   8   8   8   8   8
#     4  11  22  38  65  98 134 179 227 273 327 402
#     4  10  19  40  69  97 136 176 221 285 342 392
#     4  10  22  41  67 102 132 175 231 281 337 406
#     4  11  26  46  67  99 140 183 228 280 350 418
#     4  10  19  35  64 101 138 179 227 278 337 403
#     4  11  25  45  70  94 139 185 220 282 349 409
#     4  10  23  44  70  98 131 176 235 286 339 410
#     4  11  21  42  71 102 143 182 223 284 346 403
#
# _framework density 25.463507
#
# number of rings (size 3 to 8) (size 9 to 14) (size 15 to 20)
#    0.000    1.500    2.500    2.625    1.750    2.500 
#    0.000    3.125    0.000    1.500    0.000    0.000 
#    0.000    0.000    0.000    0.000    0.000    0.000 
#
# Total GULP energy -356759.370434 kJ/mol
# GULP energy per Si atom -5574.365163 kJ/mol
# Density = 2.540555 g / cm^3
# Si number density = 25.463507 Si / 1000 Ang^3
#
#
#
# Elastic Constant Matrix: (Units=GPa)
#
#
# Indices 1 2 3 4 5 6 
#
# 1 124.3845 50.8767 13.7714 0.0000 0.0000 0.0000
# 2 50.8767 177.4149 17.8120 0.0000 0.0000 0.0000
# 3 13.7714 17.8120 85.1803 0.0000 0.0000 0.0000
# 4 0.0000 0.0000 0.0000 33.6182 0.0000 0.0000
# 5 0.0000 0.0000 0.0000 0.0000 5.1307 0.0000
# 6 0.0000 0.0000 0.0000 0.0000 0.0000 12.6730
#
#
#
# Elastic Compliance Matrix: (Units=1/GPa)
#
#
# Indices 1 2 3 4 5 6 
#
# 1 0.009183 -0.002538 -0.000954 0.000000 0.000000 0.000000
# 2 -0.002538 0.006459 -0.000940 0.000000 0.000000 0.000000
# 3 -0.000954 -0.000940 0.012091 0.000000 0.000000 0.000000
# 4 0.000000 0.000000 0.000000 0.029746 0.000000 0.000000
# 5 0.000000 0.000000 0.000000 0.000000 0.194905 0.000000
# 6 0.000000 0.000000 0.000000 0.000000 0.000000 0.078908
#
#
# Mechanical properties :
#
#
# Convention : Reuss Voigt Hill
#
# Bulk Modulus (GPa) = 52.99827 61.32221 57.16024
# Shear Modulus (GPa) = 14.43232 30.58568 22.50900
#
# Velocity S-wave (km/s) = 2.38331 3.46953 2.97639
# Velocity P-wave (km/s) = 5.33218 6.33915 5.85735
#
# Compressibility (1/GPa) = 0.01886854
#
# Stress axis : x y z
#
# Youngs Moduli (GPa) = 108.89466 154.83183 82.70839
#
# Poissons Ratio (x) = 0.39291 0.07891
# Poissons Ratio (y) = 0.27634 0.07777
# Poissons Ratio (z) = 0.10389 0.14559
#
# Static dielectric constant tensor:
#      x y z
#    x 2.083000 0.000000 0.000000 
#    y 0.000000 2.087700 0.000000 
#    z 0.000000 0.000000 2.070720 
# 
# From -- ./inp_files/23209.got.cif
#   From: 2010.05.17/outbox.cif.g08.bks.cpg/sg62_12_cif.got.tgz:23209.got - 2010.06.03 15:25:27.
