data_PCOD9463532
_publ_section_title
;
Structure prediction by ZEFSAII (Michael W. Deem and Ramdas Pophale) SiO2 
 PCOD9463532
Probable space group: P N M A
;
_chemical_formula_sum "Si O2"
_cell_formula_units_Z 52
_cell_length_a 13.650338
_cell_length_b 7.370875
_cell_length_c 19.145673
_cell_angle_alpha 90.000000
_cell_angle_beta 90.000000
_cell_angle_gamma 90.000000
_cell_volume 1926.340646
_symmetry_space_group_name_H-M "P N M A"
_symmetry_group_IT_number 62
_symmetry_cell_setting 'orthorhombic'
loop_
_space_group_symop_operation_xyz
x,y,z
1/2-x,-y,1/2+z
1/2+x,1/2-y,1/2-z
-x,1/2+y,-z
-x,-y,-z
1/2+x,y,1/2-z
1/2-x,1/2+y,1/2+z
x,1/2-y,z
loop_
_atom_site_type_symbol
_atom_site_label
_atom_site_fract_x
_atom_site_fract_y
_atom_site_fract_z
Si Si1 0.565685 0.460388 0.909439
Si Si2 0.735692 0.750000 0.939726
Si Si3 0.658839 0.970068 0.516807
Si Si4 0.023409 0.958475 0.864594
Si Si5 0.637249 0.458918 0.263604
Si Si6 0.151606 0.033542 0.393444
Si Si7 0.851148 0.536382 0.264319
O O1 0.591125 0.250000 0.923069
O O2 0.648605 0.593331 0.936012
O O3 0.452750 0.492779 0.928878
O O4 0.570234 0.493457 0.825133
O O5 0.820506 0.588612 0.949096
O O6 0.658830 0.750000 0.507751
O O7 0.565669 0.031170 0.563030
O O8 0.753559 0.028906 0.564395
O O9 0.000934 0.750000 0.878231
O O10 0.936738 0.045091 0.818852
O O11 0.113390 0.960083 0.808904
O O12 0.604275 0.250000 0.255194
O O13 0.646749 0.539047 0.185821
O O14 0.748775 0.455525 0.289966
O O15 0.161649 0.250000 0.389312
O O16 0.837835 0.750000 0.256614
#
# Coordination Sequence:
#
# PCOD9463532 Si02
#       7
#     8   4   8   8   8   8   8
#     4  11  25  42  61  91 125 166 216 262 308 370
#     4  12  26  44  66  82 120 178 220 258 306 378
#     4  10  23  41  60  92 127 163 212 260 309 371
#     4  10  20  37  63  93 128 160 200 255 312 376
#     4  10  20  34  63  95 126 166 201 246 315 386
#     4  10  19  36  59  92 133 166 201 251 314 372
#     4  11  23  36  59  94 131 161 198 257 319 377
#
# _framework density 26.994188000000001
#
# number of rings (size 3 to 8) (size 9 to 14) (size 15 to 20)
#    0.000    1.538    3.846    0.923    4.308    1.846 
#    0.000    0.000    0.000    0.923    0.000    0.000 
#    0.000    0.000    0.000    0.000    0.000    0.000 
#
# Total GULP energy -290283.516129 kJ/mol
# GULP energy per Si atom -5582.375310 kJ/mol
# Density = 2.693275 g / cm^3
# Si number density = 26.994188 Si / 1000 Ang^3
#
#
#
# Elastic Constant Matrix: (Units=GPa)
#
#
# Indices 1 2 3 4 5 6 
#
# 1 95.5524 2.9468 44.9682 0.0000 0.0000 0.0000
# 2 2.9468 142.6763 18.4100 0.0000 0.0000 0.0000
# 3 44.9682 18.4100 98.6029 0.0000 0.0000 0.0000
# 4 0.0000 0.0000 0.0000 -3.4499 0.0000 0.0000
# 5 0.0000 0.0000 0.0000 0.0000 70.3337 0.0000
# 6 0.0000 0.0000 0.0000 0.0000 0.0000 3.4420
#
#
#
# Elastic Compliance Matrix: (Units=1/GPa)
#
#
# Indices 1 2 3 4 5 6 
#
# 1 0.013363 0.000523 -0.006192 0.000000 0.000000 0.000000
# 2 0.000523 0.007202 -0.001583 0.000000 0.000000 0.000000
# 3 -0.006192 -0.001583 0.013261 0.000000 0.000000 0.000000
# 4 0.000000 0.000000 0.000000 -0.289861 0.000000 0.000000
# 5 0.000000 0.000000 0.000000 0.000000 0.014218 0.000000
# 6 0.000000 0.000000 0.000000 0.000000 0.000000 0.290525
#
#
# Mechanical properties :
#
#
# Convention : Reuss Voigt Hill
#
# Bulk Modulus (GPa) = 51.75369 52.16462 51.95916
# Shear Modulus (GPa) = 71.78286 32.09893 51.94090
#
# Velocity S-wave (km/s) = 5.16233 3.45208 4.39127
# Velocity P-wave (km/s) = 7.39910 5.93763 6.70829
#
# Compressibility (1/GPa) = 0.01932229
#
# Stress axis : x y z
#
# Youngs Moduli (GPa) = 74.83122 138.84330 75.40786
#
# Poissons Ratio (x) = -0.07261 0.46693
# Poissons Ratio (y) = -0.03914 0.11939
# Poissons Ratio (z) = 0.46336 0.21982
#
# Static dielectric constant tensor:
#      x y z
#    x 2.107400 0.000000 0.000000 
#    y 0.000000 2.276100 0.000000 
#    z 0.000000 0.000000 2.273780 
# 
# From -- ./inp_files/27018.got.cif
#   From: 2010.05.17/outbox.cif.g08.bks.cpg/sg62_14_cif.got.tgz:27018.got - 2010.06.03 15:25:27.
