data_PCOD9463714
_publ_section_title
;
Structure prediction by ZEFSAII (Michael W. Deem and Ramdas Pophale) SiO2 
 PCOD9463714
Probable space group: P N M A
;
_chemical_formula_sum "Si O2"
_cell_formula_units_Z 40
_cell_length_a 5.448835
_cell_length_b 12.958512
_cell_length_c 23.462442
_cell_angle_alpha 90.000000
_cell_angle_beta 90.000000
_cell_angle_gamma 90.000000
_cell_volume 1656.654728
_symmetry_space_group_name_H-M "P N M A"
_symmetry_group_IT_number 62
_symmetry_cell_setting 'orthorhombic'
loop_
_space_group_symop_operation_xyz
x,y,z
1/2-x,-y,1/2+z
1/2+x,1/2-y,1/2-z
-x,1/2+y,-z
-x,-y,-z
1/2+x,y,1/2-z
1/2-x,1/2+y,1/2+z
x,1/2-y,z
loop_
_atom_site_type_symbol
_atom_site_label
_atom_site_fract_x
_atom_site_fract_y
_atom_site_fract_z
Si Si1 0.561503 0.932602 0.104394
Si Si2 0.072926 0.870156 0.650836
Si Si3 0.052727 0.750000 0.942287
Si Si4 0.446788 0.250000 0.985484
Si Si5 0.925702 0.430973 0.151697
Si Si6 0.693953 0.127194 0.778328
O O1 0.552228 0.852153 0.054217
O O2 0.404826 0.890835 0.157840
O O3 0.454905 0.049475 0.097360
O O4 0.839257 0.959557 0.125350
O O5 0.086652 0.750000 0.638345
O O6 0.316730 0.909877 0.680898
O O7 0.819242 0.892388 0.683263
O O8 0.302575 0.750000 0.978516
O O9 0.808019 0.750000 0.980016
O O10 0.054587 0.850135 0.901445
O O11 0.966214 0.089129 0.760948
O O12 0.711941 0.250000 0.769905
#
# Coordination Sequence:
#
# PCOD9463714 Si02
#       6
#     8   8   4   4   8   8
#     4  10  25  42  65  96 125 172 201 263 321 380
#     4  10  19  38  65  88 112 171 212 251 302 376
#     4  12  24  42  58  93 124 173 220 266 302 364
#     4  12  28  38  62  91 138 157 216 272 308 372
#     4  10  21  38  63  84 122 169 210 258 302 370
#     4  10  22  40  67  96 129 161 198 253 311 394
#
# _framework density 24.145043999999999
#
# number of rings (size 3 to 8) (size 9 to 14) (size 15 to 20)
#    1.200    0.400    3.000    1.200    5.600    1.600 
#    0.000    0.000    0.000    1.200    0.000    0.000 
#    0.000    0.000    0.000    0.000    0.000    0.000 
#
# Total GULP energy -223057.069238 kJ/mol
# GULP energy per Si atom -5576.426731 kJ/mol
# Density = 2.409009 g / cm^3
# Si number density = 24.145044 Si / 1000 Ang^3
#
#
#
# Elastic Constant Matrix: (Units=GPa)
#
#
# Indices 1 2 3 4 5 6 
#
# 1 210.9200 8.0731 27.6671 0.0000 0.0000 0.0000
# 2 8.0731 105.5004 12.1367 0.0000 0.0000 0.0000
# 3 27.6671 12.1367 88.6867 0.0000 0.0000 0.0000
# 4 0.0000 0.0000 0.0000 17.0695 0.0000 0.0000
# 5 0.0000 0.0000 0.0000 0.0000 14.5058 0.0000
# 6 0.0000 0.0000 0.0000 0.0000 0.0000 26.5424
#
#
#
# Elastic Compliance Matrix: (Units=1/GPa)
#
#
# Indices 1 2 3 4 5 6 
#
# 1 0.004948 -0.000204 -0.001516 0.000000 0.000000 0.000000
# 2 -0.000204 0.009639 -0.001255 0.000000 0.000000 0.000000
# 3 -0.001516 -0.001255 0.011920 0.000000 0.000000 0.000000
# 4 0.000000 0.000000 0.000000 0.058584 0.000000 0.000000
# 5 0.000000 0.000000 0.000000 0.000000 0.068938 0.000000
# 6 0.000000 0.000000 0.000000 0.000000 0.000000 0.037676
#
#
# Mechanical properties :
#
#
# Convention : Reuss Voigt Hill
#
# Bulk Modulus (GPa) = 48.64673 55.65120 52.14897
# Shear Modulus (GPa) = 24.44910 35.43889 29.94400
#
# Velocity S-wave (km/s) = 3.18558 3.83528 3.52543
# Velocity P-wave (km/s) = 5.80706 6.53538 6.18196
#
# Compressibility (1/GPa) = 0.02055637
#
# Stress axis : x y z
#
# Youngs Moduli (GPa) = 202.11183 103.74870 83.89090
#
# Poissons Ratio (x) = 0.02119 0.12714
# Poissons Ratio (y) = 0.04128 0.10531
# Poissons Ratio (z) = 0.30631 0.13024
#
# Static dielectric constant tensor:
#      x y z
#    x 2.090190 0.000000 0.000000 
#    y 0.000000 1.974210 0.000000 
#    z 0.000000 0.000000 1.906120 
# 
# From -- ./inp_files/28256.got.cif
#   From: 2010.05.17/outbox.cif.g08.bks.cpg/sg62_15_cif.got.tgz:28256.got - 2010.06.03 15:25:27.
