data_PCOD9463801
_publ_section_title
;
Structure prediction by ZEFSAII (Michael W. Deem and Ramdas Pophale) SiO2 
 PCOD9463801
Probable space group: P N M A
;
_chemical_formula_sum "Si O2"
_cell_formula_units_Z 48
_cell_length_a 5.349992
_cell_length_b 17.467441
_cell_length_c 28.619908
_cell_angle_alpha 90.000000
_cell_angle_beta 90.000000
_cell_angle_gamma 90.000000
_cell_volume 2674.549567
_symmetry_space_group_name_H-M "P N M A"
_symmetry_group_IT_number 62
_symmetry_cell_setting 'orthorhombic'
loop_
_space_group_symop_operation_xyz
x,y,z
1/2-x,-y,1/2+z
1/2+x,1/2-y,1/2-z
-x,1/2+y,-z
-x,-y,-z
1/2+x,y,1/2-z
1/2-x,1/2+y,1/2+z
x,1/2-y,z
loop_
_atom_site_type_symbol
_atom_site_label
_atom_site_fract_x
_atom_site_fract_y
_atom_site_fract_z
Si Si1 0.294274 0.936264 0.012370
Si Si2 0.297265 0.045120 0.865545
Si Si3 0.180161 0.836517 0.445947
Si Si4 0.319199 0.972011 0.599830
Si Si5 0.967786 0.661160 0.954847
Si Si6 0.846923 0.162577 0.718815
O O1 0.403858 0.865182 0.041493
O O2 0.133485 0.983651 0.049918
O O3 0.200692 0.894545 0.965777
O O4 0.500000 0.000000 0.000000
O O5 0.236823 0.107421 0.905601
O O6 0.555098 0.002216 0.880016
O O7 0.336002 0.095546 0.819335
O O8 0.052849 0.991129 0.866667
O O9 0.189244 0.750000 0.430282
O O10 0.326546 0.842824 0.495028
O O11 0.315656 0.882955 0.585076
O O12 0.022549 0.750000 0.945300
O O13 0.602113 0.156144 0.751518
O O14 0.843514 0.250000 0.698797
#
# Coordination Sequence:
#
# PCOD9463801 Si02
#       6
#     8   8   8   8   8   8
#     4  11  19  33  48  68 101 148 197 237 276 317
#     4  11  22  37  56  79 111 141 187 225 277 329
#     4  10  20  31  47  72 104 146 193 233 266 314
#     4  11  22  35  53  77 107 150 189 235 271 325
#     4  11  21  34  49  73 107 152 196 235 279 318
#     4  10  21  39  62  87 115 145 175 220 283 344
#
# _framework density 17.946947999999999
#
# number of rings (size 3 to 8) (size 9 to 14) (size 15 to 20)
#    0.000    1.333    3.333    4.500    0.000    0.000 
#    0.000    1.667    0.000    0.000    0.000    0.000 
#    0.000   13.333    0.000    0.000    0.000    0.000 
#
# Total GULP energy -267522.180229 kJ/mol
# GULP energy per Si atom -5573.378755 kJ/mol
# Density = 1.790610 g / cm^3
# Si number density = 17.946948 Si / 1000 Ang^3
#
#
#
# Elastic Constant Matrix: (Units=GPa)
#
#
# Indices 1 2 3 4 5 6 
#
# 1 78.3823 65.0013 25.0163 0.0000 0.0000 0.0000
# 2 65.0013 119.7232 37.4277 0.0000 0.0000 0.0000
# 3 25.0163 37.4277 53.6298 0.0000 0.0000 0.0000
# 4 0.0000 0.0000 0.0000 28.3226 0.0000 0.0000
# 5 0.0000 0.0000 0.0000 0.0000 19.0260 0.0000
# 6 0.0000 0.0000 0.0000 0.0000 0.0000 12.4940
#
#
#
# Elastic Compliance Matrix: (Units=1/GPa)
#
#
# Indices 1 2 3 4 5 6 
#
# 1 0.023493 -0.011933 -0.002631 0.000000 0.000000 0.000000
# 2 -0.011933 0.016744 -0.006120 0.000000 0.000000 0.000000
# 3 -0.002631 -0.006120 0.024144 0.000000 0.000000 0.000000
# 4 0.000000 0.000000 0.000000 0.035308 0.000000 0.000000
# 5 0.000000 0.000000 0.000000 0.000000 0.052560 0.000000
# 6 0.000000 0.000000 0.000000 0.000000 0.000000 0.080039
#
#
# Mechanical properties :
#
#
# Convention : Reuss Voigt Hill
#
# Bulk Modulus (GPa) = 43.44901 56.29175 49.87038
# Shear Modulus (GPa) = 17.77296 20.25450 19.01373
#
# Velocity S-wave (km/s) = 3.15033 3.36307 3.25844
# Velocity P-wave (km/s) = 6.12332 6.82012 6.48109
#
# Compressibility (1/GPa) = 0.02301548
#
# Stress axis : x y z
#
# Youngs Moduli (GPa) = 42.56529 59.72181 41.41748
#
# Poissons Ratio (x) = 0.71264 0.10897
# Poissons Ratio (y) = 0.50792 0.25346
# Poissons Ratio (z) = 0.11199 0.36547
#
# Static dielectric constant tensor:
#      x y z
#    x 1.744330 0.000000 0.000000 
#    y 0.000000 1.636780 0.000000 
#    z 0.000000 0.000000 1.606160 
# 
# From -- ./inp_files/28306.got.cif
#   From: 2010.05.17/outbox.cif.g08.bks.cpg/sg62_15_cif.got.tgz:28306.got - 2010.06.03 15:25:27.
