data_PCOD9463097
_publ_section_title
;
Structure prediction by ZEFSAII (Michael W. Deem and Ramdas Pophale) SiO2 
 PCOD9463097
Probable space group: P N M A
;
_chemical_formula_sum "Si O2"
_cell_formula_units_Z 56
_cell_length_a 15.483437
_cell_length_b 7.456982
_cell_length_c 22.161522
_cell_angle_alpha 90.000000
_cell_angle_beta 90.000000
_cell_angle_gamma 90.000000
_cell_volume 2558.762926
_symmetry_space_group_name_H-M "P N M A"
_symmetry_group_IT_number 62
_symmetry_cell_setting 'orthorhombic'
loop_
_space_group_symop_operation_xyz
x,y,z
1/2-x,-y,1/2+z
1/2+x,1/2-y,1/2-z
-x,1/2+y,-z
-x,-y,-z
1/2+x,y,1/2-z
1/2-x,1/2+y,1/2+z
x,1/2-y,z
loop_
_atom_site_type_symbol
_atom_site_label
_atom_site_fract_x
_atom_site_fract_y
_atom_site_fract_z
Si Si1 0.790234 0.543951 0.107454
Si Si2 0.522090 0.034963 0.569341
Si Si3 0.586318 0.467740 0.779107
Si Si4 0.530050 0.468289 0.910521
Si Si5 0.143547 0.043294 0.480662
Si Si6 0.561717 0.968821 0.311796
Si Si7 0.773193 0.469002 0.735646
O O1 0.808679 0.750000 0.124501
O O2 0.882857 0.465382 0.088853
O O3 0.725405 0.542388 0.051189
O O4 0.740308 0.469460 0.166289
O O5 0.525112 0.250000 0.574394
O O6 0.452035 0.972966 0.619066
O O7 0.500000 0.000000 0.500000
O O8 0.585600 0.250000 0.779890
O O9 0.548772 0.526955 0.842991
O O10 0.524094 0.521994 0.724832
O O11 0.684601 0.520858 0.768576
O O12 0.528094 0.250000 0.912424
O O13 0.438279 0.530598 0.935723
O O14 0.604981 0.528864 0.956632
O O15 0.166434 0.250000 0.490398
O O16 0.565704 0.750000 0.311817
O O17 0.644151 0.031579 0.273454
O O18 0.780047 0.250000 0.734696
#
# Coordination Sequence:
#
# PCOD9463097 Si02
#       7
#     8   8   8   8   8   8   8
#     4  10  19  34  54  77 104 138 178 220 269 322
#     4  10  21  36  54  77 107 141 180 221 266 323
#     4   9  15  27  48  75 101 124 164 219 265 304
#     4   9  18  32  51  76 105 135 169 215 265 309
#     4  10  20  32  49  76 108 139 172 208 253 319
#     4   9  16  28  48  75 104 132 168 220 269 309
#     4   9  16  27  50  79 102 127 168 225 276 307
#
# _framework density 21.885576
#
# number of rings (size 3 to 8) (size 9 to 14) (size 15 to 20)
#    0.000    2.571    1.429    1.286    0.000    4.571 
#    0.000    2.857    0.000    4.286    0.000    0.000 
#    0.000    0.000    0.000    0.000    0.000    0.000 
#
# Total GULP energy -312578.719813 kJ/mol
# GULP energy per Si atom -5581.762854 kJ/mol
# Density = 2.183576 g / cm^3
# Si number density = 21.885576 Si / 1000 Ang^3
#
#
#
# Elastic Constant Matrix: (Units=GPa)
#
#
# Indices 1 2 3 4 5 6 
#
# 1 121.4676 0.0031 66.0211 0.0000 0.0000 0.0000
# 2 0.0031 61.8514 1.3646 0.0000 0.0000 0.0000
# 3 66.0211 1.3646 160.3647 0.0000 0.0000 0.0000
# 4 0.0000 0.0000 0.0000 19.8671 0.0000 0.0000
# 5 0.0000 0.0000 0.0000 0.0000 25.0965 0.0000
# 6 0.0000 0.0000 0.0000 0.0000 0.0000 2.7466
#
#
#
# Elastic Compliance Matrix: (Units=1/GPa)
#
#
# Indices 1 2 3 4 5 6 
#
# 1 0.010606 0.000096 -0.004367 0.000000 0.000000 0.000000
# 2 0.000096 0.016172 -0.000177 0.000000 0.000000 0.000000
# 3 -0.004367 -0.000177 0.008035 0.000000 0.000000 0.000000
# 4 0.000000 0.000000 0.000000 0.050334 0.000000 0.000000
# 5 0.000000 0.000000 0.000000 0.000000 0.039846 0.000000
# 6 0.000000 0.000000 0.000000 0.000000 0.000000 0.364081
#
#
# Mechanical properties :
#
#
# Convention : Reuss Voigt Hill
#
# Bulk Modulus (GPa) = 38.58599 53.16237 45.87418
# Shear Modulus (GPa) = 9.86951 27.96171 18.91561
#
# Velocity S-wave (km/s) = 2.12588 3.57828 2.94308
# Velocity P-wave (km/s) = 4.86774 6.43552 5.70573
#
# Compressibility (1/GPa) = 0.02591614
#
# Stress axis : x y z
#
# Youngs Moduli (GPa) = 94.28209 61.83651 124.45037
#
# Poissons Ratio (x) = -0.00592 0.54353
# Poissons Ratio (y) = -0.00903 0.02203
# Poissons Ratio (z) = 0.41177 0.01095
#
# Static dielectric constant tensor:
#      x y z
#    x 1.759120 0.000000 0.000000 
#    y 0.000000 1.874350 0.000000 
#    z 0.000000 0.000000 1.788330 
# 
# From -- ./inp_files/27212.got.cif
#   From: 2010.05.17/outbox.cif.g08.bks.cpg/sg62_14_cif.got.tgz:27212.got - 2010.06.03 15:25:27.
