data_PCOD9463364
_publ_section_title
;
Structure prediction by ZEFSAII (Michael W. Deem and Ramdas Pophale) SiO2 
 PCOD9463364
Probable space group: P N M A
;
_chemical_formula_sum "Si O2"
_cell_formula_units_Z 56
_cell_length_a 12.169333
_cell_length_b 15.917606
_cell_length_c 13.764895
_cell_angle_alpha 90.000000
_cell_angle_beta 90.000000
_cell_angle_gamma 90.000000
_cell_volume 2666.351670
_symmetry_space_group_name_H-M "P N M A"
_symmetry_group_IT_number 62
_symmetry_cell_setting 'orthorhombic'
loop_
_space_group_symop_operation_xyz
x,y,z
1/2-x,-y,1/2+z
1/2+x,1/2-y,1/2-z
-x,1/2+y,-z
-x,-y,-z
1/2+x,y,1/2-z
1/2-x,1/2+y,1/2+z
x,1/2-y,z
loop_
_atom_site_type_symbol
_atom_site_label
_atom_site_fract_x
_atom_site_fract_y
_atom_site_fract_z
Si Si1 0.678944 0.011650 0.089523
Si Si2 0.489954 0.840090 0.945941
Si Si3 0.898255 0.841044 0.092191
Si Si4 0.636172 0.841187 0.137002
Si Si5 0.811824 0.428846 0.375640
Si Si6 0.920577 0.652259 0.861810
Si Si7 0.595315 0.986910 0.689641
O O1 0.592561 0.085500 0.076857
O O2 0.798360 0.038432 0.125310
O O3 0.634697 0.939879 0.165270
O O4 0.692445 0.971510 0.981620
O O5 0.438163 0.750000 0.927733
O O6 0.599008 0.854833 0.883202
O O7 0.541764 0.840536 0.054340
O O8 0.936432 0.750000 0.129249
O O9 0.764238 0.839080 0.099651
O O10 0.940256 0.922151 0.149545
O O11 0.929619 0.848307 0.979489
O O12 0.624587 0.750000 0.189303
O O13 0.698562 0.387959 0.342550
O O14 0.859152 0.494038 0.298342
O O15 0.929316 0.750000 0.830611
O O16 0.007899 0.587107 0.819556
#
# Coordination Sequence:
#
# PCOD9463364 Si02
#       7
#     8   8   8   8   8   8   8
#     4  10  21  38  59  85 119 159 203 250 304 366
#     4  10  19  35  58  84 116 156 198 246 300 362
#     4   9  17  36  64  86 111 156 205 250 296 359
#     4   8  13  27  54  82 105 140 193 238 282 343
#     4  11  22  39  61  88 123 166 206 253 307 359
#     4  11  22  39  63  88 123 164 204 251 308 372
#     4  11  24  38  60  92 124 159 205 259 304 361
#
# _framework density 21.002479999999998
#
# number of rings (size 3 to 8) (size 9 to 14) (size 15 to 20)
#    0.000    2.000    4.286    2.571    2.000    1.714 
#    0.000    0.714    0.000    1.714    0.000    0.000 
#    0.000    0.000    0.000    0.000    0.000    0.000 
#
# Total GULP energy -311988.814972 kJ/mol
# GULP energy per Si atom -5571.228839 kJ/mol
# Density = 2.095468 g / cm^3
# Si number density = 21.002480 Si / 1000 Ang^3
#
#
#
# Elastic Constant Matrix: (Units=GPa)
#
#
# Indices 1 2 3 4 5 6 
#
# 1 89.2970 66.8858 4.2034 0.0000 0.0000 0.0000
# 2 66.8858 144.5587 6.1759 0.0000 0.0000 0.0000
# 3 4.2034 6.1759 41.0269 0.0000 0.0000 0.0000
# 4 0.0000 0.0000 0.0000 5.0845 0.0000 0.0000
# 5 0.0000 0.0000 0.0000 0.0000 10.5530 0.0000
# 6 0.0000 0.0000 0.0000 0.0000 0.0000 23.7858
#
#
#
# Elastic Compliance Matrix: (Units=1/GPa)
#
#
# Indices 1 2 3 4 5 6 
#
# 1 0.017151 -0.007911 -0.000566 0.000000 0.000000 0.000000
# 2 -0.007911 0.010612 -0.000787 0.000000 0.000000 0.000000
# 3 -0.000566 -0.000787 0.024551 0.000000 0.000000 0.000000
# 4 0.000000 0.000000 0.000000 0.196678 0.000000 0.000000
# 5 0.000000 0.000000 0.000000 0.000000 0.094760 0.000000
# 6 0.000000 0.000000 0.000000 0.000000 0.000000 0.042042
#
#
# Mechanical properties :
#
#
# Convention : Reuss Voigt Hill
#
# Bulk Modulus (GPa) = 29.59944 47.71254 38.65599
# Shear Modulus (GPa) = 12.03127 21.05914 16.54521
#
# Velocity S-wave (km/s) = 2.39602 3.16998 2.80978
# Velocity P-wave (km/s) = 4.66674 6.01375 5.38255
#
# Compressibility (1/GPa) = 0.03378443
#
# Stress axis : x y z
#
# Youngs Moduli (GPa) = 58.30522 94.23501 40.73199
#
# Poissons Ratio (x) = 0.74554 0.02307
# Poissons Ratio (y) = 0.46128 0.03205
# Poissons Ratio (z) = 0.03302 0.07415
#
# Static dielectric constant tensor:
#      x y z
#    x 1.743750 0.000000 0.000000 
#    y 0.000000 1.815070 0.000000 
#    z 0.000000 0.000000 1.788840 
# 
# From -- ./inp_files/18079.got.cif
#   From: 2010.05.17/outbox.cif.g08.bks.cpg/sg62_10_cif.got.tgz:18079.got - 2010.06.03 15:25:27.
