data_PCOD9463330
_publ_section_title
;
Structure prediction by ZEFSAII (Michael W. Deem and Ramdas Pophale) SiO2 
 PCOD9463330
Probable space group: P N M A
;
_chemical_formula_sum "Si O2"
_cell_formula_units_Z 52
_cell_length_a 8.675726
_cell_length_b 9.582932
_cell_length_c 29.863396
_cell_angle_alpha 90.000000
_cell_angle_beta 90.000000
_cell_angle_gamma 90.000000
_cell_volume 2482.809664
_symmetry_space_group_name_H-M "P N M A"
_symmetry_group_IT_number 62
_symmetry_cell_setting 'orthorhombic'
loop_
_space_group_symop_operation_xyz
x,y,z
1/2-x,-y,1/2+z
1/2+x,1/2-y,1/2-z
-x,1/2+y,-z
-x,-y,-z
1/2+x,y,1/2-z
1/2-x,1/2+y,1/2+z
x,1/2-y,z
loop_
_atom_site_type_symbol
_atom_site_label
_atom_site_fract_x
_atom_site_fract_y
_atom_site_fract_z
Si Si1 0.556893 0.250000 0.508006
Si Si2 0.898138 0.088542 0.280806
Si Si3 0.836342 0.414152 0.606287
Si Si4 0.195682 0.414158 0.636741
Si Si5 0.888701 0.478509 0.948064
Si Si6 0.746617 0.912193 0.688217
Si Si7 0.135565 0.092344 0.480125
O O1 0.579279 0.372226 0.469425
O O2 0.529055 0.127053 0.546063
O O3 0.849301 0.250000 0.286789
O O4 0.864900 0.052719 0.229357
O O5 0.079010 0.080495 0.292298
O O6 0.807826 0.992218 0.315865
O O7 0.810453 0.250000 0.597752
O O8 0.020161 0.426315 0.617877
O O9 0.742572 0.479080 0.647658
O O10 0.812807 0.515628 0.564449
O O11 0.229682 0.250000 0.641195
O O12 0.311887 0.479460 0.600522
O O13 0.766198 0.405473 0.982164
O O14 0.721059 0.750000 0.674025
O O15 0.084441 0.250000 0.470937
O O16 0.000000 0.000000 0.500000
#
# Coordination Sequence:
#
# PCOD9463330 Si02
#       7
#     4   8   8   8   8   8   8
#     4  10  24  40  58  76 114 166 198 236 286 338
#     4   9  19  34  59  84 109 146 189 233 290 347
#     4  10  21  35  57  88 117 148 186 240 298 346
#     4  10  19  35  57  84 113 146 193 243 279 343
#     4  11  22  41  60  82 117 158 203 242 286 347
#     4   9  18  37  58  82 113 146 188 237 291 346
#     4  12  23  36  59  90 118 149 194 246 297 340
#
# _framework density 20.944013999999999
#
# number of rings (size 3 to 8) (size 9 to 14) (size 15 to 20)
#    0.000    1.846    3.077    0.923    3.231    1.231 
#    0.000    3.077    3.385    0.000    0.000    0.000 
#    0.000    0.000    0.000    0.000    0.000    0.000 
#
# Total GULP energy -289536.445670 kJ/mol
# GULP energy per Si atom -5568.008571 kJ/mol
# Density = 2.089634 g / cm^3
# Si number density = 20.944014 Si / 1000 Ang^3
#
#
#
# Elastic Constant Matrix: (Units=GPa)
#
#
# Indices 1 2 3 4 5 6 
#
# 1 23.4179 23.9603 6.6015 0.0000 0.0000 0.0000
# 2 23.9603 139.4156 28.4313 0.0000 0.0000 0.0000
# 3 6.6015 28.4313 69.0300 0.0000 0.0000 0.0000
# 4 0.0000 0.0000 0.0000 36.2785 0.0000 0.0000
# 5 0.0000 0.0000 0.0000 0.0000 32.9730 0.0000
# 6 0.0000 0.0000 0.0000 0.0000 0.0000 46.2497
#
#
#
# Elastic Compliance Matrix: (Units=1/GPa)
#
#
# Indices 1 2 3 4 5 6 
#
# 1 0.051939 -0.008639 -0.001409 0.000000 0.000000 0.000000
# 2 -0.008639 0.009267 -0.002991 0.000000 0.000000 0.000000
# 3 -0.001409 -0.002991 0.015853 0.000000 0.000000 0.000000
# 4 0.000000 0.000000 0.000000 0.027565 0.000000 0.000000
# 5 0.000000 0.000000 0.000000 0.000000 0.030328 0.000000
# 6 0.000000 0.000000 0.000000 0.000000 0.000000 0.021622
#
#
# Mechanical properties :
#
#
# Convention : Reuss Voigt Hill
#
# Bulk Modulus (GPa) = 19.61483 38.87217 29.24350
# Shear Modulus (GPa) = 25.04451 34.62493 29.83472
#
# Velocity S-wave (km/s) = 3.46176 4.07038 3.77835
# Velocity P-wave (km/s) = 5.03628 6.37895 5.74696
#
# Compressibility (1/GPa) = 0.05098182
#
# Stress axis : x y z
#
# Youngs Moduli (GPa) = 19.25347 107.90468 63.07948
#
# Poissons Ratio (x) = 0.93219 0.08887
# Poissons Ratio (y) = 0.16633 0.18866
# Poissons Ratio (z) = 0.02713 0.32272
#
# Static dielectric constant tensor:
#      x y z
#    x 1.924510 0.000000 0.000000 
#    y 0.000000 1.695170 0.000000 
#    z 0.000000 0.000000 1.786170 
# 
# From -- ./inp_files/31047.got.cif
#   From: 2010.05.17/outbox.cif.g08.bks.cpg/sg62_16_cif.got.tgz:31047.got - 2010.06.03 15:25:27.
