data_PCOD9463052
_publ_section_title
;
Structure prediction by ZEFSAII (Michael W. Deem and Ramdas Pophale) SiO2 
 PCOD9463052
Probable space group: P N M A
;
_chemical_formula_sum "Si O2"
_cell_formula_units_Z 40
_cell_length_a 18.923840
_cell_length_b 8.590935
_cell_length_c 11.255061
_cell_angle_alpha 90.000000
_cell_angle_beta 90.000000
_cell_angle_gamma 90.000000
_cell_volume 1829.774428
_symmetry_space_group_name_H-M "P N M A"
_symmetry_group_IT_number 62
_symmetry_cell_setting 'orthorhombic'
loop_
_space_group_symop_operation_xyz
x,y,z
1/2-x,-y,1/2+z
1/2+x,1/2-y,1/2-z
-x,1/2+y,-z
-x,-y,-z
1/2+x,y,1/2-z
1/2-x,1/2+y,1/2+z
x,1/2-y,z
loop_
_atom_site_type_symbol
_atom_site_label
_atom_site_fract_x
_atom_site_fract_y
_atom_site_fract_z
Si Si1 0.022181 0.070167 0.853221
Si Si2 0.196402 0.064611 0.400267
Si Si3 0.252242 0.430233 0.656409
Si Si4 0.957473 0.069819 0.607337
Si Si5 0.615586 0.427924 0.452810
O O1 0.004508 0.250000 0.886897
O O2 0.013187 0.061417 0.714288
O O3 0.962449 0.953560 0.900178
O O4 0.098768 0.040293 0.908918
O O5 0.204943 0.250000 0.403412
O O6 0.211747 0.006950 0.536808
O O7 0.243928 0.002977 0.289320
O O8 0.115449 0.020686 0.370733
O O9 0.232827 0.250000 0.670523
O O10 0.332298 0.452945 0.608363
O O11 0.938157 0.250000 0.589830
O O12 0.000000 0.000000 0.500000
O O13 0.639915 0.250000 0.435060
#
# Coordination Sequence:
#
# PCOD9463052 Si02
#       5
#     8   8   8   8   8
#     4   9  19  35  56  86 120 155 197 247 301 359
#     4  11  25  44  66  94 126 167 217 263 317 383
#     4  11  24  42  64  92 129 167 210 266 319 378
#     4  11  23  40  63  90 126 165 205 256 314 374
#     4  10  19  33  59  89 117 153 199 248 301 366
#
# _framework density 21.860616
#
# number of rings (size 3 to 8) (size 9 to 14) (size 15 to 20)
#    0.000    1.600    2.000    2.400    0.000    6.400 
#    0.000    6.000    0.000    0.000    0.000    0.000 
#    0.000    0.000    0.000    0.000    0.000    0.000 
#
# Total GULP energy -222939.103250 kJ/mol
# GULP energy per Si atom -5573.477581 kJ/mol
# Density = 2.181086 g / cm^3
# Si number density = 21.860616 Si / 1000 Ang^3
#
#
#
# Elastic Constant Matrix: (Units=GPa)
#
#
# Indices 1 2 3 4 5 6 
#
# 1 24.9691 -5.5319 24.2817 0.0000 0.0000 0.0000
# 2 -5.5319 33.3182 43.6583 0.0000 0.0000 0.0000
# 3 24.2817 43.6583 132.8296 0.0000 0.0000 0.0000
# 4 0.0000 0.0000 0.0000 33.5320 0.0000 0.0000
# 5 0.0000 0.0000 0.0000 0.0000 36.1129 0.0000
# 6 0.0000 0.0000 0.0000 0.0000 0.0000 16.1941
#
#
#
# Elastic Compliance Matrix: (Units=1/GPa)
#
#
# Indices 1 2 3 4 5 6 
#
# 1 0.091709 0.065331 -0.038238 0.000000 0.000000 0.000000
# 2 0.065331 0.099259 -0.044567 0.000000 0.000000 0.000000
# 3 -0.038238 -0.044567 0.029167 0.000000 0.000000 0.000000
# 4 0.000000 0.000000 0.000000 0.029822 0.000000 0.000000
# 5 0.000000 0.000000 0.000000 0.000000 0.027691 0.000000
# 6 0.000000 0.000000 0.000000 0.000000 0.000000 0.061751
#
#
# Mechanical properties :
#
#
# Convention : Reuss Voigt Hill
#
# Bulk Modulus (GPa) = 5.39993 35.10369 20.25181
# Shear Modulus (GPa) = 11.46590 25.74837 18.60713
#
# Velocity S-wave (km/s) = 2.29268 3.43569 2.92065
# Velocity P-wave (km/s) = 3.07962 5.64194 4.54508
#
# Compressibility (1/GPa) = 0.18518764
#
# Stress axis : x y z
#
# Youngs Moduli (GPa) = 10.90406 10.07463 34.28557
#
# Poissons Ratio (x) = -0.65819 1.31101
# Poissons Ratio (y) = -0.71238 1.52801
# Poissons Ratio (z) = 0.41695 0.44900
#
# Static dielectric constant tensor:
#      x y z
#    x 1.814220 0.000000 0.000000 
#    y 0.000000 1.781860 0.000000 
#    z 0.000000 0.000000 1.808860 
# 
# From -- ./inp_files/14612.got.cif
#   From: 2010.05.17/outbox.cif.g08.bks.cpg/sg62_8_cif.got.tgz:14612.got - 2010.06.03 15:25:27.
