data_PCOD9463247
_publ_section_title
;
Structure prediction by ZEFSAII (Michael W. Deem and Ramdas Pophale) SiO2 
 PCOD9463247
Probable space group: P N M A
;
_chemical_formula_sum "Si O2"
_cell_formula_units_Z 56
_cell_length_a 11.855457
_cell_length_b 13.744645
_cell_length_c 16.472365
_cell_angle_alpha 90.000000
_cell_angle_beta 90.000000
_cell_angle_gamma 90.000000
_cell_volume 2684.156191
_symmetry_space_group_name_H-M "P N M A"
_symmetry_group_IT_number 62
_symmetry_cell_setting 'orthorhombic'
loop_
_space_group_symop_operation_xyz
x,y,z
1/2-x,-y,1/2+z
1/2+x,1/2-y,1/2-z
-x,1/2+y,-z
-x,-y,-z
1/2+x,y,1/2-z
1/2-x,1/2+y,1/2+z
x,1/2-y,z
loop_
_atom_site_type_symbol
_atom_site_label
_atom_site_fract_x
_atom_site_fract_y
_atom_site_fract_z
Si Si1 0.632443 0.636845 0.598760
Si Si2 0.354995 0.555009 0.963443
Si Si3 0.026757 0.488763 0.209539
Si Si4 0.073838 0.499010 0.627914
Si Si5 0.722079 0.361195 0.332601
Si Si6 0.782182 0.858091 0.021797
Si Si7 0.467595 0.362235 0.576003
O O1 0.606787 0.750000 0.614377
O O2 0.764659 0.620623 0.582867
O O3 0.575138 0.569908 0.666344
O O4 0.578413 0.607890 0.511893
O O5 0.476037 0.555513 0.921240
O O6 0.302672 0.445430 0.960384
O O7 0.371605 0.571868 0.060314
O O8 0.127212 0.411584 0.221904
O O9 0.073188 0.566865 0.145690
O O10 0.985487 0.540183 0.291345
O O11 0.166555 0.574315 0.660359
O O12 0.743786 0.250000 0.308409
O O13 0.680708 0.361060 0.426934
O O14 0.733109 0.750000 0.034945
O O15 0.896513 0.867734 0.072689
O O16 0.435253 0.250000 0.588632
#
# Coordination Sequence:
#
# PCOD9463247 Si02
#       7
#     8   8   8   8   8   8   8
#     4  11  22  37  63  96 125 160 204 257 317 372
#     4  10  21  44  60  82 123 173 204 252 302 385
#     4  12  22  37  61  94 123 158 203 271 311 363
#     4  10  25  40  60  85 123 165 215 245 310 371
#     4  10  21  37  58  87 125 162 199 249 311 375
#     4   9  16  32  60  87 113 157 207 242 295 365
#     4  10  19  34  59  92 122 155 201 252 310 366
#
# _framework density 20.863166
#
# number of rings (size 3 to 8) (size 9 to 14) (size 15 to 20)
#    0.000    1.714    2.857    2.571    2.000    1.714 
#    0.000    3.571    0.000    5.143    0.000    0.000 
#    0.000    0.000    0.000    0.000    0.000    0.000 
#
# Total GULP energy -312752.753332 kJ/mol
# GULP energy per Si atom -5584.870595 kJ/mol
# Density = 2.081568 g / cm^3
# Si number density = 20.863166 Si / 1000 Ang^3
#
#
#
# Elastic Constant Matrix: (Units=GPa)
#
#
# Indices 1 2 3 4 5 6 
#
# 1 72.0826 -9.2242 9.1775 0.0000 0.0000 0.0000
# 2 -9.2242 37.0349 15.1219 0.0000 0.0000 0.0000
# 3 9.1775 15.1219 84.3563 0.0000 0.0000 0.0000
# 4 0.0000 0.0000 0.0000 4.6384 0.0000 0.0000
# 5 0.0000 0.0000 0.0000 0.0000 -8.5580 0.0000
# 6 0.0000 0.0000 0.0000 0.0000 0.0000 15.0783
#
#
#
# Elastic Compliance Matrix: (Units=1/GPa)
#
#
# Indices 1 2 3 4 5 6 
#
# 1 0.014784 0.004682 -0.002448 0.000000 0.000000 0.000000
# 2 0.004682 0.030617 -0.005998 0.000000 0.000000 0.000000
# 3 -0.002448 -0.005998 0.013196 0.000000 0.000000 0.000000
# 4 0.000000 0.000000 0.000000 0.215593 0.000000 0.000000
# 5 0.000000 0.000000 0.000000 0.000000 -0.116850 0.000000
# 6 0.000000 0.000000 0.000000 0.000000 0.000000 0.066321
#
#
# Mechanical properties :
#
#
# Convention : Reuss Voigt Hill
#
# Bulk Modulus (GPa) = 19.58149 24.84712 22.21430
# Shear Modulus (GPa) = 20.14419 14.12497 17.13458
#
# Velocity S-wave (km/s) = 3.11068 2.60480 2.86891
# Velocity P-wave (km/s) = 4.72312 4.58062 4.65241
#
# Compressibility (1/GPa) = 0.05106864
#
# Stress axis : x y z
#
# Youngs Moduli (GPa) = 67.64214 32.66205 75.78095
#
# Poissons Ratio (x) = -0.15291 0.18548
# Poissons Ratio (y) = -0.31667 0.45451
# Poissons Ratio (z) = 0.16556 0.19590
#
# Static dielectric constant tensor:
#      x y z
#    x 1.770990 0.000000 0.000000 
#    y 0.000000 1.734420 0.000000 
#    z 0.000000 0.000000 1.776110 
# 
# From -- ./inp_files/18059.got.cif
#   From: 2010.05.17/outbox.cif.g08.bks.cpg/sg62_10_cif.got.tgz:18059.got - 2010.06.03 15:25:27.
