data_PCOD9463014
_publ_section_title
;
Structure prediction by ZEFSAII (Michael W. Deem and Ramdas Pophale) SiO2 
 PCOD9463014
Probable space group: P N M A
;
_chemical_formula_sum "Si O2"
_cell_formula_units_Z 64
_cell_length_a 24.156762
_cell_length_b 9.883605
_cell_length_c 13.996635
_cell_angle_alpha 90.000000
_cell_angle_beta 90.000000
_cell_angle_gamma 90.000000
_cell_volume 3341.779098
_symmetry_space_group_name_H-M "P N M A"
_symmetry_group_IT_number 62
_symmetry_cell_setting 'orthorhombic'
loop_
_space_group_symop_operation_xyz
x,y,z
1/2-x,-y,1/2+z
1/2+x,1/2-y,1/2-z
-x,1/2+y,-z
-x,-y,-z
1/2+x,y,1/2-z
1/2-x,1/2+y,1/2+z
x,1/2-y,z
loop_
_atom_site_type_symbol
_atom_site_label
_atom_site_fract_x
_atom_site_fract_y
_atom_site_fract_z
Si Si1 0.248301 0.093258 0.261344
Si Si2 0.744184 0.902614 0.953936
Si Si3 0.334112 0.911390 0.935342
Si Si4 0.948847 0.097517 0.271410
Si Si5 0.963532 0.590118 0.571397
Si Si6 0.861462 0.897402 0.034587
Si Si7 0.547279 0.904911 0.540756
Si Si8 0.645205 0.401534 0.755862
O O1 0.265893 0.250000 0.281121
O O2 0.229375 0.088181 0.151305
O O3 0.201328 0.058487 0.338626
O O4 0.300178 0.992383 0.256258
O O5 0.721774 0.750000 0.964315
O O6 0.796295 0.919488 0.023290
O O7 0.697168 0.009222 0.980191
O O8 0.330812 0.750000 0.950004
O O9 0.398739 0.948181 0.927019
O O10 0.929114 0.250000 0.295516
O O11 0.954789 0.093482 0.156631
O O12 0.006558 0.076034 0.325691
O O13 0.903379 0.988126 0.304427
O O14 0.966565 0.750000 0.545453
O O15 0.000000 0.500000 0.500000
O O16 0.875102 0.750000 0.989677
O O17 0.874127 0.885385 0.146402
O O18 0.896271 0.026257 0.003189
O O19 0.541724 0.750000 0.510098
O O20 0.500000 0.000000 0.500000
O O21 0.654139 0.250000 0.795275
#
# Coordination Sequence:
#
# PCOD9463014 Si02
#       8
#     8   8   8   8   8   8   8   8
#     4  10  21  36  58  85 115 154 193 235 291 356
#     4  10  21  37  58  85 115 154 196 236 293 356
#     4  10  22  40  60  86 121 156 197 248 296 350
#     4   9  20  38  58  80 111 153 196 238 289 352
#     4  10  23  42  62  86 116 158 205 248 297 349
#     4   9  18  34  54  78 110 147 185 232 285 342
#     4  10  20  34  56  84 113 150 191 237 289 346
#     4  10  19  33  56  83 112 143 186 242 292 341
#
# _framework density 19.151474
#
# number of rings (size 3 to 8) (size 9 to 14) (size 15 to 20)
#    0.000    2.250    1.250    0.750    1.750    4.000 
#    0.000    3.750    0.000    1.500    0.000    0.000 
#    0.000    0.000    0.000    0.000    0.000    0.000 
#
# Total GULP energy -356590.605756 kJ/mol
# GULP energy per Si atom -5571.728215 kJ/mol
# Density = 1.910788 g / cm^3
# Si number density = 19.151474 Si / 1000 Ang^3
#
#
#
# Elastic Constant Matrix: (Units=GPa)
#
#
# Indices 1 2 3 4 5 6 
#
# 1 106.4519 69.4877 26.6332 0.0000 0.0000 0.0000
# 2 69.4877 105.4072 26.9371 0.0000 0.0000 0.0000
# 3 26.6332 26.9371 44.9407 0.0000 0.0000 0.0000
# 4 0.0000 0.0000 0.0000 23.6629 0.0000 0.0000
# 5 0.0000 0.0000 0.0000 0.0000 23.1834 0.0000
# 6 0.0000 0.0000 0.0000 0.0000 0.0000 33.9197
#
#
#
# Elastic Compliance Matrix: (Units=1/GPa)
#
#
# Indices 1 2 3 4 5 6 
#
# 1 0.017073 -0.010237 -0.003982 0.000000 0.000000 0.000000
# 2 -0.010237 0.017342 -0.004328 0.000000 0.000000 0.000000
# 3 -0.003982 -0.004328 0.027205 0.000000 0.000000 0.000000
# 4 0.000000 0.000000 0.000000 0.042260 0.000000 0.000000
# 5 0.000000 0.000000 0.000000 0.000000 0.043134 0.000000
# 6 0.000000 0.000000 0.000000 0.000000 0.000000 0.029481
#
#
# Mechanical properties :
#
#
# Convention : Reuss Voigt Hill
#
# Bulk Modulus (GPa) = 40.77226 55.87953 48.32590
# Shear Modulus (GPa) = 22.54655 25.06932 23.80793
#
# Velocity S-wave (km/s) = 3.43487 3.62194 3.52964
# Velocity P-wave (km/s) = 6.08824 6.83610 6.47298
#
# Compressibility (1/GPa) = 0.02452648
#
# Stress axis : x y z
#
# Youngs Moduli (GPa) = 58.57350 57.66466 36.75795
#
# Poissons Ratio (x) = 0.59033 0.14636
# Poissons Ratio (y) = 0.59963 0.15907
# Poissons Ratio (z) = 0.23322 0.24954
#
# Static dielectric constant tensor:
#      x y z
#    x 1.656550 0.000000 0.000000 
#    y 0.000000 1.704130 0.000000 
#    z 0.000000 0.000000 1.703480 
# 
# From -- ./inp_files/20922.got.cif
#   From: 2010.05.17/outbox.cif.g08.bks.cpg/sg62_11_cif.got.tgz:20922.got - 2010.06.03 15:25:27.
