data_PCOD9463596
_publ_section_title
;
Structure prediction by ZEFSAII (Michael W. Deem and Ramdas Pophale) SiO2 
 PCOD9463596
Probable space group: P N M A
;
_chemical_formula_sum "Si O2"
_cell_formula_units_Z 40
_cell_length_a 9.223875
_cell_length_b 10.606395
_cell_length_c 18.774087
_cell_angle_alpha 90.000000
_cell_angle_beta 90.000000
_cell_angle_gamma 90.000000
_cell_volume 1836.707637
_symmetry_space_group_name_H-M "P N M A"
_symmetry_group_IT_number 62
_symmetry_cell_setting 'orthorhombic'
loop_
_space_group_symop_operation_xyz
x,y,z
1/2-x,-y,1/2+z
1/2+x,1/2-y,1/2-z
-x,1/2+y,-z
-x,-y,-z
1/2+x,y,1/2-z
1/2-x,1/2+y,1/2+z
x,1/2-y,z
loop_
_atom_site_type_symbol
_atom_site_label
_atom_site_fract_x
_atom_site_fract_y
_atom_site_fract_z
Si Si1 0.911431 0.604786 0.955501
Si Si2 0.205690 0.532878 0.332304
Si Si3 0.867799 0.750000 0.663196
Si Si4 0.987396 0.990379 0.802403
Si Si5 0.593779 0.616359 0.023528
Si Si6 0.136643 0.750000 0.729606
O O1 0.968924 0.750000 0.959550
O O2 0.911651 0.560563 0.873375
O O3 0.749652 0.608002 0.985885
O O4 0.000000 0.500000 0.000000
O O5 0.192715 0.385475 0.360581
O O6 0.123759 0.541211 0.256486
O O7 0.373526 0.573011 0.325883
O O8 0.123496 0.608925 0.392433
O O9 0.803800 0.750000 0.746786
O O10 0.043053 0.750000 0.657255
O O11 0.073112 0.876001 0.764410
O O12 0.522286 0.750000 0.006223
O O13 0.500000 0.500000 0.000000
#
# Coordination Sequence:
#
# PCOD9463596 Si02
#       6
#     8   8   4   8   8   4
#     4  11  23  43  69  99 135 178 228 280 340 409
#     4  10  21  37  63  94 133 169 223 276 334 400
#     4   8  16  28  54  86 116 160 193 262 317 373
#     4  10  19  36  62  96 129 171 220 276 331 400
#     4  11  27  47  66  97 138 182 230 284 341 406
#     4   8  14  28  46  86 122 146 201 254 311 371
#
# _framework density 21.778099000000001
#
# number of rings (size 3 to 8) (size 9 to 14) (size 15 to 20)
#    0.000    2.000    3.000    0.000    4.200    0.800 
#    0.000    2.000    0.000    0.000    0.000    0.000 
#    0.000    0.000    0.000    0.000    0.000    0.000 
#
# Total GULP energy -222987.516613 kJ/mol
# GULP energy per Si atom -5574.687915 kJ/mol
# Density = 2.172853 g / cm^3
# Si number density = 21.778099 Si / 1000 Ang^3
#
#
#
# Elastic Constant Matrix: (Units=GPa)
#
#
# Indices 1 2 3 4 5 6 
#
# 1 67.8685 41.4587 14.2923 0.0000 0.0000 0.0000
# 2 41.4587 110.9840 45.9225 0.0000 0.0000 0.0000
# 3 14.2923 45.9225 131.1245 0.0000 0.0000 0.0000
# 4 0.0000 0.0000 0.0000 7.0491 0.0000 0.0000
# 5 0.0000 0.0000 0.0000 0.0000 32.5466 0.0000
# 6 0.0000 0.0000 0.0000 0.0000 0.0000 23.1579
#
#
#
# Elastic Compliance Matrix: (Units=1/GPa)
#
#
# Indices 1 2 3 4 5 6 
#
# 1 0.019117 -0.007343 0.000488 0.000000 0.000000 0.000000
# 2 -0.007343 0.013358 -0.003878 0.000000 0.000000 0.000000
# 3 0.000488 -0.003878 0.008931 0.000000 0.000000 0.000000
# 4 0.000000 0.000000 0.000000 0.141862 0.000000 0.000000
# 5 0.000000 0.000000 0.000000 0.000000 0.030725 0.000000
# 6 0.000000 0.000000 0.000000 0.000000 0.000000 0.043182
#
#
# Mechanical properties :
#
#
# Convention : Reuss Voigt Hill
#
# Bulk Modulus (GPa) = 50.14953 57.03598 53.59276
# Shear Modulus (GPa) = 17.52611 26.43762 21.98186
#
# Velocity S-wave (km/s) = 2.83990 3.48796 3.18048
# Velocity P-wave (km/s) = 5.81643 6.51672 6.17651
#
# Compressibility (1/GPa) = 0.01994036
#
# Stress axis : x y z
#
# Youngs Moduli (GPa) = 52.30830 74.86138 111.96645
#
# Poissons Ratio (x) = 0.54973 -0.05464
# Poissons Ratio (y) = 0.38412 0.43419
# Poissons Ratio (z) = -0.02553 0.29030
#
# Static dielectric constant tensor:
#      x y z
#    x 1.853150 0.000000 0.000000 
#    y 0.000000 1.986280 0.000000 
#    z 0.000000 0.000000 1.864520 
# 
# From -- ./inp_files/21961.got.cif
#   From: 2010.05.17/outbox.cif.g08.bks.cpg/sg62_11_cif.got.tgz:21961.got - 2010.06.03 15:25:27.
