data_PCOD9463276
_publ_section_title
;
Structure prediction by ZEFSAII (Michael W. Deem and Ramdas Pophale) SiO2 
 PCOD9463276
Probable space group: P N M A
;
_chemical_formula_sum "Si O2"
_cell_formula_units_Z 64
_cell_length_a 31.338126
_cell_length_b 8.143129
_cell_length_c 14.810681
_cell_angle_alpha 90.000000
_cell_angle_beta 90.000000
_cell_angle_gamma 90.000000
_cell_volume 3779.543648
_symmetry_space_group_name_H-M "P N M A"
_symmetry_group_IT_number 62
_symmetry_cell_setting 'orthorhombic'
loop_
_space_group_symop_operation_xyz
x,y,z
1/2-x,-y,1/2+z
1/2+x,1/2-y,1/2-z
-x,1/2+y,-z
-x,-y,-z
1/2+x,y,1/2-z
1/2-x,1/2+y,1/2+z
x,1/2-y,z
loop_
_atom_site_type_symbol
_atom_site_label
_atom_site_fract_x
_atom_site_fract_y
_atom_site_fract_z
Si Si1 0.951409 0.052118 0.396573
Si Si2 0.231984 0.054275 0.981933
Si Si3 0.453987 0.051889 0.895261
Si Si4 0.199646 0.949097 0.164715
Si Si5 0.365488 0.437831 0.174979
Si Si6 0.217317 0.445438 0.777843
Si Si7 0.826151 0.938364 0.500583
Si Si8 0.133741 0.948772 0.313896
O O1 0.947767 0.250000 0.398509
O O2 0.946265 0.993992 0.500967
O O3 0.913230 0.990097 0.332713
O O4 0.999083 0.006224 0.367842
O O5 0.239876 0.250000 0.978711
O O6 0.200058 0.016099 0.063393
O O7 0.219028 0.997144 0.881667
O O8 0.275857 0.965083 0.007658
O O9 0.454278 0.250000 0.897350
O O10 0.415030 0.998745 0.831498
O O11 0.200926 0.750000 0.160952
O O12 0.242558 0.007688 0.218141
O O13 0.158547 0.998586 0.223649
O O14 0.368078 0.250000 0.205363
O O15 0.328146 0.519712 0.232516
O O16 0.349464 0.447491 0.071524
O O17 0.222925 0.250000 0.780475
O O18 0.837050 0.750000 0.480192
O O19 0.839885 0.985076 0.600934
O O20 0.134939 0.750000 0.317632
#
# Coordination Sequence:
#
# PCOD9463276 Si02
#       8
#     8   8   8   8   8   8   8   8
#     4   9  18  31  47  70 100 130 162 200 243 292
#     4  11  22  37  52  68 100 136 167 206 251 290
#     4   9  17  30  49  71  98 132 164 195 242 296
#     4  10  20  34  52  74 100 129 168 207 243 289
#     4  11  21  34  51  71  99 136 170 203 248 295
#     4  10  21  35  51  73  99 131 167 206 245 288
#     4  12  22  30  47  73 101 132 171 209 241 286
#     4  10  19  35  52  70 101 137 168 203 247 293
#
# _framework density 16.933261000000002
#
# number of rings (size 3 to 8) (size 9 to 14) (size 15 to 20)
#    0.000    1.750    3.750    1.875    0.000    3.000 
#    0.000    0.000    0.000    0.000    0.000    0.875 
#    0.000    0.000    0.000    0.000    0.000    0.000 
#
# Total GULP energy -357008.180936 kJ/mol
# GULP energy per Si atom -5578.252827 kJ/mol
# Density = 1.689472 g / cm^3
# Si number density = 16.933261 Si / 1000 Ang^3
#
#
#
# Elastic Constant Matrix: (Units=GPa)
#
#
# Indices 1 2 3 4 5 6 
#
# 1 93.0292 1.9935 16.3808 0.0000 0.0000 0.0000
# 2 1.9935 13.1349 2.9947 0.0000 0.0000 0.0000
# 3 16.3808 2.9947 60.1514 0.0000 0.0000 0.0000
# 4 0.0000 0.0000 0.0000 14.2211 0.0000 0.0000
# 5 0.0000 0.0000 0.0000 0.0000 20.9832 0.0000
# 6 0.0000 0.0000 0.0000 0.0000 0.0000 14.4085
#
#
#
# Elastic Compliance Matrix: (Units=1/GPa)
#
#
# Indices 1 2 3 4 5 6 
#
# 1 0.011304 -0.001025 -0.003027 0.000000 0.000000 0.000000
# 2 -0.001025 0.077100 -0.003559 0.000000 0.000000 0.000000
# 3 -0.003027 -0.003559 0.017626 0.000000 0.000000 0.000000
# 4 0.000000 0.000000 0.000000 0.070318 0.000000 0.000000
# 5 0.000000 0.000000 0.000000 0.000000 0.047657 0.000000
# 6 0.000000 0.000000 0.000000 0.000000 0.000000 0.069403
#
#
# Mechanical properties :
#
#
# Convention : Reuss Voigt Hill
#
# Bulk Modulus (GPa) = 11.01241 23.22816 17.12028
# Shear Modulus (GPa) = 14.75352 19.58568 17.16960
#
# Velocity S-wave (km/s) = 2.95494 3.40463 3.18772
# Velocity P-wave (km/s) = 4.26143 5.40394 4.86633
#
# Compressibility (1/GPa) = 0.09080668
#
# Stress axis : x y z
#
# Youngs Moduli (GPa) = 88.46141 12.97015 56.73323
#
# Poissons Ratio (x) = 0.01330 0.17176
# Poissons Ratio (y) = 0.09071 0.20193
# Poissons Ratio (z) = 0.26781 0.04616
#
# Static dielectric constant tensor:
#      x y z
#    x 1.597210 0.000000 0.000000 
#    y 0.000000 1.551740 0.000000 
#    z 0.000000 0.000000 1.563520 
# 
# From -- ./inp_files/21256.got.cif
#   From: 2010.05.17/outbox.cif.g08.bks.cpg/sg62_11_cif.got.tgz:21256.got - 2010.06.03 15:25:27.
