data_PCOD9463851
_publ_section_title
;
Structure prediction by ZEFSAII (Michael W. Deem and Ramdas Pophale) SiO2 
 PCOD9463851
Probable space group: P N M A
;
_chemical_formula_sum "Si O2"
_cell_formula_units_Z 48
_cell_length_a 14.726036
_cell_length_b 15.897044
_cell_length_c 10.737023
_cell_angle_alpha 90.000000
_cell_angle_beta 90.000000
_cell_angle_gamma 90.000000
_cell_volume 2513.541833
_symmetry_space_group_name_H-M "P N M A"
_symmetry_group_IT_number 62
_symmetry_cell_setting 'orthorhombic'
loop_
_space_group_symop_operation_xyz
x,y,z
1/2-x,-y,1/2+z
1/2+x,1/2-y,1/2-z
-x,1/2+y,-z
-x,-y,-z
1/2+x,y,1/2-z
1/2-x,1/2+y,1/2+z
x,1/2-y,z
loop_
_atom_site_type_symbol
_atom_site_label
_atom_site_fract_x
_atom_site_fract_y
_atom_site_fract_z
Si Si1 0.048615 0.988513 0.695499
Si Si2 0.522563 0.155661 0.673219
Si Si3 0.142708 0.510468 0.445748
Si Si4 0.953391 0.344860 0.100567
Si Si5 0.752989 0.656251 0.501222
Si Si6 0.685998 0.843333 0.225571
O O1 0.035436 0.916288 0.797245
O O2 0.953315 0.001009 0.624243
O O3 0.121376 0.966527 0.589070
O O4 0.070752 0.077252 0.761971
O O5 0.559960 0.250000 0.694919
O O6 0.511757 0.141334 0.525179
O O7 0.419685 0.156290 0.728703
O O8 0.190850 0.420478 0.444613
O O9 0.197125 0.582886 0.373690
O O10 0.973155 0.250000 0.146426
O O11 0.848549 0.346206 0.056555
O O12 0.790911 0.750000 0.525058
O O13 0.741715 0.645646 0.352640
O O14 0.704263 0.750000 0.174105
#
# Coordination Sequence:
#
# PCOD9463851 Si02
#       6
#     8   8   8   8   8   8
#     4  10  20  32  49  82 110 132 168 214 270 310
#     4   8  15  31  53  74  99 134 172 206 246 305
#     4  10  21  32  51  79 106 136 170 215 268 313
#     4   9  18  33  54  75 100 140 178 210 255 308
#     4   9  19  35  54  73  97 138 183 216 255 311
#     4   8  16  33  53  71  96 134 175 210 252 312
#
# _framework density 19.096558999999999
#
# number of rings (size 3 to 8) (size 9 to 14) (size 15 to 20)
#    0.000    3.000    0.000    2.500    2.333    2.000 
#    0.000    3.333    0.000    0.000    0.000    0.000 
#    0.000    0.000    0.000    0.000    0.000    0.000 
#
# Total GULP energy -267677.790041 kJ/mol
# GULP energy per Si atom -5576.620626 kJ/mol
# Density = 1.905309 g / cm^3
# Si number density = 19.096559 Si / 1000 Ang^3
#
#
#
# Elastic Constant Matrix: (Units=GPa)
#
#
# Indices 1 2 3 4 5 6 
#
# 1 11.3280 8.6893 3.7702 0.0000 0.0000 0.0000
# 2 8.6893 167.5879 93.1608 0.0000 0.0000 0.0000
# 3 3.7702 93.1608 98.4056 0.0000 0.0000 0.0000
# 4 0.0000 0.0000 0.0000 39.1665 0.0000 0.0000
# 5 0.0000 0.0000 0.0000 0.0000 1.1917 0.0000
# 6 0.0000 0.0000 0.0000 0.0000 0.0000 23.7166
#
#
#
# Elastic Compliance Matrix: (Units=1/GPa)
#
#
# Indices 1 2 3 4 5 6 
#
# 1 0.092138 -0.005942 0.002095 0.000000 0.000000 0.000000
# 2 -0.005942 0.012979 -0.012059 0.000000 0.000000 0.000000
# 3 0.002095 -0.012059 0.021499 0.000000 0.000000 0.000000
# 4 0.000000 0.000000 0.000000 0.025532 0.000000 0.000000
# 5 0.000000 0.000000 0.000000 0.000000 0.839152 0.000000
# 6 0.000000 0.000000 0.000000 0.000000 0.000000 0.042165
#
#
# Mechanical properties :
#
#
# Convention : Reuss Voigt Hill
#
# Bulk Modulus (GPa) = 10.54826 54.28469 32.41647
# Shear Modulus (GPa) = 4.55840 24.26169 14.41005
#
# Velocity S-wave (km/s) = 1.54668 3.56824 2.74996
# Velocity P-wave (km/s) = 2.95385 6.74274 5.20528
#
# Compressibility (1/GPa) = 0.09480241
#
# Stress axis : x y z
#
# Youngs Moduli (GPa) = 10.85334 77.04823 46.51486
#
# Poissons Ratio (x) = 0.45782 -0.09746
# Poissons Ratio (y) = 0.06449 0.56095
# Poissons Ratio (z) = -0.02274 0.92916
#
# Static dielectric constant tensor:
#      x y z
#    x 1.691390 0.000000 0.000000 
#    y 0.000000 1.664050 0.000000 
#    z 0.000000 0.000000 1.646770 
# 
# From -- ./inp_files/7623.got.cif
#   From: 2010.05.17/outbox.cif.g08.bks.cpg/sg62_4_cif.got.tgz:7623.got - 2010.06.03 15:25:27.
