data_PCOD9463356
_publ_section_title
;
Structure prediction by ZEFSAII (Michael W. Deem and Ramdas Pophale) SiO2 
 PCOD9463356
Probable space group: P N M A
;
_chemical_formula_sum "Si O2"
_cell_formula_units_Z 48
_cell_length_a 21.057078
_cell_length_b 7.930594
_cell_length_c 14.943579
_cell_angle_alpha 90.000000
_cell_angle_beta 90.000000
_cell_angle_gamma 90.000000
_cell_volume 2495.505014
_symmetry_space_group_name_H-M "P N M A"
_symmetry_group_IT_number 62
_symmetry_cell_setting 'orthorhombic'
loop_
_space_group_symop_operation_xyz
x,y,z
1/2-x,-y,1/2+z
1/2+x,1/2-y,1/2-z
-x,1/2+y,-z
-x,-y,-z
1/2+x,y,1/2-z
1/2-x,1/2+y,1/2+z
x,1/2-y,z
loop_
_atom_site_type_symbol
_atom_site_label
_atom_site_fract_x
_atom_site_fract_y
_atom_site_fract_z
Si Si1 0.231467 0.047308 0.002236
Si Si2 0.878262 0.043446 0.506472
Si Si3 0.192511 0.546703 0.808832
Si Si4 0.423000 0.048497 0.186888
Si Si5 0.435416 0.450470 0.806271
Si Si6 0.313947 0.546415 0.695170
O O1 0.234014 0.250000 0.007607
O O2 0.194605 0.000877 0.912423
O O3 0.304629 0.989212 0.994144
O O4 0.200428 0.985970 0.094592
O O5 0.878877 0.250000 0.507756
O O6 0.910781 0.985984 0.414361
O O7 0.913113 0.983372 0.596144
O O8 0.192795 0.750000 0.803753
O O9 0.131337 0.483992 0.754001
O O10 0.257010 0.486286 0.760080
O O11 0.414945 0.250000 0.183074
O O12 0.494410 0.012479 0.216100
O O13 0.438293 0.250000 0.812763
O O14 0.381378 0.495990 0.735208
O O15 0.311454 0.750000 0.694332
#
# Coordination Sequence:
#
# PCOD9463356 Si02
#       6
#     8   8   8   8   8   8
#     4  10  19  35  58  83 111 143 180 223 274 325
#     4   9  17  32  55  82 112 143 174 220 276 324
#     4  10  20  35  57  83 109 141 184 228 267 319
#     4  10  20  37  57  78 112 151 184 219 270 334
#     4  11  22  35  54  83 116 145 181 228 276 320
#     4  10  20  36  58  81 108 147 186 218 268 334
#
# _framework density 19.234584000000002
#
# number of rings (size 3 to 8) (size 9 to 14) (size 15 to 20)
#    0.000    2.000    3.333    1.000    0.000    1.333 
#    0.000    2.500    0.000    0.000    0.000    0.000 
#    0.000    0.000    0.000    0.000    0.000    0.000 
#
# Total GULP energy -268033.375518 kJ/mol
# GULP energy per Si atom -5584.028657 kJ/mol
# Density = 1.919081 g / cm^3
# Si number density = 19.234584 Si / 1000 Ang^3
#
#
#
# Elastic Constant Matrix: (Units=GPa)
#
#
# Indices 1 2 3 4 5 6 
#
# 1 120.1755 -8.0850 41.4668 0.0000 0.0000 0.0000
# 2 -8.0850 10.6116 -4.9750 0.0000 0.0000 0.0000
# 3 41.4668 -4.9750 110.6971 0.0000 0.0000 0.0000
# 4 0.0000 0.0000 0.0000 23.0713 0.0000 0.0000
# 5 0.0000 0.0000 0.0000 0.0000 19.0878 0.0000
# 6 0.0000 0.0000 0.0000 0.0000 0.0000 -97.3582
#
#
#
# Elastic Compliance Matrix: (Units=1/GPa)
#
#
# Indices 1 2 3 4 5 6 
#
# 1 0.009909 0.005935 -0.003445 0.000000 0.000000 0.000000
# 2 0.005935 0.099819 0.002263 0.000000 0.000000 0.000000
# 3 -0.003445 0.002263 0.010426 0.000000 0.000000 0.000000
# 4 0.000000 0.000000 0.000000 0.043344 0.000000 0.000000
# 5 0.000000 0.000000 0.000000 0.000000 0.052389 0.000000
# 6 0.000000 0.000000 0.000000 0.000000 0.000000 -0.010271
#
#
# Mechanical properties :
#
#
# Convention : Reuss Voigt Hill
#
# Bulk Modulus (GPa) = 7.71256 33.14420 20.42838
# Shear Modulus (GPa) = 20.89159 3.16533 12.02846
#
# Velocity S-wave (km/s) = 3.29925 1.28422 2.50342
# Velocity P-wave (km/s) = 4.30486 4.41225 4.35889
#
# Compressibility (1/GPa) = 0.12965865
#
# Stress axis : x y z
#
# Youngs Moduli (GPa) = 100.91616 10.01816 95.91457
#
# Poissons Ratio (x) = -0.05945 0.33045
# Poissons Ratio (y) = -0.59890 -0.21706
# Poissons Ratio (z) = 0.34768 -0.02267
#
# Static dielectric constant tensor:
#      x y z
#    x 1.652740 0.000000 0.000000 
#    y 0.000000 1.701300 0.000000 
#    z 0.000000 0.000000 1.662380 
# 
# From -- ./inp_files/19517.got.cif
#   From: 2010.05.17/outbox.cif.g08.bks.cpg/sg62_10_cif.got.tgz:19517.got - 2010.06.03 15:25:27.
