data_PCOD9463513
_publ_section_title
;
Structure prediction by ZEFSAII (Michael W. Deem and Ramdas Pophale) SiO2 
 PCOD9463513
Probable space group: P N M A
;
_chemical_formula_sum "Si O2"
_cell_formula_units_Z 56
_cell_length_a 19.889941
_cell_length_b 9.219201
_cell_length_c 16.144873
_cell_angle_alpha 90.000000
_cell_angle_beta 90.000000
_cell_angle_gamma 90.000000
_cell_volume 2960.475093
_symmetry_space_group_name_H-M "P N M A"
_symmetry_group_IT_number 62
_symmetry_cell_setting 'orthorhombic'
loop_
_space_group_symop_operation_xyz
x,y,z
1/2-x,-y,1/2+z
1/2+x,1/2-y,1/2-z
-x,1/2+y,-z
-x,-y,-z
1/2+x,y,1/2-z
1/2-x,1/2+y,1/2+z
x,1/2-y,z
loop_
_atom_site_type_symbol
_atom_site_label
_atom_site_fract_x
_atom_site_fract_y
_atom_site_fract_z
Si Si1 0.374591 0.910196 0.866346
Si Si2 0.975599 0.090780 0.422021
Si Si3 0.209968 0.423323 0.138207
Si Si4 0.777483 0.078069 0.538279
Si Si5 0.909744 0.078125 0.790521
Si Si6 0.440649 0.578233 0.233117
Si Si7 0.792329 0.922314 0.214180
O O1 0.345587 0.750000 0.846884
O O2 0.453255 0.890255 0.876794
O O3 0.342513 0.978220 0.948296
O O4 0.372257 0.029852 0.794407
O O5 0.947779 0.250000 0.443222
O O6 0.933192 0.004824 0.354166
O O7 0.000000 0.000000 0.500000
O O8 0.206468 0.250000 0.148628
O O9 0.135037 0.491061 0.143838
O O10 0.256030 0.491019 0.211461
O O11 0.241267 0.453984 0.047971
O O12 0.792927 0.250000 0.539793
O O13 0.735122 0.044407 0.622050
O O14 0.904347 0.250000 0.802598
O O15 0.989039 0.040755 0.779834
O O16 0.446007 0.750000 0.215239
O O17 0.372487 0.551203 0.283131
O O18 0.781362 0.750000 0.228840
#
# Coordination Sequence:
#
# PCOD9463513 Si02
#       7
#     8   8   8   8   8   8   8
#     4  10  20  34  54  79 109 145 187 233 277 334
#     4  10  21  34  50  77 112 148 186 230 284 343
#     4  11  23  37  57  87 118 151 194 240 289 345
#     4  10  22  38  57  83 116 152 189 235 292 345
#     4  10  19  36  59  82 110 149 190 233 287 343
#     4   9  20  37  58  81 108 147 195 239 289 349
#     4  10  21  40  62  84 114 153 193 240 294 346
#
# _framework density 18.915883000000001
#
# number of rings (size 3 to 8) (size 9 to 14) (size 15 to 20)
#    0.000    2.000    1.429    1.714    2.000    4.000 
#    0.000    0.714    0.000    0.000    0.000    0.000 
#    0.000    0.000    0.000    0.000    0.000    0.000 
#
# Total GULP energy -312012.821808 kJ/mol
# GULP energy per Si atom -5571.657532 kJ/mol
# Density = 1.887283 g / cm^3
# Si number density = 18.915883 Si / 1000 Ang^3
#
#
#
# Elastic Constant Matrix: (Units=GPa)
#
#
# Indices 1 2 3 4 5 6 
#
# 1 81.8051 29.8382 28.4621 0.0000 0.0000 0.0000
# 2 29.8382 56.7624 28.5725 0.0000 0.0000 0.0000
# 3 28.4621 28.5725 84.9496 0.0000 0.0000 0.0000
# 4 0.0000 0.0000 0.0000 25.0087 0.0000 0.0000
# 5 0.0000 0.0000 0.0000 0.0000 22.2731 0.0000
# 6 0.0000 0.0000 0.0000 0.0000 0.0000 22.0918
#
#
#
# Elastic Compliance Matrix: (Units=1/GPa)
#
#
# Indices 1 2 3 4 5 6 
#
# 1 0.015733 -0.006762 -0.002997 0.000000 0.000000 0.000000
# 2 -0.006762 0.024114 -0.005845 0.000000 0.000000 0.000000
# 3 -0.002997 -0.005845 0.014742 0.000000 0.000000 0.000000
# 4 0.000000 0.000000 0.000000 0.039986 0.000000 0.000000
# 5 0.000000 0.000000 0.000000 0.000000 0.044897 0.000000
# 6 0.000000 0.000000 0.000000 0.000000 0.000000 0.045266
#
#
# Mechanical properties :
#
#
# Convention : Reuss Voigt Hill
#
# Bulk Modulus (GPa) = 42.76966 44.14031 43.45499
# Shear Modulus (GPa) = 22.34735 22.98433 22.66584
#
# Velocity S-wave (km/s) = 3.44089 3.48958 3.46532
# Velocity P-wave (km/s) = 6.20047 6.29460 6.24771
#
# Compressibility (1/GPa) = 0.02338106
#
# Stress axis : x y z
#
# Youngs Moduli (GPa) = 63.55936 41.46952 67.83415
#
# Poissons Ratio (x) = 0.28041 0.20330
# Poissons Ratio (y) = 0.42978 0.39650
# Poissons Ratio (z) = 0.19049 0.24240
#
# Static dielectric constant tensor:
#      x y z
#    x 1.716260 0.000000 0.000000 
#    y 0.000000 1.705050 0.000000 
#    z 0.000000 0.000000 1.656440 
# 
# From -- ./inp_files/20359.got.cif
#   From: 2010.05.17/outbox.cif.g08.bks.cpg/sg62_11_cif.got.tgz:20359.got - 2010.06.03 15:25:27.
