data_PCOD9463258
_publ_section_title
;
Structure prediction by ZEFSAII (Michael W. Deem and Ramdas Pophale) SiO2 
 PCOD9463258
Probable space group: P N M A
;
_chemical_formula_sum "Si O2"
_cell_formula_units_Z 40
_cell_length_a 27.354669
_cell_length_b 8.582688
_cell_length_c 9.056550
_cell_angle_alpha 90.000000
_cell_angle_beta 90.000000
_cell_angle_gamma 90.000000
_cell_volume 2126.265920
_symmetry_space_group_name_H-M "P N M A"
_symmetry_group_IT_number 62
_symmetry_cell_setting 'orthorhombic'
loop_
_space_group_symop_operation_xyz
x,y,z
1/2-x,-y,1/2+z
1/2+x,1/2-y,1/2-z
-x,1/2+y,-z
-x,-y,-z
1/2+x,y,1/2-z
1/2-x,1/2+y,1/2+z
x,1/2-y,z
loop_
_atom_site_type_symbol
_atom_site_label
_atom_site_fract_x
_atom_site_fract_y
_atom_site_fract_z
Si Si1 0.666123 0.998593 0.321641
Si Si2 0.082692 0.750000 0.676558
Si Si3 0.442153 0.578336 0.617894
Si Si4 0.833993 0.250000 0.565897
Si Si5 0.465585 0.569717 0.274073
Si Si6 0.250216 0.250000 0.177647
Si Si7 0.167122 0.750000 0.921190
O O1 0.667401 0.896189 0.174707
O O2 0.667171 0.895275 0.469069
O O3 0.613052 0.077203 0.327676
O O4 0.713373 0.105924 0.323625
O O5 0.117497 0.750000 0.533620
O O6 0.054097 0.582717 0.685701
O O7 0.119782 0.750000 0.816490
O O8 0.464352 0.750000 0.643130
O O9 0.444189 0.553918 0.441128
O O10 0.476373 0.454638 0.700102
O O11 0.787025 0.250000 0.459973
O O12 0.455626 0.750000 0.223708
O O13 0.285117 0.250000 0.319558
#
# Coordination Sequence:
#
# PCOD9463258 Si02
#       7
#     8   4   8   4   8   4   4
#     4  11  21  39  62  88 116 159 203 248 309 368
#     4  11  20  43  58  88 132 162 196 257 303 356
#     4  10  19  34  60  94 120 157 207 259 295 359
#     4  10  26  40  60  89 128 155 200 254 314 373
#     4  10  21  34  62  97 123 158 212 253 298 358
#     4  11  22  41  62  87 117 155 205 257 303 369
#     4  10  22  36  64  82 117 160 195 246 314 354
#
# _framework density 18.812322999999999
#
# number of rings (size 3 to 8) (size 9 to 14) (size 15 to 20)
#    0.000    1.600    4.000    1.200    4.200    0.000 
#    1.800    1.000    4.400    0.000    0.000    0.000 
#    0.000    0.000    0.000    0.000    0.000    0.000 
#
# Total GULP energy -223033.528944 kJ/mol
# GULP energy per Si atom -5575.838224 kJ/mol
# Density = 1.876951 g / cm^3
# Si number density = 18.812323 Si / 1000 Ang^3
#
#
#
# Elastic Constant Matrix: (Units=GPa)
#
#
# Indices 1 2 3 4 5 6 
#
# 1 99.9297 34.8527 24.8940 0.0000 0.0000 0.0000
# 2 34.8527 105.3531 22.8733 0.0000 0.0000 0.0000
# 3 24.8940 22.8733 71.1348 0.0000 0.0000 0.0000
# 4 0.0000 0.0000 0.0000 -29.7853 0.0000 0.0000
# 5 0.0000 0.0000 0.0000 0.0000 19.1730 0.0000
# 6 0.0000 0.0000 0.0000 0.0000 0.0000 45.3828
#
#
#
# Elastic Compliance Matrix: (Units=1/GPa)
#
#
# Indices 1 2 3 4 5 6 
#
# 1 0.011924 -0.003267 -0.003123 0.000000 0.000000 0.000000
# 2 -0.003267 0.011099 -0.002426 0.000000 0.000000 0.000000
# 3 -0.003123 -0.002426 0.015931 0.000000 0.000000 0.000000
# 4 0.000000 0.000000 0.000000 -0.033574 0.000000 0.000000
# 5 0.000000 0.000000 0.000000 0.000000 0.052157 0.000000
# 6 0.000000 0.000000 0.000000 0.000000 0.000000 0.022035
#
#
# Mechanical properties :
#
#
# Convention : Reuss Voigt Hill
#
# Bulk Modulus (GPa) = 46.89559 49.07306 47.98432
# Shear Modulus (GPa) = 47.93406 19.87395 33.90400
#
# Velocity S-wave (km/s) = 5.05326 3.25381 4.24987
# Velocity P-wave (km/s) = 7.68307 6.34496 7.04585
#
# Compressibility (1/GPa) = 0.02132397
#
# Stress axis : x y z
#
# Youngs Moduli (GPa) = 83.86248 90.09608 62.77255
#
# Poissons Ratio (x) = 0.29433 0.19601
# Poissons Ratio (y) = 0.27396 0.15227
# Poissons Ratio (z) = 0.26186 0.21855
#
# Static dielectric constant tensor:
#      x y z
#    x 1.624460 0.000000 0.000000 
#    y 0.000000 1.680830 0.000000 
#    z 0.000000 0.000000 1.613310 
# 
# From -- ./inp_files/9169.got.cif
#   From: 2010.05.17/outbox.cif.g08.bks.cpg/sg62_5_cif.got.tgz:9169.got - 2010.06.03 15:25:27.
