data_PCOD9463238
_publ_section_title
;
Structure prediction by ZEFSAII (Michael W. Deem and Ramdas Pophale) SiO2 
 PCOD9463238
Probable space group: P N M A
;
_chemical_formula_sum "Si O2"
_cell_formula_units_Z 48
_cell_length_a 16.956221
_cell_length_b 8.872293
_cell_length_c 18.199088
_cell_angle_alpha 90.000000
_cell_angle_beta 90.000000
_cell_angle_gamma 90.000000
_cell_volume 2737.881006
_symmetry_space_group_name_H-M "P N M A"
_symmetry_group_IT_number 62
_symmetry_cell_setting 'orthorhombic'
loop_
_space_group_symop_operation_xyz
x,y,z
1/2-x,-y,1/2+z
1/2+x,1/2-y,1/2-z
-x,1/2+y,-z
-x,-y,-z
1/2+x,y,1/2-z
1/2-x,1/2+y,1/2+z
x,1/2-y,z
loop_
_atom_site_type_symbol
_atom_site_label
_atom_site_fract_x
_atom_site_fract_y
_atom_site_fract_z
Si Si1 0.992495 0.431440 0.580577
Si Si2 0.414858 0.430937 0.483445
Si Si3 0.183835 0.929245 0.400210
Si Si4 0.333324 0.070995 0.329522
Si Si5 0.853571 0.930656 0.327973
Si Si6 0.736582 0.070915 0.442644
O O1 0.993354 0.250000 0.574322
O O2 0.906644 0.473330 0.611639
O O3 0.000000 0.500000 0.500000
O O4 0.066116 0.477370 0.630385
O O5 0.500000 0.500000 0.500000
O O6 0.416658 0.250000 0.490045
O O7 0.387044 0.469071 0.400238
O O8 0.347168 0.497014 0.536837
O O9 0.193210 0.750000 0.386120
O O10 0.207949 0.954521 0.485505
O O11 0.245342 0.020935 0.351863
O O12 0.337266 0.250000 0.319092
O O13 0.356092 0.987958 0.255078
O O14 0.847858 0.750000 0.329808
O O15 0.780368 0.000008 0.372971
O O16 0.727335 0.250000 0.433295
#
# Coordination Sequence:
#
# PCOD9463238 Si02
#       6
#     8   8   8   8   8   8
#     4  10  20  34  56  86 116 148 187 229 277 335
#     4  10  21  39  62  86 112 147 195 242 286 339
#     4   9  18  35  57  81 110 146 185 226 275 333
#     4  10  22  39  58  81 112 150 190 236 285 335
#     4  11  22  36  56  84 118 152 187 233 286 340
#     4  10  19  34  59  84 111 147 186 230 281 338
#
# _framework density 17.531807000000001
#
# number of rings (size 3 to 8) (size 9 to 14) (size 15 to 20)
#    0.000    2.000    1.667    2.000    0.000    4.000 
#    3.000    0.000    0.000    0.000    0.000    0.000 
#    0.000    0.000    0.000    0.000    0.000    0.000 
#
# Total GULP energy -267972.976400 kJ/mol
# GULP energy per Si atom -5582.770342 kJ/mol
# Density = 1.749190 g / cm^3
# Si number density = 17.531807 Si / 1000 Ang^3
#
#
#
# Elastic Constant Matrix: (Units=GPa)
#
#
# Indices 1 2 3 4 5 6 
#
# 1 165.8041 56.7296 77.5453 0.0000 0.0000 0.0000
# 2 56.7296 53.8128 50.5544 0.0000 0.0000 0.0000
# 3 77.5453 50.5544 108.7485 0.0000 0.0000 0.0000
# 4 0.0000 0.0000 0.0000 32.5781 0.0000 0.0000
# 5 0.0000 0.0000 0.0000 0.0000 19.5531 0.0000
# 6 0.0000 0.0000 0.0000 0.0000 0.0000 28.6163
#
#
#
# Elastic Compliance Matrix: (Units=1/GPa)
#
#
# Indices 1 2 3 4 5 6 
#
# 1 0.010374 -0.007078 -0.004107 0.000000 0.000000 0.000000
# 2 -0.007078 0.037820 -0.012535 0.000000 0.000000 0.000000
# 3 -0.004107 -0.012535 0.017951 0.000000 0.000000 0.000000
# 4 0.000000 0.000000 0.000000 0.030695 0.000000 0.000000
# 5 0.000000 0.000000 0.000000 0.000000 0.051143 0.000000
# 6 0.000000 0.000000 0.000000 0.000000 0.000000 0.034945
#
#
# Mechanical properties :
#
#
# Convention : Reuss Voigt Hill
#
# Bulk Modulus (GPa) = 53.45819 77.55823 65.50821
# Shear Modulus (GPa) = 21.13256 25.71856 23.42556
#
# Velocity S-wave (km/s) = 3.47563 3.83425 3.65934
# Velocity P-wave (km/s) = 6.83118 7.99604 7.43645
#
# Compressibility (1/GPa) = 0.01870621
#
# Stress axis : x y z
#
# Youngs Moduli (GPa) = 96.39870 26.44108 55.70713
#
# Poissons Ratio (x) = 0.18714 0.22878
# Poissons Ratio (y) = 0.68228 0.69827
# Poissons Ratio (z) = 0.39590 0.33143
#
# Static dielectric constant tensor:
#      x y z
#    x 1.588340 0.000000 0.000000 
#    y 0.000000 1.587900 0.000000 
#    z 0.000000 0.000000 1.569610 
# 
# From -- ./inp_files/23671.got.cif
#   From: 2010.05.17/outbox.cif.g08.bks.cpg/sg62_12_cif.got.tgz:23671.got - 2010.06.03 15:25:27.
