data_PCOD9463538
_publ_section_title
;
Structure prediction by ZEFSAII (Michael W. Deem and Ramdas Pophale) SiO2 
 PCOD9463538
Probable space group: P N M A
;
_chemical_formula_sum "Si O2"
_cell_formula_units_Z 64
_cell_length_a 8.429386
_cell_length_b 20.917328
_cell_length_c 16.705405
_cell_angle_alpha 90.000000
_cell_angle_beta 90.000000
_cell_angle_gamma 90.000000
_cell_volume 2945.500882
_symmetry_space_group_name_H-M "P N M A"
_symmetry_group_IT_number 62
_symmetry_cell_setting 'orthorhombic'
loop_
_space_group_symop_operation_xyz
x,y,z
1/2-x,-y,1/2+z
1/2+x,1/2-y,1/2-z
-x,1/2+y,-z
-x,-y,-z
1/2+x,y,1/2-z
1/2-x,1/2+y,1/2+z
x,1/2-y,z
loop_
_atom_site_type_symbol
_atom_site_label
_atom_site_fract_x
_atom_site_fract_y
_atom_site_fract_z
Si Si1 0.704084 0.008688 0.133861
Si Si2 0.339468 0.541578 0.520823
Si Si3 0.248417 0.569389 0.135334
Si Si4 0.528422 0.464089 0.726914
Si Si5 0.653390 0.823723 0.737382
Si Si6 0.951604 0.637313 0.631228
Si Si7 0.186513 0.318747 0.517877
Si Si8 0.973890 0.822811 0.926094
O O1 0.593295 0.991043 0.208373
O O2 0.876108 0.016931 0.175751
O O3 0.621224 0.071080 0.100708
O O4 0.733644 0.961412 0.060029
O O5 0.500000 0.500000 0.500000
O O6 0.254693 0.499579 0.590581
O O7 0.380633 0.614043 0.545058
O O8 0.347423 0.571069 0.216853
O O9 0.315730 0.622358 0.077266
O O10 0.066730 0.578553 0.163562
O O11 0.651392 0.750000 0.763742
O O12 0.608924 0.864415 0.815636
O O13 0.818660 0.837814 0.693739
O O14 0.523940 0.830562 0.666567
O O15 0.946578 0.678390 0.551252
O O16 0.177830 0.250000 0.559206
O O17 0.357036 0.322899 0.472933
O O18 0.907175 0.750000 0.936251
#
# Coordination Sequence:
#
# PCOD9463538 Si02
#       8
#     8   8   8   8   8   8   8   8
#     4  11  21  37  57  90 115 153 197 242 301 344
#     4  12  19  35  62  87 118 157 197 241 289 353
#     4  11  22  41  61  89 116 152 197 246 301 353
#     4  10  24  37  59  86 122 147 189 254 298 352
#     4  10  20  33  50  76 115 156 192 231 279 344
#     4  11  20  34  54  83 117 155 198 236 283 343
#     4  10  19  36  60  83 114 155 200 243 291 351
#     4   9  19  33  53  85 117 156 198 234 282 348
#
# _framework density 21.728052000000002
#
# number of rings (size 3 to 8) (size 9 to 14) (size 15 to 20)
#    0.000    1.500    3.750    3.375    3.500    0.500 
#    0.000    0.625    0.000    5.250    0.000    0.000 
#    0.000    0.000    0.000    0.000    0.000    0.000 
#
# Total GULP energy -357247.535263 kJ/mol
# GULP energy per Si atom -5581.992738 kJ/mol
# Density = 2.167860 g / cm^3
# Si number density = 21.728052 Si / 1000 Ang^3
#
#
#
# Elastic Constant Matrix: (Units=GPa)
#
#
# Indices 1 2 3 4 5 6 
#
# 1 32.2462 2.7823 9.0439 0.0000 0.0000 0.0000
# 2 2.7823 97.9304 20.3586 0.0000 0.0000 0.0000
# 3 9.0439 20.3586 72.1026 0.0000 0.0000 0.0000
# 4 0.0000 0.0000 0.0000 147.7888 0.0000 0.0000
# 5 0.0000 0.0000 0.0000 0.0000 151.7691 0.0000
# 6 0.0000 0.0000 0.0000 0.0000 0.0000 7.5480
#
#
#
# Elastic Compliance Matrix: (Units=1/GPa)
#
#
# Indices 1 2 3 4 5 6 
#
# 1 0.032143 -0.000080 -0.004009 0.000000 0.000000 0.000000
# 2 -0.000080 0.010848 -0.003053 0.000000 0.000000 0.000000
# 3 -0.004009 -0.003053 0.015234 0.000000 0.000000 0.000000
# 4 0.000000 0.000000 0.000000 0.006766 0.000000 0.000000
# 5 0.000000 0.000000 0.000000 0.000000 0.006589 0.000000
# 6 0.000000 0.000000 0.000000 0.000000 0.000000 0.132486
#
#
# Mechanical properties :
#
#
# Convention : Reuss Voigt Hill
#
# Bulk Modulus (GPa) = 22.75774 29.62764 26.19269
# Shear Modulus (GPa) = 21.45945 72.76080 47.11012
#
# Velocity S-wave (km/s) = 3.14608 5.79308 4.66141
# Velocity P-wave (km/s) = 4.86762 7.64275 6.40723
#
# Compressibility (1/GPa) = 0.04394109
#
# Stress axis : x y z
#
# Youngs Moduli (GPa) = 31.11122 92.18031 65.64235
#
# Poissons Ratio (x) = 0.00735 0.26317
# Poissons Ratio (y) = 0.00248 0.20041
# Poissons Ratio (z) = 0.12473 0.28143
#
# Static dielectric constant tensor:
#      x y z
#    x 1.906600 0.000000 0.000000 
#    y 0.000000 1.806280 0.000000 
#    z 0.000000 0.000000 1.775280 
# 
# From -- ./inp_files/22580.got.cif
#   From: 2010.05.17/outbox.cif.g08.bks.cpg/sg62_12_cif.got.tgz:22580.got - 2010.06.03 15:25:27.
