data_PCOD9463098
_publ_section_title
;
Structure prediction by ZEFSAII (Michael W. Deem and Ramdas Pophale) SiO2 
 PCOD9463098
Probable space group: P N M A
;
_chemical_formula_sum "Si O2"
_cell_formula_units_Z 48
_cell_length_a 18.336497
_cell_length_b 7.725935
_cell_length_c 15.883623
_cell_angle_alpha 90.000000
_cell_angle_beta 90.000000
_cell_angle_gamma 90.000000
_cell_volume 2250.178611
_symmetry_space_group_name_H-M "P N M A"
_symmetry_group_IT_number 62
_symmetry_cell_setting 'orthorhombic'
loop_
_space_group_symop_operation_xyz
x,y,z
1/2-x,-y,1/2+z
1/2+x,1/2-y,1/2-z
-x,1/2+y,-z
-x,-y,-z
1/2+x,y,1/2-z
1/2-x,1/2+y,1/2+z
x,1/2-y,z
loop_
_atom_site_type_symbol
_atom_site_label
_atom_site_fract_x
_atom_site_fract_y
_atom_site_fract_z
Si Si1 0.956924 0.962383 0.253048
Si Si2 0.458002 0.043586 0.585714
Si Si3 0.288862 0.036990 0.932951
Si Si4 0.455286 0.042181 0.916450
Si Si5 0.210060 0.047735 0.102120
Si Si6 0.293041 0.546975 0.267344
O O1 0.957054 0.750000 0.255178
O O2 0.873159 0.023137 0.254396
O O3 0.996078 0.016441 0.166766
O O4 0.002381 0.022438 0.333963
O O5 0.452148 0.250000 0.591588
O O6 0.500000 0.000000 0.500000
O O7 0.376036 0.973109 0.588443
O O8 0.288256 0.250000 0.932959
O O9 0.372331 0.979479 0.923921
O O10 0.242627 0.975823 0.852494
O O11 0.252869 0.979149 0.020396
O O12 0.451358 0.250000 0.909028
O O13 0.500000 0.000000 0.000000
O O14 0.227115 0.250000 0.108758
O O15 0.238672 0.967951 0.188770
O O16 0.304321 0.750000 0.284123
#
# Coordination Sequence:
#
# PCOD9463098 Si02
#       6
#     8   8   8   8   8   8
#     4   9  19  35  58  82 108 143 184 224 276 339
#     4  11  22  39  61  85 112 148 189 233 281 335
#     4   9  19  35  55  75 107 150 184 215 272 342
#     4  10  19  34  54  78 105 140 181 223 269 325
#     4  11  22  37  56  83 115 149 186 230 280 333
#     4  10  19  36  59  81 105 142 185 225 268 328
#
# _framework density 21.33164
#
# number of rings (size 3 to 8) (size 9 to 14) (size 15 to 20)
#    0.000    2.000    0.000    4.000    0.000    5.333 
#    0.000   10.000    0.000    0.000    0.000    0.000 
#    0.000    0.000    0.000    0.000    0.000    0.000 
#
# Total GULP energy -268310.918520 kJ/mol
# GULP energy per Si atom -5589.810802 kJ/mol
# Density = 2.128309 g / cm^3
# Si number density = 21.331640 Si / 1000 Ang^3
#
#
#
# Elastic Constant Matrix: (Units=GPa)
#
#
# Indices 1 2 3 4 5 6 
#
# 1 108.7094 -10.0693 22.7155 0.0000 0.0000 0.0000
# 2 -10.0693 30.0171 -10.4672 0.0000 0.0000 0.0000
# 3 22.7155 -10.4672 125.1723 0.0000 0.0000 0.0000
# 4 0.0000 0.0000 0.0000 24.0392 0.0000 0.0000
# 5 0.0000 0.0000 0.0000 0.0000 44.8185 0.0000
# 6 0.0000 0.0000 0.0000 0.0000 0.0000 -1.9692
#
#
#
# Elastic Compliance Matrix: (Units=1/GPa)
#
#
# Indices 1 2 3 4 5 6 
#
# 1 0.009775 0.002740 -0.001545 0.000000 0.000000 0.000000
# 2 0.002740 0.035083 0.002436 0.000000 0.000000 0.000000
# 3 -0.001545 0.002436 0.008473 0.000000 0.000000 0.000000
# 4 0.000000 0.000000 0.000000 0.041599 0.000000 0.000000
# 5 0.000000 0.000000 0.000000 0.000000 0.022312 0.000000
# 6 0.000000 0.000000 0.000000 0.000000 0.000000 -0.507812
#
#
# Mechanical properties :
#
#
# Convention : Reuss Voigt Hill
#
# Bulk Modulus (GPa) = 16.50275 29.80630 23.15453
# Shear Modulus (GPa) = -13.24029 30.82570 8.79271
#
# Velocity S-wave (km/s) = -2.49406 3.80553 2.03245
# Velocity P-wave (km/s) = 0.73534 5.77170 4.04795
#
# Compressibility (1/GPa) = 0.06059596
#
# Stress axis : x y z
#
# Youngs Moduli (GPa) = 102.29680 28.50366 118.02092
#
# Poissons Ratio (x) = -0.07811 0.18232
# Poissons Ratio (y) = -0.28034 -0.28755
# Poissons Ratio (z) = 0.15803 -0.06945
#
# Static dielectric constant tensor:
#      x y z
#    x 1.732630 0.000000 0.000000 
#    y 0.000000 1.829610 0.000000 
#    z 0.000000 0.000000 1.717260 
# 
# From -- ./inp_files/19612.got.cif
#   From: 2010.05.17/outbox.cif.g08.bks.cpg/sg62_10_cif.got.tgz:19612.got - 2010.06.03 15:25:27.
