data_PCOD9463696
_publ_section_title
;
Structure prediction by ZEFSAII (Michael W. Deem and Ramdas Pophale) SiO2 
 PCOD9463696
Probable space group: P N M A
;
_chemical_formula_sum "Si O2"
_cell_formula_units_Z 40
_cell_length_a 14.385416
_cell_length_b 15.877054
_cell_length_c 7.220107
_cell_angle_alpha 90.000000
_cell_angle_beta 90.000000
_cell_angle_gamma 90.000000
_cell_volume 1649.058191
_symmetry_space_group_name_H-M "P N M A"
_symmetry_group_IT_number 62
_symmetry_cell_setting 'orthorhombic'
loop_
_space_group_symop_operation_xyz
x,y,z
1/2-x,-y,1/2+z
1/2+x,1/2-y,1/2-z
-x,1/2+y,-z
-x,-y,-z
1/2+x,y,1/2-z
1/2-x,1/2+y,1/2+z
x,1/2-y,z
loop_
_atom_site_type_symbol
_atom_site_label
_atom_site_fract_x
_atom_site_fract_y
_atom_site_fract_z
Si Si1 0.721129 0.841270 0.957410
Si Si2 0.448200 0.415172 0.226022
Si Si3 0.386862 0.577164 0.024943
Si Si4 0.306278 0.156866 0.614512
Si Si5 0.126140 0.023757 0.122724
O O1 0.764972 0.750000 0.919085
O O2 0.642055 0.858741 0.804874
O O3 0.796662 0.914250 0.953562
O O4 0.681188 0.839413 0.164084
O O5 0.412266 0.510364 0.182964
O O6 0.526972 0.428706 0.382625
O O7 0.516564 0.386325 0.053596
O O8 0.303243 0.638663 0.075514
O O9 0.355375 0.523052 0.845295
O O10 0.332976 0.250000 0.544855
O O11 0.358807 0.071285 0.552113
#
# Coordination Sequence:
#
# PCOD9463696 Si02
#       5
#     8   8   8   8   8
#     4  11  22  36  60  88 118 152 193 242 296 340
#     4   9  18  37  63  82 110 153 201 226 290 338
#     4   9  18  35  62  82 109 151 196 232 284 348
#     4  11  20  33  57  88 119 151 189 241 293 346
#     4  10  19  38  61  83 117 154 199 236 287 346
#
# _framework density 24.256269
#
# number of rings (size 3 to 8) (size 9 to 14) (size 15 to 20)
#    1.200    0.800    4.000    0.000    0.000    2.400 
#    0.000    2.000    4.400    0.000    0.000    0.000 
#    0.000    0.000    0.000    0.000    0.000    0.000 
#
# Total GULP energy -223036.669913 kJ/mol
# GULP energy per Si atom -5575.916748 kJ/mol
# Density = 2.420106 g / cm^3
# Si number density = 24.256269 Si / 1000 Ang^3
#
#
#
# Elastic Constant Matrix: (Units=GPa)
#
#
# Indices 1 2 3 4 5 6 
#
# 1 131.9710 71.7177 21.6119 0.0000 0.0000 0.0000
# 2 71.7177 157.8117 20.1907 0.0000 0.0000 0.0000
# 3 21.6119 20.1907 45.2756 0.0000 0.0000 0.0000
# 4 0.0000 0.0000 0.0000 22.5925 0.0000 0.0000
# 5 0.0000 0.0000 0.0000 0.0000 32.7181 0.0000
# 6 0.0000 0.0000 0.0000 0.0000 0.0000 8.6902
#
#
#
# Elastic Compliance Matrix: (Units=1/GPa)
#
#
# Indices 1 2 3 4 5 6 
#
# 1 0.010443 -0.004357 -0.003042 0.000000 0.000000 0.000000
# 2 -0.004357 0.008538 -0.001728 0.000000 0.000000 0.000000
# 3 -0.003042 -0.001728 0.024310 0.000000 0.000000 0.000000
# 4 0.000000 0.000000 0.000000 0.044262 0.000000 0.000000
# 5 0.000000 0.000000 0.000000 0.000000 0.030564 0.000000
# 6 0.000000 0.000000 0.000000 0.000000 0.000000 0.115073
#
#
# Mechanical properties :
#
#
# Convention : Reuss Voigt Hill
#
# Bulk Modulus (GPa) = 39.94039 62.45545 51.19792
# Shear Modulus (GPa) = 19.24644 27.56935 23.40789
#
# Velocity S-wave (km/s) = 2.81990 3.37499 3.10985
# Velocity P-wave (km/s) = 5.20617 6.40246 5.83505
#
# Compressibility (1/GPa) = 0.02503731
#
# Stress axis : x y z
#
# Youngs Moduli (GPa) = 95.75613 117.12851 41.13611
#
# Poissons Ratio (x) = 0.51030 0.12514
# Poissons Ratio (y) = 0.41718 0.07107
# Poissons Ratio (z) = 0.29130 0.20237
#
# Static dielectric constant tensor:
#      x y z
#    x 1.993270 0.000000 0.000000 
#    y 0.000000 1.899540 0.000000 
#    z 0.000000 0.000000 2.112760 
# 
# From -- ./inp_files/13083.got.cif
#   From: 2010.05.17/outbox.cif.g08.bks.cpg/sg62_7_cif.got.tgz:13083.got - 2010.06.03 15:25:27.
