data_PCOD9463496
_publ_section_title
;
Structure prediction by ZEFSAII (Michael W. Deem and Ramdas Pophale) SiO2 
 PCOD9463496
Probable space group: P N M A
;
_chemical_formula_sum "Si O2"
_cell_formula_units_Z 28
_cell_length_a 4.979819
_cell_length_b 37.371614
_cell_length_c 7.089034
_cell_angle_alpha 90.000000
_cell_angle_beta 90.000000
_cell_angle_gamma 90.000000
_cell_volume 1319.296686
_symmetry_space_group_name_H-M "P N M A"
_symmetry_group_IT_number 62
_symmetry_cell_setting 'orthorhombic'
loop_
_space_group_symop_operation_xyz
x,y,z
1/2-x,-y,1/2+z
1/2+x,1/2-y,1/2-z
-x,1/2+y,-z
-x,-y,-z
1/2+x,y,1/2-z
1/2-x,1/2+y,1/2+z
x,1/2-y,z
loop_
_atom_site_type_symbol
_atom_site_label
_atom_site_fract_x
_atom_site_fract_y
_atom_site_fract_z
Si Si1 0.950400 0.673342 0.617795
Si Si2 0.428266 0.250000 0.119802
Si Si3 0.572420 0.534234 0.875098
Si Si4 0.079759 0.896002 0.375053
O O1 0.152826 0.671496 0.796688
O O2 0.004555 0.712216 0.524543
O O3 0.015525 0.640570 0.483247
O O4 0.624640 0.250000 0.304271
O O5 0.378134 0.533493 0.694342
O O6 0.500000 0.500000 0.000000
O O7 0.522523 0.570336 0.991384
O O8 0.385061 0.897707 0.305258
#
# Coordination Sequence:
#
# PCOD9463496 Si02
#       4
#     8   4   8   8
#     4  10  19  36  58  82 109 148 192 234 279 333
#     4   8  16  30  54  80 106 140 188 234 276 330
#     4  12  24  42  64  88 115 149 187 231 279 333
#     4  12  24  39  57  85 118 151 187 231 279 333
#
# _framework density 21.223427000000001
#
# number of rings (size 3 to 8) (size 9 to 14) (size 15 to 20)
#    0.000    1.143    0.000    7.714    0.000    0.000 
#    0.000    1.429    0.000    0.000    0.000    0.000 
#    0.000    0.000    0.000    0.000    0.000    0.000 
#
# Total GULP energy -156626.417907 kJ/mol
# GULP energy per Si atom -5593.800640 kJ/mol
# Density = 2.117512 g / cm^3
# Si number density = 21.223427 Si / 1000 Ang^3
#
#
#
# Elastic Constant Matrix: (Units=GPa)
#
#
# Indices 1 2 3 4 5 6 
#
# 1 62.5081 -11.4901 -12.4713 0.0000 0.0000 0.0000
# 2 -11.4901 197.1730 43.5996 0.0000 0.0000 0.0000
# 3 -12.4713 43.5996 31.5736 0.0000 0.0000 0.0000
# 4 0.0000 0.0000 0.0000 36.5169 0.0000 0.0000
# 5 0.0000 0.0000 0.0000 0.0000 44.9665 0.0000
# 6 0.0000 0.0000 0.0000 0.0000 0.0000 25.9379
#
#
#
# Elastic Compliance Matrix: (Units=1/GPa)
#
#
# Indices 1 2 3 4 5 6 
#
# 1 0.017439 -0.000730 0.007896 0.000000 0.000000 0.000000
# 2 -0.000730 0.007332 -0.010412 0.000000 0.000000 0.000000
# 3 0.007896 -0.010412 0.049169 0.000000 0.000000 0.000000
# 4 0.000000 0.000000 0.000000 0.027385 0.000000 0.000000
# 5 0.000000 0.000000 0.000000 0.000000 0.022239 0.000000
# 6 0.000000 0.000000 0.000000 0.000000 0.000000 0.038554
#
#
# Mechanical properties :
#
#
# Convention : Reuss Voigt Hill
#
# Bulk Modulus (GPa) = 14.82628 36.72568 25.77598
# Shear Modulus (GPa) = 26.16543 39.59201 32.87872
#
# Velocity S-wave (km/s) = 3.51501 4.32381 3.94022
# Velocity P-wave (km/s) = 4.84507 6.50146 5.73340
#
# Compressibility (1/GPa) = 0.06744779
#
# Stress axis : x y z
#
# Youngs Moduli (GPa) = 57.34223 136.39616 20.33792
#
# Poissons Ratio (x) = 0.09953 -0.16059
# Poissons Ratio (y) = 0.04184 0.21177
# Poissons Ratio (z) = -0.45277 1.42021
#
# Static dielectric constant tensor:
#      x y z
#    x 1.728630 0.000000 0.000000 
#    y 0.000000 1.769010 0.000000 
#    z 0.000000 0.000000 1.737140 
# 
# From -- ./inp_files/3794.got.cif
#   From: 2010.05.17/outbox.cif.g08.bks.cpg/sg62_2_cif.got.tgz:3794.got - 2010.06.03 15:25:27.
