data_PCOD9463456
_publ_section_title
;
Structure prediction by ZEFSAII (Michael W. Deem and Ramdas Pophale) SiO2 
 PCOD9463456
Probable space group: P N M A
;
_chemical_formula_sum "Si O2"
_cell_formula_units_Z 28
_cell_length_a 19.642712
_cell_length_b 5.401574
_cell_length_c 12.062504
_cell_angle_alpha 90.000000
_cell_angle_beta 90.000000
_cell_angle_gamma 90.000000
_cell_volume 1279.850521
_symmetry_space_group_name_H-M "P N M A"
_symmetry_group_IT_number 62
_symmetry_cell_setting 'orthorhombic'
loop_
_space_group_symop_operation_xyz
x,y,z
1/2-x,-y,1/2+z
1/2+x,1/2-y,1/2-z
-x,1/2+y,-z
-x,-y,-z
1/2+x,y,1/2-z
1/2-x,1/2+y,1/2+z
x,1/2-y,z
loop_
_atom_site_type_symbol
_atom_site_label
_atom_site_fract_x
_atom_site_fract_y
_atom_site_fract_z
Si Si1 0.753681 0.750000 0.404612
Si Si2 0.551012 0.750000 0.046796
Si Si3 0.921037 0.250000 0.281685
Si Si4 0.826860 0.750000 0.958379
Si Si5 0.981403 0.750000 0.928915
Si Si6 0.843060 0.750000 0.218844
Si Si7 0.901234 0.750000 0.523813
O O1 0.714396 0.499488 0.433037
O O2 0.769377 0.750000 0.274350
O O3 0.827835 0.750000 0.466175
O O4 0.562720 0.750000 0.912785
O O5 0.469220 0.750000 0.056792
O O6 0.586144 0.502734 0.090016
O O7 0.878762 0.498458 0.258358
O O8 0.979461 0.250000 0.188376
O O9 0.901190 0.750000 0.904581
O O10 0.841478 0.750000 0.088499
O O11 0.000000 0.500000 0.000000
#
# Coordination Sequence:
#
# PCOD9463456 Si02
#       7
#     4   4   4   4   4   4   4
#     4  12  24  44  67  93 139 176 221 261 339 412
#     4  10  19  35  62  94 122 162 212 266 314 369
#     4  12  20  40  70  94 125 163 220 271 322 394
#     4  12  26  44  66  96 134 174 216 284 329 393
#     4  12  23  43  68  96 126 163 218 290 330 371
#     4  12  24  43  70  94 123 181 222 256 333 405
#     4  10  20  37  61  91 127 161 211 266 313 382
#
# _framework density 21.877552999999999
#
# number of rings (size 3 to 8) (size 9 to 14) (size 15 to 20)
#    0.000    0.571    5.714    3.429    0.000    0.000 
#    5.143    0.000    0.000    0.000    0.000    0.000 
#    0.000    0.000    0.000    0.000    0.000    0.000 
#
# Total GULP energy -156475.188376 kJ/mol
# GULP energy per Si atom -5588.399585 kJ/mol
# Density = 2.182776 g / cm^3
# Si number density = 21.877553 Si / 1000 Ang^3
#
#
#
# Elastic Constant Matrix: (Units=GPa)
#
#
# Indices 1 2 3 4 5 6 
#
# 1 135.7258 79.3411 11.7514 0.0000 0.0000 0.0000
# 2 79.3411 245.9839 25.7924 0.0000 0.0000 0.0000
# 3 11.7514 25.7924 71.4010 0.0000 0.0000 0.0000
# 4 0.0000 0.0000 0.0000 30.4314 0.0000 0.0000
# 5 0.0000 0.0000 0.0000 0.0000 40.2235 0.0000
# 6 0.0000 0.0000 0.0000 0.0000 0.0000 54.3106
#
#
#
# Elastic Compliance Matrix: (Units=1/GPa)
#
#
# Indices 1 2 3 4 5 6 
#
# 1 0.009094 -0.002886 -0.000454 0.000000 0.000000 0.000000
# 2 -0.002886 0.005141 -0.001382 0.000000 0.000000 0.000000
# 3 -0.000454 -0.001382 0.014579 0.000000 0.000000 0.000000
# 4 0.000000 0.000000 0.000000 0.032861 0.000000 0.000000
# 5 0.000000 0.000000 0.000000 0.000000 0.024861 0.000000
# 6 0.000000 0.000000 0.000000 0.000000 0.000000 0.018413
#
#
# Mechanical properties :
#
#
# Convention : Reuss Voigt Hill
#
# Bulk Modulus (GPa) = 51.62568 76.32007 63.97288
# Shear Modulus (GPa) = 41.37366 47.40814 44.39090
#
# Velocity S-wave (km/s) = 4.35345 4.66013 4.50940
# Velocity P-wave (km/s) = 6.99420 7.99478 7.51117
#
# Compressibility (1/GPa) = 0.01937020
#
# Stress axis : x y z
#
# Youngs Moduli (GPa) = 109.96316 194.51605 68.58961
#
# Poissons Ratio (x) = 0.56129 0.03116
# Poissons Ratio (y) = 0.31731 0.09480
# Poissons Ratio (z) = 0.04996 0.26885
#
# Static dielectric constant tensor:
#      x y z
#    x 1.921010 0.000000 0.000000 
#    y 0.000000 1.840640 0.000000 
#    z 0.000000 0.000000 1.822080 
# 
# From -- ./inp_files/13750.got.cif
#   From: 2010.05.17/outbox.cif.g08.bks.cpg/sg62_7_cif.got.tgz:13750.got - 2010.06.03 15:25:27.
