data_PCOD9463155
_publ_section_title
;
Structure prediction by ZEFSAII (Michael W. Deem and Ramdas Pophale) SiO2 
 PCOD9463155
Probable space group: P N M A
;
_chemical_formula_sum "Si O2"
_cell_formula_units_Z 64
_cell_length_a 18.195511
_cell_length_b 10.328962
_cell_length_c 16.428384
_cell_angle_alpha 90.000000
_cell_angle_beta 90.000000
_cell_angle_gamma 90.000000
_cell_volume 3087.562674
_symmetry_space_group_name_H-M "P N M A"
_symmetry_group_IT_number 62
_symmetry_cell_setting 'orthorhombic'
loop_
_space_group_symop_operation_xyz
x,y,z
1/2-x,-y,1/2+z
1/2+x,1/2-y,1/2-z
-x,1/2+y,-z
-x,-y,-z
1/2+x,y,1/2-z
1/2-x,1/2+y,1/2+z
x,1/2-y,z
loop_
_atom_site_type_symbol
_atom_site_label
_atom_site_fract_x
_atom_site_fract_y
_atom_site_fract_z
Si Si1 0.527843 0.601789 0.845844
Si Si2 0.579288 0.606587 0.091366
Si Si3 0.574786 0.600680 0.404329
Si Si4 0.183345 0.603528 0.250199
Si Si5 0.825178 0.102805 0.426845
Si Si6 0.291209 0.401192 0.320100
Si Si7 0.963076 0.099766 0.158548
Si Si8 0.782784 0.398957 0.992580
O O1 0.515405 0.750000 0.872179
O O2 0.480949 0.503499 0.898520
O O3 0.614810 0.577929 0.857105
O O4 0.506796 0.591264 0.751329
O O5 0.544713 0.750000 0.092901
O O6 0.633235 0.597979 0.168785
O O7 0.626486 0.596383 0.009585
O O8 0.548612 0.750000 0.404926
O O9 0.629401 0.585842 0.326476
O O10 0.509822 0.498511 0.395305
O O11 0.630041 0.580541 0.479745
O O12 0.214334 0.750000 0.245033
O O13 0.245568 0.495607 0.262298
O O14 0.796889 0.250000 0.418739
O O15 0.762133 0.998394 0.437934
O O16 0.284937 0.250000 0.295611
O O17 0.377235 0.431998 0.330615
O O18 0.261674 0.413492 0.412986
O O19 0.968892 0.250000 0.131664
O O20 0.768491 0.250000 0.968617
#
# Coordination Sequence:
#
# PCOD9463155 Si02
#       8
#     8   8   8   8   8   8   8   8
#     4  10  21  35  53  80 113 147 183 225 275 332
#     4  10  19  34  56  81 112 148 183 224 273 329
#     4  10  22  40  59  82 113 148 187 231 278 328
#     4  10  20  36  58  84 113 145 184 228 275 330
#     4  10  21  36  54  81 116 148 182 226 275 332
#     4  10  22  39  59  84 114 146 185 231 279 329
#     4  10  22  39  57  82 112 144 185 232 279 329
#     4  10  22  39  58  82 112 147 187 232 278 328
#
# _framework density 20.728325999999999
#
# number of rings (size 3 to 8) (size 9 to 14) (size 15 to 20)
#    0.000    2.000    2.500    0.375    1.750    3.500 
#    0.000    0.000    0.000    0.000    0.000    0.000 
#    0.000    0.000    0.000    0.000    0.000    0.000 
#
# Total GULP energy -357618.490627 kJ/mol
# GULP energy per Si atom -5587.788916 kJ/mol
# Density = 2.068115 g / cm^3
# Si number density = 20.728326 Si / 1000 Ang^3
#
#
#
# Elastic Constant Matrix: (Units=GPa)
#
#
# Indices 1 2 3 4 5 6 
#
# 1 72.7981 85.7491 -3.4667 0.0000 0.0000 0.0000
# 2 85.7491 129.5069 5.8966 0.0000 0.0000 0.0000
# 3 -3.4667 5.8966 61.1283 0.0000 0.0000 0.0000
# 4 0.0000 0.0000 0.0000 14.0396 0.0000 0.0000
# 5 0.0000 0.0000 0.0000 0.0000 33.0817 0.0000
# 6 0.0000 0.0000 0.0000 0.0000 0.0000 48.0371
#
#
#
# Elastic Compliance Matrix: (Units=1/GPa)
#
#
# Indices 1 2 3 4 5 6 
#
# 1 0.066097 -0.044129 0.008005 0.000000 0.000000 0.000000
# 2 -0.044129 0.037218 -0.006093 0.000000 0.000000 0.000000
# 3 0.008005 -0.006093 0.017401 0.000000 0.000000 0.000000
# 4 0.000000 0.000000 0.000000 0.071227 0.000000 0.000000
# 5 0.000000 0.000000 0.000000 0.000000 0.030228 0.000000
# 6 0.000000 0.000000 0.000000 0.000000 0.000000 0.020817
#
#
# Mechanical properties :
#
#
# Convention : Reuss Voigt Hill
#
# Bulk Modulus (GPa) = 27.56103 48.86569 38.21336
# Shear Modulus (GPa) = 14.72689 30.71532 22.72111
#
# Velocity S-wave (km/s) = 2.66836 3.85360 3.31439
# Velocity P-wave (km/s) = 4.77689 6.58983 5.75519
#
# Compressibility (1/GPa) = 0.03628311
#
# Stress axis : x y z
#
# Youngs Moduli (GPa) = 15.12920 26.86902 57.46877
#
# Poissons Ratio (x) = 1.18570 -0.46005
# Poissons Ratio (y) = 0.66763 0.35014
# Poissons Ratio (z) = -0.12111 0.16371
#
# Static dielectric constant tensor:
#      x y z
#    x 1.714490 0.000000 0.000000 
#    y 0.000000 1.706030 0.000000 
#    z 0.000000 0.000000 1.794660 
# 
# From -- ./inp_files/24761.got.cif
#   From: 2010.05.17/outbox.cif.g08.bks.cpg/sg62_13_cif.got.tgz:24761.got - 2010.06.03 15:25:27.
