data_PCOD9463529
_publ_section_title
;
Structure prediction by ZEFSAII (Michael W. Deem and Ramdas Pophale) SiO2 
 PCOD9463529
Probable space group: P N M A
;
_chemical_formula_sum "Si O2"
_cell_formula_units_Z 64
_cell_length_a 15.368943
_cell_length_b 18.374901
_cell_length_c 9.468952
_cell_angle_alpha 90.000000
_cell_angle_beta 90.000000
_cell_angle_gamma 90.000000
_cell_volume 2674.058616
_symmetry_space_group_name_H-M "P N M A"
_symmetry_group_IT_number 62
_symmetry_cell_setting 'orthorhombic'
loop_
_space_group_symop_operation_xyz
x,y,z
1/2-x,-y,1/2+z
1/2+x,1/2-y,1/2-z
-x,1/2+y,-z
-x,-y,-z
1/2+x,y,1/2-z
1/2-x,1/2+y,1/2+z
x,1/2-y,z
loop_
_atom_site_type_symbol
_atom_site_label
_atom_site_fract_x
_atom_site_fract_y
_atom_site_fract_z
Si Si1 0.065916 0.401330 0.723848
Si Si2 0.318998 0.446229 0.506534
Si Si3 0.785175 0.331906 0.464883
Si Si4 0.982956 0.442407 0.195647
Si Si5 0.760800 0.835569 0.663990
Si Si6 0.077249 0.330135 0.008902
Si Si7 0.733466 0.940088 0.191722
Si Si8 0.959864 0.836019 0.583771
O O1 0.014063 0.477269 0.738755
O O2 0.043056 0.347889 0.853006
O O3 0.170048 0.418021 0.747618
O O4 0.047692 0.364224 0.575309
O O5 0.407396 0.451412 0.420641
O O6 0.285036 0.365310 0.475182
O O7 0.251692 0.497047 0.421823
O O8 0.319479 0.462784 0.670578
O O9 0.821625 0.250000 0.464488
O O10 0.782789 0.366430 0.307444
O O11 0.681228 0.326023 0.493484
O O12 0.814573 0.378771 0.598519
O O13 0.974384 0.385328 0.325403
O O14 0.054001 0.400152 0.101780
O O15 0.749166 0.750000 0.676765
O O16 0.863394 0.848137 0.649816
O O17 0.045643 0.250000 0.059381
O O18 0.977695 0.750000 0.590245
#
# Coordination Sequence:
#
# PCOD9463529 Si02
#       8
#     8   8   8   8   8   8   8   8
#     4  10  21  38  60  91 121 161 216 262 303 368
#     4  11  23  40  59  89 124 164 200 255 317 370
#     4   9  18  35  61  88 114 155 209 258 298 355
#     4  11  23  38  60  92 128 163 205 260 327 378
#     4  10  20  36  61  89 118 162 210 253 303 371
#     4  10  19  36  59  86 122 161 206 260 311 368
#     4  10  21  38  60  87 122 162 206 253 305 368
#     4  11  21  39  64  91 124 164 210 262 314 372
#
# _framework density 23.933655000000002
#
# number of rings (size 3 to 8) (size 9 to 14) (size 15 to 20)
#    0.000    1.750    2.500    2.250    0.000    2.000 
#    2.250    1.250    0.000    1.500    0.000    0.000 
#    0.000    0.000    0.000    0.000    0.000    0.000 
#
# Total GULP energy -357655.399712 kJ/mol
# GULP energy per Si atom -5588.365620 kJ/mol
# Density = 2.387918 g / cm^3
# Si number density = 23.933655 Si / 1000 Ang^3
#
#
#
# Elastic Constant Matrix: (Units=GPa)
#
#
# Indices 1 2 3 4 5 6 
#
# 1 42.7660 26.2250 18.0528 0.0000 0.0000 0.0000
# 2 26.2250 89.4147 41.9345 0.0000 0.0000 0.0000
# 3 18.0528 41.9345 146.2786 0.0000 0.0000 0.0000
# 4 0.0000 0.0000 0.0000 39.6219 0.0000 0.0000
# 5 0.0000 0.0000 0.0000 0.0000 23.4349 0.0000
# 6 0.0000 0.0000 0.0000 0.0000 0.0000 12.9020
#
#
#
# Elastic Compliance Matrix: (Units=1/GPa)
#
#
# Indices 1 2 3 4 5 6 
#
# 1 0.028725 -0.007813 -0.001305 0.000000 0.000000 0.000000
# 2 -0.007813 0.015046 -0.003349 0.000000 0.000000 0.000000
# 3 -0.001305 -0.003349 0.007957 0.000000 0.000000 0.000000
# 4 0.000000 0.000000 0.000000 0.025239 0.000000 0.000000
# 5 0.000000 0.000000 0.000000 0.000000 0.042671 0.000000
# 6 0.000000 0.000000 0.000000 0.000000 0.000000 0.077507
#
#
# Mechanical properties :
#
#
# Convention : Reuss Voigt Hill
#
# Bulk Modulus (GPa) = 37.32168 50.09821 43.70995
# Shear Modulus (GPa) = 21.64395 28.00824 24.82610
#
# Velocity S-wave (km/s) = 3.01047 3.42460 3.22419
# Velocity P-wave (km/s) = 5.26418 6.05101 5.67126
#
# Compressibility (1/GPa) = 0.02679408
#
# Stress axis : x y z
#
# Youngs Moduli (GPa) = 34.81283 66.46292 125.66799
#
# Poissons Ratio (x) = 0.51926 0.16404
# Poissons Ratio (y) = 0.27198 0.42088
# Poissons Ratio (z) = 0.04544 0.22259
#
# Static dielectric constant tensor:
#      x y z
#    x 1.968390 0.000000 0.000000 
#    y 0.000000 2.013640 0.000000 
#    z 0.000000 0.000000 1.918780 
# 
# From -- ./inp_files/8877.got.cif
#   From: 2010.05.17/outbox.cif.g08.bks.cpg/sg62_5_cif.got.tgz:8877.got - 2010.06.03 15:25:27.
