data_PCOD9463653
_publ_section_title
;
Structure prediction by ZEFSAII (Michael W. Deem and Ramdas Pophale) SiO2 
 PCOD9463653
Probable space group: P N M A
;
_chemical_formula_sum "Si O2"
_cell_formula_units_Z 56
_cell_length_a 21.521217
_cell_length_b 7.768062
_cell_length_c 14.915656
_cell_angle_alpha 90.000000
_cell_angle_beta 90.000000
_cell_angle_gamma 90.000000
_cell_volume 2493.571746
_symmetry_space_group_name_H-M "P N M A"
_symmetry_group_IT_number 62
_symmetry_cell_setting 'orthorhombic'
loop_
_space_group_symop_operation_xyz
x,y,z
1/2-x,-y,1/2+z
1/2+x,1/2-y,1/2-z
-x,1/2+y,-z
-x,-y,-z
1/2+x,y,1/2-z
1/2-x,1/2+y,1/2+z
x,1/2-y,z
loop_
_atom_site_type_symbol
_atom_site_label
_atom_site_fract_x
_atom_site_fract_y
_atom_site_fract_z
Si Si1 0.261780 0.447360 0.529431
Si Si2 0.901427 0.544742 0.286289
Si Si3 0.173074 0.945667 0.378642
Si Si4 0.571833 0.544709 0.989770
Si Si5 0.505698 0.041852 0.641088
Si Si6 0.734874 0.461102 0.767911
Si Si7 0.400381 0.549119 0.517657
O O1 0.239983 0.250000 0.520960
O O2 0.224958 0.555685 0.456623
O O3 0.247648 0.507736 0.629679
O O4 0.335321 0.454663 0.516466
O O5 0.901061 0.750000 0.272767
O O6 0.904825 0.513977 0.392286
O O7 0.962145 0.481228 0.232935
O O8 0.835538 0.480799 0.246928
O O9 0.156075 0.750000 0.351764
O O10 0.113274 0.025228 0.427742
O O11 0.210139 0.026491 0.295698
O O12 0.578998 0.750000 0.991665
O O13 0.500000 0.500000 0.000000
O O14 0.500512 0.250000 0.641636
O O15 0.554252 0.991336 0.562573
O O16 0.439116 0.974075 0.609468
O O17 0.735357 0.250000 0.761666
O O18 0.387447 0.750000 0.503425
#
# Coordination Sequence:
#
# PCOD9463653 Si02
#       7
#     8   8   8   8   8   8   8
#     4  11  21  35  58  86 116 149 190 239 290 354
#     4  10  19  37  62  84 112 153 200 245 297 364
#     4  10  21  40  62  85 116 155 199 249 302 356
#     4  11  24  40  61  87 119 157 201 250 303 361
#     4   9  19  35  57  82 111 153 198 239 290 352
#     4   9  19  36  60  85 112 151 195 238 296 362
#     4  10  20  35  55  82 119 154 191 241 294 347
#
# _framework density 22.457747000000001
#
# number of rings (size 3 to 8) (size 9 to 14) (size 15 to 20)
#    0.000    2.000    1.429    2.143    0.000    5.143 
#    0.000    6.429    0.000    0.000    0.000    0.000 
#    0.000    0.000    0.000    0.000    0.000    0.000 
#
# Total GULP energy -312800.495338 kJ/mol
# GULP energy per Si atom -5585.723131 kJ/mol
# Density = 2.240663 g / cm^3
# Si number density = 22.457747 Si / 1000 Ang^3
#
#
#
# Elastic Constant Matrix: (Units=GPa)
#
#
# Indices 1 2 3 4 5 6 
#
# 1 86.8556 -7.5590 -15.6491 0.0000 0.0000 0.0000
# 2 -7.5590 35.0399 -7.0776 0.0000 0.0000 0.0000
# 3 -15.6491 -7.0776 31.6451 0.0000 0.0000 0.0000
# 4 0.0000 0.0000 0.0000 19.2834 0.0000 0.0000
# 5 0.0000 0.0000 0.0000 0.0000 38.5624 0.0000
# 6 0.0000 0.0000 0.0000 0.0000 0.0000 2.6413
#
#
#
# Elastic Compliance Matrix: (Units=1/GPa)
#
#
# Indices 1 2 3 4 5 6 
#
# 1 0.013252 0.004380 0.007533 0.000000 0.000000 0.000000
# 2 0.004380 0.031337 0.009175 0.000000 0.000000 0.000000
# 3 0.007533 0.009175 0.037378 0.000000 0.000000 0.000000
# 4 0.000000 0.000000 0.000000 0.051858 0.000000 0.000000
# 5 0.000000 0.000000 0.000000 0.000000 0.025932 0.000000
# 6 0.000000 0.000000 0.000000 0.000000 0.000000 0.378601
#
#
# Mechanical properties :
#
#
# Convention : Reuss Voigt Hill
#
# Bulk Modulus (GPa) = 8.05524 10.32991 9.19258
# Shear Modulus (GPa) = 9.30125 24.35249 16.82687
#
# Velocity S-wave (km/s) = 2.03732 3.29655 2.74025
# Velocity P-wave (km/s) = 3.02140 4.37028 3.75687
#
# Compressibility (1/GPa) = 0.12414274
#
# Stress axis : x y z
#
# Youngs Moduli (GPa) = 75.46132 31.91112 26.75396
#
# Poissons Ratio (x) = -0.13978 -0.20154
# Poissons Ratio (y) = -0.33054 -0.24546
# Poissons Ratio (z) = -0.56845 -0.29278
#
# Static dielectric constant tensor:
#      x y z
#    x 1.828800 0.000000 0.000000 
#    y 0.000000 1.849060 0.000000 
#    z 0.000000 0.000000 1.821340 
# 
# From -- ./inp_files/20248.got.cif
#   From: 2010.05.17/outbox.cif.g08.bks.cpg/sg62_11_cif.got.tgz:20248.got - 2010.06.03 15:25:27.
