data_PCOD9463987
_publ_section_title
;
Structure prediction by ZEFSAII (Michael W. Deem and Ramdas Pophale) SiO2 
 PCOD9463987
Probable space group: P N M A
;
_chemical_formula_sum "Si O2"
_cell_formula_units_Z 56
_cell_length_a 21.265986
_cell_length_b 7.802418
_cell_length_c 16.171178
_cell_angle_alpha 90.000000
_cell_angle_beta 90.000000
_cell_angle_gamma 90.000000
_cell_volume 2683.220691
_symmetry_space_group_name_H-M "P N M A"
_symmetry_group_IT_number 62
_symmetry_cell_setting 'orthorhombic'
loop_
_space_group_symop_operation_xyz
x,y,z
1/2-x,-y,1/2+z
1/2+x,1/2-y,1/2-z
-x,1/2+y,-z
-x,-y,-z
1/2+x,y,1/2-z
1/2-x,1/2+y,1/2+z
x,1/2-y,z
loop_
_atom_site_type_symbol
_atom_site_label
_atom_site_fract_x
_atom_site_fract_y
_atom_site_fract_z
Si Si1 0.020098 0.053719 0.703100
Si Si2 0.713737 0.547574 0.629248
Si Si3 0.335757 0.544082 0.191685
Si Si4 0.088820 0.043200 0.970149
Si Si5 0.440925 0.044945 0.943749
Si Si6 0.031416 0.056025 0.129184
Si Si7 0.692495 0.051125 0.990082
O O1 0.027786 0.250000 0.674701
O O2 0.091241 0.979651 0.701545
O O3 0.966404 0.978812 0.644137
O O4 0.990040 0.051580 0.793198
O O5 0.724274 0.750000 0.636031
O O6 0.703091 0.488564 0.724040
O O7 0.649818 0.508320 0.579965
O O8 0.766688 0.474928 0.566115
O O9 0.339473 0.750000 0.184585
O O10 0.307133 0.478878 0.104179
O O11 0.080290 0.250000 0.964502
O O12 0.086806 0.998489 0.067605
O O13 0.030476 0.948907 0.928069
O O14 0.428904 0.250000 0.942623
O O15 0.379236 0.958835 0.979945
O O16 0.500000 0.000000 0.000000
O O17 0.043842 0.250000 0.156643
O O18 0.712451 0.250000 0.982520
#
# Coordination Sequence:
#
# PCOD9463987 Si02
#       7
#     8   8   8   8   8   8   8
#     4  10  20  35  58  86 116 150 189 234 291 355
#     4  11  23  39  62  89 118 156 202 250 294 351
#     4  10  20  39  64  85 115 156 195 238 294 357
#     4  10  20  35  55  81 116 154 191 239 292 348
#     4  11  22  38  62  90 118 151 192 243 300 355
#     4  10  20  33  54  84 115 150 195 241 289 341
#     4  10  23  44  63  85 120 157 197 249 303 353
#
# _framework density 20.870441
#
# number of rings (size 3 to 8) (size 9 to 14) (size 15 to 20)
#    0.000    1.714    2.857    1.714    0.000    4.571 
#    2.571    0.000    0.000    0.000    0.000    0.000 
#    0.000    0.000    0.000    0.000    0.000    0.000 
#
# Total GULP energy -312024.430269 kJ/mol
# GULP energy per Si atom -5571.864826 kJ/mol
# Density = 2.082294 g / cm^3
# Si number density = 20.870441 Si / 1000 Ang^3
#
#
#
# Elastic Constant Matrix: (Units=GPa)
#
#
# Indices 1 2 3 4 5 6 
#
# 1 61.8616 -15.0001 60.9125 0.0000 0.0000 0.0000
# 2 -15.0001 23.9985 5.1254 0.0000 0.0000 0.0000
# 3 60.9125 5.1254 172.5177 0.0000 0.0000 0.0000
# 4 0.0000 0.0000 0.0000 22.2601 0.0000 0.0000
# 5 0.0000 0.0000 0.0000 0.0000 30.2535 0.0000
# 6 0.0000 0.0000 0.0000 0.0000 0.0000 14.4274
#
#
#
# Elastic Compliance Matrix: (Units=1/GPa)
#
#
# Indices 1 2 3 4 5 6 
#
# 1 0.035082 0.024730 -0.013121 0.000000 0.000000 0.000000
# 2 0.024730 0.059368 -0.010495 0.000000 0.000000 0.000000
# 3 -0.013121 -0.010495 0.010741 0.000000 0.000000 0.000000
# 4 0.000000 0.000000 0.000000 0.044923 0.000000 0.000000
# 5 0.000000 0.000000 0.000000 0.000000 0.033054 0.000000
# 6 0.000000 0.000000 0.000000 0.000000 0.000000 0.069313
#
#
# Mechanical properties :
#
#
# Convention : Reuss Voigt Hill
#
# Bulk Modulus (GPa) = 9.30947 40.05037 24.67992
# Shear Modulus (GPa) = 17.47881 27.21086 22.34484
#
# Velocity S-wave (km/s) = 2.89708 3.61473 3.27562
# Velocity P-wave (km/s) = 3.95741 6.05420 5.11441
#
# Compressibility (1/GPa) = 0.10741752
#
# Stress axis : x y z
#
# Youngs Moduli (GPa) = 28.50490 16.84402 93.09938
#
# Poissons Ratio (x) = -0.41655 1.22159
# Poissons Ratio (y) = -0.70493 0.97712
# Poissons Ratio (z) = 0.37402 0.17679
#
# Static dielectric constant tensor:
#      x y z
#    x 1.733020 0.000000 0.000000 
#    y 0.000000 1.818930 0.000000 
#    z 0.000000 0.000000 1.635850 
# 
# From -- ./inp_files/20287.got.cif
#   From: 2010.05.17/outbox.cif.g08.bks.cpg/sg62_11_cif.got.tgz:20287.got - 2010.06.03 15:25:27.
