data_PCOD9463944
_publ_section_title
;
Structure prediction by ZEFSAII (Michael W. Deem and Ramdas Pophale) SiO2 
 PCOD9463944
Probable space group: P N M A
;
_chemical_formula_sum "Si O2"
_cell_formula_units_Z 64
_cell_length_a 21.947335
_cell_length_b 15.030463
_cell_length_c 9.090086
_cell_angle_alpha 90.000000
_cell_angle_beta 90.000000
_cell_angle_gamma 90.000000
_cell_volume 2998.624904
_symmetry_space_group_name_H-M "P N M A"
_symmetry_group_IT_number 62
_symmetry_cell_setting 'orthorhombic'
loop_
_space_group_symop_operation_xyz
x,y,z
1/2-x,-y,1/2+z
1/2+x,1/2-y,1/2-z
-x,1/2+y,-z
-x,-y,-z
1/2+x,y,1/2-z
1/2-x,1/2+y,1/2+z
x,1/2-y,z
loop_
_atom_site_type_symbol
_atom_site_label
_atom_site_fract_x
_atom_site_fract_y
_atom_site_fract_z
Si Si1 0.956623 0.891531 0.593777
Si Si2 0.950761 0.649198 0.925176
Si Si3 0.803815 0.354268 0.581319
Si Si4 0.828798 0.859153 0.070777
Si Si5 0.564135 0.903712 0.108755
Si Si6 0.925838 0.145447 0.946200
Si Si7 0.664270 0.357327 0.910071
Si Si8 0.205602 0.645317 0.062099
O O1 0.951876 0.846522 0.750708
O O2 0.895915 0.878813 0.499086
O O3 0.015250 0.861373 0.501198
O O4 0.959513 0.996322 0.629042
O O5 0.950795 0.750000 0.987792
O O6 0.886483 0.609717 0.976847
O O7 0.013533 0.606316 0.981120
O O8 0.811753 0.250000 0.542672
O O9 0.738928 0.387631 0.520226
O O10 0.867161 0.402040 0.545448
O O11 0.795987 0.357902 0.759190
O O12 0.825810 0.750000 0.066519
O O13 0.839745 0.886165 0.240076
O O14 0.566930 0.860293 0.269722
O O15 0.923332 0.250000 0.986837
O O16 0.859373 0.106577 0.987983
O O17 0.669284 0.250000 0.905939
O O18 0.728023 0.391339 0.979952
O O19 0.205093 0.750000 0.020912
#
# Coordination Sequence:
#
# PCOD9463944 Si02
#       8
#     8   8   8   8   8   8   8   8
#     4  11  23  34  45  69 106 137 162 201 246 289
#     4  10  20  33  51  77 104 128 160 202 248 297
#     4   8  14  29  54  76  92 117 162 212 245 280
#     4   8  15  30  53  78  98 120 158 207 250 288
#     4  10  21  36  51  69  97 134 172 204 240 287
#     4   9  17  33  58  79  94 123 169 210 244 291
#     4   9  16  30  53  74  95 127 163 198 241 293
#     4   7  12  25  49  78  96 112 152 206 244 275
#
# _framework density 21.343116999999999
#
# number of rings (size 3 to 8) (size 9 to 14) (size 15 to 20)
#    0.000    3.000    0.000    3.750    0.000    3.500 
#    0.000    5.000    0.000    7.500    0.000    0.000 
#    0.000    0.000    0.000    0.000    0.000    0.000 
#
# Total GULP energy -356631.657490 kJ/mol
# GULP energy per Si atom -5572.369648 kJ/mol
# Density = 2.129454 g / cm^3
# Si number density = 21.343117 Si / 1000 Ang^3
#
#
#
# Elastic Constant Matrix: (Units=GPa)
#
#
# Indices 1 2 3 4 5 6 
#
# 1 219.7428 -10.4863 66.6661 0.0000 0.0000 0.0000
# 2 -10.4863 17.2754 -8.0264 0.0000 0.0000 0.0000
# 3 66.6661 -8.0264 49.7899 0.0000 0.0000 0.0000
# 4 0.0000 0.0000 0.0000 48.8439 0.0000 0.0000
# 5 0.0000 0.0000 0.0000 0.0000 -43.8039 0.0000
# 6 0.0000 0.0000 0.0000 0.0000 0.0000 -38.7307
#
#
#
# Elastic Compliance Matrix: (Units=1/GPa)
#
#
# Indices 1 2 3 4 5 6 
#
# 1 0.007664 -0.000125 -0.010282 0.000000 0.000000 0.000000
# 2 -0.000125 0.062574 0.010255 0.000000 0.000000 0.000000
# 3 -0.010282 0.010255 0.035505 0.000000 0.000000 0.000000
# 4 0.000000 0.000000 0.000000 0.020473 0.000000 0.000000
# 5 0.000000 0.000000 0.000000 0.000000 -0.022829 0.000000
# 6 0.000000 0.000000 0.000000 0.000000 0.000000 -0.025819
#
#
# Mechanical properties :
#
#
# Convention : Reuss Voigt Hill
#
# Bulk Modulus (GPa) = 9.48422 42.56833 26.02627
# Shear Modulus (GPa) = 44.24022 9.17219 26.70621
#
# Velocity S-wave (km/s) = 4.55775 2.07529 3.54118
# Velocity P-wave (km/s) = 5.67017 5.07252 5.37965
#
# Compressibility (1/GPa) = 0.10543834
#
# Stress axis : x y z
#
# Youngs Moduli (GPa) = 130.47614 15.98102 28.16522
#
# Poissons Ratio (x) = 0.00200 0.28960
# Poissons Ratio (y) = 0.01631 -0.28883
# Poissons Ratio (z) = 1.34158 -0.16388
#
# Static dielectric constant tensor:
#      x y z
#    x 1.842710 0.000000 0.000000 
#    y 0.000000 1.798810 0.000000 
#    z 0.000000 0.000000 1.714410 
# 
# From -- ./inp_files/8913.got.cif
#   From: 2010.05.17/outbox.cif.g08.bks.cpg/sg62_5_cif.got.tgz:8913.got - 2010.06.03 15:25:27.
