data_PCOD9463721
_publ_section_title
;
Structure prediction by ZEFSAII (Michael W. Deem and Ramdas Pophale) SiO2 
 PCOD9463721
Probable space group: P N M A
;
_chemical_formula_sum "Si O2"
_cell_formula_units_Z 48
_cell_length_a 11.211059
_cell_length_b 12.195905
_cell_length_c 18.082956
_cell_angle_alpha 90.000000
_cell_angle_beta 90.000000
_cell_angle_gamma 90.000000
_cell_volume 2472.464681
_symmetry_space_group_name_H-M "P N M A"
_symmetry_group_IT_number 62
_symmetry_cell_setting 'orthorhombic'
loop_
_space_group_symop_operation_xyz
x,y,z
1/2-x,-y,1/2+z
1/2+x,1/2-y,1/2-z
-x,1/2+y,-z
-x,-y,-z
1/2+x,y,1/2-z
1/2-x,1/2+y,1/2+z
x,1/2-y,z
loop_
_atom_site_type_symbol
_atom_site_label
_atom_site_fract_x
_atom_site_fract_y
_atom_site_fract_z
Si Si1 0.807298 0.123763 0.669104
Si Si2 0.680777 0.620738 0.498538
Si Si3 0.403915 0.469970 0.365206
Si Si4 0.804868 0.250000 0.213335
Si Si5 0.571437 0.457250 0.070228
Si Si6 0.886093 0.378785 0.832072
Si Si7 0.522407 0.250000 0.169896
O O1 0.818679 0.250000 0.649631
O O2 0.809380 0.113428 0.757798
O O3 0.687205 0.070693 0.639423
O O4 0.909689 0.054127 0.629396
O O5 0.670238 0.750000 0.509085
O O6 0.580523 0.564618 0.549596
O O7 0.802984 0.580852 0.535252
O O8 0.676345 0.602040 0.410980
O O9 0.344960 0.362853 0.327377
O O10 0.519370 0.522104 0.327702
O O11 0.656120 0.250000 0.212344
O O12 0.899689 0.250000 0.282239
O O13 0.521610 0.355578 0.116635
O O14 0.500000 0.500000 0.000000
O O15 0.931355 0.250000 0.833471
#
# Coordination Sequence:
#
# PCOD9463721 Si02
#       7
#     8   8   8   4   8   8   4
#     4  10  22  39  60  89 127 162 217 278 331 392
#     4  10  19  39  62  86 125 166 215 264 345 396
#     4  11  20  39  60  88 129 166 211 273 334 393
#     4  12  24  42  76  96 141 181 221 291 342 410
#     4  11  23  42  67  92 134 178 223 286 338 413
#     4  10  22  36  61  92 118 164 217 265 334 409
#     4  12  24  48  70 108 135 183 235 283 356 410
#
# _framework density 19.413824999999999
#
# number of rings (size 3 to 8) (size 9 to 14) (size 15 to 20)
#    0.000    1.333    5.000    2.000    1.167    2.667 
#    0.000    3.333    1.833    0.000    0.000    0.000 
#    0.000    0.000    0.000    0.000    0.000    0.000 
#
# Total GULP energy -267313.281882 kJ/mol
# GULP energy per Si atom -5569.026706 kJ/mol
# Density = 1.936964 g / cm^3
# Si number density = 19.413825 Si / 1000 Ang^3
#
#
#
# Elastic Constant Matrix: (Units=GPa)
#
#
# Indices 1 2 3 4 5 6 
#
# 1 28.0502 14.3975 8.0901 0.0000 0.0000 0.0000
# 2 14.3975 117.5850 56.8623 0.0000 0.0000 0.0000
# 3 8.0901 56.8623 67.2022 0.0000 0.0000 0.0000
# 4 0.0000 0.0000 0.0000 22.6264 0.0000 0.0000
# 5 0.0000 0.0000 0.0000 0.0000 13.8648 0.0000
# 6 0.0000 0.0000 0.0000 0.0000 0.0000 23.5740
#
#
#
# Elastic Compliance Matrix: (Units=1/GPa)
#
#
# Indices 1 2 3 4 5 6 
#
# 1 0.038088 -0.004140 -0.001082 0.000000 0.000000 0.000000
# 2 -0.004140 0.014844 -0.012062 0.000000 0.000000 0.000000
# 3 -0.001082 -0.012062 0.025217 0.000000 0.000000 0.000000
# 4 0.000000 0.000000 0.000000 0.044196 0.000000 0.000000
# 5 0.000000 0.000000 0.000000 0.000000 0.072125 0.000000
# 6 0.000000 0.000000 0.000000 0.000000 0.000000 0.042420
#
#
# Mechanical properties :
#
#
# Convention : Reuss Voigt Hill
#
# Bulk Modulus (GPa) = 22.94612 41.28192 32.11402
# Shear Modulus (GPa) = 17.48345 20.91220 19.19783
#
# Velocity S-wave (km/s) = 3.00420 3.28560 3.14805
# Velocity P-wave (km/s) = 4.88659 5.97528 5.45815
#
# Compressibility (1/GPa) = 0.04358036
#
# Stress axis : x y z
#
# Youngs Moduli (GPa) = 26.25530 67.36533 39.65616
#
# Poissons Ratio (x) = 0.27892 0.04290
# Poissons Ratio (y) = 0.10871 0.47833
# Poissons Ratio (z) = 0.02840 0.81256
#
# Static dielectric constant tensor:
#      x y z
#    x 1.759060 0.000000 0.000000 
#    y 0.000000 1.666450 0.000000 
#    z 0.000000 0.000000 1.702830 
# 
# From -- ./inp_files/23059.got.cif
#   From: 2010.05.17/outbox.cif.g08.bks.cpg/sg62_12_cif.got.tgz:23059.got - 2010.06.03 15:25:27.
