data_PCOD9463109
_publ_section_title
;
Structure prediction by ZEFSAII (Michael W. Deem and Ramdas Pophale) SiO2 
 PCOD9463109
Probable space group: P N M A
;
_chemical_formula_sum "Si O2"
_cell_formula_units_Z 48
_cell_length_a 16.352892
_cell_length_b 26.086507
_cell_length_c 5.069570
_cell_angle_alpha 90.000000
_cell_angle_beta 90.000000
_cell_angle_gamma 90.000000
_cell_volume 2162.627013
_symmetry_space_group_name_H-M "P N M A"
_symmetry_group_IT_number 62
_symmetry_cell_setting 'orthorhombic'
loop_
_space_group_symop_operation_xyz
x,y,z
1/2-x,-y,1/2+z
1/2+x,1/2-y,1/2-z
-x,1/2+y,-z
-x,-y,-z
1/2+x,y,1/2-z
1/2-x,1/2+y,1/2+z
x,1/2-y,z
loop_
_atom_site_type_symbol
_atom_site_label
_atom_site_fract_x
_atom_site_fract_y
_atom_site_fract_z
Si Si1 0.195695 0.690548 0.726426
Si Si2 0.338984 0.629063 0.861428
Si Si3 0.717730 0.430455 0.635109
Si Si4 0.136608 0.628604 0.221342
Si Si5 0.499876 0.911433 0.966167
Si Si6 0.924548 0.002741 0.208297
O O1 0.175100 0.750000 0.742484
O O2 0.291482 0.680831 0.794342
O O3 0.172527 0.667227 0.443475
O O4 0.150394 0.656278 0.945922
O O5 0.295728 0.589253 0.661410
O O6 0.323896 0.610696 0.161845
O O7 0.435661 0.624343 0.818366
O O8 0.810649 0.423889 0.734050
O O9 0.666614 0.483044 0.644460
O O10 0.043816 0.616768 0.295153
O O11 0.449583 0.960831 0.069793
O O12 0.570379 0.938584 0.796367
O O13 0.000000 0.000000 0.000000
#
# Coordination Sequence:
#
# PCOD9463109 Si02
#       6
#     8   8   8   8   8   8
#     4  10  21  40  61  81 107 146 183 231 293 355
#     4   9  18  34  58  76 108 141 185 220 277 336
#     4   9  18  35  51  80 110 151 182 222 271 324
#     4  10  22  37  59  85 116 144 185 239 289 336
#     4  10  21  35  54  86 112 153 187 235 280 317
#     4  10  19  34  55  75 117 155 195 224 260 333
#
# _framework density 22.195228
#
# number of rings (size 3 to 8) (size 9 to 14) (size 15 to 20)
#    0.000    2.333    1.667    0.500    2.333    0.000 
#    3.000    1.667    0.000    0.000    0.000    0.000 
#    0.000    0.000    0.000    0.000    0.000    0.000 
#
# Total GULP energy -267684.070471 kJ/mol
# GULP energy per Si atom -5576.751468 kJ/mol
# Density = 2.214471 g / cm^3
# Si number density = 22.195228 Si / 1000 Ang^3
#
#
#
# Elastic Constant Matrix: (Units=GPa)
#
#
# Indices 1 2 3 4 5 6 
#
# 1 46.2120 26.3803 -4.8287 0.0000 0.0000 0.0000
# 2 26.3803 80.3432 29.1056 0.0000 0.0000 0.0000
# 3 -4.8287 29.1056 83.6750 0.0000 0.0000 0.0000
# 4 0.0000 0.0000 0.0000 20.7486 0.0000 0.0000
# 5 0.0000 0.0000 0.0000 0.0000 28.1189 0.0000
# 6 0.0000 0.0000 0.0000 0.0000 0.0000 24.1254
#
#
#
# Elastic Compliance Matrix: (Units=1/GPa)
#
#
# Indices 1 2 3 4 5 6 
#
# 1 0.028801 -0.011509 0.005665 0.000000 0.000000 0.000000
# 2 -0.011509 0.018840 -0.007218 0.000000 0.000000 0.000000
# 3 0.005665 -0.007218 0.014789 0.000000 0.000000 0.000000
# 4 0.000000 0.000000 0.000000 0.048196 0.000000 0.000000
# 5 0.000000 0.000000 0.000000 0.000000 0.035563 0.000000
# 6 0.000000 0.000000 0.000000 0.000000 0.000000 0.041450
#
#
# Mechanical properties :
#
#
# Convention : Reuss Voigt Hill
#
# Bulk Modulus (GPa) = 27.54252 34.61608 31.07930
# Shear Modulus (GPa) = 22.13714 25.23678 23.68696
#
# Velocity S-wave (km/s) = 3.16156 3.37566 3.27036
# Velocity P-wave (km/s) = 5.07577 5.55189 5.31916
#
# Compressibility (1/GPa) = 0.03630750
#
# Stress axis : x y z
#
# Youngs Moduli (GPa) = 34.72051 53.07781 67.62006
#
# Poissons Ratio (x) = 0.61088 -0.38310
# Poissons Ratio (y) = 0.39960 0.48805
# Poissons Ratio (z) = -0.19671 0.38309
#
# Static dielectric constant tensor:
#      x y z
#    x 1.940420 0.000000 0.000000 
#    y 0.000000 1.785570 0.000000 
#    z 0.000000 0.000000 1.895740 
# 
# From -- ./inp_files/1233.got.cif
#   From: 2010.05.17/outbox.cif.g08.bks.cpg/sg62_1_cif.got.tgz:1233.got - 2010.06.03 15:25:27.
