data_PCOD9463863
_publ_section_title
;
Structure prediction by ZEFSAII (Michael W. Deem and Ramdas Pophale) SiO2 
 PCOD9463863
Probable space group: P N M A
;
_chemical_formula_sum "Si O2"
_cell_formula_units_Z 64
_cell_length_a 9.117292
_cell_length_b 14.905549
_cell_length_c 26.021903
_cell_angle_alpha 90.000000
_cell_angle_beta 90.000000
_cell_angle_gamma 90.000000
_cell_volume 3536.330888
_symmetry_space_group_name_H-M "P N M A"
_symmetry_group_IT_number 62
_symmetry_cell_setting 'orthorhombic'
loop_
_space_group_symop_operation_xyz
x,y,z
1/2-x,-y,1/2+z
1/2+x,1/2-y,1/2-z
-x,1/2+y,-z
-x,-y,-z
1/2+x,y,1/2-z
1/2-x,1/2+y,1/2+z
x,1/2-y,z
loop_
_atom_site_type_symbol
_atom_site_label
_atom_site_fract_x
_atom_site_fract_y
_atom_site_fract_z
Si Si1 0.463774 0.650561 0.413789
Si Si2 0.697653 0.145977 0.897070
Si Si3 0.869540 0.649033 0.203535
Si Si4 0.834082 0.526244 0.008588
Si Si5 0.887477 0.028977 0.742569
Si Si6 0.171620 0.647022 0.575965
Si Si7 0.918900 0.904551 0.505042
Si Si8 0.149064 0.977283 0.675100
O O1 0.464221 0.750000 0.437220
O O2 0.634524 0.620849 0.412904
O O3 0.414912 0.654825 0.355331
O O4 0.345400 0.591706 0.443150
O O5 0.698769 0.250000 0.879476
O O6 0.648993 0.073994 0.854515
O O7 0.599329 0.137950 0.948591
O O8 0.842234 0.750000 0.223286
O O9 0.004546 0.601311 0.231615
O O10 0.729770 0.585527 0.210126
O O11 0.741859 0.437376 0.020950
O O12 0.770682 0.583021 0.960660
O O13 0.000000 0.500000 0.000000
O O14 0.998313 0.970632 0.707718
O O15 0.788698 0.979482 0.786057
O O16 0.223465 0.750000 0.579538
O O17 0.160668 0.597844 0.630940
O O18 0.014086 0.647291 0.546663
O O19 0.000000 0.000000 0.500000
#
# Coordination Sequence:
#
# PCOD9463863 Si02
#       8
#     8   8   8   8   8   8   8   8
#     4  10  20  32  51  84 121 154 190 232 285 348
#     4  11  20  35  58  86 126 164 190 229 291 356
#     4  10  20  34  53  81 115 152 193 235 287 353
#     4  11  20  36  61  88 122 157 192 236 288 351
#     4  10  23  36  58  79 113 148 197 251 295 344
#     4  11  24  42  64  88 120 156 200 247 295 350
#     4  10  20  36  58  88 120 159 197 237 285 350
#     4  11  22  43  59  86 110 154 196 247 304 346
#
# _framework density 18.097854000000002
#
# number of rings (size 3 to 8) (size 9 to 14) (size 15 to 20)
#    0.000    1.500    5.000    1.125    1.750    2.500 
#    0.000    3.125    0.000    0.000    0.000    0.000 
#    0.000    0.000    0.000    0.000    0.000    0.000 
#
# Total GULP energy -356745.445894 kJ/mol
# GULP energy per Si atom -5574.147592 kJ/mol
# Density = 1.805666 g / cm^3
# Si number density = 18.097854 Si / 1000 Ang^3
#
#
#
# Elastic Constant Matrix: (Units=GPa)
#
#
# Indices 1 2 3 4 5 6 
#
# 1 98.1409 21.9883 34.8768 0.0000 0.0000 0.0000
# 2 21.9883 72.0552 32.3720 0.0000 0.0000 0.0000
# 3 34.8768 32.3720 91.7512 0.0000 0.0000 0.0000
# 4 0.0000 0.0000 0.0000 10.5299 0.0000 0.0000
# 5 0.0000 0.0000 0.0000 0.0000 27.6611 0.0000
# 6 0.0000 0.0000 0.0000 0.0000 0.0000 8.4785
#
#
#
# Elastic Compliance Matrix: (Units=1/GPa)
#
#
# Indices 1 2 3 4 5 6 
#
# 1 0.011999 -0.001916 -0.003885 0.000000 0.000000 0.000000
# 2 -0.001916 0.016799 -0.005198 0.000000 0.000000 0.000000
# 3 -0.003885 -0.005198 0.014210 0.000000 0.000000 0.000000
# 4 0.000000 0.000000 0.000000 0.094968 0.000000 0.000000
# 5 0.000000 0.000000 0.000000 0.000000 0.036152 0.000000
# 6 0.000000 0.000000 0.000000 0.000000 0.000000 0.117945
#
#
# Mechanical properties :
#
#
# Convention : Reuss Voigt Hill
#
# Bulk Modulus (GPa) = 47.60056 48.93571 48.26813
# Shear Modulus (GPa) = 15.57264 20.84791 18.21028
#
# Velocity S-wave (km/s) = 2.93656 3.39773 3.17553
# Velocity P-wave (km/s) = 6.15278 6.51851 6.33828
#
# Compressibility (1/GPa) = 0.02100816
#
# Stress axis : x y z
#
# Youngs Moduli (GPa) = 83.33703 59.52901 70.37276
#
# Poissons Ratio (x) = 0.11407 0.27341
# Poissons Ratio (y) = 0.15970 0.36583
# Poissons Ratio (z) = 0.32378 0.30946
#
# Static dielectric constant tensor:
#      x y z
#    x 1.586530 0.000000 0.000000 
#    y 0.000000 1.755810 0.000000 
#    z 0.000000 0.000000 1.644180 
# 
# From -- ./inp_files/28994.got.cif
#   From: 2010.05.17/outbox.cif.g08.bks.cpg/sg62_15_cif.got.tgz:28994.got - 2010.06.03 15:25:27.
