data_PCOD9463655
_publ_section_title
;
Structure prediction by ZEFSAII (Michael W. Deem and Ramdas Pophale) SiO2 
 PCOD9463655
Probable space group: P N M A
;
_chemical_formula_sum "Si O2"
_cell_formula_units_Z 56
_cell_length_a 14.033580
_cell_length_b 9.259156
_cell_length_c 19.123349
_cell_angle_alpha 90.000000
_cell_angle_beta 90.000000
_cell_angle_gamma 90.000000
_cell_volume 2484.870882
_symmetry_space_group_name_H-M "P N M A"
_symmetry_group_IT_number 62
_symmetry_cell_setting 'orthorhombic'
loop_
_space_group_symop_operation_xyz
x,y,z
1/2-x,-y,1/2+z
1/2+x,1/2-y,1/2-z
-x,1/2+y,-z
-x,-y,-z
1/2+x,y,1/2-z
1/2-x,1/2+y,1/2+z
x,1/2-y,z
loop_
_atom_site_type_symbol
_atom_site_label
_atom_site_fract_x
_atom_site_fract_y
_atom_site_fract_z
Si Si1 0.722138 0.415050 0.144997
Si Si2 0.760290 0.083406 0.509235
Si Si3 0.055938 0.418313 0.705847
Si Si4 0.955057 0.417625 0.434728
Si Si5 0.452301 0.416758 0.347930
Si Si6 0.102199 0.918986 0.072870
Si Si7 0.285076 0.086904 0.718974
O O1 0.692330 0.250000 0.135172
O O2 0.838044 0.419003 0.145924
O O3 0.689555 0.477220 0.219317
O O4 0.696542 0.514238 0.079400
O O5 0.734249 0.250000 0.521663
O O6 0.841489 0.078219 0.449860
O O7 0.670488 0.991592 0.483760
O O8 0.028369 0.250000 0.704660
O O9 0.022460 0.503433 0.637600
O O10 0.024926 0.495233 0.777242
O O11 0.171637 0.424478 0.705661
O O12 0.983394 0.250000 0.433684
O O13 0.000000 0.500000 0.500000
O O14 0.483025 0.250000 0.343140
O O15 0.505583 0.494967 0.411541
O O16 0.086085 0.750000 0.057796
O O17 0.160257 0.931238 0.146316
O O18 0.303003 0.250000 0.744694
#
# Coordination Sequence:
#
# PCOD9463655 Si02
#       7
#     8   8   8   8   8   8   8
#     4  10  22  39  61  87 120 160 203 250 301 357
#     4  11  24  41  62  88 121 160 202 250 306 364
#     4  10  19  37  62  86 115 152 194 245 300 356
#     4  11  24  40  61  89 121 159 200 249 305 366
#     4  10  22  39  59  89 122 157 202 251 299 354
#     4  11  22  38  62  91 121 159 204 249 303 365
#     4   9  19  36  60  86 114 151 196 246 299 357
#
# _framework density 22.536380999999999
#
# number of rings (size 3 to 8) (size 9 to 14) (size 15 to 20)
#    0.000    1.714    1.429    2.571    0.000    6.857 
#    0.000    1.429    0.000    0.000    0.000    0.000 
#    0.000    0.000    0.000    0.000    0.000    0.000 
#
# Total GULP energy -313567.940034 kJ/mol
# GULP energy per Si atom -5599.427501 kJ/mol
# Density = 2.248509 g / cm^3
# Si number density = 22.536381 Si / 1000 Ang^3
#
#
#
# Elastic Constant Matrix: (Units=GPa)
#
#
# Indices 1 2 3 4 5 6 
#
# 1 72.3817 20.7263 6.7955 0.0000 0.0000 0.0000
# 2 20.7263 177.5138 62.0345 0.0000 0.0000 0.0000
# 3 6.7955 62.0345 97.2566 0.0000 0.0000 0.0000
# 4 0.0000 0.0000 0.0000 43.1439 0.0000 0.0000
# 5 0.0000 0.0000 0.0000 0.0000 38.2796 0.0000
# 6 0.0000 0.0000 0.0000 0.0000 0.0000 20.6610
#
#
#
# Elastic Compliance Matrix: (Units=1/GPa)
#
#
# Indices 1 2 3 4 5 6 
#
# 1 0.014294 -0.001699 0.000085 0.000000 0.000000 0.000000
# 2 -0.001699 0.007451 -0.004634 0.000000 0.000000 0.000000
# 3 0.000085 -0.004634 0.013232 0.000000 0.000000 0.000000
# 4 0.000000 0.000000 0.000000 0.023178 0.000000 0.000000
# 5 0.000000 0.000000 0.000000 0.000000 0.026124 0.000000
# 6 0.000000 0.000000 0.000000 0.000000 0.000000 0.048400
#
#
# Mechanical properties :
#
#
# Convention : Reuss Voigt Hill
#
# Bulk Modulus (GPa) = 44.48128 58.47388 51.47758
# Shear Modulus (GPa) = 32.75064 37.58994 35.17029
#
# Velocity S-wave (km/s) = 3.81627 4.08851 3.95473
# Velocity P-wave (km/s) = 6.26090 6.94914 6.61398
#
# Compressibility (1/GPa) = 0.02248137
#
# Stress axis : x y z
#
# Youngs Moduli (GPa) = 69.95907 134.20878 75.57497
#
# Poissons Ratio (x) = 0.22796 -0.00640
# Poissons Ratio (y) = 0.11883 0.35021
# Poissons Ratio (z) = -0.00592 0.62192
#
# Static dielectric constant tensor:
#      x y z
#    x 1.892810 0.000000 0.000000 
#    y 0.000000 1.766840 0.000000 
#    z 0.000000 0.000000 1.788850 
# 
# From -- ./inp_files/27249.got.cif
#   From: 2010.05.17/outbox.cif.g08.bks.cpg/sg62_14_cif.got.tgz:27249.got - 2010.06.03 15:25:27.
