data_PCOD9463848
_publ_section_title
;
Structure prediction by ZEFSAII (Michael W. Deem and Ramdas Pophale) SiO2 
 PCOD9463848
Probable space group: P N M A
;
_chemical_formula_sum "Si O2"
_cell_formula_units_Z 40
_cell_length_a 26.380945
_cell_length_b 8.735390
_cell_length_c 9.971203
_cell_angle_alpha 90.000000
_cell_angle_beta 90.000000
_cell_angle_gamma 90.000000
_cell_volume 2297.842225
_symmetry_space_group_name_H-M "P N M A"
_symmetry_group_IT_number 62
_symmetry_cell_setting 'orthorhombic'
loop_
_space_group_symop_operation_xyz
x,y,z
1/2-x,-y,1/2+z
1/2+x,1/2-y,1/2-z
-x,1/2+y,-z
-x,-y,-z
1/2+x,y,1/2-z
1/2-x,1/2+y,1/2+z
x,1/2-y,z
loop_
_atom_site_type_symbol
_atom_site_label
_atom_site_fract_x
_atom_site_fract_y
_atom_site_fract_z
Si Si1 0.334168 0.434278 0.496451
Si Si2 0.135857 0.566025 0.290865
Si Si3 0.443887 0.566237 0.994373
Si Si4 0.283218 0.564841 0.992697
Si Si5 0.137153 0.433536 0.717130
O O1 0.334407 0.250000 0.493995
O O2 0.359529 0.482638 0.636226
O O3 0.275123 0.483160 0.495562
O O4 0.360668 0.494734 0.363148
O O5 0.133811 0.750000 0.297099
O O6 0.087889 0.496696 0.368327
O O7 0.185418 0.508915 0.371374
O O8 0.445091 0.750000 0.988230
O O9 0.410977 0.522142 0.125948
O O10 0.500000 0.500000 0.000000
O O11 0.285869 0.750000 0.980283
O O12 0.313289 0.523229 0.128993
O O13 0.137138 0.250000 0.729503
#
# Coordination Sequence:
#
# PCOD9463848 Si02
#       5
#     8   8   8   8   8
#     4  10  20  32  49  76 110 141 172 210 252 298
#     4  10  20  34  52  77 106 137 173 212 252 300
#     4  10  21  39  60  79  98 127 168 214 260 310
#     4   9  18  33  50  73 106 143 179 213 247 293
#     4   9  19  34  52  75 104 134 169 211 255 301
#
# _framework density 17.407634999999999
#
# number of rings (size 3 to 8) (size 9 to 14) (size 15 to 20)
#    0.000    2.400    0.000    3.600    0.000    8.000 
#    0.000    1.000    0.000    0.000    0.000    0.000 
#    0.000    0.000    0.000    0.000    0.000    0.000 
#
# Total GULP energy -223232.932876 kJ/mol
# GULP energy per Si atom -5580.823322 kJ/mol
# Density = 1.736801 g / cm^3
# Si number density = 17.407635 Si / 1000 Ang^3
#
#
#
# Elastic Constant Matrix: (Units=GPa)
#
#
# Indices 1 2 3 4 5 6 
#
# 1 141.0400 38.5164 87.1064 0.0000 0.0000 0.0000
# 2 38.5164 31.3441 43.4448 0.0000 0.0000 0.0000
# 3 87.1064 43.4448 189.4711 0.0000 0.0000 0.0000
# 4 0.0000 0.0000 0.0000 32.0958 0.0000 0.0000
# 5 0.0000 0.0000 0.0000 0.0000 4.9518 0.0000
# 6 0.0000 0.0000 0.0000 0.0000 0.0000 -19.3952
#
#
#
# Elastic Compliance Matrix: (Units=1/GPa)
#
#
# Indices 1 2 3 4 5 6 
#
# 1 0.011777 -0.010213 -0.003072 0.000000 0.000000 0.000000
# 2 -0.010213 0.055625 -0.008059 0.000000 0.000000 0.000000
# 3 -0.003072 -0.008059 0.008538 0.000000 0.000000 0.000000
# 4 0.000000 0.000000 0.000000 0.031157 0.000000 0.000000
# 5 0.000000 0.000000 0.000000 0.000000 0.201945 0.000000
# 6 0.000000 0.000000 0.000000 0.000000 0.000000 -0.051559
#
#
# Mechanical properties :
#
#
# Convention : Reuss Voigt Hill
#
# Bulk Modulus (GPa) = 30.07486 77.77670 53.92578
# Shear Modulus (GPa) = 16.06400 16.38297 16.22349
#
# Velocity S-wave (km/s) = 3.04108 3.07112 3.05614
# Velocity P-wave (km/s) = 5.44474 7.57314 6.59536
#
# Compressibility (1/GPa) = 0.03325036
#
# Stress axis : x y z
#
# Youngs Moduli (GPa) = 84.91296 17.97767 117.11998
#
# Poissons Ratio (x) = 0.18361 0.35984
# Poissons Ratio (y) = 0.86722 0.94389
# Poissons Ratio (z) = 0.26088 0.14488
#
# Static dielectric constant tensor:
#      x y z
#    x 1.570560 0.000000 0.000000 
#    y 0.000000 1.587110 0.000000 
#    z 0.000000 0.000000 1.581690 
# 
# From -- ./inp_files/9083.got.cif
#   From: 2010.05.17/outbox.cif.g08.bks.cpg/sg62_5_cif.got.tgz:9083.got - 2010.06.03 15:25:27.
