data_PCOD9463720
_publ_section_title
;
Structure prediction by ZEFSAII (Michael W. Deem and Ramdas Pophale) SiO2 
 PCOD9463720
Probable space group: P N M A
;
_chemical_formula_sum "Si O2"
_cell_formula_units_Z 64
_cell_length_a 11.201454
_cell_length_b 26.245390
_cell_length_c 9.912524
_cell_angle_alpha 90.000000
_cell_angle_beta 90.000000
_cell_angle_gamma 90.000000
_cell_volume 2914.148522
_symmetry_space_group_name_H-M "P N M A"
_symmetry_group_IT_number 62
_symmetry_cell_setting 'orthorhombic'
loop_
_space_group_symop_operation_xyz
x,y,z
1/2-x,-y,1/2+z
1/2+x,1/2-y,1/2-z
-x,1/2+y,-z
-x,-y,-z
1/2+x,y,1/2-z
1/2-x,1/2+y,1/2+z
x,1/2-y,z
loop_
_atom_site_type_symbol
_atom_site_label
_atom_site_fract_x
_atom_site_fract_y
_atom_site_fract_z
Si Si1 0.951721 0.597897 0.549146
Si Si2 0.199867 0.375444 0.222586
Si Si3 0.932763 0.865637 0.259565
Si Si4 0.369997 0.307778 0.087853
Si Si5 0.327320 0.015737 0.461717
Si Si6 0.646361 0.527533 0.849587
Si Si7 0.187299 0.691117 0.277849
Si Si8 0.465867 0.582997 0.520321
O O1 0.948226 0.597533 0.387917
O O2 0.026226 0.650150 0.581320
O O3 0.016065 0.548785 0.614349
O O4 0.829292 0.608005 0.626912
O O5 0.272356 0.324241 0.198405
O O6 0.280886 0.419085 0.154653
O O7 0.076101 0.379904 0.139157
O O8 0.057356 0.833879 0.247651
O O9 0.808552 0.834726 0.277655
O O10 0.921862 0.895123 0.119988
O O11 0.413168 0.250000 0.106210
O O12 0.306130 0.310822 0.941426
O O13 0.334586 0.005941 0.300997
O O14 0.395610 0.068724 0.484814
O O15 0.201069 0.007962 0.534185
O O16 0.403747 0.971999 0.538451
O O17 0.184461 0.750000 0.235683
#
# Coordination Sequence:
#
# PCOD9463720 Si02
#       8
#     8   8   8   8   8   8   8   8
#     4  10  22  38  58  86 124 153 199 256 316 356
#     4  10  19  39  59  81 115 156 195 245 307 369
#     4  11  23  39  66  92 124 166 207 257 306 376
#     4   9  19  37  61  84 114 159 198 241 307 377
#     4  10  22  38  57  83 117 157 204 260 299 374
#     4  10  22  37  59  83 117 158 201 254 316 360
#     4  10  21  40  64  94 125 162 204 254 310 367
#     4  10  21  38  59  83 115 157 208 243 307 364
#
# _framework density 21.961818000000001
#
# number of rings (size 3 to 8) (size 9 to 14) (size 15 to 20)
#    0.000    2.000    2.500    0.375    3.500    3.000 
#    0.000    1.250    0.000    0.000    0.000    0.000 
#    0.000    0.000    0.000    0.000    0.000    0.000 
#
# Total GULP energy -357100.399756 kJ/mol
# GULP energy per Si atom -5579.693746 kJ/mol
# Density = 2.191183 g / cm^3
# Si number density = 21.961818 Si / 1000 Ang^3
#
#
#
# Elastic Constant Matrix: (Units=GPa)
#
#
# Indices 1 2 3 4 5 6 
#
# 1 84.0276 31.7233 -17.1935 0.0000 0.0000 0.0000
# 2 31.7233 42.8713 4.1039 0.0000 0.0000 0.0000
# 3 -17.1935 4.1039 56.3484 0.0000 0.0000 0.0000
# 4 0.0000 0.0000 0.0000 19.5305 0.0000 0.0000
# 5 0.0000 0.0000 0.0000 0.0000 35.0751 0.0000
# 6 0.0000 0.0000 0.0000 0.0000 0.0000 24.4610
#
#
#
# Elastic Compliance Matrix: (Units=1/GPa)
#
#
# Indices 1 2 3 4 5 6 
#
# 1 0.018783 -0.014549 0.006791 0.000000 0.000000 0.000000
# 2 -0.014549 0.034759 -0.006971 0.000000 0.000000 0.000000
# 3 0.006791 -0.006971 0.020327 0.000000 0.000000 0.000000
# 4 0.000000 0.000000 0.000000 0.051202 0.000000 0.000000
# 5 0.000000 0.000000 0.000000 0.000000 0.028510 0.000000
# 6 0.000000 0.000000 0.000000 0.000000 0.000000 0.040881
#
#
# Mechanical properties :
#
#
# Convention : Reuss Voigt Hill
#
# Bulk Modulus (GPa) = 22.51717 24.50163 23.50940
# Shear Modulus (GPa) = 20.94476 26.78755 23.86615
#
# Velocity S-wave (km/s) = 3.09154 3.49626 3.30011
# Velocity P-wave (km/s) = 4.79777 5.24205 5.02482
#
# Compressibility (1/GPa) = 0.04441055
#
# Stress axis : x y z
#
# Youngs Moduli (GPa) = 53.23933 28.76980 49.19683
#
# Poissons Ratio (x) = 0.41857 -0.33409
# Poissons Ratio (y) = 0.77458 0.34294
# Poissons Ratio (z) = -0.36154 0.20055
#
# Static dielectric constant tensor:
#      x y z
#    x 1.924780 0.000000 0.000000 
#    y 0.000000 1.812340 0.000000 
#    z 0.000000 0.000000 1.781210 
# 
# From -- ./inp_files/5514.got.cif
#   From: 2010.05.17/outbox.cif.g08.bks.cpg/sg62_3_cif.got.tgz:5514.got - 2010.06.03 15:25:27.
