data_PCOD9463208
_publ_section_title
;
Structure prediction by ZEFSAII (Michael W. Deem and Ramdas Pophale) SiO2 
 PCOD9463208
Probable space group: P N M A
;
_chemical_formula_sum "Si O2"
_cell_formula_units_Z 48
_cell_length_a 14.025531
_cell_length_b 17.055670
_cell_length_c 9.750510
_cell_angle_alpha 90.000000
_cell_angle_beta 90.000000
_cell_angle_gamma 90.000000
_cell_volume 2332.466576
_symmetry_space_group_name_H-M "P N M A"
_symmetry_group_IT_number 62
_symmetry_cell_setting 'orthorhombic'
loop_
_space_group_symop_operation_xyz
x,y,z
1/2-x,-y,1/2+z
1/2+x,1/2-y,1/2-z
-x,1/2+y,-z
-x,-y,-z
1/2+x,y,1/2-z
1/2-x,1/2+y,1/2+z
x,1/2-y,z
loop_
_atom_site_type_symbol
_atom_site_label
_atom_site_fract_x
_atom_site_fract_y
_atom_site_fract_z
Si Si1 0.593316 0.045584 0.666988
Si Si2 0.493836 0.381596 0.402649
Si Si3 0.200966 0.664728 0.021823
Si Si4 0.006613 0.587503 0.437601
Si Si5 0.876712 0.624609 0.672067
Si Si6 0.687933 0.945519 0.213966
O O1 0.544737 0.085469 0.537609
O O2 0.560528 0.089104 0.804510
O O3 0.706504 0.047538 0.654370
O O4 0.552837 0.957155 0.674530
O O5 0.401949 0.334579 0.450506
O O6 0.574205 0.342462 0.308480
O O7 0.219227 0.750000 0.087400
O O8 0.196538 0.596456 0.137619
O O9 0.280869 0.651459 0.904817
O O10 0.113427 0.600784 0.383230
O O11 0.000000 0.500000 0.500000
O O12 0.958734 0.636622 0.557305
O O13 0.854265 0.533780 0.716009
#
# Coordination Sequence:
#
# PCOD9463208 Si02
#       6
#     8   8   8   8   8   8
#     4  11  19  34  65  99 126 159 222 269 318 378
#     4  11  22  38  60  96 130 169 211 271 332 396
#     4  12  26  43  64  96 136 177 215 277 352 403
#     4  10  19  34  58 100 125 156 211 274 314 368
#     4  11  23  38  68  96 126 168 228 273 320 389
#     4  11  21  37  65  95 130 169 221 270 316 391
#
# _framework density 20.579073000000001
#
# number of rings (size 3 to 8) (size 9 to 14) (size 15 to 20)
#    0.000    1.000    8.333    1.000    0.000    2.000 
#    0.000    3.333    0.000    2.000    0.000    0.000 
#    0.000    0.000    0.000    0.000    0.000    0.000 
#
# Total GULP energy -267730.022865 kJ/mol
# GULP energy per Si atom -5577.708810 kJ/mol
# Density = 2.053223 g / cm^3
# Si number density = 20.579073 Si / 1000 Ang^3
#
#
#
# Elastic Constant Matrix: (Units=GPa)
#
#
# Indices 1 2 3 4 5 6 
#
# 1 175.6190 20.9275 35.4804 0.0000 0.0000 0.0000
# 2 20.9275 63.1976 24.9192 0.0000 0.0000 0.0000
# 3 35.4804 24.9192 90.8856 0.0000 0.0000 0.0000
# 4 0.0000 0.0000 0.0000 3.6211 0.0000 0.0000
# 5 0.0000 0.0000 0.0000 0.0000 42.7834 0.0000
# 6 0.0000 0.0000 0.0000 0.0000 0.0000 -11.5949
#
#
#
# Elastic Compliance Matrix: (Units=1/GPa)
#
#
# Indices 1 2 3 4 5 6 
#
# 1 0.006268 -0.001245 -0.002105 0.000000 0.000000 0.000000
# 2 -0.001245 0.017989 -0.004446 0.000000 0.000000 0.000000
# 3 -0.002105 -0.004446 0.013044 0.000000 0.000000 0.000000
# 4 0.000000 0.000000 0.000000 0.276162 0.000000 0.000000
# 5 0.000000 0.000000 0.000000 0.000000 0.023374 0.000000
# 6 0.000000 0.000000 0.000000 0.000000 0.000000 -0.086245
#
#
# Mechanical properties :
#
#
# Convention : Reuss Voigt Hill
#
# Bulk Modulus (GPa) = 46.06844 54.70628 50.38736
# Shear Modulus (GPa) = 18.28687 23.52025 20.90356
#
# Velocity S-wave (km/s) = 2.98420 3.38438 3.19057
# Velocity P-wave (km/s) = 5.85735 6.47404 6.17340
#
# Compressibility (1/GPa) = 0.02170684
#
# Stress axis : x y z
#
# Youngs Moduli (GPa) = 159.54267 55.58988 76.66474
#
# Poissons Ratio (x) = 0.06923 0.16141
# Poissons Ratio (y) = 0.19869 0.34086
# Poissons Ratio (z) = 0.33591 0.24716
#
# Static dielectric constant tensor:
#      x y z
#    x 1.741200 0.000000 0.000000 
#    y 0.000000 1.791670 0.000000 
#    z 0.000000 0.000000 1.732320 
# 
# From -- ./inp_files/6482.got.cif
#   From: 2010.05.17/outbox.cif.g08.bks.cpg/sg62_4_cif.got.tgz:6482.got - 2010.06.03 15:25:27.
