data_PCOD9463446
_publ_section_title
;
Structure prediction by ZEFSAII (Michael W. Deem and Ramdas Pophale) SiO2 
 PCOD9463446
Probable space group: P N M A
;
_chemical_formula_sum "Si O2"
_cell_formula_units_Z 56
_cell_length_a 14.960717
_cell_length_b 11.840328
_cell_length_c 14.259649
_cell_angle_alpha 90.000000
_cell_angle_beta 90.000000
_cell_angle_gamma 90.000000
_cell_volume 2525.951321
_symmetry_space_group_name_H-M "P N M A"
_symmetry_group_IT_number 62
_symmetry_cell_setting 'orthorhombic'
loop_
_space_group_symop_operation_xyz
x,y,z
1/2-x,-y,1/2+z
1/2+x,1/2-y,1/2-z
-x,1/2+y,-z
-x,-y,-z
1/2+x,y,1/2-z
1/2-x,1/2+y,1/2+z
x,1/2-y,z
loop_
_atom_site_type_symbol
_atom_site_label
_atom_site_fract_x
_atom_site_fract_y
_atom_site_fract_z
Si Si1 0.041723 0.373476 0.485164
Si Si2 0.780081 0.377195 0.595025
Si Si3 0.141613 0.073832 0.301350
Si Si4 0.343389 0.376721 0.267281
Si Si5 0.396799 0.021707 0.613209
Si Si6 0.698340 0.030837 0.909952
Si Si7 0.914923 0.946220 0.099070
O O1 0.996593 0.250000 0.499742
O O2 0.076536 0.375689 0.378146
O O3 0.127316 0.379407 0.554013
O O4 0.000000 0.500000 0.500000
O O5 0.806661 0.250000 0.583024
O O6 0.841199 0.443946 0.668127
O O7 0.789104 0.445419 0.497834
O O8 0.675989 0.382344 0.626079
O O9 0.240864 0.125372 0.304661
O O10 0.107925 0.070687 0.195811
O O11 0.371008 0.250000 0.243243
O O12 0.339149 0.458866 0.177285
O O13 0.402061 0.433970 0.348064
O O14 0.297907 0.075728 0.612055
O O15 0.409790 0.962710 0.512529
O O16 0.486361 0.095511 0.625975
#
# Coordination Sequence:
#
# PCOD9463446 Si02
#       7
#     8   8   8   8   8   8   8
#     4  11  25  44  68  99 133 171 216 274 332 388
#     4   9  17  34  56  81 116 159 206 255 315 385
#     4   9  20  37  60  84 121 164 213 266 318 384
#     4  10  19  35  61  92 123 165 216 268 323 382
#     4   9  18  38  58  82 121 161 204 260 319 380
#     4   9  20  38  62  89 121 162 204 263 320 387
#     4   9  19  34  56  84 120 157 199 262 315 382
#
# _framework density 22.169865000000001
#
# number of rings (size 3 to 8) (size 9 to 14) (size 15 to 20)
#    0.000    2.571    0.000    1.714    2.000    2.857 
#    0.000   18.571    0.000    0.000    0.000    0.000 
#    0.000    0.000    0.000    0.000    0.000    0.000 
#
# Total GULP energy -312178.340533 kJ/mol
# GULP energy per Si atom -5574.613224 kJ/mol
# Density = 2.211941 g / cm^3
# Si number density = 22.169865 Si / 1000 Ang^3
#
#
#
# Elastic Constant Matrix: (Units=GPa)
#
#
# Indices 1 2 3 4 5 6 
#
# 1 102.0608 44.9950 36.4975 0.0000 0.0000 0.0000
# 2 44.9950 107.6724 13.7745 0.0000 0.0000 0.0000
# 3 36.4975 13.7745 103.9184 0.0000 0.0000 0.0000
# 4 0.0000 0.0000 0.0000 -8.5763 0.0000 0.0000
# 5 0.0000 0.0000 0.0000 0.0000 4.7183 0.0000
# 6 0.0000 0.0000 0.0000 0.0000 0.0000 -0.7596
#
#
#
# Elastic Compliance Matrix: (Units=1/GPa)
#
#
# Indices 1 2 3 4 5 6 
#
# 1 0.013512 -0.005126 -0.004066 0.000000 0.000000 0.000000
# 2 -0.005126 0.011393 0.000290 0.000000 0.000000 0.000000
# 3 -0.004066 0.000290 0.011013 0.000000 0.000000 0.000000
# 4 0.000000 0.000000 0.000000 -0.116600 0.000000 0.000000
# 5 0.000000 0.000000 0.000000 0.000000 0.211942 0.000000
# 6 0.000000 0.000000 0.000000 0.000000 0.000000 -1.316402
#
#
# Mechanical properties :
#
#
# Convention : Reuss Voigt Hill
#
# Bulk Modulus (GPa) = 55.20925 56.02061 55.61493
# Shear Modulus (GPa) = -4.30552 13.63543 4.66496
#
# Velocity S-wave (km/s) = -1.39509 2.48270 1.45216
# Velocity P-wave (km/s) = 4.72883 5.79155 5.28696
#
# Compressibility (1/GPa) = 0.01811291
#
# Stress axis : x y z
#
# Youngs Moduli (GPa) = 74.00710 87.77670 90.80557
#
# Poissons Ratio (x) = 0.44998 0.36923
# Poissons Ratio (y) = 0.37939 -0.02637
# Poissons Ratio (z) = 0.30092 -0.02549
#
# Static dielectric constant tensor:
#      x y z
#    x 1.924980 0.000000 0.000000 
#    y 0.000000 1.816310 0.000000 
#    z 0.000000 0.000000 1.811070 
# 
# From -- ./inp_files/19004.got.cif
#   From: 2010.05.17/outbox.cif.g08.bks.cpg/sg62_10_cif.got.tgz:19004.got - 2010.06.03 15:25:27.
