data_PCOD9463913
_publ_section_title
;
Structure prediction by ZEFSAII (Michael W. Deem and Ramdas Pophale) SiO2 
 PCOD9463913
Probable space group: P N M A
;
_chemical_formula_sum "Si O2"
_cell_formula_units_Z 64
_cell_length_a 8.952419
_cell_length_b 18.199539
_cell_length_c 19.587251
_cell_angle_alpha 90.000000
_cell_angle_beta 90.000000
_cell_angle_gamma 90.000000
_cell_volume 3191.348822
_symmetry_space_group_name_H-M "P N M A"
_symmetry_group_IT_number 62
_symmetry_cell_setting 'orthorhombic'
loop_
_space_group_symop_operation_xyz
x,y,z
1/2-x,-y,1/2+z
1/2+x,1/2-y,1/2-z
-x,1/2+y,-z
-x,-y,-z
1/2+x,y,1/2-z
1/2-x,1/2+y,1/2+z
x,1/2-y,z
loop_
_atom_site_type_symbol
_atom_site_label
_atom_site_fract_x
_atom_site_fract_y
_atom_site_fract_z
Si Si1 0.638791 0.067289 0.635590
Si Si2 0.094826 0.836584 0.391530
Si Si3 0.907506 0.549828 0.297446
Si Si4 0.394882 0.831929 0.656794
Si Si5 0.325738 0.331416 0.261793
Si Si6 0.137052 0.439876 0.352188
Si Si7 0.648192 0.486143 0.393839
Si Si8 0.927651 0.425822 0.472720
O O1 0.731755 0.141126 0.621475
O O2 0.615306 0.065469 0.717746
O O3 0.483540 0.046395 0.598224
O O4 0.757336 0.003458 0.616792
O O5 0.070134 0.750000 0.383749
O O6 0.068725 0.865200 0.468535
O O7 0.986807 0.884047 0.340446
O O8 0.757073 0.521391 0.335347
O O9 0.023730 0.482890 0.302799
O O10 0.411582 0.750000 0.624822
O O11 0.499906 0.831996 0.723461
O O12 0.226916 0.840823 0.684429
O O13 0.433559 0.908623 0.622295
O O14 0.274758 0.250000 0.281995
O O15 0.245629 0.388773 0.309940
O O16 0.033519 0.403546 0.409467
O O17 0.765039 0.455322 0.449613
O O18 0.000000 0.500000 0.500000
#
# Coordination Sequence:
#
# PCOD9463913 Si02
#       8
#     8   8   8   8   8   8   8   8
#     4  11  20  37  64 100 123 153 205 264 327 370
#     4  11  25  46  66  89 128 167 208 263 315 378
#     4  10  21  38  64  94 125 160 208 252 320 387
#     4  10  21  33  50  86 130 166 200 248 308 360
#     4  10  20  33  49  81 129 167 199 246 306 360
#     4  10  20  35  62  87 123 159 210 254 297 374
#     4  11  21  34  66  90 121 163 210 257 300 372
#     4  11  22  44  62  86 117 166 211 245 300 372
#
# _framework density 20.054216
#
# number of rings (size 3 to 8) (size 9 to 14) (size 15 to 20)
#    0.000    1.500    5.000    3.000    3.500    2.000 
#    0.000    0.625    0.000    0.000    0.000    0.000 
#    0.000    0.000    0.000    0.000    0.000    0.000 
#
# Total GULP energy -356607.292551 kJ/mol
# GULP energy per Si atom -5571.988946 kJ/mol
# Density = 2.000857 g / cm^3
# Si number density = 20.054216 Si / 1000 Ang^3
#
#
#
# Elastic Constant Matrix: (Units=GPa)
#
#
# Indices 1 2 3 4 5 6 
#
# 1 98.8857 22.8146 18.8886 0.0000 0.0000 0.0000
# 2 22.8146 117.9495 22.1653 0.0000 0.0000 0.0000
# 3 18.8886 22.1653 63.6739 0.0000 0.0000 0.0000
# 4 0.0000 0.0000 0.0000 20.4138 0.0000 0.0000
# 5 0.0000 0.0000 0.0000 0.0000 29.0514 0.0000
# 6 0.0000 0.0000 0.0000 0.0000 0.0000 29.3279
#
#
#
# Elastic Compliance Matrix: (Units=1/GPa)
#
#
# Indices 1 2 3 4 5 6 
#
# 1 0.011002 -0.001621 -0.002700 0.000000 0.000000 0.000000
# 2 -0.001621 0.009310 -0.002760 0.000000 0.000000 0.000000
# 3 -0.002700 -0.002760 0.017467 0.000000 0.000000 0.000000
# 4 0.000000 0.000000 0.000000 0.048986 0.000000 0.000000
# 5 0.000000 0.000000 0.000000 0.000000 0.034422 0.000000
# 6 0.000000 0.000000 0.000000 0.000000 0.000000 0.034097
#
#
# Mechanical properties :
#
#
# Convention : Reuss Voigt Hill
#
# Bulk Modulus (GPa) = 42.34022 45.36067 43.85044
# Shear Modulus (GPa) = 28.19779 30.20131 29.19955
#
# Velocity S-wave (km/s) = 3.75384 3.88491 3.81994
# Velocity P-wave (km/s) = 6.32037 6.54152 6.43190
#
# Compressibility (1/GPa) = 0.02361821
#
# Stress axis : x y z
#
# Youngs Moduli (GPa) = 90.89011 107.40651 57.25181
#
# Poissons Ratio (x) = 0.17409 0.15455
# Poissons Ratio (y) = 0.14732 0.15803
# Poissons Ratio (z) = 0.24536 0.29646
#
# Static dielectric constant tensor:
#      x y z
#    x 1.763150 0.000000 0.000000 
#    y 0.000000 1.722180 0.000000 
#    z 0.000000 0.000000 1.833730 
# 
# From -- ./inp_files/26202.got.cif
#   From: 2010.05.17/outbox.cif.g08.bks.cpg/sg62_14_cif.got.tgz:26202.got - 2010.06.03 15:25:27.
