data_PCOD9463289
_publ_section_title
;
Structure prediction by ZEFSAII (Michael W. Deem and Ramdas Pophale) SiO2 
 PCOD9463289
Probable space group: P N M A
;
_chemical_formula_sum "Si O2"
_cell_formula_units_Z 48
_cell_length_a 20.730149
_cell_length_b 7.590408
_cell_length_c 14.748587
_cell_angle_alpha 90.000000
_cell_angle_beta 90.000000
_cell_angle_gamma 90.000000
_cell_volume 2320.694424
_symmetry_space_group_name_H-M "P N M A"
_symmetry_group_IT_number 62
_symmetry_cell_setting 'orthorhombic'
loop_
_space_group_symop_operation_xyz
x,y,z
1/2-x,-y,1/2+z
1/2+x,1/2-y,1/2-z
-x,1/2+y,-z
-x,-y,-z
1/2+x,y,1/2-z
1/2-x,1/2+y,1/2+z
x,1/2-y,z
loop_
_atom_site_type_symbol
_atom_site_label
_atom_site_fract_x
_atom_site_fract_y
_atom_site_fract_z
Si Si1 0.673695 0.037709 0.651159
Si Si2 0.573277 0.966523 0.155858
Si Si3 0.437113 0.952451 0.224140
Si Si4 0.200887 0.965001 0.237035
Si Si5 0.733594 0.541212 0.464148
Si Si6 0.119615 0.953307 0.536336
O O1 0.672713 0.250000 0.659781
O O2 0.608842 0.968678 0.698683
O O3 0.736300 0.975598 0.707303
O O4 0.685623 0.994344 0.546780
O O5 0.572635 0.750000 0.153046
O O6 0.506812 0.029334 0.200150
O O7 0.635517 0.021016 0.213565
O O8 0.582441 0.024062 0.051706
O O9 0.449555 0.750000 0.250679
O O10 0.396847 0.953646 0.130352
O O11 0.200619 0.750000 0.238223
O O12 0.207657 0.021682 0.132934
O O13 0.743874 0.750000 0.457352
O O14 0.804050 0.461657 0.483434
O O15 0.101308 0.750000 0.549300
#
# Coordination Sequence:
#
# PCOD9463289 Si02
#       6
#     8   8   8   8   8   8
#     4  10  19  35  55  76 106 139 174 217 263 314
#     4   9  18  33  54  77 103 141 179 213 263 320
#     4  10  20  35  55  78 106 141 179 215 262 323
#     4   9  17  33  54  75 103 138 175 215 259 310
#     4  11  21  34  55  82 107 137 181 223 260 310
#     4  11  20  32  54  82 112 140 171 219 271 316
#
# _framework density 20.683465000000002
#
# number of rings (size 3 to 8) (size 9 to 14) (size 15 to 20)
#    0.000    2.000    3.333    1.500    0.000    0.667 
#    0.000    1.667    0.000    0.000    0.000    0.000 
#    0.000    0.000    0.000    0.000    0.000    0.000 
#
# Total GULP energy -268134.143087 kJ/mol
# GULP energy per Si atom -5586.127981 kJ/mol
# Density = 2.063639 g / cm^3
# Si number density = 20.683465 Si / 1000 Ang^3
#
#
#
# Elastic Constant Matrix: (Units=GPa)
#
#
# Indices 1 2 3 4 5 6 
#
# 1 39.6427 0.2239 -9.2621 0.0000 0.0000 0.0000
# 2 0.2239 48.7578 -3.3828 0.0000 0.0000 0.0000
# 3 -9.2621 -3.3828 86.9220 0.0000 0.0000 0.0000
# 4 0.0000 0.0000 0.0000 12.6965 0.0000 0.0000
# 5 0.0000 0.0000 0.0000 0.0000 31.4858 0.0000
# 6 0.0000 0.0000 0.0000 0.0000 0.0000 1.7719
#
#
#
# Elastic Compliance Matrix: (Units=1/GPa)
#
#
# Indices 1 2 3 4 5 6 
#
# 1 0.025870 0.000073 0.002759 0.000000 0.000000 0.000000
# 2 0.000073 0.020565 0.000808 0.000000 0.000000 0.000000
# 3 0.002759 0.000808 0.011830 0.000000 0.000000 0.000000
# 4 0.000000 0.000000 0.000000 0.078762 0.000000 0.000000
# 5 0.000000 0.000000 0.000000 0.000000 0.031760 0.000000
# 6 0.000000 0.000000 0.000000 0.000000 0.000000 0.564372
#
#
# Mechanical properties :
#
#
# Convention : Reuss Voigt Hill
#
# Bulk Modulus (GPa) = 15.25663 16.72006 15.98835
# Shear Modulus (GPa) = 6.68693 21.70707 14.19700
#
# Velocity S-wave (km/s) = 1.80000 3.24310 2.62275
# Velocity P-wave (km/s) = 3.42232 4.70371 4.11322
#
# Compressibility (1/GPa) = 0.06554526
#
# Stress axis : x y z
#
# Youngs Moduli (GPa) = 38.65534 48.62570 84.53054
#
# Poissons Ratio (x) = -0.00353 -0.23325
# Poissons Ratio (y) = -0.00281 -0.06831
# Poissons Ratio (z) = -0.10667 -0.03929
#
# Static dielectric constant tensor:
#      x y z
#    x 1.726600 0.000000 0.000000 
#    y 0.000000 1.780280 0.000000 
#    z 0.000000 0.000000 1.712220 
# 
# From -- ./inp_files/19601.got.cif
#   From: 2010.05.17/outbox.cif.g08.bks.cpg/sg62_10_cif.got.tgz:19601.got - 2010.06.03 15:25:27.
