data_PCOD9463015
_publ_section_title
;
Structure prediction by ZEFSAII (Michael W. Deem and Ramdas Pophale) SiO2 
 PCOD9463015
Probable space group: P N M A
;
_chemical_formula_sum "Si O2"
_cell_formula_units_Z 64
_cell_length_a 17.010864
_cell_length_b 16.674194
_cell_length_c 11.661718
_cell_angle_alpha 90.000000
_cell_angle_beta 90.000000
_cell_angle_gamma 90.000000
_cell_volume 3307.758223
_symmetry_space_group_name_H-M "P N M A"
_symmetry_group_IT_number 62
_symmetry_cell_setting 'orthorhombic'
loop_
_space_group_symop_operation_xyz
x,y,z
1/2-x,-y,1/2+z
1/2+x,1/2-y,1/2-z
-x,1/2+y,-z
-x,-y,-z
1/2+x,y,1/2-z
1/2-x,1/2+y,1/2+z
x,1/2-y,z
loop_
_atom_site_type_symbol
_atom_site_label
_atom_site_fract_x
_atom_site_fract_y
_atom_site_fract_z
Si Si1 0.810010 0.162787 0.766018
Si Si2 0.598716 0.006823 0.750730
Si Si3 0.918101 0.490645 0.734828
Si Si4 0.255136 0.163048 0.482912
Si Si5 0.657681 0.014942 0.004228
Si Si6 0.794725 0.898892 0.068303
Si Si7 0.087649 0.839159 0.847233
Si Si8 0.405981 0.842230 0.632318
O O1 0.851813 0.250000 0.764657
O O2 0.757670 0.161928 0.879984
O O3 0.755117 0.155873 0.654841
O O4 0.862987 0.083087 0.772708
O O5 0.507586 0.027807 0.731824
O O6 0.601527 0.910312 0.741390
O O7 0.625547 0.029682 0.877821
O O8 0.653005 0.044747 0.652155
O O9 0.907935 0.491959 0.597006
O O10 0.895139 0.578000 0.787898
O O11 0.228816 0.250000 0.441320
O O12 0.198909 0.093489 0.443992
O O13 0.344657 0.152011 0.441767
O O14 0.728516 0.950684 0.002355
O O15 0.851171 0.855810 0.977991
O O16 0.095286 0.750000 0.796529
O O17 0.999474 0.845820 0.896009
O O18 0.392444 0.750000 0.676539
#
# Coordination Sequence:
#
# PCOD9463015 Si02
#       8
#     8   8   8   8   8   8   8   8
#     4  10  21  39  57  86 123 159 200 246 299 360
#     4  11  22  39  61  87 122 161 200 248 299 364
#     4  10  24  39  63  86 119 165 201 246 299 356
#     4  10  19  33  56  83 117 156 201 247 295 355
#     4  11  22  40  58  85 120 158 206 246 298 356
#     4  11  22  35  63  87 121 156 199 249 309 355
#     4   9  20  37  59  90 120 156 200 247 301 355
#     4  10  22  39  61  92 124 154 197 250 302 357
#
# _framework density 19.34845
#
# number of rings (size 3 to 8) (size 9 to 14) (size 15 to 20)
#    0.000    1.750    2.500    1.500    3.500    1.500 
#    0.000    5.625    0.000    3.000    0.000    0.000 
#    0.000    0.000    0.000    0.000    0.000    0.000 
#
# Total GULP energy -356718.804793 kJ/mol
# GULP energy per Si atom -5573.731325 kJ/mol
# Density = 1.930441 g / cm^3
# Si number density = 19.348450 Si / 1000 Ang^3
#
#
#
# Elastic Constant Matrix: (Units=GPa)
#
#
# Indices 1 2 3 4 5 6 
#
# 1 51.5043 35.5723 16.0442 0.0000 0.0000 0.0000
# 2 35.5723 109.1815 5.2850 0.0000 0.0000 0.0000
# 3 16.0442 5.2850 34.3093 0.0000 0.0000 0.0000
# 4 0.0000 0.0000 0.0000 19.7182 0.0000 0.0000
# 5 0.0000 0.0000 0.0000 0.0000 23.0096 0.0000
# 6 0.0000 0.0000 0.0000 0.0000 0.0000 26.6027
#
#
#
# Elastic Compliance Matrix: (Units=1/GPa)
#
#
# Indices 1 2 3 4 5 6 
#
# 1 0.029507 -0.009013 -0.012410 0.000000 0.000000 0.000000
# 2 -0.009013 0.011981 0.002369 0.000000 0.000000 0.000000
# 3 -0.012410 0.002369 0.034585 0.000000 0.000000 0.000000
# 4 0.000000 0.000000 0.000000 0.050715 0.000000 0.000000
# 5 0.000000 0.000000 0.000000 0.000000 0.043460 0.000000
# 6 0.000000 0.000000 0.000000 0.000000 0.000000 0.037590
#
#
# Mechanical properties :
#
#
# Convention : Reuss Voigt Hill
#
# Bulk Modulus (GPa) = 26.33992 34.31091 30.32542
# Shear Modulus (GPa) = 19.33492 23.07233 21.20362
#
# Velocity S-wave (km/s) = 3.16460 3.45695 3.31400
# Velocity P-wave (km/s) = 5.19576 5.80566 5.50916
#
# Compressibility (1/GPa) = 0.03796519
#
# Stress axis : x y z
#
# Youngs Moduli (GPa) = 33.89081 83.46681 28.91430
#
# Poissons Ratio (x) = 0.75227 0.35882
# Poissons Ratio (y) = 0.30545 -0.06850
# Poissons Ratio (z) = 0.42058 -0.19774
#
# Static dielectric constant tensor:
#      x y z
#    x 1.665710 0.000000 0.000000 
#    y 0.000000 1.718800 0.000000 
#    z 0.000000 0.000000 1.657660 
# 
# From -- ./inp_files/14342.got.cif
#   From: 2010.05.17/outbox.cif.g08.bks.cpg/sg62_8_cif.got.tgz:14342.got - 2010.06.03 15:25:27.
