data_PCOD9463461
_publ_section_title
;
Structure prediction by ZEFSAII (Michael W. Deem and Ramdas Pophale) SiO2 
 PCOD9463461
Probable space group: P N M A
;
_chemical_formula_sum "Si O2"
_cell_formula_units_Z 24
_cell_length_a 16.211797
_cell_length_b 5.407871
_cell_length_c 11.261832
_cell_angle_alpha 90.000000
_cell_angle_beta 90.000000
_cell_angle_gamma 90.000000
_cell_volume 987.339529
_symmetry_space_group_name_H-M "P N M A"
_symmetry_group_IT_number 62
_symmetry_cell_setting 'orthorhombic'
loop_
_space_group_symop_operation_xyz
x,y,z
1/2-x,-y,1/2+z
1/2+x,1/2-y,1/2-z
-x,1/2+y,-z
-x,-y,-z
1/2+x,y,1/2-z
1/2-x,1/2+y,1/2+z
x,1/2-y,z
loop_
_atom_site_type_symbol
_atom_site_label
_atom_site_fract_x
_atom_site_fract_y
_atom_site_fract_z
Si Si1 0.235868 0.250000 0.705586
Si Si2 0.365371 0.250000 0.156279
Si Si3 0.925609 0.750000 0.023542
Si Si4 0.876041 0.250000 0.625299
Si Si5 0.382617 0.250000 0.514105
Si Si6 0.550320 0.250000 0.239363
O O1 0.185076 0.499975 0.683512
O O2 0.281656 0.250000 0.831632
O O3 0.312026 0.250000 0.611203
O O4 0.452729 0.250000 0.222110
O O5 0.383874 0.250000 0.015445
O O6 0.880792 0.501379 0.059100
O O7 0.925559 0.750000 0.878795
O O8 0.021526 0.750000 0.062041
O O9 0.915218 0.501154 0.678541
#
# Coordination Sequence:
#
# PCOD9463461 Si02
#       6
#     4   4   4   4   4   4
#     4  12  24  45  66  98 139 179 214 281 352 392
#     4  12  28  42  68 103 134 173 230 279 335 400
#     4  10  19  35  63  94 120 169 217 268 312 378
#     4  12  25  46  72  93 135 183 223 274 339 402
#     4  10  20  36  60  94 129 163 217 262 322 391
#     4  12  22  44  69  98 131 181 229 276 322 407
#
# _framework density 24.307748
#
# number of rings (size 3 to 8) (size 9 to 14) (size 15 to 20)
#    0.000    0.667    3.333    5.000    0.000    2.667 
#    0.000    0.000    0.000    0.000    0.000    0.000 
#    0.000    0.000    0.000    0.000    0.000    0.000 
#
# Total GULP energy -134561.695830 kJ/mol
# GULP energy per Si atom -5606.737326 kJ/mol
# Density = 2.425242 g / cm^3
# Si number density = 24.307748 Si / 1000 Ang^3
#
#
#
# Elastic Constant Matrix: (Units=GPa)
#
#
# Indices 1 2 3 4 5 6 
#
# 1 142.4848 87.6709 41.7914 0.0000 0.0000 0.0000
# 2 87.6709 275.2082 46.5434 0.0000 0.0000 0.0000
# 3 41.7914 46.5434 155.6123 0.0000 0.0000 0.0000
# 4 0.0000 0.0000 0.0000 127.5826 0.0000 0.0000
# 5 0.0000 0.0000 0.0000 0.0000 51.7106 0.0000
# 6 0.0000 0.0000 0.0000 0.0000 0.0000 71.8308
#
#
#
# Elastic Compliance Matrix: (Units=1/GPa)
#
#
# Indices 1 2 3 4 5 6 
#
# 1 0.009121 -0.002624 -0.001665 0.000000 0.000000 0.000000
# 2 -0.002624 0.004582 -0.000666 0.000000 0.000000 0.000000
# 3 -0.001665 -0.000666 0.007072 0.000000 0.000000 0.000000
# 4 0.000000 0.000000 0.000000 0.007838 0.000000 0.000000
# 5 0.000000 0.000000 0.000000 0.000000 0.019338 0.000000
# 6 0.000000 0.000000 0.000000 0.000000 0.000000 0.013922
#
#
# Mechanical properties :
#
#
# Convention : Reuss Voigt Hill
#
# Bulk Modulus (GPa) = 92.02569 102.81296 97.41932
# Shear Modulus (GPa) = 66.30837 76.71145 71.50991
#
# Velocity S-wave (km/s) = 5.22857 5.62378 5.42977
# Velocity P-wave (km/s) = 8.62504 9.19551 8.91484
#
# Compressibility (1/GPa) = 0.01086653
#
# Stress axis : x y z
#
# Youngs Moduli (GPa) = 109.63482 218.23783 141.39392
#
# Poissons Ratio (x) = 0.57268 0.23538
# Poissons Ratio (y) = 0.28770 0.09414
# Poissons Ratio (z) = 0.18251 0.14530
#
# Static dielectric constant tensor:
#      x y z
#    x 1.893010 0.000000 0.000000 
#    y 0.000000 1.981070 0.000000 
#    z 0.000000 0.000000 1.909570 
# 
# From -- ./inp_files/12644.got.cif
#   From: 2010.05.17/outbox.cif.g08.bks.cpg/sg62_7_cif.got.tgz:12644.got - 2010.06.03 15:25:27.
