data_PCOD9463300
_publ_section_title
;
Structure prediction by ZEFSAII (Michael W. Deem and Ramdas Pophale) SiO2 
 PCOD9463300
Probable space group: P N M A
;
_chemical_formula_sum "Si O2"
_cell_formula_units_Z 24
_cell_length_a 10.522886
_cell_length_b 13.812471
_cell_length_c 6.843988
_cell_angle_alpha 90.000000
_cell_angle_beta 90.000000
_cell_angle_gamma 90.000000
_cell_volume 994.753519
_symmetry_space_group_name_H-M "P N M A"
_symmetry_group_IT_number 62
_symmetry_cell_setting 'orthorhombic'
loop_
_space_group_symop_operation_xyz
x,y,z
1/2-x,-y,1/2+z
1/2+x,1/2-y,1/2-z
-x,1/2+y,-z
-x,-y,-z
1/2+x,y,1/2-z
1/2-x,1/2+y,1/2+z
x,1/2-y,z
loop_
_atom_site_type_symbol
_atom_site_label
_atom_site_fract_x
_atom_site_fract_y
_atom_site_fract_z
Si Si1 0.206036 0.638860 0.711553
Si Si2 0.863428 0.553761 0.108626
Si Si3 0.609514 0.638977 0.208252
O O1 0.216471 0.750000 0.774587
O O2 0.167321 0.559288 0.867681
O O3 0.334393 0.601752 0.601717
O O4 0.106002 0.633325 0.529890
O O5 0.754793 0.605997 0.240001
O O6 0.999542 0.577166 0.195131
O O7 0.591905 0.750000 0.266553
#
# Coordination Sequence:
#
# PCOD9463300 Si02
#       3
#     8   8   8
#     4   9  20  36  55  80 110 139 178 221 262 316
#     4  10  19  35  56  78 108 144 173 222 266 311
#     4   9  18  34  57  80 106 141 179 217 264 317
#
# _framework density 24.126579
#
# number of rings (size 3 to 8) (size 9 to 14) (size 15 to 20)
#    2.000    0.667    0.000    3.000    0.000    1.333 
#    0.000    6.667    0.000    0.000    0.000    0.000 
#    0.000    0.000    0.000    0.000    0.000    0.000 
#
# Total GULP energy -133964.873145 kJ/mol
# GULP energy per Si atom -5581.869714 kJ/mol
# Density = 2.407167 g / cm^3
# Si number density = 24.126579 Si / 1000 Ang^3
#
#
#
# Elastic Constant Matrix: (Units=GPa)
#
#
# Indices 1 2 3 4 5 6 
#
# 1 107.0054 29.6185 18.8339 0.0000 0.0000 0.0000
# 2 29.6185 187.2983 22.3171 0.0000 0.0000 0.0000
# 3 18.8339 22.3171 59.8787 0.0000 0.0000 0.0000
# 4 0.0000 0.0000 0.0000 26.5461 0.0000 0.0000
# 5 0.0000 0.0000 0.0000 0.0000 20.6139 0.0000
# 6 0.0000 0.0000 0.0000 0.0000 0.0000 23.9901
#
#
#
# Elastic Compliance Matrix: (Units=1/GPa)
#
#
# Indices 1 2 3 4 5 6 
#
# 1 0.010180 -0.001285 -0.002723 0.000000 0.000000 0.000000
# 2 -0.001285 0.005750 -0.001739 0.000000 0.000000 0.000000
# 3 -0.002723 -0.001739 0.018205 0.000000 0.000000 0.000000
# 4 0.000000 0.000000 0.000000 0.037670 0.000000 0.000000
# 5 0.000000 0.000000 0.000000 0.000000 0.048511 0.000000
# 6 0.000000 0.000000 0.000000 0.000000 0.000000 0.041684
#
#
# Mechanical properties :
#
#
# Convention : Reuss Voigt Hill
#
# Bulk Modulus (GPa) = 44.16803 55.08016 49.62410
# Shear Modulus (GPa) = 27.61808 33.12422 30.37115
#
# Velocity S-wave (km/s) = 3.38704 3.70933 3.55184
# Velocity P-wave (km/s) = 5.80022 6.42065 6.11830
#
# Compressibility (1/GPa) = 0.02264081
#
# Stress axis : x y z
#
# Youngs Moduli (GPa) = 98.22804 173.92813 54.93031
#
# Poissons Ratio (x) = 0.22357 0.14958
# Poissons Ratio (y) = 0.12627 0.09550
# Poissons Ratio (z) = 0.26747 0.30238
#
# Static dielectric constant tensor:
#      x y z
#    x 1.895700 0.000000 0.000000 
#    y 0.000000 1.881240 0.000000 
#    z 0.000000 0.000000 2.042930 
# 
# From -- ./inp_files/3950.got.cif
#   From: 2010.05.17/outbox.cif.g08.bks.cpg/sg62_2_cif.got.tgz:3950.got - 2010.06.03 15:25:27.
