data_PCOD9463412
_publ_section_title
;
Structure prediction by ZEFSAII (Michael W. Deem and Ramdas Pophale) SiO2 
 PCOD9463412
Probable space group: P N M A
;
_chemical_formula_sum "Si O2"
_cell_formula_units_Z 48
_cell_length_a 19.946600
_cell_length_b 8.881881
_cell_length_c 15.339948
_cell_angle_alpha 90.000000
_cell_angle_beta 90.000000
_cell_angle_gamma 90.000000
_cell_volume 2717.676232
_symmetry_space_group_name_H-M "P N M A"
_symmetry_group_IT_number 62
_symmetry_cell_setting 'orthorhombic'
loop_
_space_group_symop_operation_xyz
x,y,z
1/2-x,-y,1/2+z
1/2+x,1/2-y,1/2-z
-x,1/2+y,-z
-x,-y,-z
1/2+x,y,1/2-z
1/2-x,1/2+y,1/2+z
x,1/2-y,z
loop_
_atom_site_type_symbol
_atom_site_label
_atom_site_fract_x
_atom_site_fract_y
_atom_site_fract_z
Si Si1 0.985998 0.930082 0.234671
Si Si2 0.809452 0.430521 0.384705
Si Si3 0.170125 0.430384 0.800676
Si Si4 0.443522 0.068857 0.561756
Si Si5 0.701393 0.931214 0.514995
Si Si6 0.965353 0.428776 0.416505
O O1 0.989697 0.750000 0.246573
O O2 0.910111 0.964199 0.201927
O O3 0.038262 0.976561 0.160319
O O4 0.995969 0.008873 0.326812
O O5 0.801927 0.250000 0.380470
O O6 0.800387 0.501396 0.288546
O O7 0.759247 0.500747 0.454681
O O8 0.886100 0.465275 0.412307
O O9 0.178111 0.250000 0.801640
O O10 0.200836 0.502524 0.887463
O O11 0.448744 0.250000 0.557712
O O12 0.370020 0.026738 0.528764
O O13 0.500000 0.000000 0.500000
O O14 0.706253 0.750000 0.517923
O O15 0.972196 0.250000 0.419385
O O16 0.000000 0.500000 0.500000
#
# Coordination Sequence:
#
# PCOD9463412 Si02
#       6
#     8   8   8   8   8   8
#     4   9  18  34  56  82 112 146 184 228 276 332
#     4  10  22  40  59  82 113 150 191 234 282 340
#     4  10  19  35  60  83 109 149 188 229 283 338
#     4  10  20  34  55  85 117 149 186 229 277 331
#     4  11  22  36  57  85 117 152 190 235 281 335
#     4  10  21  38  61  85 109 144 188 235 284 337
#
# _framework density 17.662148999999999
#
# number of rings (size 3 to 8) (size 9 to 14) (size 15 to 20)
#    0.000    2.000    1.667    2.000    0.000    4.000 
#    3.000    0.000    0.000    0.000    0.000    0.000 
#    0.000    0.000    0.000    0.000    0.000    0.000 
#
# Total GULP energy -268007.571624 kJ/mol
# GULP energy per Si atom -5583.491075 kJ/mol
# Density = 1.762195 g / cm^3
# Si number density = 17.662149 Si / 1000 Ang^3
#
#
#
# Elastic Constant Matrix: (Units=GPa)
#
#
# Indices 1 2 3 4 5 6 
#
# 1 64.2468 44.0718 85.3962 0.0000 0.0000 0.0000
# 2 44.0718 48.3363 70.3610 0.0000 0.0000 0.0000
# 3 85.3962 70.3610 208.1296 0.0000 0.0000 0.0000
# 4 0.0000 0.0000 0.0000 38.5779 0.0000 0.0000
# 5 0.0000 0.0000 0.0000 0.0000 36.8570 0.0000
# 6 0.0000 0.0000 0.0000 0.0000 0.0000 25.2186
#
#
#
# Elastic Compliance Matrix: (Units=1/GPa)
#
#
# Indices 1 2 3 4 5 6 
#
# 1 0.050519 -0.031284 -0.010152 0.000000 0.000000 0.000000
# 2 -0.031284 0.060106 -0.007484 0.000000 0.000000 0.000000
# 3 -0.010152 -0.007484 0.011500 0.000000 0.000000 0.000000
# 4 0.000000 0.000000 0.000000 0.025922 0.000000 0.000000
# 5 0.000000 0.000000 0.000000 0.000000 0.027132 0.000000
# 6 0.000000 0.000000 0.000000 0.000000 0.000000 0.039653
#
#
# Mechanical properties :
#
#
# Convention : Reuss Voigt Hill
#
# Bulk Modulus (GPa) = 41.17679 80.04119 60.60899
# Shear Modulus (GPa) = 15.58758 28.18961 21.88860
#
# Velocity S-wave (km/s) = 2.97398 3.99939 3.52418
# Velocity P-wave (km/s) = 5.92933 8.16965 7.13793
#
# Compressibility (1/GPa) = 0.02428553
#
# Stress axis : x y z
#
# Youngs Moduli (GPa) = 19.79434 16.63721 86.95528
#
# Poissons Ratio (x) = 0.52048 0.88279
# Poissons Ratio (y) = 0.61925 0.65075
# Poissons Ratio (z) = 0.20096 0.12451
#
# Static dielectric constant tensor:
#      x y z
#    x 1.587560 0.000000 0.000000 
#    y 0.000000 1.592610 0.000000 
#    z 0.000000 0.000000 1.580630 
# 
# From -- ./inp_files/19559.got.cif
#   From: 2010.05.17/outbox.cif.g08.bks.cpg/sg62_10_cif.got.tgz:19559.got - 2010.06.03 15:25:27.
