data_PCOD9463048
_publ_section_title
;
Structure prediction by ZEFSAII (Michael W. Deem and Ramdas Pophale) SiO2 
 PCOD9463048
Probable space group: P N M A
;
_chemical_formula_sum "Si O2"
_cell_formula_units_Z 56
_cell_length_a 17.376476
_cell_length_b 15.843005
_cell_length_c 9.439907
_cell_angle_alpha 90.000000
_cell_angle_beta 90.000000
_cell_angle_gamma 90.000000
_cell_volume 2598.764825
_symmetry_space_group_name_H-M "P N M A"
_symmetry_group_IT_number 62
_symmetry_cell_setting 'orthorhombic'
loop_
_space_group_symop_operation_xyz
x,y,z
1/2-x,-y,1/2+z
1/2+x,1/2-y,1/2-z
-x,1/2+y,-z
-x,-y,-z
1/2+x,y,1/2-z
1/2-x,1/2+y,1/2+z
x,1/2-y,z
loop_
_atom_site_type_symbol
_atom_site_label
_atom_site_fract_x
_atom_site_fract_y
_atom_site_fract_z
Si Si1 0.781808 0.471740 0.151854
Si Si2 0.250091 0.891605 0.551520
Si Si3 0.585285 0.343418 0.342931
Si Si4 0.456856 0.029712 0.312475
Si Si5 0.467992 0.846967 0.199348
Si Si6 0.660002 0.345661 0.035911
Si Si7 0.421611 0.157384 0.063262
O O1 0.761825 0.455457 0.315472
O O2 0.872080 0.459625 0.122038
O O3 0.730188 0.407337 0.062163
O O4 0.757385 0.562690 0.097813
O O5 0.331650 0.848854 0.582225
O O6 0.170547 0.841909 0.554132
O O7 0.553429 0.250000 0.370630
O O8 0.526587 0.417980 0.381259
O O9 0.605999 0.352586 0.175544
O O10 0.446056 0.078821 0.161115
O O11 0.472987 0.930433 0.294245
O O12 0.465136 0.750000 0.257234
O O13 0.391740 0.859844 0.102038
O O14 0.538709 0.850587 0.088841
O O15 0.688815 0.250000 0.033020
O O16 0.445677 0.250000 0.120595
#
# Coordination Sequence:
#
# PCOD9463048 Si02
#       7
#     8   8   8   8   8   8   8
#     4  10  22  37  57  89 114 158 202 244 294 360
#     4  10  22  37  59  84 121 155 200 246 300 356
#     4  10  20  34  55  85 115 152 196 245 301 356
#     4  11  21  33  58  85 123 156 197 251 305 356
#     4  10  20  34  57  89 120 158 204 251 304 358
#     4   9  17  32  54  82 118 150 193 249 297 344
#     4  10  19  33  58  91 117 147 204 255 292 346
#
# _framework density 21.5487
#
# number of rings (size 3 to 8) (size 9 to 14) (size 15 to 20)
#    0.000    2.000    1.429    3.000    4.000    4.571 
#    0.000    1.429    0.000    2.571    0.000    0.000 
#    0.000    0.000    0.000    0.000    0.000    0.000 
#
# Total GULP energy -312603.008227 kJ/mol
# GULP energy per Si atom -5582.196575 kJ/mol
# Density = 2.149965 g / cm^3
# Si number density = 21.548700 Si / 1000 Ang^3
#
#
#
# Elastic Constant Matrix: (Units=GPa)
#
#
# Indices 1 2 3 4 5 6 
#
# 1 106.3289 53.7633 27.1276 0.0000 0.0000 0.0000
# 2 53.7633 146.9228 44.5016 0.0000 0.0000 0.0000
# 3 27.1276 44.5016 44.4021 0.0000 0.0000 0.0000
# 4 0.0000 0.0000 0.0000 -38.5509 0.0000 0.0000
# 5 0.0000 0.0000 0.0000 0.0000 3.6355 0.0000
# 6 0.0000 0.0000 0.0000 0.0000 0.0000 46.9914
#
#
#
# Elastic Compliance Matrix: (Units=1/GPa)
#
#
# Indices 1 2 3 4 5 6 
#
# 1 0.012070 -0.003135 -0.004232 0.000000 0.000000 0.000000
# 2 -0.003135 0.010587 -0.008696 0.000000 0.000000 0.000000
# 3 -0.004232 -0.008696 0.033822 0.000000 0.000000 0.000000
# 4 0.000000 0.000000 0.000000 -0.025940 0.000000 0.000000
# 5 0.000000 0.000000 0.000000 0.000000 0.275065 0.000000
# 6 0.000000 0.000000 0.000000 0.000000 0.000000 0.021281
#
#
# Mechanical properties :
#
#
# Convention : Reuss Voigt Hill
#
# Bulk Modulus (GPa) = 41.06137 60.93763 50.99950
# Shear Modulus (GPa) = 13.61923 13.89928 13.75925
#
# Velocity S-wave (km/s) = 2.51673 2.54247 2.52963
# Velocity P-wave (km/s) = 5.24802 6.07942 5.67896
#
# Compressibility (1/GPa) = 0.02435379
#
# Stress axis : x y z
#
# Youngs Moduli (GPa) = 82.85317 94.45320 29.56618
#
# Poissons Ratio (x) = 0.29608 0.12513
# Poissons Ratio (y) = 0.25972 0.25710
# Poissons Ratio (z) = 0.35065 0.82135
#
# Static dielectric constant tensor:
#      x y z
#    x 1.776850 0.000000 0.000000 
#    y 0.000000 1.817630 0.000000 
#    z 0.000000 0.000000 1.790630 
# 
# From -- ./inp_files/13366.got.cif
#   From: 2010.05.17/outbox.cif.g08.bks.cpg/sg62_7_cif.got.tgz:13366.got - 2010.06.03 15:25:27.
