data_PCOD9463226
_publ_section_title
;
Structure prediction by ZEFSAII (Michael W. Deem and Ramdas Pophale) SiO2 
 PCOD9463226
Probable space group: P N M A
;
_chemical_formula_sum "Si O2"
_cell_formula_units_Z 56
_cell_length_a 20.615001
_cell_length_b 14.007141
_cell_length_c 10.437139
_cell_angle_alpha 90.000000
_cell_angle_beta 90.000000
_cell_angle_gamma 90.000000
_cell_volume 3013.799302
_symmetry_space_group_name_H-M "P N M A"
_symmetry_group_IT_number 62
_symmetry_cell_setting 'orthorhombic'
loop_
_space_group_symop_operation_xyz
x,y,z
1/2-x,-y,1/2+z
1/2+x,1/2-y,1/2-z
-x,1/2+y,-z
-x,-y,-z
1/2+x,y,1/2-z
1/2-x,1/2+y,1/2+z
x,1/2-y,z
loop_
_atom_site_type_symbol
_atom_site_label
_atom_site_fract_x
_atom_site_fract_y
_atom_site_fract_z
Si Si1 0.464059 0.360835 0.007231
Si Si2 0.336927 0.361277 0.658046
Si Si3 0.429369 0.862986 0.209472
Si Si4 0.027852 0.363593 0.223982
Si Si5 0.979010 0.134174 0.941415
Si Si6 0.692830 0.137829 0.936394
Si Si7 0.870345 0.504554 0.638009
O O1 0.443938 0.250000 0.985894
O O2 0.477448 0.374256 0.157692
O O3 0.529513 0.373839 0.922298
O O4 0.415370 0.438182 0.951500
O O5 0.344902 0.250000 0.694694
O O6 0.403815 0.389835 0.586544
O O7 0.269257 0.369771 0.585210
O O8 0.331071 0.429252 0.779015
O O9 0.425039 0.750000 0.234914
O O10 0.473036 0.901146 0.327283
O O11 0.355779 0.894375 0.179481
O O12 0.044517 0.250000 0.221028
O O13 0.086814 0.429362 0.268657
O O14 0.002283 0.391805 0.083733
O O15 0.980918 0.250000 0.937636
O O16 0.677835 0.250000 0.958647
O O17 0.672774 0.074082 0.054856
#
# Coordination Sequence:
#
# PCOD9463226 Si02
#       7
#     8   8   8   8   8   8   8
#     4  10  19  34  58  87 117 149 192 248 302 350
#     4  10  22  42  61  81 119 165 200 239 301 366
#     4   9  16  33  61  85 108 151 198 234 284 351
#     4  10  21  35  56  90 124 149 185 248 312 352
#     4   9  18  36  60  85 117 155 195 241 295 354
#     4  10  22  40  61  83 118 163 200 242 301 363
#     4  12  21  36  60  88 112 150 203 255 288 356
#
# _framework density 18.581198000000001
#
# number of rings (size 3 to 8) (size 9 to 14) (size 15 to 20)
#    0.000    2.000    2.857    1.286    0.000    0.571 
#    5.143    0.000    0.000    1.714    0.000    0.000 
#    0.000    0.000    0.000    0.000    0.000    0.000 
#
# Total GULP energy -312347.634291 kJ/mol
# GULP energy per Si atom -5577.636327 kJ/mol
# Density = 1.853891 g / cm^3
# Si number density = 18.581198 Si / 1000 Ang^3
#
#
#
# Elastic Constant Matrix: (Units=GPa)
#
#
# Indices 1 2 3 4 5 6 
#
# 1 88.9639 54.2314 64.0612 0.0000 0.0000 0.0000
# 2 54.2314 89.9666 49.7214 0.0000 0.0000 0.0000
# 3 64.0612 49.7214 131.1127 0.0000 0.0000 0.0000
# 4 0.0000 0.0000 0.0000 29.8846 0.0000 0.0000
# 5 0.0000 0.0000 0.0000 0.0000 15.0399 0.0000
# 6 0.0000 0.0000 0.0000 0.0000 0.0000 18.4351
#
#
#
# Elastic Compliance Matrix: (Units=1/GPa)
#
#
# Indices 1 2 3 4 5 6 
#
# 1 0.022193 -0.009343 -0.007300 0.000000 0.000000 0.000000
# 2 -0.009343 0.017996 -0.002260 0.000000 0.000000 0.000000
# 3 -0.007300 -0.002260 0.012051 0.000000 0.000000 0.000000
# 4 0.000000 0.000000 0.000000 0.033462 0.000000 0.000000
# 5 0.000000 0.000000 0.000000 0.000000 0.066490 0.000000
# 6 0.000000 0.000000 0.000000 0.000000 0.000000 0.054244
#
#
# Mechanical properties :
#
#
# Convention : Reuss Voigt Hill
#
# Bulk Modulus (GPa) = 69.28163 71.78569 70.53366
# Shear Modulus (GPa) = 20.07610 22.14053 21.10831
#
# Velocity S-wave (km/s) = 3.29059 3.45564 3.37412
# Velocity P-wave (km/s) = 7.19751 7.39184 7.29532
#
# Compressibility (1/GPa) = 0.01443384
#
# Stress axis : x y z
#
# Youngs Moduli (GPa) = 45.06001 55.56797 82.98273
#
# Poissons Ratio (x) = 0.51918 0.60578
# Poissons Ratio (y) = 0.42100 0.18750
# Poissons Ratio (z) = 0.32894 0.12556
#
# Static dielectric constant tensor:
#      x y z
#    x 1.641240 0.000000 0.000000 
#    y 0.000000 1.677660 0.000000 
#    z 0.000000 0.000000 1.650020 
# 
# From -- ./inp_files/8709.got.cif
#   From: 2010.05.17/outbox.cif.g08.bks.cpg/sg62_5_cif.got.tgz:8709.got - 2010.06.03 15:25:27.
