data_PCOD9463853
_publ_section_title
;
Structure prediction by ZEFSAII (Michael W. Deem and Ramdas Pophale) SiO2 
 PCOD9463853
Probable space group: P N M A
;
_chemical_formula_sum "Si O2"
_cell_formula_units_Z 48
_cell_length_a 24.186283
_cell_length_b 8.828212
_cell_length_c 13.941368
_cell_angle_alpha 90.000000
_cell_angle_beta 90.000000
_cell_angle_gamma 90.000000
_cell_volume 2976.783673
_symmetry_space_group_name_H-M "P N M A"
_symmetry_group_IT_number 62
_symmetry_cell_setting 'orthorhombic'
loop_
_space_group_symop_operation_xyz
x,y,z
1/2-x,-y,1/2+z
1/2+x,1/2-y,1/2-z
-x,1/2+y,-z
-x,-y,-z
1/2+x,y,1/2-z
1/2-x,1/2+y,1/2+z
x,1/2-y,z
loop_
_atom_site_type_symbol
_atom_site_label
_atom_site_fract_x
_atom_site_fract_y
_atom_site_fract_z
Si Si1 0.167266 0.069159 0.789702
Si Si2 0.778149 0.068500 0.395192
Si Si3 0.057030 0.570130 0.111544
Si Si4 0.662814 0.069693 0.292656
Si Si5 0.271477 0.931568 0.897996
Si Si6 0.561061 0.930367 0.613802
O O1 0.170580 0.250000 0.789494
O O2 0.182512 0.003870 0.685186
O O3 0.213873 0.001939 0.861055
O O4 0.107889 0.013598 0.825626
O O5 0.784477 0.250000 0.394838
O O6 0.715270 0.034473 0.360897
O O7 0.786992 0.000525 0.499943
O O8 0.048566 0.750000 0.118536
O O9 0.108874 0.518086 0.174065
O O10 0.000509 0.485683 0.138917
O O11 0.068926 0.534054 0.999464
O O12 0.652616 0.250000 0.299241
O O13 0.683779 0.035230 0.185202
O O14 0.265436 0.750000 0.903978
O O15 0.565865 0.750000 0.626066
#
# Coordination Sequence:
#
# PCOD9463853 Si02
#       6
#     8   8   8   8   8   8
#     4  11  21  33  51  75 103 134 168 206 249 297
#     4  10  20  34  52  75 102 133 169 207 250 297
#     4  10  20  32  50  75 100 129 166 205 246 295
#     4   9  19  33  49  71 101 133 163 200 245 294
#     4  10  20  34  51  74 103 134 169 206 248 297
#     4  10  20  34  51  72 101 133 165 205 250 296
#
# _framework density 16.124787000000001
#
# number of rings (size 3 to 8) (size 9 to 14) (size 15 to 20)
#    0.000    2.000    0.000    5.500    0.000    8.667 
#    0.000    0.000    0.000    1.000    0.000    0.000 
#    0.000    0.000    0.000    0.000    0.000    0.000 
#
# Total GULP energy -268024.497628 kJ/mol
# GULP energy per Si atom -5583.843701 kJ/mol
# Density = 1.608809 g / cm^3
# Si number density = 16.124787 Si / 1000 Ang^3
#
#
#
# Elastic Constant Matrix: (Units=GPa)
#
#
# Indices 1 2 3 4 5 6 
#
# 1 108.3593 62.6512 61.0252 0.0000 0.0000 0.0000
# 2 62.6512 88.3432 56.4108 0.0000 0.0000 0.0000
# 3 61.0252 56.4108 100.6681 0.0000 0.0000 0.0000
# 4 0.0000 0.0000 0.0000 29.4103 0.0000 0.0000
# 5 0.0000 0.0000 0.0000 0.0000 17.5567 0.0000
# 6 0.0000 0.0000 0.0000 0.0000 0.0000 31.0369
#
#
#
# Elastic Compliance Matrix: (Units=1/GPa)
#
#
# Indices 1 2 3 4 5 6 
#
# 1 0.017515 -0.008785 -0.005695 0.000000 0.000000 0.000000
# 2 -0.008785 0.022033 -0.007021 0.000000 0.000000 0.000000
# 3 -0.005695 -0.007021 0.017320 0.000000 0.000000 0.000000
# 4 0.000000 0.000000 0.000000 0.034002 0.000000 0.000000
# 5 0.000000 0.000000 0.000000 0.000000 0.056958 0.000000
# 6 0.000000 0.000000 0.000000 0.000000 0.000000 0.032220
#
#
# Mechanical properties :
#
#
# Convention : Reuss Voigt Hill
#
# Bulk Modulus (GPa) = 72.11638 73.06056 72.58847
# Shear Modulus (GPa) = 21.96149 23.41967 22.69058
#
# Velocity S-wave (km/s) = 3.69449 3.81517 3.75532
# Velocity P-wave (km/s) = 7.93852 8.05079 7.99485
#
# Compressibility (1/GPa) = 0.01386647
#
# Stress axis : x y z
#
# Youngs Moduli (GPa) = 57.09384 45.38706 57.73602
#
# Poissons Ratio (x) = 0.39872 0.32880
# Poissons Ratio (y) = 0.50156 0.40536
# Poissons Ratio (z) = 0.32515 0.31866
#
# Static dielectric constant tensor:
#      x y z
#    x 1.512410 0.000000 0.000000 
#    y 0.000000 1.558930 0.000000 
#    z 0.000000 0.000000 1.526430 
# 
# From -- ./inp_files/15122.got.cif
#   From: 2010.05.17/outbox.cif.g08.bks.cpg/sg62_8_cif.got.tgz:15122.got - 2010.06.03 15:25:27.
