data_PCOD9463283
_publ_section_title
;
Structure prediction by ZEFSAII (Michael W. Deem and Ramdas Pophale) SiO2 
 PCOD9463283
Probable space group: P N M A
;
_chemical_formula_sum "Si O2"
_cell_formula_units_Z 40
_cell_length_a 5.394351
_cell_length_b 17.260994
_cell_length_c 21.558223
_cell_angle_alpha 90.000000
_cell_angle_beta 90.000000
_cell_angle_gamma 90.000000
_cell_volume 2007.326247
_symmetry_space_group_name_H-M "P N M A"
_symmetry_group_IT_number 62
_symmetry_cell_setting 'orthorhombic'
loop_
_space_group_symop_operation_xyz
x,y,z
1/2-x,-y,1/2+z
1/2+x,1/2-y,1/2-z
-x,1/2+y,-z
-x,-y,-z
1/2+x,y,1/2-z
1/2-x,1/2+y,1/2+z
x,1/2-y,z
loop_
_atom_site_type_symbol
_atom_site_label
_atom_site_fract_x
_atom_site_fract_y
_atom_site_fract_z
Si Si1 0.246783 0.068033 0.562591
Si Si2 0.706679 0.750000 0.906074
Si Si3 0.205186 0.750000 0.825518
Si Si4 0.817204 0.524381 0.828456
Si Si5 0.685779 0.083652 0.192704
Si Si6 0.253454 0.895212 0.502743
O O1 0.489578 0.108616 0.535130
O O2 0.990572 0.105168 0.540523
O O3 0.266193 0.055164 0.636558
O O4 0.250937 0.979398 0.536278
O O5 0.433244 0.750000 0.874786
O O6 0.935256 0.750000 0.857053
O O7 0.737721 0.674912 0.949362
O O8 0.244832 0.670692 0.788248
O O9 0.576913 0.577564 0.840489
O O10 0.838543 0.530466 0.753815
O O11 0.086340 0.555334 0.849271
#
# Coordination Sequence:
#
# PCOD9463283 Si02
#       6
#     8   4   4   8   8   8
#     4  10  19  35  54  75 100 140 180 227 271 312
#     4  12  24  38  55  82 114 150 185 228 266 320
#     4  12  22  34  53  74 114 156 179 208 266 316
#     4  10  20  34  51  72 106 136 179 226 258 301
#     4  10  21  33  50  77 107 145 180 214 259 329
#     4  10  21  34  54  75 101 136 184 225 272 319
#
# _framework density 19.927005999999999
#
# number of rings (size 3 to 8) (size 9 to 14) (size 15 to 20)
#    0.000    1.600    0.000    6.000    0.000    6.400 
#    0.000    1.000    0.000    0.000    0.000    0.000 
#    0.000   64.000    0.000    0.000    0.000    0.000 
#
# Total GULP energy -223221.301093 kJ/mol
# GULP energy per Si atom -5580.532527 kJ/mol
# Density = 1.988165 g / cm^3
# Si number density = 19.927006 Si / 1000 Ang^3
#
#
#
# Elastic Constant Matrix: (Units=GPa)
#
#
# Indices 1 2 3 4 5 6 
#
# 1 136.7750 27.2780 30.8587 0.0000 0.0000 0.0000
# 2 27.2780 30.3416 29.5062 0.0000 0.0000 0.0000
# 3 30.8587 29.5062 85.8983 0.0000 0.0000 0.0000
# 4 0.0000 0.0000 0.0000 20.3302 0.0000 0.0000
# 5 0.0000 0.0000 0.0000 0.0000 27.7292 0.0000
# 6 0.0000 0.0000 0.0000 0.0000 0.0000 21.9673
#
#
#
# Elastic Compliance Matrix: (Units=1/GPa)
#
#
# Indices 1 2 3 4 5 6 
#
# 1 0.008935 -0.007375 -0.000677 0.000000 0.000000 0.000000
# 2 -0.007375 0.055577 -0.016441 0.000000 0.000000 0.000000
# 3 -0.000677 -0.016441 0.017532 0.000000 0.000000 0.000000
# 4 0.000000 0.000000 0.000000 0.049188 0.000000 0.000000
# 5 0.000000 0.000000 0.000000 0.000000 0.036063 0.000000
# 6 0.000000 0.000000 0.000000 0.000000 0.000000 0.045522
#
#
# Mechanical properties :
#
#
# Convention : Reuss Voigt Hill
#
# Bulk Modulus (GPa) = 30.24929 47.58897 38.91913
# Shear Modulus (GPa) = 18.32700 25.03014 21.67857
#
# Velocity S-wave (km/s) = 3.03596 3.54798 3.30191
# Velocity P-wave (km/s) = 5.24427 6.38104 5.84038
#
# Compressibility (1/GPa) = 0.03305862
#
# Stress axis : x y z
#
# Youngs Moduli (GPa) = 111.92332 17.99317 57.03735
#
# Poissons Ratio (x) = 0.13269 0.03859
# Poissons Ratio (y) = 0.82539 0.93777
# Poissons Ratio (z) = 0.07572 0.29583
#
# Static dielectric constant tensor:
#      x y z
#    x 1.798130 0.000000 0.000000 
#    y 0.000000 1.679680 0.000000 
#    z 0.000000 0.000000 1.764390 
# 
# From -- ./inp_files/28258.got.cif
#   From: 2010.05.17/outbox.cif.g08.bks.cpg/sg62_15_cif.got.tgz:28258.got - 2010.06.03 15:25:27.
