data_PCOD9463968
_publ_section_title
;
Structure prediction by ZEFSAII (Michael W. Deem and Ramdas Pophale) SiO2 
 PCOD9463968
Probable space group: P N M A
;
_chemical_formula_sum "Si O2"
_cell_formula_units_Z 48
_cell_length_a 10.753025
_cell_length_b 11.525785
_cell_length_c 17.397463
_cell_angle_alpha 90.000000
_cell_angle_beta 90.000000
_cell_angle_gamma 90.000000
_cell_volume 2156.190316
_symmetry_space_group_name_H-M "P N M A"
_symmetry_group_IT_number 62
_symmetry_cell_setting 'orthorhombic'
loop_
_space_group_symop_operation_xyz
x,y,z
1/2-x,-y,1/2+z
1/2+x,1/2-y,1/2-z
-x,1/2+y,-z
-x,-y,-z
1/2+x,y,1/2-z
1/2-x,1/2+y,1/2+z
x,1/2-y,z
loop_
_atom_site_type_symbol
_atom_site_label
_atom_site_fract_x
_atom_site_fract_y
_atom_site_fract_z
Si Si1 0.104090 0.114388 0.074246
Si Si2 0.156930 0.381875 0.803613
Si Si3 0.100057 0.975915 0.233634
Si Si4 0.433238 0.572325 0.894916
Si Si5 0.650153 0.620639 0.002674
Si Si6 0.164561 0.879401 0.904430
O O1 0.133661 0.250000 0.089384
O O2 0.214517 0.071855 0.019373
O O3 0.961188 0.112406 0.044802
O O4 0.108442 0.043210 0.153211
O O5 0.162898 0.250000 0.835787
O O6 0.275092 0.403423 0.748922
O O7 0.163103 0.499450 0.856384
O O8 0.022214 0.396422 0.765449
O O9 0.080263 0.067222 0.303665
O O10 0.561563 0.618868 0.927896
O O11 0.307883 0.627388 0.930696
O O12 0.422171 0.443819 0.929937
O O13 0.669248 0.750000 0.028389
O O14 0.146020 0.750000 0.864972
#
# Coordination Sequence:
#
# PCOD9463968 Si02
#       6
#     8   8   8   8   8   8
#     4   9  19  36  58  85 114 147 190 242 293 337
#     4  10  20  33  52  80 114 147 184 231 284 337
#     4  10  20  35  56  82 113 148 192 237 284 339
#     4  10  21  35  55  82 113 151 193 232 282 342
#     4  10  21  37  56  81 116 153 189 233 287 343
#     4   9  19  36  57  80 108 142 186 235 282 335
#
# _framework density 22.261485
#
# number of rings (size 3 to 8) (size 9 to 14) (size 15 to 20)
#    0.000    2.333    0.000    2.000    0.000    7.333 
#    0.000    6.667    0.000   14.000    0.000    0.000 
#    0.000    0.000    0.000    0.000    0.000    0.000 
#
# Total GULP energy -267213.633925 kJ/mol
# GULP energy per Si atom -5566.950707 kJ/mol
# Density = 2.221082 g / cm^3
# Si number density = 22.261485 Si / 1000 Ang^3
#
#
#
# Elastic Constant Matrix: (Units=GPa)
#
#
# Indices 1 2 3 4 5 6 
#
# 1 172.1117 35.5598 13.6184 0.0000 0.0000 0.0000
# 2 35.5598 116.7131 13.7704 0.0000 0.0000 0.0000
# 3 13.6184 13.7704 40.9669 0.0000 0.0000 0.0000
# 4 0.0000 0.0000 0.0000 3.3719 0.0000 0.0000
# 5 0.0000 0.0000 0.0000 0.0000 34.1683 0.0000
# 6 0.0000 0.0000 0.0000 0.0000 0.0000 13.3796
#
#
#
# Elastic Compliance Matrix: (Units=1/GPa)
#
#
# Indices 1 2 3 4 5 6 
#
# 1 0.006288 -0.001738 -0.001506 0.000000 0.000000 0.000000
# 2 -0.001738 0.009402 -0.002583 0.000000 0.000000 0.000000
# 3 -0.001506 -0.002583 0.025779 0.000000 0.000000 0.000000
# 4 0.000000 0.000000 0.000000 0.296566 0.000000 0.000000
# 5 0.000000 0.000000 0.000000 0.000000 0.029267 0.000000
# 6 0.000000 0.000000 0.000000 0.000000 0.000000 0.074740
#
#
# Mechanical properties :
#
#
# Convention : Reuss Voigt Hill
#
# Bulk Modulus (GPa) = 33.53961 50.63211 42.08586
# Shear Modulus (GPa) = 10.78433 27.97351 19.37892
#
# Velocity S-wave (km/s) = 2.20338 3.54868 2.95365
# Velocity P-wave (km/s) = 4.64458 6.29162 5.52977
#
# Compressibility (1/GPa) = 0.02981550
#
# Stress axis : x y z
#
# Youngs Moduli (GPa) = 159.02059 106.35654 38.79165
#
# Poissons Ratio (x) = 0.18487 0.05843
# Poissons Ratio (y) = 0.27642 0.10018
# Poissons Ratio (z) = 0.23951 0.27468
#
# Static dielectric constant tensor:
#      x y z
#    x 1.882390 0.000000 0.000000 
#    y 0.000000 1.880330 0.000000 
#    z 0.000000 0.000000 1.822130 
# 
# From -- ./inp_files/23041.got.cif
#   From: 2010.05.17/outbox.cif.g08.bks.cpg/sg62_12_cif.got.tgz:23041.got - 2010.06.03 15:25:27.
