data_PCOD9463873
_publ_section_title
;
Structure prediction by ZEFSAII (Michael W. Deem and Ramdas Pophale) SiO2 
 PCOD9463873
Probable space group: P N M A
;
_chemical_formula_sum "Si O2"
_cell_formula_units_Z 64
_cell_length_a 9.137079
_cell_length_b 12.711224
_cell_length_c 30.429242
_cell_angle_alpha 90.000000
_cell_angle_beta 90.000000
_cell_angle_gamma 90.000000
_cell_volume 3534.157386
_symmetry_space_group_name_H-M "P N M A"
_symmetry_group_IT_number 62
_symmetry_cell_setting 'orthorhombic'
loop_
_space_group_symop_operation_xyz
x,y,z
1/2-x,-y,1/2+z
1/2+x,1/2-y,1/2-z
-x,1/2+y,-z
-x,-y,-z
1/2+x,y,1/2-z
1/2-x,1/2+y,1/2+z
x,1/2-y,z
loop_
_atom_site_type_symbol
_atom_site_label
_atom_site_fract_x
_atom_site_fract_y
_atom_site_fract_z
Si Si1 0.151980 0.541212 0.019340
Si Si2 0.801317 0.627105 0.565497
Si Si3 0.112289 0.951781 0.852465
Si Si4 0.386048 0.127295 0.616690
Si Si5 0.334633 0.475459 0.151782
Si Si6 0.389472 0.623529 0.806863
Si Si7 0.875385 0.635793 0.793172
Si Si8 0.357875 0.373463 0.062702
O O1 0.120179 0.601771 0.064726
O O2 0.260220 0.444306 0.030770
O O3 0.229998 0.609501 0.981966
O O4 0.000000 0.500000 0.000000
O O5 0.806639 0.750000 0.576452
O O6 0.697594 0.575138 0.602454
O O7 0.971336 0.591383 0.563484
O O8 0.237939 0.937219 0.815706
O O9 0.992862 0.872142 0.832144
O O10 0.015869 0.056663 0.861530
O O11 0.407557 0.250000 0.624538
O O12 0.228616 0.086125 0.635085
O O13 0.497333 0.442288 0.163901
O O14 0.243550 0.449953 0.195127
O O15 0.296282 0.396880 0.111464
O O16 0.380763 0.750000 0.818551
O O17 0.434373 0.620586 0.755780
O O18 0.802123 0.750000 0.793762
O O19 0.351010 0.250000 0.052417
#
# Coordination Sequence:
#
# PCOD9463873 Si02
#       8
#     8   8   8   8   8   8   8   8
#     4  11  22  39  57  86 113 149 196 244 289 341
#     4  11  21  36  57  83 118 154 187 229 285 350
#     4  11  21  36  58  85 117 154 194 234 284 346
#     4  10  23  43  60  78 113 154 200 252 290 332
#     4  10  20  35  57  81 115 152 193 232 284 346
#     4  11  20  34  58  90 126 153 181 231 292 353
#     4  10  20  32  53  89 125 156 184 223 289 359
#     4  10  21  36  57  83 117 154 187 230 286 349
#
# _framework density 18.108985000000001
#
# number of rings (size 3 to 8) (size 9 to 14) (size 15 to 20)
#    0.000    1.500    2.500    3.750    0.000    3.000 
#    0.000    0.625    0.000   12.000    0.000    0.000 
#    0.000    0.000    0.000    0.000    0.000    0.000 
#
# Total GULP energy -356371.955250 kJ/mol
# GULP energy per Si atom -5568.311801 kJ/mol
# Density = 1.806777 g / cm^3
# Si number density = 18.108985 Si / 1000 Ang^3
#
#
#
# Elastic Constant Matrix: (Units=GPa)
#
#
# Indices 1 2 3 4 5 6 
#
# 1 97.0704 35.0900 26.6846 0.0000 0.0000 0.0000
# 2 35.0900 90.0256 32.8404 0.0000 0.0000 0.0000
# 3 26.6846 32.8404 79.7641 0.0000 0.0000 0.0000
# 4 0.0000 0.0000 0.0000 17.3483 0.0000 0.0000
# 5 0.0000 0.0000 0.0000 0.0000 33.5625 0.0000
# 6 0.0000 0.0000 0.0000 0.0000 0.0000 21.6614
#
#
#
# Elastic Compliance Matrix: (Units=1/GPa)
#
#
# Indices 1 2 3 4 5 6 
#
# 1 0.012415 -0.003911 -0.002543 0.000000 0.000000 0.000000
# 2 -0.003911 0.014303 -0.004580 0.000000 0.000000 0.000000
# 3 -0.002543 -0.004580 0.015274 0.000000 0.000000 0.000000
# 4 0.000000 0.000000 0.000000 0.057643 0.000000 0.000000
# 5 0.000000 0.000000 0.000000 0.000000 0.029795 0.000000
# 6 0.000000 0.000000 0.000000 0.000000 0.000000 0.046165
#
#
# Mechanical properties :
#
#
# Convention : Reuss Voigt Hill
#
# Bulk Modulus (GPa) = 50.19512 50.67668 50.43590
# Shear Modulus (GPa) = 24.47324 25.99744 25.23534
#
# Velocity S-wave (km/s) = 3.68018 3.79306 3.73705
# Velocity P-wave (km/s) = 6.77029 6.87227 6.82147
#
# Compressibility (1/GPa) = 0.01992225
#
# Stress axis : x y z
#
# Youngs Moduli (GPa) = 80.54918 69.91327 65.47271
#
# Poissons Ratio (x) = 0.27346 0.16649
# Poissons Ratio (y) = 0.31506 0.29990
# Poissons Ratio (z) = 0.20483 0.32023
#
# Static dielectric constant tensor:
#      x y z
#    x 1.687640 0.000000 0.000000 
#    y 0.000000 1.599330 0.000000 
#    z 0.000000 0.000000 1.654870 
# 
# From -- ./inp_files/32232.got.cif
#   From: 2010.05.17/outbox.cif.g08.bks.cpg/sg62_17_cif.got.tgz:32232.got - 2010.06.03 15:25:27.
