data_PCOD9463646
_publ_section_title
;
Structure prediction by ZEFSAII (Michael W. Deem and Ramdas Pophale) SiO2 
 PCOD9463646
Probable space group: P N M A
;
_chemical_formula_sum "Si O2"
_cell_formula_units_Z 64
_cell_length_a 15.854242
_cell_length_b 20.429269
_cell_length_c 9.521131
_cell_angle_alpha 90.000000
_cell_angle_beta 90.000000
_cell_angle_gamma 90.000000
_cell_volume 3083.804591
_symmetry_space_group_name_H-M "P N M A"
_symmetry_group_IT_number 62
_symmetry_cell_setting 'orthorhombic'
loop_
_space_group_symop_operation_xyz
x,y,z
1/2-x,-y,1/2+z
1/2+x,1/2-y,1/2-z
-x,1/2+y,-z
-x,-y,-z
1/2+x,y,1/2-z
1/2-x,1/2+y,1/2+z
x,1/2-y,z
loop_
_atom_site_type_symbol
_atom_site_label
_atom_site_fract_x
_atom_site_fract_y
_atom_site_fract_z
Si Si1 0.528245 0.823893 0.152431
Si Si2 0.282515 0.930065 0.795192
Si Si3 0.543796 0.045240 0.307916
Si Si4 0.692047 0.672453 0.522898
Si Si5 0.476227 0.100379 0.580483
Si Si6 0.241372 0.554869 0.472254
Si Si7 0.767753 0.323142 0.709094
Si Si8 0.047248 0.935762 0.552190
O O1 0.500612 0.750000 0.129097
O O2 0.490002 0.854728 0.293883
O O3 0.630049 0.823034 0.182564
O O4 0.511908 0.870547 0.020781
O O5 0.383972 0.931821 0.799638
O O6 0.240835 0.863982 0.852135
O O7 0.273247 0.944598 0.630415
O O8 0.242781 0.988595 0.886894
O O9 0.539880 0.082038 0.456177
O O10 0.459029 0.061168 0.220448
O O11 0.550656 0.968327 0.345534
O O12 0.679698 0.750000 0.547405
O O13 0.603455 0.636680 0.490020
O O14 0.742840 0.665386 0.375497
O O15 0.268359 0.617984 0.382651
O O16 0.141307 0.559420 0.495055
O O17 0.737611 0.250000 0.672719
O O18 0.000000 0.000000 0.500000
#
# Coordination Sequence:
#
# PCOD9463646 Si02
#       8
#     8   8   8   8   8   8   8   8
#     4   9  17  33  58  85 111 147 195 241 287 347
#     4  12  23  37  55  87 119 152 195 244 297 350
#     4  11  22  36  59  89 121 147 192 256 305 351
#     4  10  21  40  62  83 115 158 201 241 292 360
#     4  10  19  37  61  87 113 152 198 245 300 359
#     4  11  22  36  60  86 119 156 195 242 295 352
#     4   8  16  34  60  84 107 144 195 242 282 339
#     4  11  19  37  59  85 116 155 194 249 294 347
#
# _framework density 20.753584
#
# number of rings (size 3 to 8) (size 9 to 14) (size 15 to 20)
#    0.000    1.750    2.500    4.875    0.000    1.500 
#    0.000    5.625    0.000    1.500    0.000    0.000 
#    0.000    0.000    0.000    0.000    0.000    0.000 
#
# Total GULP energy -357266.945684 kJ/mol
# GULP energy per Si atom -5582.296026 kJ/mol
# Density = 2.070635 g / cm^3
# Si number density = 20.753584 Si / 1000 Ang^3
#
#
#
# Elastic Constant Matrix: (Units=GPa)
#
#
# Indices 1 2 3 4 5 6 
#
# 1 23.7087 27.4264 16.8620 0.0000 0.0000 0.0000
# 2 27.4264 150.4685 63.0002 0.0000 0.0000 0.0000
# 3 16.8620 63.0002 100.0225 0.0000 0.0000 0.0000
# 4 0.0000 0.0000 0.0000 39.9808 0.0000 0.0000
# 5 0.0000 0.0000 0.0000 0.0000 32.4990 0.0000
# 6 0.0000 0.0000 0.0000 0.0000 0.0000 16.3216
#
#
#
# Elastic Compliance Matrix: (Units=1/GPa)
#
#
# Indices 1 2 3 4 5 6 
#
# 1 0.054595 -0.008282 -0.003987 0.000000 0.000000 0.000000
# 2 -0.008282 0.010283 -0.005080 0.000000 0.000000 0.000000
# 3 -0.003987 -0.005080 0.013870 0.000000 0.000000 0.000000
# 4 0.000000 0.000000 0.000000 0.025012 0.000000 0.000000
# 5 0.000000 0.000000 0.000000 0.000000 0.030770 0.000000
# 6 0.000000 0.000000 0.000000 0.000000 0.000000 0.061269
#
#
# Mechanical properties :
#
#
# Convention : Reuss Voigt Hill
#
# Bulk Modulus (GPa) = 22.70237 54.30855 38.50546
# Shear Modulus (GPa) = 20.39319 28.88769 24.64044
#
# Velocity S-wave (km/s) = 3.13810 3.73492 3.44944
# Velocity P-wave (km/s) = 4.90846 6.69511 5.87016
#
# Compressibility (1/GPa) = 0.04404826
#
# Stress axis : x y z
#
# Youngs Moduli (GPa) = 18.31677 97.25177 72.09839
#
# Poissons Ratio (x) = 0.80541 0.28749
# Poissons Ratio (y) = 0.15169 0.36629
# Poissons Ratio (z) = 0.07304 0.49408
#
# Static dielectric constant tensor:
#      x y z
#    x 1.889120 0.000000 0.000000 
#    y 0.000000 1.720450 0.000000 
#    z 0.000000 0.000000 1.805740 
# 
# From -- ./inp_files/8911.got.cif
#   From: 2010.05.17/outbox.cif.g08.bks.cpg/sg62_5_cif.got.tgz:8911.got - 2010.06.03 15:25:27.
