data_PCOD9463368
_publ_section_title
;
Structure prediction by ZEFSAII (Michael W. Deem and Ramdas Pophale) SiO2 
 PCOD9463368
Probable space group: P N M A
;
_chemical_formula_sum "Si O2"
_cell_formula_units_Z 40
_cell_length_a 8.023161
_cell_length_b 8.030849
_cell_length_c 23.872090
_cell_angle_alpha 90.000000
_cell_angle_beta 90.000000
_cell_angle_gamma 90.000000
_cell_volume 1538.145469
_symmetry_space_group_name_H-M "P N M A"
_symmetry_group_IT_number 62
_symmetry_cell_setting 'orthorhombic'
loop_
_space_group_symop_operation_xyz
x,y,z
1/2-x,-y,1/2+z
1/2+x,1/2-y,1/2-z
-x,1/2+y,-z
-x,-y,-z
1/2+x,y,1/2-z
1/2-x,1/2+y,1/2+z
x,1/2-y,z
loop_
_atom_site_type_symbol
_atom_site_label
_atom_site_fract_x
_atom_site_fract_y
_atom_site_fract_z
Si Si1 0.865373 0.434918 0.259377
Si Si2 0.565405 0.558706 0.333648
Si Si3 0.134282 0.047181 0.934559
Si Si4 0.962674 0.444679 0.636995
Si Si5 0.164184 0.950405 0.535892
O O1 0.865314 0.250000 0.236501
O O2 0.703181 0.468237 0.296690
O O3 0.903662 0.553951 0.207441
O O4 0.009393 0.456722 0.306239
O O5 0.615536 0.750000 0.340474
O O6 0.512777 0.485387 0.393950
O O7 0.122138 0.250000 0.936458
O O8 0.300988 0.007331 0.898602
O O9 0.180706 0.988925 0.997371
O O10 0.953268 0.250000 0.650410
O O11 0.121301 0.474061 0.596004
O O12 0.171655 0.750000 0.540174
O O13 0.000000 0.000000 0.500000
#
# Coordination Sequence:
#
# PCOD9463368 Si02
#       5
#     8   8   8   8   8
#     4  12  25  40  57  84 116 147 185 237 290 338
#     4  11  22  40  62  83 109 149 192 232 280 343
#     4   8  17  33  57  84 111 143 186 231 275 328
#     4  10  19  35  58  85 113 149 192 234 281 339
#     4   9  16  30  52  82 115 148 186 232 279 332
#
# _framework density 26.005341999999999
#
# number of rings (size 3 to 8) (size 9 to 14) (size 15 to 20)
#    0.000    2.000    0.000    6.000    0.000    1.600 
#    0.000   12.000    0.000    0.000    0.000    0.000 
#    0.000    0.000    0.000    0.000    0.000    0.000 
#
# Total GULP energy -223864.677594 kJ/mol
# GULP energy per Si atom -5596.616940 kJ/mol
# Density = 2.594615 g / cm^3
# Si number density = 26.005342 Si / 1000 Ang^3
#
#
#
# Elastic Constant Matrix: (Units=GPa)
#
#
# Indices 1 2 3 4 5 6 
#
# 1 74.6744 2.0762 6.6012 0.0000 0.0000 0.0000
# 2 2.0762 76.6617 4.7760 0.0000 0.0000 0.0000
# 3 6.6012 4.7760 159.7350 0.0000 0.0000 0.0000
# 4 0.0000 0.0000 0.0000 31.5395 0.0000 0.0000
# 5 0.0000 0.0000 0.0000 0.0000 47.3852 0.0000
# 6 0.0000 0.0000 0.0000 0.0000 0.0000 26.8937
#
#
#
# Elastic Compliance Matrix: (Units=1/GPa)
#
#
# Indices 1 2 3 4 5 6 
#
# 1 0.013449 -0.000330 -0.000546 0.000000 0.000000 0.000000
# 2 -0.000330 0.013077 -0.000377 0.000000 0.000000 0.000000
# 3 -0.000546 -0.000377 0.006294 0.000000 0.000000 0.000000
# 4 0.000000 0.000000 0.000000 0.031706 0.000000 0.000000
# 5 0.000000 0.000000 0.000000 0.000000 0.021104 0.000000
# 6 0.000000 0.000000 0.000000 0.000000 0.000000 0.037183
#
#
# Mechanical properties :
#
#
# Convention : Reuss Voigt Hill
#
# Bulk Modulus (GPa) = 32.98921 37.55309 35.27115
# Shear Modulus (GPa) = 36.92094 41.00486 38.96290
#
# Velocity S-wave (km/s) = 3.77204 3.97518 3.87494
# Velocity P-wave (km/s) = 5.62886 5.96166 5.79765
#
# Compressibility (1/GPa) = 0.03031294
#
# Stress axis : x y z
#
# Youngs Moduli (GPa) = 74.35552 76.47147 158.87611
#
# Poissons Ratio (x) = 0.02525 0.08673
# Poissons Ratio (y) = 0.02455 0.05995
# Poissons Ratio (z) = 0.04059 0.02886
#
# Static dielectric constant tensor:
#      x y z
#    x 2.438480 0.000000 0.000000 
#    y 0.000000 1.873210 0.000000 
#    z 0.000000 0.000000 2.343160 
# 
# From -- ./inp_files/28586.got.cif
#   From: 2010.05.17/outbox.cif.g08.bks.cpg/sg62_15_cif.got.tgz:28586.got - 2010.06.03 15:25:27.
