data_PCOD9463976
_publ_section_title
;
Structure prediction by ZEFSAII (Michael W. Deem and Ramdas Pophale) SiO2 
 PCOD9463976
Probable space group: P N M A
;
_chemical_formula_sum "Si O2"
_cell_formula_units_Z 64
_cell_length_a 30.324131
_cell_length_b 10.032754
_cell_length_c 10.394404
_cell_angle_alpha 90.000000
_cell_angle_beta 90.000000
_cell_angle_gamma 90.000000
_cell_volume 3162.336788
_symmetry_space_group_name_H-M "P N M A"
_symmetry_group_IT_number 62
_symmetry_cell_setting 'orthorhombic'
loop_
_space_group_symop_operation_xyz
x,y,z
1/2-x,-y,1/2+z
1/2+x,1/2-y,1/2-z
-x,1/2+y,-z
-x,-y,-z
1/2+x,y,1/2-z
1/2-x,1/2+y,1/2+z
x,1/2-y,z
loop_
_atom_site_type_symbol
_atom_site_label
_atom_site_fract_x
_atom_site_fract_y
_atom_site_fract_z
Si Si1 0.530366 0.396698 0.300680
Si Si2 0.723409 0.909250 0.708884
Si Si3 0.730155 0.903467 0.002052
Si Si4 0.450831 0.898254 0.275720
Si Si5 0.364998 0.099586 0.890219
Si Si6 0.627413 0.093287 0.346480
Si Si7 0.646727 0.407341 0.631773
Si Si8 0.550613 0.458770 0.015258
O O1 0.515535 0.250000 0.341636
O O2 0.490493 0.500385 0.304723
O O3 0.575293 0.434726 0.373281
O O4 0.548042 0.387897 0.153142
O O5 0.719692 0.750000 0.684622
O O6 0.750833 0.987848 0.600134
O O7 0.677148 0.988329 0.705080
O O8 0.742408 0.925039 0.853168
O O9 0.742977 0.750000 0.037379
O O10 0.677053 0.909977 0.017023
O O11 0.464169 0.750000 0.317424
O O12 0.404381 0.933195 0.338485
O O13 0.440773 0.894092 0.122389
O O14 0.367273 0.250000 0.839718
O O15 0.410856 0.066241 0.961726
O O16 0.358775 0.998525 0.771750
O O17 0.630750 0.250000 0.312813
O O18 0.653365 0.073484 0.478798
O O19 0.655028 0.250000 0.662316
O O20 0.500000 0.500000 0.000000
#
# Coordination Sequence:
#
# PCOD9463976 Si02
#       8
#     8   8   8   8   8   8   8   8
#     4   9  18  32  50  76 112 154 199 249 300 355
#     4  11  25  44  68  96 125 161 205 251 309 376
#     4  10  24  45  67  96 131 163 202 258 316 371
#     4  10  20  33  53  80 112 155 201 246 299 360
#     4  10  21  38  62  88 118 155 201 252 301 358
#     4   9  20  37  56  82 119 160 200 247 305 359
#     4  10  22  40  60  84 120 159 199 253 309 363
#     4   9  18  31  52  82 116 150 192 242 297 354
#
# _framework density 20.238199000000002
#
# number of rings (size 3 to 8) (size 9 to 14) (size 15 to 20)
#    0.000    2.250    0.000    1.500    1.750   10.000 
#    0.000    0.000    0.000    0.000    0.000    0.000 
#    0.000    0.000    0.000    0.000    0.000    0.000 
#
# Total GULP energy -356805.523030 kJ/mol
# GULP energy per Si atom -5575.086297 kJ/mol
# Density = 2.019214 g / cm^3
# Si number density = 20.238199 Si / 1000 Ang^3
#
#
#
# Elastic Constant Matrix: (Units=GPa)
#
#
# Indices 1 2 3 4 5 6 
#
# 1 53.7877 45.5232 28.7497 0.0000 0.0000 0.0000
# 2 45.5232 114.2210 49.4910 0.0000 0.0000 0.0000
# 3 28.7497 49.4910 91.6693 0.0000 0.0000 0.0000
# 4 0.0000 0.0000 0.0000 22.9606 0.0000 0.0000
# 5 0.0000 0.0000 0.0000 0.0000 31.5910 0.0000
# 6 0.0000 0.0000 0.0000 0.0000 0.0000 29.9575
#
#
#
# Elastic Compliance Matrix: (Units=1/GPa)
#
#
# Indices 1 2 3 4 5 6 
#
# 1 0.028999 -0.009943 -0.003727 0.000000 0.000000 0.000000
# 2 -0.009943 0.014837 -0.004892 0.000000 0.000000 0.000000
# 3 -0.003727 -0.004892 0.014719 0.000000 0.000000 0.000000
# 4 0.000000 0.000000 0.000000 0.043553 0.000000 0.000000
# 5 0.000000 0.000000 0.000000 0.000000 0.031655 0.000000
# 6 0.000000 0.000000 0.000000 0.000000 0.000000 0.033381
#
#
# Mechanical properties :
#
#
# Convention : Reuss Voigt Hill
#
# Bulk Modulus (GPa) = 46.66041 56.35621 51.50831
# Shear Modulus (GPa) = 23.65074 25.96279 24.80676
#
# Velocity S-wave (km/s) = 3.42222 3.58559 3.50485
# Velocity P-wave (km/s) = 6.22263 6.71184 6.47186
#
# Compressibility (1/GPa) = 0.02143145
#
# Stress axis : x y z
#
# Youngs Moduli (GPa) = 34.48447 67.39706 67.94029
#
# Poissons Ratio (x) = 0.67011 0.25319
# Poissons Ratio (y) = 0.34287 0.33238
# Poissons Ratio (z) = 0.12851 0.32972
#
# Static dielectric constant tensor:
#      x y z
#    x 1.819730 0.000000 0.000000 
#    y 0.000000 1.668810 0.000000 
#    z 0.000000 0.000000 1.740840 
# 
# From -- ./inp_files/15853.got.cif
#   From: 2010.05.17/outbox.cif.g08.bks.cpg/sg62_8_cif.got.tgz:15853.got - 2010.06.03 15:25:27.
