data_PCOD9463931
_publ_section_title
;
Structure prediction by ZEFSAII (Michael W. Deem and Ramdas Pophale) SiO2 
 PCOD9463931
Probable space group: P N M A
;
_chemical_formula_sum "Si O2"
_cell_formula_units_Z 48
_cell_length_a 23.780113
_cell_length_b 21.972260
_cell_length_c 5.007886
_cell_angle_alpha 90.000000
_cell_angle_beta 90.000000
_cell_angle_gamma 90.000000
_cell_volume 2616.634586
_symmetry_space_group_name_H-M "P N M A"
_symmetry_group_IT_number 62
_symmetry_cell_setting 'orthorhombic'
loop_
_space_group_symop_operation_xyz
x,y,z
1/2-x,-y,1/2+z
1/2+x,1/2-y,1/2-z
-x,1/2+y,-z
-x,-y,-z
1/2+x,y,1/2-z
1/2-x,1/2+y,1/2+z
x,1/2-y,z
loop_
_atom_site_type_symbol
_atom_site_label
_atom_site_fract_x
_atom_site_fract_y
_atom_site_fract_z
Si Si1 0.749818 0.917564 0.523121
Si Si2 0.685826 0.454606 0.517907
Si Si3 0.001756 0.417509 0.737409
Si Si4 0.562688 0.045991 0.263376
Si Si5 0.420667 0.179793 0.027648
Si Si6 0.655462 0.680184 0.485680
O O1 0.799797 0.929321 0.310970
O O2 0.711094 0.859627 0.479286
O O3 0.709069 0.976404 0.504999
O O4 0.775674 0.916425 0.816046
O O5 0.623624 0.453938 0.397249
O O6 0.053862 0.431319 0.538080
O O7 0.961712 0.477192 0.750933
O O8 0.968164 0.362628 0.601683
O O9 0.024432 0.413001 0.038156
O O10 0.439787 0.250000 0.066906
O O11 0.372022 0.179770 0.805088
O O12 0.391523 0.157142 0.301302
O O13 0.667165 0.750000 0.564132
#
# Coordination Sequence:
#
# PCOD9463931 Si02
#       6
#     8   8   8   8   8   8
#     4  10  20  33  52  75 101 133 167 208 255 300
#     4  10  20  33  51  75 102 134 168 207 253 302
#     4  10  20  33  52  76 102 134 167 208 256 302
#     4  10  20  33  51  75 103 134 168 207 253 304
#     4  10  20  34  54  78 103 132 167 210 257 303
#     4  10  20  34  54  78 103 132 167 211 258 303
#
# _framework density 18.344173000000001
#
# number of rings (size 3 to 8) (size 9 to 14) (size 15 to 20)
#    0.000    2.000    0.000    4.000    0.000    5.333 
#    0.000    0.000    0.000    6.000    0.000    0.000 
#    0.000    0.000    0.000    0.000    0.000    0.000 
#
# Total GULP energy -267680.059977 kJ/mol
# GULP energy per Si atom -5576.667916 kJ/mol
# Density = 1.830242 g / cm^3
# Si number density = 18.344173 Si / 1000 Ang^3
#
#
#
# Elastic Constant Matrix: (Units=GPa)
#
#
# Indices 1 2 3 4 5 6 
#
# 1 60.0103 21.0809 -9.0015 0.0000 0.0000 0.0000
# 2 21.0809 36.1389 1.3978 0.0000 0.0000 0.0000
# 3 -9.0015 1.3978 63.1348 0.0000 0.0000 0.0000
# 4 0.0000 0.0000 0.0000 14.6955 0.0000 0.0000
# 5 0.0000 0.0000 0.0000 0.0000 22.9324 0.0000
# 6 0.0000 0.0000 0.0000 0.0000 0.0000 21.1325
#
#
#
# Elastic Compliance Matrix: (Units=1/GPa)
#
#
# Indices 1 2 3 4 5 6 
#
# 1 0.021652 -0.012760 0.003370 0.000000 0.000000 0.000000
# 2 -0.012760 0.035215 -0.002599 0.000000 0.000000 0.000000
# 3 0.003370 -0.002599 0.016377 0.000000 0.000000 0.000000
# 4 0.000000 0.000000 0.000000 0.068048 0.000000 0.000000
# 5 0.000000 0.000000 0.000000 0.000000 0.043606 0.000000
# 6 0.000000 0.000000 0.000000 0.000000 0.000000 0.047320
#
#
# Mechanical properties :
#
#
# Convention : Reuss Voigt Hill
#
# Bulk Modulus (GPa) = 20.29873 20.69316 20.49594
# Shear Modulus (GPa) = 18.34055 21.47255 19.90655
#
# Velocity S-wave (km/s) = 3.16540 3.42502 3.29777
# Velocity P-wave (km/s) = 4.94461 5.19096 5.06928
#
# Compressibility (1/GPa) = 0.04926416
#
# Stress axis : x y z
#
# Youngs Moduli (GPa) = 46.18553 28.39691 61.06096
#
# Poissons Ratio (x) = 0.36236 -0.20575
# Poissons Ratio (y) = 0.58935 0.15870
# Poissons Ratio (z) = -0.15562 0.07380
#
# Static dielectric constant tensor:
#      x y z
#    x 1.628330 0.000000 0.000000 
#    y 0.000000 1.628140 0.000000 
#    z 0.000000 0.000000 1.632900 
# 
# From -- ./inp_files/1718.got.cif
#   From: 2010.05.17/outbox.cif.g08.bks.cpg/sg62_1_cif.got.tgz:1718.got - 2010.06.03 15:25:27.
