data_PCOD9463612
_publ_section_title
;
Structure prediction by ZEFSAII (Michael W. Deem and Ramdas Pophale) SiO2 
 PCOD9463612
Probable space group: P N M A
;
_chemical_formula_sum "Si O2"
_cell_formula_units_Z 64
_cell_length_a 9.093797
_cell_length_b 21.378235
_cell_length_c 17.845210
_cell_angle_alpha 90.000000
_cell_angle_beta 90.000000
_cell_angle_gamma 90.000000
_cell_volume 3469.275307
_symmetry_space_group_name_H-M "P N M A"
_symmetry_group_IT_number 62
_symmetry_cell_setting 'orthorhombic'
loop_
_space_group_symop_operation_xyz
x,y,z
1/2-x,-y,1/2+z
1/2+x,1/2-y,1/2-z
-x,1/2+y,-z
-x,-y,-z
1/2+x,y,1/2-z
1/2-x,1/2+y,1/2+z
x,1/2-y,z
loop_
_atom_site_type_symbol
_atom_site_label
_atom_site_fract_x
_atom_site_fract_y
_atom_site_fract_z
Si Si1 0.545381 0.974831 0.918614
Si Si2 0.800972 0.548805 0.698119
Si Si3 0.783795 0.902361 0.212196
Si Si4 0.197522 0.113777 0.028622
Si Si5 0.021265 0.078644 0.155013
Si Si6 0.513209 0.562828 0.402626
Si Si7 0.825997 0.604310 0.380739
Si Si8 0.107811 0.677156 0.409442
O O1 0.603725 0.035211 0.874503
O O2 0.409456 0.947757 0.872730
O O3 0.675911 0.926595 0.931543
O O4 0.500000 0.000000 0.000000
O O5 0.770498 0.474661 0.712663
O O6 0.879257 0.576120 0.771122
O O7 0.647652 0.582038 0.679650
O O8 0.796617 0.875690 0.295349
O O9 0.678306 0.861686 0.159378
O O10 0.942402 0.906183 0.171622
O O11 0.081511 0.127940 0.094356
O O12 0.284738 0.165010 0.980186
O O13 0.107190 0.073729 0.966828
O O14 0.033597 0.010129 0.115309
O O15 0.669251 0.594276 0.420562
O O16 0.945795 0.647632 0.420728
O O17 0.098523 0.750000 0.392787
#
# Coordination Sequence:
#
# PCOD9463612 Si02
#       8
#     8   8   8   8   8   8   8   8
#     4  12  20  33  54  85 120 153 184 233 304 360
#     4  11  21  33  54  91 120 150 185 228 298 376
#     4  10  19  37  53  79 112 155 192 240 294 339
#     4  11  22  37  54  82 115 153 195 240 300 346
#     4  11  20  32  53  83 120 146 181 231 299 362
#     4  10  20  30  53  83 114 146 189 231 292 365
#     4  12  20  34  58  81 114 152 199 247 295 347
#     4  11  25  41  56  77 111 160 213 250 283 343
#
# _framework density 18.447655999999998
#
# number of rings (size 3 to 8) (size 9 to 14) (size 15 to 20)
#    0.000    1.000    5.000    4.875    1.750    0.500 
#    0.000    2.500    0.000    0.000    0.000    3.500 
#    0.000    0.000    0.000    0.000    0.000    0.000 
#
# Total GULP energy -357399.849790 kJ/mol
# GULP energy per Si atom -5584.372653 kJ/mol
# Density = 1.840567 g / cm^3
# Si number density = 18.447656 Si / 1000 Ang^3
#
#
#
# Elastic Constant Matrix: (Units=GPa)
#
#
# Indices 1 2 3 4 5 6 
#
# 1 123.5838 9.3701 36.2644 0.0000 0.0000 0.0000
# 2 9.3701 24.1677 1.0650 0.0000 0.0000 0.0000
# 3 36.2644 1.0650 90.5569 0.0000 0.0000 0.0000
# 4 0.0000 0.0000 0.0000 6.3859 0.0000 0.0000
# 5 0.0000 0.0000 0.0000 0.0000 36.8788 0.0000
# 6 0.0000 0.0000 0.0000 0.0000 0.0000 5.6655
#
#
#
# Elastic Compliance Matrix: (Units=1/GPa)
#
#
# Indices 1 2 3 4 5 6 
#
# 1 0.009456 -0.003501 -0.003746 0.000000 0.000000 0.000000
# 2 -0.003501 0.042695 0.000900 0.000000 0.000000 0.000000
# 3 -0.003746 0.000900 0.012532 0.000000 0.000000 0.000000
# 4 0.000000 0.000000 0.000000 0.156596 0.000000 0.000000
# 5 0.000000 0.000000 0.000000 0.000000 0.027116 0.000000
# 6 0.000000 0.000000 0.000000 0.000000 0.000000 0.176507
#
#
# Mechanical properties :
#
#
# Convention : Reuss Voigt Hill
#
# Bulk Modulus (GPa) = 19.23449 36.85638 28.04543
# Shear Modulus (GPa) = 10.99079 22.55995 16.77537
#
# Velocity S-wave (km/s) = 2.44351 3.50082 3.01881
# Velocity P-wave (km/s) = 4.29071 6.03019 5.23323
#
# Compressibility (1/GPa) = 0.05198994
#
# Stress axis : x y z
#
# Youngs Moduli (GPa) = 105.74990 23.42173 79.79452
#
# Poissons Ratio (x) = 0.08201 0.29888
# Poissons Ratio (y) = 0.37026 -0.07181
# Poissons Ratio (z) = 0.39610 -0.02108
#
# Static dielectric constant tensor:
#      x y z
#    x 1.690830 0.000000 0.000000 
#    y 0.000000 1.582530 0.000000 
#    z 0.000000 0.000000 1.683470 
# 
# From -- ./inp_files/22556.got.cif
#   From: 2010.05.17/outbox.cif.g08.bks.cpg/sg62_12_cif.got.tgz:22556.got - 2010.06.03 15:25:27.
