data_PCOD9463601
_publ_section_title
;
Structure prediction by ZEFSAII (Michael W. Deem and Ramdas Pophale) SiO2 
 PCOD9463601
Probable space group: P N M A
;
_chemical_formula_sum "Si O2"
_cell_formula_units_Z 44
_cell_length_a 18.547472
_cell_length_b 14.945731
_cell_length_c 8.957035
_cell_angle_alpha 90.000000
_cell_angle_beta 90.000000
_cell_angle_gamma 90.000000
_cell_volume 2482.939610
_symmetry_space_group_name_H-M "P N M A"
_symmetry_group_IT_number 62
_symmetry_cell_setting 'orthorhombic'
loop_
_space_group_symop_operation_xyz
x,y,z
1/2-x,-y,1/2+z
1/2+x,1/2-y,1/2-z
-x,1/2+y,-z
-x,-y,-z
1/2+x,y,1/2-z
1/2-x,1/2+y,1/2+z
x,1/2-y,z
loop_
_atom_site_type_symbol
_atom_site_label
_atom_site_fract_x
_atom_site_fract_y
_atom_site_fract_z
Si Si1 0.812059 0.750000 0.660855
Si Si2 0.307610 0.561789 0.162561
Si Si3 0.330883 0.750000 0.203581
Si Si4 0.409095 0.250000 0.459396
Si Si5 0.534821 0.250000 0.216762
Si Si6 0.205920 0.904760 0.894510
Si Si7 0.533368 0.403758 0.971973
Si Si8 0.502015 0.250000 0.755813
O O1 0.833005 0.750000 0.481319
O O2 0.764410 0.662040 0.679312
O O3 0.881685 0.750000 0.764958
O O4 0.292766 0.657391 0.242697
O O5 0.313790 0.481146 0.277463
O O6 0.385090 0.577266 0.083307
O O7 0.245555 0.552441 0.038355
O O8 0.411215 0.750000 0.270564
O O9 0.471662 0.250000 0.335393
O O10 0.358847 0.161990 0.440809
O O11 0.450360 0.250000 0.615863
O O12 0.530478 0.339603 0.116086
O O13 0.492992 0.341404 0.850329
O O14 0.500000 0.500000 0.000000
#
# Coordination Sequence:
#
# PCOD9463601 Si02
#       8
#     4   8   4   4   4   8   8   4
#     4   9  16  39  62  74 106 167 193 229 284 367
#     4  10  19  38  58  82 111 155 192 243 289 360
#     4   8  15  37  59  72 105 152 193 225 291 347
#     4  11  24  37  56  91 128 146 186 268 299 334
#     4  11  18  39  61  81 113 168 198 237 294 363
#     4  10  21  38  58  84 119 151 198 240 303 351
#     4  10  19  36  64  86 113 154 208 236 284 362
#     4   9  19  38  54  84 118 149 182 245 300 331
#
# _framework density 17.720929999999999
#
# number of rings (size 3 to 8) (size 9 to 14) (size 15 to 20)
#    0.000    2.182    5.455    1.636    0.000    1.455 
#    6.545    5.455    0.000    0.000    0.000    0.000 
#    0.000    0.000    0.000    0.000    0.000    0.000 
#
# Total GULP energy -244990.400326 kJ/mol
# GULP energy per Si atom -5567.963644 kJ/mol
# Density = 1.768060 g / cm^3
# Si number density = 17.720930 Si / 1000 Ang^3
#
#
#
# Elastic Constant Matrix: (Units=GPa)
#
#
# Indices 1 2 3 4 5 6 
#
# 1 99.6406 52.7859 59.1781 0.0000 0.0000 0.0000
# 2 52.7859 153.2351 65.6082 0.0000 0.0000 0.0000
# 3 59.1781 65.6082 76.9110 0.0000 0.0000 0.0000
# 4 0.0000 0.0000 0.0000 18.6575 0.0000 0.0000
# 5 0.0000 0.0000 0.0000 0.0000 29.4376 0.0000
# 6 0.0000 0.0000 0.0000 0.0000 0.0000 18.4924
#
#
#
# Elastic Compliance Matrix: (Units=1/GPa)
#
#
# Indices 1 2 3 4 5 6 
#
# 1 0.018501 -0.000438 -0.013861 0.000000 0.000000 0.000000
# 2 -0.000438 0.010291 -0.008442 0.000000 0.000000 0.000000
# 3 -0.013861 -0.008442 0.030868 0.000000 0.000000 0.000000
# 4 0.000000 0.000000 0.000000 0.053598 0.000000 0.000000
# 5 0.000000 0.000000 0.000000 0.000000 0.033970 0.000000
# 6 0.000000 0.000000 0.000000 0.000000 0.000000 0.054076
#
#
# Mechanical properties :
#
#
# Convention : Reuss Voigt Hill
#
# Bulk Modulus (GPa) = 70.53140 76.10346 73.31743
# Shear Modulus (GPa) = 19.87973 23.46513 21.67243
#
# Velocity S-wave (km/s) = 3.35300 3.64283 3.50091
# Velocity P-wave (km/s) = 7.40795 7.79310 7.60296
#
# Compressibility (1/GPa) = 0.01417808
#
# Stress axis : x y z
#
# Youngs Moduli (GPa) = 54.05217 97.17045 32.39566
#
# Poissons Ratio (x) = 0.04259 0.44904
# Poissons Ratio (y) = 0.02369 0.27347
# Poissons Ratio (z) = 0.74923 0.82027
#
# Static dielectric constant tensor:
#      x y z
#    x 1.626100 0.000000 0.000000 
#    y 0.000000 1.632670 0.000000 
#    z 0.000000 0.000000 1.613000 
# 
# From -- ./inp_files/7593.got.cif
#   From: 2010.05.17/outbox.cif.g08.bks.cpg/sg62_4_cif.got.tgz:7593.got - 2010.06.03 15:25:27.
