data_PCOD9463261
_publ_section_title
;
Structure prediction by ZEFSAII (Michael W. Deem and Ramdas Pophale) SiO2 
 PCOD9463261
Probable space group: P N M A
;
_chemical_formula_sum "Si O2"
_cell_formula_units_Z 64
_cell_length_a 12.747450
_cell_length_b 16.731621
_cell_length_c 13.962801
_cell_angle_alpha 90.000000
_cell_angle_beta 90.000000
_cell_angle_gamma 90.000000
_cell_volume 2978.063022
_symmetry_space_group_name_H-M "P N M A"
_symmetry_group_IT_number 62
_symmetry_cell_setting 'orthorhombic'
loop_
_space_group_symop_operation_xyz
x,y,z
1/2-x,-y,1/2+z
1/2+x,1/2-y,1/2-z
-x,1/2+y,-z
-x,-y,-z
1/2+x,y,1/2-z
1/2-x,1/2+y,1/2+z
x,1/2-y,z
loop_
_atom_site_type_symbol
_atom_site_label
_atom_site_fract_x
_atom_site_fract_y
_atom_site_fract_z
Si Si1 0.223822 0.842216 0.677386
Si Si2 0.606715 0.987240 0.747515
Si Si3 0.043300 0.163595 0.953755
Si Si4 0.903630 0.549395 0.873074
Si Si5 0.731504 0.372721 0.683861
Si Si6 0.811090 0.123636 0.890554
Si Si7 0.380868 0.393980 0.981651
Si Si8 0.609977 0.427805 0.956595
O O1 0.224330 0.750000 0.702528
O O2 0.143005 0.897295 0.734782
O O3 0.337037 0.884214 0.683376
O O4 0.184377 0.855788 0.568137
O O5 0.502624 0.983586 0.684834
O O6 0.699364 0.034399 0.694694
O O7 0.591780 0.036502 0.847584
O O8 0.059717 0.250000 0.002376
O O9 0.125847 0.160419 0.865813
O O10 0.923017 0.158152 0.919532
O O11 0.065081 0.091230 0.026924
O O12 0.830118 0.472482 0.886945
O O13 0.768719 0.346186 0.788364
O O14 0.828387 0.361821 0.613748
O O15 0.711064 0.128765 0.959563
O O16 0.505175 0.382600 0.987882
O O17 0.371582 0.490750 0.984554
#
# Coordination Sequence:
#
# PCOD9463261 Si02
#       8
#     8   8   8   8   8   8   8   8
#     4  11  23  41  59  92 133 166 209 259 327 390
#     4  10  22  37  64  94 120 162 213 263 316 374
#     4  12  27  42  63  97 135 171 213 272 336 383
#     4  12  21  41  68  95 125 170 214 270 319 389
#     4  11  21  37  66  92 121 161 214 264 311 376
#     4  11  22  40  66  95 124 165 222 265 314 384
#     4  10  19  34  61  89 121 157 203 254 313 369
#     4   9  19  36  59  95 119 157 206 265 308 368
#
# _framework density 21.490479000000001
#
# number of rings (size 3 to 8) (size 9 to 14) (size 15 to 20)
#    0.000    1.250    6.250    1.500    3.500    1.500 
#    0.000    0.625    0.000    0.000    0.000    0.000 
#    0.000    0.000    0.000    0.000    0.000    0.000 
#
# Total GULP energy -357406.966671 kJ/mol
# GULP energy per Si atom -5584.483854 kJ/mol
# Density = 2.144157 g / cm^3
# Si number density = 21.490479 Si / 1000 Ang^3
#
#
#
# Elastic Constant Matrix: (Units=GPa)
#
#
# Indices 1 2 3 4 5 6 
#
# 1 101.1058 -7.2634 11.8537 0.0000 0.0000 0.0000
# 2 -7.2634 77.9285 -3.0092 0.0000 0.0000 0.0000
# 3 11.8537 -3.0092 23.1883 0.0000 0.0000 0.0000
# 4 0.0000 0.0000 0.0000 7.1053 0.0000 0.0000
# 5 0.0000 0.0000 0.0000 0.0000 31.9487 0.0000
# 6 0.0000 0.0000 0.0000 0.0000 0.0000 7.9427
#
#
#
# Elastic Compliance Matrix: (Units=1/GPa)
#
#
# Indices 1 2 3 4 5 6 
#
# 1 0.010568 0.000780 -0.005301 0.000000 0.000000 0.000000
# 2 0.000780 0.012955 0.001282 0.000000 0.000000 0.000000
# 3 -0.005301 0.001282 0.046002 0.000000 0.000000 0.000000
# 4 0.000000 0.000000 0.000000 0.140740 0.000000 0.000000
# 5 0.000000 0.000000 0.000000 0.000000 0.031300 0.000000
# 6 0.000000 0.000000 0.000000 0.000000 0.000000 0.125902
#
#
# Mechanical properties :
#
#
# Convention : Reuss Voigt Hill
#
# Bulk Modulus (GPa) = 15.86114 22.82054 19.34084
# Shear Modulus (GPa) = 12.65953 22.77543 17.71748
#
# Velocity S-wave (km/s) = 2.42972 3.25898 2.87441
# Velocity P-wave (km/s) = 3.90742 4.98028 4.47611
#
# Compressibility (1/GPa) = 0.06304716
#
# Stress axis : x y z
#
# Youngs Moduli (GPa) = 94.62352 77.19313 21.73837
#
# Poissons Ratio (x) = -0.06023 0.11524
# Poissons Ratio (y) = -0.07384 -0.02787
# Poissons Ratio (z) = 0.50161 -0.09898
#
# Static dielectric constant tensor:
#      x y z
#    x 1.784250 0.000000 0.000000 
#    y 0.000000 1.760220 0.000000 
#    z 0.000000 0.000000 1.814060 
# 
# From -- ./inp_files/18267.got.cif
#   From: 2010.05.17/outbox.cif.g08.bks.cpg/sg62_10_cif.got.tgz:18267.got - 2010.06.03 15:25:27.
