data_PCOD9463728
_publ_section_title
;
Structure prediction by ZEFSAII (Michael W. Deem and Ramdas Pophale) SiO2 
 PCOD9463728
Probable space group: P N M A
;
_chemical_formula_sum "Si O2"
_cell_formula_units_Z 48
_cell_length_a 16.965576
_cell_length_b 15.799659
_cell_length_c 9.628652
_cell_angle_alpha 90.000000
_cell_angle_beta 90.000000
_cell_angle_gamma 90.000000
_cell_volume 2580.963207
_symmetry_space_group_name_H-M "P N M A"
_symmetry_group_IT_number 62
_symmetry_cell_setting 'orthorhombic'
loop_
_space_group_symop_operation_xyz
x,y,z
1/2-x,-y,1/2+z
1/2+x,1/2-y,1/2-z
-x,1/2+y,-z
-x,-y,-z
1/2+x,y,1/2-z
1/2-x,1/2+y,1/2+z
x,1/2-y,z
loop_
_atom_site_type_symbol
_atom_site_label
_atom_site_fract_x
_atom_site_fract_y
_atom_site_fract_z
Si Si1 0.951900 0.845465 0.383448
Si Si2 0.557786 0.578739 0.318374
Si Si3 0.497541 0.597371 0.810811
Si Si4 0.655310 0.996927 0.799786
Si Si5 0.066392 0.346046 0.033176
Si Si6 0.308962 0.991723 0.520194
O O1 0.922319 0.750000 0.374658
O O2 0.891057 0.913861 0.319949
O O3 0.034410 0.853141 0.298276
O O4 0.967081 0.871713 0.541847
O O5 0.458950 0.508342 0.763463
O O6 0.494001 0.600053 0.438109
O O7 0.639695 0.562730 0.396776
O O8 0.589822 0.575879 0.817412
O O9 0.472801 0.656901 0.684851
O O10 0.689460 0.991442 0.644205
O O11 0.723345 0.989644 0.913024
O O12 0.077364 0.250000 0.981386
O O13 0.145227 0.402317 0.039896
#
# Coordination Sequence:
#
# PCOD9463728 Si02
#       6
#     8   8   8   8   8   8
#     4  11  23  39  63  92 121 156 204 261 303 338
#     4  10  19  39  64  85 110 157 209 241 288 362
#     4  10  20  39  61  89 116 155 204 246 290 361
#     4  11  23  39  62  88 121 163 200 244 294 373
#     4  11  20  38  65  88 117 156 205 260 298 339
#     4  11  23  38  62  89 120 161 205 239 302 372
#
# _framework density 18.597708000000001
#
# number of rings (size 3 to 8) (size 9 to 14) (size 15 to 20)
#    0.000    1.333    5.000    4.000    7.000    0.000 
#    0.000    3.333    0.000    0.000    0.000    0.000 
#    0.000    0.000    0.000    0.000    0.000    0.000 
#
# Total GULP energy -267630.353715 kJ/mol
# GULP energy per Si atom -5575.632369 kJ/mol
# Density = 1.855538 g / cm^3
# Si number density = 18.597708 Si / 1000 Ang^3
#
#
#
# Elastic Constant Matrix: (Units=GPa)
#
#
# Indices 1 2 3 4 5 6 
#
# 1 47.5277 -2.5368 12.2910 0.0000 0.0000 0.0000
# 2 -2.5368 69.5236 -1.4381 0.0000 0.0000 0.0000
# 3 12.2910 -1.4381 127.8232 0.0000 0.0000 0.0000
# 4 0.0000 0.0000 0.0000 11.1851 0.0000 0.0000
# 5 0.0000 0.0000 0.0000 0.0000 31.7646 0.0000
# 6 0.0000 0.0000 0.0000 0.0000 0.0000 12.2157
#
#
#
# Elastic Compliance Matrix: (Units=1/GPa)
#
#
# Indices 1 2 3 4 5 6 
#
# 1 0.021615 0.000746 -0.002070 0.000000 0.000000 0.000000
# 2 0.000746 0.014413 0.000090 0.000000 0.000000 0.000000
# 3 -0.002070 0.000090 0.008023 0.000000 0.000000 0.000000
# 4 0.000000 0.000000 0.000000 0.089405 0.000000 0.000000
# 5 0.000000 0.000000 0.000000 0.000000 0.031482 0.000000
# 6 0.000000 0.000000 0.000000 0.000000 0.000000 0.081862
#
#
# Mechanical properties :
#
#
# Convention : Reuss Voigt Hill
#
# Bulk Modulus (GPa) = 24.04766 29.05630 26.55198
# Shear Modulus (GPa) = 19.00211 26.80365 22.90288
#
# Velocity S-wave (km/s) = 3.19994 3.80048 3.51307
# Velocity P-wave (km/s) = 5.15862 5.90895 5.54649
#
# Compressibility (1/GPa) = 0.04158409
#
# Stress axis : x y z
#
# Youngs Moduli (GPa) = 46.26310 69.38327 124.63591
#
# Poissons Ratio (x) = -0.05175 0.25800
# Poissons Ratio (y) = -0.03451 -0.01127
# Poissons Ratio (z) = 0.09577 -0.00627
#
# Static dielectric constant tensor:
#      x y z
#    x 1.632830 0.000000 0.000000 
#    y 0.000000 1.655620 0.000000 
#    z 0.000000 0.000000 1.673380 
# 
# From -- ./inp_files/7791.got.cif
#   From: 2010.05.17/outbox.cif.g08.bks.cpg/sg62_4_cif.got.tgz:7791.got - 2010.06.03 15:25:27.
