data_PCOD9463286
_publ_section_title
;
Structure prediction by ZEFSAII (Michael W. Deem and Ramdas Pophale) SiO2 
 PCOD9463286
Probable space group: P N M A
;
_chemical_formula_sum "Si O2"
_cell_formula_units_Z 48
_cell_length_a 11.823344
_cell_length_b 21.925399
_cell_length_c 8.899773
_cell_angle_alpha 90.000000
_cell_angle_beta 90.000000
_cell_angle_gamma 90.000000
_cell_volume 2307.101813
_symmetry_space_group_name_H-M "P N M A"
_symmetry_group_IT_number 62
_symmetry_cell_setting 'orthorhombic'
loop_
_space_group_symop_operation_xyz
x,y,z
1/2-x,-y,1/2+z
1/2+x,1/2-y,1/2-z
-x,1/2+y,-z
-x,-y,-z
1/2+x,y,1/2-z
1/2-x,1/2+y,1/2+z
x,1/2-y,z
loop_
_atom_site_type_symbol
_atom_site_label
_atom_site_fract_x
_atom_site_fract_y
_atom_site_fract_z
Si Si1 0.709213 0.182550 0.022377
Si Si2 0.623730 0.125915 0.307930
Si Si3 0.504527 0.555231 0.285748
Si Si4 0.684808 0.014088 0.489609
Si Si5 0.911022 0.938633 0.520140
Si Si6 0.471327 0.318731 0.565805
O O1 0.664402 0.250000 0.987902
O O2 0.696918 0.169221 0.201026
O O3 0.838982 0.180026 0.974821
O O4 0.640903 0.125880 0.955334
O O5 0.697268 0.078801 0.405583
O O6 0.542370 0.162205 0.418325
O O7 0.554188 0.083948 0.187018
O O8 0.392992 0.526906 0.364892
O O9 0.610160 0.527574 0.377097
O O10 0.498418 0.541908 0.108840
O O11 0.507321 0.627246 0.317510
O O12 0.800387 0.981017 0.527843
O O13 0.501341 0.250000 0.613171
#
# Coordination Sequence:
#
# PCOD9463286 Si02
#       6
#     8   8   8   8   8   8
#     4   9  19  36  56  76 104 141 184 221 269 321
#     4   9  20  33  55  82 105 142 179 225 262 322
#     4  10  20  34  55  80 110 142 181 219 264 329
#     4  10  19  35  54  79 113 143 178 213 269 331
#     4  10  20  34  54  82 106 142 174 226 272 309
#     4  10  19  36  58  76 103 147 185 220 269 328
#
# _framework density 20.805323000000001
#
# number of rings (size 3 to 8) (size 9 to 14) (size 15 to 20)
#    1.000    1.333    1.667    1.500    0.000    1.333 
#    0.000    3.333    0.000    0.000    0.000    0.000 
#    0.000    0.000    0.000    0.000    0.000    0.000 
#
# Total GULP energy -267732.067151 kJ/mol
# GULP energy per Si atom -5577.751399 kJ/mol
# Density = 2.075797 g / cm^3
# Si number density = 20.805323 Si / 1000 Ang^3
#
#
#
# Elastic Constant Matrix: (Units=GPa)
#
#
# Indices 1 2 3 4 5 6 
#
# 1 48.5067 9.1478 8.1852 0.0000 0.0000 0.0000
# 2 9.1478 52.3965 -1.4383 0.0000 0.0000 0.0000
# 3 8.1852 -1.4383 81.3354 0.0000 0.0000 0.0000
# 4 0.0000 0.0000 0.0000 16.3396 0.0000 0.0000
# 5 0.0000 0.0000 0.0000 0.0000 13.1683 0.0000
# 6 0.0000 0.0000 0.0000 0.0000 0.0000 12.6160
#
#
#
# Elastic Compliance Matrix: (Units=1/GPa)
#
#
# Indices 1 2 3 4 5 6 
#
# 1 0.021723 -0.003854 -0.002254 0.000000 0.000000 0.000000
# 2 -0.003854 0.019778 0.000738 0.000000 0.000000 0.000000
# 3 -0.002254 0.000738 0.012535 0.000000 0.000000 0.000000
# 4 0.000000 0.000000 0.000000 0.061201 0.000000 0.000000
# 5 0.000000 0.000000 0.000000 0.000000 0.075940 0.000000
# 6 0.000000 0.000000 0.000000 0.000000 0.000000 0.079264
#
#
# Mechanical properties :
#
#
# Convention : Reuss Voigt Hill
#
# Bulk Modulus (GPa) = 23.09791 23.78090 23.43940
# Shear Modulus (GPa) = 16.91389 19.51438 18.21414
#
# Velocity S-wave (km/s) = 2.85434 3.06592 2.96202
# Velocity P-wave (km/s) = 4.68925 4.89777 4.79464
#
# Compressibility (1/GPa) = 0.04329397
#
# Stress axis : x y z
#
# Youngs Moduli (GPa) = 46.03417 50.56013 79.77872
#
# Poissons Ratio (x) = 0.19488 0.17984
# Poissons Ratio (y) = 0.17744 -0.05885
# Poissons Ratio (z) = 0.10377 -0.03730
#
# Static dielectric constant tensor:
#      x y z
#    x 1.709550 0.000000 0.000000 
#    y 0.000000 1.829890 0.000000 
#    z 0.000000 0.000000 1.759240 
# 
# From -- ./inp_files/6624.got.cif
#   From: 2010.05.17/outbox.cif.g08.bks.cpg/sg62_4_cif.got.tgz:6624.got - 2010.06.03 15:25:27.
