data_PCOD9463640
_publ_section_title
;
Structure prediction by ZEFSAII (Michael W. Deem and Ramdas Pophale) SiO2 
 PCOD9463640
Probable space group: P N M A
;
_chemical_formula_sum "Si O2"
_cell_formula_units_Z 64
_cell_length_a 12.601788
_cell_length_b 18.997648
_cell_length_c 14.575299
_cell_angle_alpha 90.000000
_cell_angle_beta 90.000000
_cell_angle_gamma 90.000000
_cell_volume 3489.389729
_symmetry_space_group_name_H-M "P N M A"
_symmetry_group_IT_number 62
_symmetry_cell_setting 'orthorhombic'
loop_
_space_group_symop_operation_xyz
x,y,z
1/2-x,-y,1/2+z
1/2+x,1/2-y,1/2-z
-x,1/2+y,-z
-x,-y,-z
1/2+x,y,1/2-z
1/2-x,1/2+y,1/2+z
x,1/2-y,z
loop_
_atom_site_type_symbol
_atom_site_label
_atom_site_fract_x
_atom_site_fract_y
_atom_site_fract_z
Si Si1 0.613066 0.169667 0.110915
Si Si2 0.277798 0.977893 0.186510
Si Si3 0.002646 0.167412 0.051537
Si Si4 0.288160 0.407666 0.502704
Si Si5 0.282222 0.040915 0.882693
Si Si6 0.168475 0.127859 0.189246
Si Si7 0.000678 0.972975 0.604467
Si Si8 0.735625 0.328156 0.499821
O O1 0.578726 0.250000 0.098995
O O2 0.698910 0.145683 0.035269
O O3 0.669507 0.160588 0.210274
O O4 0.521520 0.110453 0.108055
O O5 0.279617 0.946309 0.288367
O O6 0.205265 0.047701 0.190392
O O7 0.392925 0.003655 0.153659
O O8 0.232632 0.926873 0.108142
O O9 0.977167 0.250000 0.062596
O O10 0.050183 0.137672 0.147247
O O11 0.107497 0.162958 0.987011
O O12 0.903162 0.124486 0.016089
O O13 0.271365 0.479348 0.443709
O O14 0.397470 0.011546 0.855237
O O15 0.290760 0.109552 0.945892
O O16 0.241109 0.164092 0.110847
O O17 0.000000 0.000000 0.500000
O O18 0.768211 0.250000 0.527269
#
# Coordination Sequence:
#
# PCOD9463640 Si02
#       8
#     8   8   8   8   8   8   8   8
#     4  11  22  38  60  91 126 163 202 248 315 376
#     4  12  23  39  63  92 119 162 212 253 300 362
#     4   9  20  36  59  88 122 155 193 253 310 359
#     4  11  21  38  59  87 126 162 201 249 305 364
#     4  11  23  38  63  90 119 164 207 255 298 364
#     4  10  19  37  60  92 123 152 199 252 308 369
#     4  11  22  43  62  84 130 166 203 256 305 366
#     4   9  19  38  61  87 122 156 197 255 308 363
#
# _framework density 18.341315000000002
#
# number of rings (size 3 to 8) (size 9 to 14) (size 15 to 20)
#    0.750    0.750    6.250    1.125    1.750    3.000 
#    0.000    5.000    0.000    0.000    0.000    0.000 
#    0.000    0.000    0.000    0.000    0.000    0.000 
#
# Total GULP energy -356845.159268 kJ/mol
# GULP energy per Si atom -5575.705614 kJ/mol
# Density = 1.829957 g / cm^3
# Si number density = 18.341315 Si / 1000 Ang^3
#
#
#
# Elastic Constant Matrix: (Units=GPa)
#
#
# Indices 1 2 3 4 5 6 
#
# 1 40.7611 26.0220 6.7342 0.0000 0.0000 0.0000
# 2 26.0220 113.3865 28.3193 0.0000 0.0000 0.0000
# 3 6.7342 28.3193 92.2696 0.0000 0.0000 0.0000
# 4 0.0000 0.0000 0.0000 14.8598 0.0000 0.0000
# 5 0.0000 0.0000 0.0000 0.0000 22.3946 0.0000
# 6 0.0000 0.0000 0.0000 0.0000 0.0000 6.1772
#
#
#
# Elastic Compliance Matrix: (Units=1/GPa)
#
#
# Indices 1 2 3 4 5 6 
#
# 1 0.028745 -0.006577 -0.000079 0.000000 0.000000 0.000000
# 2 -0.006577 0.011056 -0.002913 0.000000 0.000000 0.000000
# 3 -0.000079 -0.002913 0.011738 0.000000 0.000000 0.000000
# 4 0.000000 0.000000 0.000000 0.067296 0.000000 0.000000
# 5 0.000000 0.000000 0.000000 0.000000 0.044654 0.000000
# 6 0.000000 0.000000 0.000000 0.000000 0.000000 0.161886
#
#
# Mechanical properties :
#
#
# Convention : Reuss Voigt Hill
#
# Bulk Modulus (GPa) = 30.86447 40.95204 35.90826
# Shear Modulus (GPa) = 14.07204 21.04241 17.55722
#
# Velocity S-wave (km/s) = 2.77290 3.39081 3.09730
# Velocity P-wave (km/s) = 5.20733 6.14055 5.69310
#
# Compressibility (1/GPa) = 0.03239971
#
# Stress axis : x y z
#
# Youngs Moduli (GPa) = 34.78841 90.44458 85.19497
#
# Poissons Ratio (x) = 0.59487 0.00676
# Poissons Ratio (y) = 0.22881 0.24821
# Poissons Ratio (z) = 0.00276 0.26350
#
# Static dielectric constant tensor:
#      x y z
#    x 1.670020 0.000000 0.000000 
#    y 0.000000 1.630020 0.000000 
#    z 0.000000 0.000000 1.650960 
# 
# From -- ./inp_files/18257.got.cif
#   From: 2010.05.17/outbox.cif.g08.bks.cpg/sg62_10_cif.got.tgz:18257.got - 2010.06.03 15:25:27.
