data_PCOD9463275
_publ_section_title
;
Structure prediction by ZEFSAII (Michael W. Deem and Ramdas Pophale) SiO2 
 PCOD9463275
Probable space group: P N M A
;
_chemical_formula_sum "Si O2"
_cell_formula_units_Z 64
_cell_length_a 9.457536
_cell_length_b 25.485852
_cell_length_c 14.763563
_cell_angle_alpha 90.000000
_cell_angle_beta 90.000000
_cell_angle_gamma 90.000000
_cell_volume 3558.511237
_symmetry_space_group_name_H-M "P N M A"
_symmetry_group_IT_number 62
_symmetry_cell_setting 'orthorhombic'
loop_
_space_group_symop_operation_xyz
x,y,z
1/2-x,-y,1/2+z
1/2+x,1/2-y,1/2-z
-x,1/2+y,-z
-x,-y,-z
1/2+x,y,1/2-z
1/2-x,1/2+y,1/2+z
x,1/2-y,z
loop_
_atom_site_type_symbol
_atom_site_label
_atom_site_fract_x
_atom_site_fract_y
_atom_site_fract_z
Si Si1 0.292662 0.112818 0.976052
Si Si2 0.577352 0.936928 0.647353
Si Si3 0.544981 0.813217 0.154375
Si Si4 0.164428 0.989434 0.360881
Si Si5 0.284593 0.313020 0.663494
Si Si6 0.952632 0.114135 0.966962
Si Si7 0.159494 0.516716 0.150590
Si Si8 0.095015 0.942143 0.643342
O O1 0.377026 0.160192 0.929948
O O2 0.123327 0.118558 0.963291
O O3 0.343850 0.060042 0.925031
O O4 0.340422 0.101438 0.078333
O O5 0.681433 0.985619 0.630492
O O6 0.593290 0.893260 0.571263
O O7 0.598021 0.923282 0.752427
O O8 0.424732 0.962839 0.633880
O O9 0.547160 0.750000 0.147342
O O10 0.635007 0.828070 0.243726
O O11 0.380319 0.829855 0.163420
O O12 0.061381 0.038227 0.380618
O O13 0.139575 0.971375 0.257020
O O14 0.287114 0.250000 0.657448
O O15 0.372621 0.338650 0.582341
O O16 0.898383 0.062299 0.912884
O O17 0.318870 0.497387 0.136099
#
# Coordination Sequence:
#
# PCOD9463275 Si02
#       8
#     8   8   8   8   8   8   8   8
#     4  12  22  35  55  86 111 146 192 228 277 332
#     4  10  20  37  51  76 115 156 187 224 273 319
#     4  10  23  42  62  85 114 141 176 227 280 332
#     4  10  21  32  52  79 115 150 186 232 271 326
#     4  10  23  42  62  86 112 142 178 225 281 333
#     4  12  22  34  59  81 111 150 189 229 275 334
#     4  10  19  35  51  78 116 150 184 227 274 325
#     4  10  22  34  52  79 116 152 191 231 270 324
#
# _framework density 17.985050000000001
#
# number of rings (size 3 to 8) (size 9 to 14) (size 15 to 20)
#    0.000    1.500    2.500    3.000    3.500    1.500 
#    0.000    0.000    0.000    0.750    0.000    0.000 
#    0.000    0.000    0.000    0.000    0.000    0.000 
#
# Total GULP energy -357197.281047 kJ/mol
# GULP energy per Si atom -5581.207516 kJ/mol
# Density = 1.794412 g / cm^3
# Si number density = 17.985050 Si / 1000 Ang^3
#
#
#
# Elastic Constant Matrix: (Units=GPa)
#
#
# Indices 1 2 3 4 5 6 
#
# 1 69.7028 23.2099 48.2623 0.0000 0.0000 0.0000
# 2 23.2099 30.9257 30.4985 0.0000 0.0000 0.0000
# 3 48.2623 30.4985 69.2923 0.0000 0.0000 0.0000
# 4 0.0000 0.0000 0.0000 27.7866 0.0000 0.0000
# 5 0.0000 0.0000 0.0000 0.0000 25.1921 0.0000
# 6 0.0000 0.0000 0.0000 0.0000 0.0000 20.8032
#
#
#
# Elastic Compliance Matrix: (Units=1/GPa)
#
#
# Indices 1 2 3 4 5 6 
#
# 1 0.027881 -0.003134 -0.018040 0.000000 0.000000 0.000000
# 2 -0.003134 0.057489 -0.023120 0.000000 0.000000 0.000000
# 3 -0.018040 -0.023120 0.037172 0.000000 0.000000 0.000000
# 4 0.000000 0.000000 0.000000 0.035989 0.000000 0.000000
# 5 0.000000 0.000000 0.000000 0.000000 0.039695 0.000000
# 6 0.000000 0.000000 0.000000 0.000000 0.000000 0.048069
#
#
# Mechanical properties :
#
#
# Convention : Reuss Voigt Hill
#
# Bulk Modulus (GPa) = 29.45177 41.54025 35.49601
# Shear Modulus (GPa) = 14.44248 19.28641 16.86444
#
# Velocity S-wave (km/s) = 2.83685 3.27824 3.06550
# Velocity P-wave (km/s) = 5.20975 6.12180 5.68410
#
# Compressibility (1/GPa) = 0.03395382
#
# Stress axis : x y z
#
# Youngs Moduli (GPa) = 35.86676 17.39475 26.90169
#
# Poissons Ratio (x) = 0.05452 0.48530
# Poissons Ratio (y) = 0.11242 0.62197
# Poissons Ratio (z) = 0.64702 0.40217
#
# Static dielectric constant tensor:
#      x y z
#    x 1.622700 0.000000 0.000000 
#    y 0.000000 1.596720 0.000000 
#    z 0.000000 0.000000 1.651510 
# 
# From -- ./inp_files/17360.got.cif
#   From: 2010.05.17/outbox.cif.g08.bks.cpg/sg62_9_cif.got.tgz:17360.got - 2010.06.03 15:25:27.
