data_PCOD9463039
_publ_section_title
;
Structure prediction by ZEFSAII (Michael W. Deem and Ramdas Pophale) SiO2 
 PCOD9463039
Probable space group: P N M A
;
_chemical_formula_sum "Si O2"
_cell_formula_units_Z 56
_cell_length_a 20.062806
_cell_length_b 9.503266
_cell_length_c 14.737212
_cell_angle_alpha 90.000000
_cell_angle_beta 90.000000
_cell_angle_gamma 90.000000
_cell_volume 2809.828998
_symmetry_space_group_name_H-M "P N M A"
_symmetry_group_IT_number 62
_symmetry_cell_setting 'orthorhombic'
loop_
_space_group_symop_operation_xyz
x,y,z
1/2-x,-y,1/2+z
1/2+x,1/2-y,1/2-z
-x,1/2+y,-z
-x,-y,-z
1/2+x,y,1/2-z
1/2-x,1/2+y,1/2+z
x,1/2-y,z
loop_
_atom_site_type_symbol
_atom_site_label
_atom_site_fract_x
_atom_site_fract_y
_atom_site_fract_z
Si Si1 0.829439 0.911480 0.211199
Si Si2 0.916785 0.586978 0.913419
Si Si3 0.178108 0.915686 0.618755
Si Si4 0.979140 0.415697 0.410745
Si Si5 0.077772 0.912228 0.908767
Si Si6 0.102662 0.081202 0.290062
Si Si7 0.796621 0.088039 0.584019
O O1 0.847401 0.750000 0.230601
O O2 0.774218 0.913952 0.132627
O O3 0.799247 0.987735 0.298951
O O4 0.891154 0.000632 0.173524
O O5 0.896651 0.750000 0.931378
O O6 0.889618 0.540803 0.815386
O O7 0.997465 0.586122 0.905260
O O8 0.900516 0.487157 0.997598
O O9 0.191142 0.750000 0.636408
O O10 0.098278 0.937208 0.610877
O O11 0.207508 0.954672 0.520938
O O12 0.987981 0.250000 0.429237
O O13 0.000000 0.500000 0.500000
O O14 0.028701 0.451628 0.328181
O O15 0.099553 0.750000 0.904598
O O16 0.110934 0.250000 0.293615
O O17 0.153548 0.006522 0.357694
O O18 0.821865 0.250000 0.583677
#
# Coordination Sequence:
#
# PCOD9463039 Si02
#       7
#     8   8   8   8   8   8   8
#     4  11  24  40  59  84 115 152 197 242 284 340
#     4   9  19  36  58  85 118 150 185 234 286 340
#     4  10  21  40  62  83 114 154 192 235 292 350
#     4  10  19  33  57  87 117 150 187 233 290 348
#     4  10  20  37  60  85 114 150 191 234 284 340
#     4  10  20  34  56  86 117 148 187 235 288 346
#     4  10  23  41  58  80 113 151 192 239 285 338
#
# _framework density 19.930039000000001
#
# number of rings (size 3 to 8) (size 9 to 14) (size 15 to 20)
#    0.000    2.000    1.429    1.714    0.000    6.857 
#    0.000    5.714    0.000    0.000    0.000    0.000 
#    0.000    0.000    0.000    0.000    0.000    0.000 
#
# Total GULP energy -312872.981393 kJ/mol
# GULP energy per Si atom -5587.017525 kJ/mol
# Density = 1.988468 g / cm^3
# Si number density = 19.930039 Si / 1000 Ang^3
#
#
#
# Elastic Constant Matrix: (Units=GPa)
#
#
# Indices 1 2 3 4 5 6 
#
# 1 16.6182 15.6782 4.6707 0.0000 0.0000 0.0000
# 2 15.6782 76.4135 65.7803 0.0000 0.0000 0.0000
# 3 4.6707 65.7803 142.7844 0.0000 0.0000 0.0000
# 4 0.0000 0.0000 0.0000 36.3521 0.0000 0.0000
# 5 0.0000 0.0000 0.0000 0.0000 18.7367 0.0000
# 6 0.0000 0.0000 0.0000 0.0000 0.0000 15.3315
#
#
#
# Elastic Compliance Matrix: (Units=1/GPa)
#
#
# Indices 1 2 3 4 5 6 
#
# 1 0.080017 -0.023474 0.008197 0.000000 0.000000 0.000000
# 2 -0.023474 0.028574 -0.012396 0.000000 0.000000 0.000000
# 3 0.008197 -0.012396 0.012446 0.000000 0.000000 0.000000
# 4 0.000000 0.000000 0.000000 0.027509 0.000000 0.000000
# 5 0.000000 0.000000 0.000000 0.000000 0.053371 0.000000
# 6 0.000000 0.000000 0.000000 0.000000 0.000000 0.065225
#
#
# Mechanical properties :
#
#
# Convention : Reuss Voigt Hill
#
# Bulk Modulus (GPa) = 15.22271 45.34161 30.28216
# Shear Modulus (GPa) = 14.51861 24.06319 19.29090
#
# Velocity S-wave (km/s) = 2.70196 3.47851 3.11453
# Velocity P-wave (km/s) = 4.16999 6.23964 5.30669
#
# Compressibility (1/GPa) = 0.06569131
#
# Stress axis : x y z
#
# Youngs Moduli (GPa) = 12.49733 34.99678 80.34528
#
# Poissons Ratio (x) = 0.82150 -0.65857
# Poissons Ratio (y) = 0.29336 0.99597
# Poissons Ratio (z) = -0.10244 0.43382
#
# Static dielectric constant tensor:
#      x y z
#    x 1.708450 0.000000 0.000000 
#    y 0.000000 1.678300 0.000000 
#    z 0.000000 0.000000 1.702210 
# 
# From -- ./inp_files/20276.got.cif
#   From: 2010.05.17/outbox.cif.g08.bks.cpg/sg62_11_cif.got.tgz:20276.got - 2010.06.03 15:25:27.
