data_PCOD9463154
_publ_section_title
;
Structure prediction by ZEFSAII (Michael W. Deem and Ramdas Pophale) SiO2 
 PCOD9463154
Probable space group: P N M A
;
_chemical_formula_sum "Si O2"
_cell_formula_units_Z 56
_cell_length_a 15.986243
_cell_length_b 11.839638
_cell_length_c 15.022619
_cell_angle_alpha 90.000000
_cell_angle_beta 90.000000
_cell_angle_gamma 90.000000
_cell_volume 2843.351080
_symmetry_space_group_name_H-M "P N M A"
_symmetry_group_IT_number 62
_symmetry_cell_setting 'orthorhombic'
loop_
_space_group_symop_operation_xyz
x,y,z
1/2-x,-y,1/2+z
1/2+x,1/2-y,1/2-z
-x,1/2+y,-z
-x,-y,-z
1/2+x,y,1/2-z
1/2-x,1/2+y,1/2+z
x,1/2-y,z
loop_
_atom_site_type_symbol
_atom_site_label
_atom_site_fract_x
_atom_site_fract_y
_atom_site_fract_z
Si Si1 0.480180 0.871771 0.968475
Si Si2 0.937285 0.385608 0.799896
Si Si3 0.289777 0.384058 0.835777
Si Si4 0.888105 0.504657 0.180826
Si Si5 0.308705 0.960313 0.005796
Si Si6 0.878335 0.381344 0.998439
Si Si7 0.128404 0.626945 0.653599
O O1 0.506920 0.750000 0.012836
O O2 0.531274 0.869678 0.876797
O O3 0.381088 0.875519 0.975486
O O4 0.500000 0.000000 0.000000
O O5 0.943067 0.250000 0.792442
O O6 0.860812 0.421739 0.735410
O O7 0.028179 0.437830 0.781094
O O8 0.916259 0.412356 0.902709
O O9 0.295879 0.250000 0.843728
O O10 0.194150 0.417051 0.812878
O O11 0.306875 0.444450 0.929335
O O12 0.902738 0.461845 0.080407
O O13 0.866554 0.398672 0.243023
O O14 0.221122 0.897778 0.011367
O O15 0.330181 0.026404 0.096833
O O16 0.898580 0.250000 0.016872
O O17 0.164924 0.750000 0.631339
#
# Coordination Sequence:
#
# PCOD9463154 Si02
#       7
#     8   8   8   8   8   8   8
#     4   9  18  32  51  78 111 147 187 230 281 341
#     4  10  21  38  57  79 109 143 185 234 280 330
#     4  10  21  36  56  83 113 146 188 237 287 340
#     4  11  21  36  57  80 109 147 188 229 281 338
#     4  10  19  34  56  81 112 147 184 229 284 345
#     4  10  21  36  56  80 108 145 186 231 276 324
#     4  10  20  34  53  79 112 147 184 232 288 344
#
# _framework density 19.695072
#
# number of rings (size 3 to 8) (size 9 to 14) (size 15 to 20)
#    0.000    2.000    0.000    3.857    0.000    0.571 
#    0.000    9.286    0.000   12.000    0.000    0.000 
#    0.000    0.000    0.000    0.000    0.000    0.000 
#
# Total GULP energy -311945.233093 kJ/mol
# GULP energy per Si atom -5570.450591 kJ/mol
# Density = 1.965024 g / cm^3
# Si number density = 19.695072 Si / 1000 Ang^3
#
#
#
# Elastic Constant Matrix: (Units=GPa)
#
#
# Indices 1 2 3 4 5 6 
#
# 1 89.9416 24.8569 11.5082 0.0000 0.0000 0.0000
# 2 24.8569 79.1063 15.9855 0.0000 0.0000 0.0000
# 3 11.5082 15.9855 63.8261 0.0000 0.0000 0.0000
# 4 0.0000 0.0000 0.0000 15.6147 0.0000 0.0000
# 5 0.0000 0.0000 0.0000 0.0000 16.3180 0.0000
# 6 0.0000 0.0000 0.0000 0.0000 0.0000 20.1049
#
#
#
# Elastic Compliance Matrix: (Units=1/GPa)
#
#
# Indices 1 2 3 4 5 6 
#
# 1 0.012279 -0.003593 -0.001314 0.000000 0.000000 0.000000
# 2 -0.003593 0.014366 -0.002950 0.000000 0.000000 0.000000
# 3 -0.001314 -0.002950 0.016643 0.000000 0.000000 0.000000
# 4 0.000000 0.000000 0.000000 0.064042 0.000000 0.000000
# 5 0.000000 0.000000 0.000000 0.000000 0.061282 0.000000
# 6 0.000000 0.000000 0.000000 0.000000 0.000000 0.049739
#
#
# Mechanical properties :
#
#
# Convention : Reuss Voigt Hill
#
# Bulk Modulus (GPa) = 36.26543 37.50835 36.88689
# Shear Modulus (GPa) = 20.55424 22.44241 21.49833
#
# Velocity S-wave (km/s) = 3.23402 3.37930 3.30746
# Velocity P-wave (km/s) = 5.69198 5.85765 5.77541
#
# Compressibility (1/GPa) = 0.02757447
#
# Stress axis : x y z
#
# Youngs Moduli (GPa) = 81.43690 69.60699 60.08376
#
# Poissons Ratio (x) = 0.25009 0.07896
# Poissons Ratio (y) = 0.29259 0.17726
# Poissons Ratio (z) = 0.10702 0.20536
#
# Static dielectric constant tensor:
#      x y z
#    x 1.719110 0.000000 0.000000 
#    y 0.000000 1.721840 0.000000 
#    z 0.000000 0.000000 1.688340 
# 
# From -- ./inp_files/19012.got.cif
#   From: 2010.05.17/outbox.cif.g08.bks.cpg/sg62_10_cif.got.tgz:19012.got - 2010.06.03 15:25:27.
