data_PCOD9463197
_publ_section_title
;
Structure prediction by ZEFSAII (Michael W. Deem and Ramdas Pophale) SiO2 
 PCOD9463197
Probable space group: P N M A
;
_chemical_formula_sum "Si O2"
_cell_formula_units_Z 48
_cell_length_a 16.021221
_cell_length_b 18.498878
_cell_length_c 8.582786
_cell_angle_alpha 90.000000
_cell_angle_beta 90.000000
_cell_angle_gamma 90.000000
_cell_volume 2543.719877
_symmetry_space_group_name_H-M "P N M A"
_symmetry_group_IT_number 62
_symmetry_cell_setting 'orthorhombic'
loop_
_space_group_symop_operation_xyz
x,y,z
1/2-x,-y,1/2+z
1/2+x,1/2-y,1/2-z
-x,1/2+y,-z
-x,-y,-z
1/2+x,y,1/2-z
1/2-x,1/2+y,1/2+z
x,1/2-y,z
loop_
_atom_site_type_symbol
_atom_site_label
_atom_site_fract_x
_atom_site_fract_y
_atom_site_fract_z
Si Si1 0.231940 0.168163 0.908948
Si Si2 0.049590 0.425831 0.467864
Si Si3 0.593998 0.832321 0.904374
Si Si4 0.860640 0.665953 0.779540
Si Si5 0.773609 0.553058 0.362908
Si Si6 0.299111 0.092119 0.323128
O O1 0.221093 0.250000 0.850022
O O2 0.234831 0.110728 0.773333
O O3 0.320277 0.164537 0.998443
O O4 0.160488 0.154570 0.038561
O O5 0.080773 0.394730 0.299148
O O6 0.135078 0.434399 0.562294
O O7 0.000000 0.500000 0.500000
O O8 0.980922 0.364893 0.505482
O O9 0.577583 0.750000 0.862046
O O10 0.614988 0.879007 0.749809
O O11 0.886909 0.750000 0.757504
O O12 0.770690 0.654566 0.695304
O O13 0.770090 0.474075 0.286875
O O14 0.706420 0.564874 0.500070
#
# Coordination Sequence:
#
# PCOD9463197 Si02
#       6
#     8   8   8   8   8   8
#     4   9  20  38  60  86 115 156 204 250 295 352
#     4  11  22  37  57  90 121 156 199 236 295 362
#     4  10  20  38  60  83 120 158 193 242 301 354
#     4   9  19  36  59  82 113 155 198 240 292 352
#     4  11  22  36  61  86 120 155 201 250 302 358
#     4  10  19  34  57  85 113 150 198 243 293 353
#
# _framework density 18.870001999999999
#
# number of rings (size 3 to 8) (size 9 to 14) (size 15 to 20)
#    0.000    2.000    1.667    4.000    2.333    4.000 
#    0.000    2.500    0.000    2.000    0.000    0.000 
#    0.000    0.000    0.000    0.000    0.000    0.000 
#
# Total GULP energy -267337.501870 kJ/mol
# GULP energy per Si atom -5569.531289 kJ/mol
# Density = 1.882705 g / cm^3
# Si number density = 18.870002 Si / 1000 Ang^3
#
#
#
# Elastic Constant Matrix: (Units=GPa)
#
#
# Indices 1 2 3 4 5 6 
#
# 1 64.5771 20.5141 11.7369 0.0000 0.0000 0.0000
# 2 20.5141 120.0291 52.9875 0.0000 0.0000 0.0000
# 3 11.7369 52.9875 75.4122 0.0000 0.0000 0.0000
# 4 0.0000 0.0000 0.0000 30.7508 0.0000 0.0000
# 5 0.0000 0.0000 0.0000 0.0000 14.3894 0.0000
# 6 0.0000 0.0000 0.0000 0.0000 0.0000 31.0028
#
#
#
# Elastic Compliance Matrix: (Units=1/GPa)
#
#
# Indices 1 2 3 4 5 6 
#
# 1 0.016411 -0.002432 -0.000846 0.000000 0.000000 0.000000
# 2 -0.002432 0.012438 -0.008361 0.000000 0.000000 0.000000
# 3 -0.000846 -0.008361 0.019267 0.000000 0.000000 0.000000
# 4 0.000000 0.000000 0.000000 0.032519 0.000000 0.000000
# 5 0.000000 0.000000 0.000000 0.000000 0.069495 0.000000
# 6 0.000000 0.000000 0.000000 0.000000 0.000000 0.032255
#
#
# Mechanical properties :
#
#
# Convention : Reuss Voigt Hill
#
# Bulk Modulus (GPa) = 40.25798 47.83283 44.04540
# Shear Modulus (GPa) = 23.37079 26.88061 25.12570
#
# Velocity S-wave (km/s) = 3.52307 3.77837 3.65295
# Velocity P-wave (km/s) = 6.15874 6.66621 6.41750
#
# Compressibility (1/GPa) = 0.02483980
#
# Stress axis : x y z
#
# Youngs Moduli (GPa) = 60.93292 80.39989 51.90292
#
# Poissons Ratio (x) = 0.19549 0.04390
# Poissons Ratio (y) = 0.14816 0.43395
# Poissons Ratio (z) = 0.05153 0.67221
#
# Static dielectric constant tensor:
#      x y z
#    x 1.680180 0.000000 0.000000 
#    y 0.000000 1.676710 0.000000 
#    z 0.000000 0.000000 1.662830 
# 
# From -- ./inp_files/6500.got.cif
#   From: 2010.05.17/outbox.cif.g08.bks.cpg/sg62_4_cif.got.tgz:6500.got - 2010.06.03 15:25:27.
