data_PCOD9463036
_publ_section_title
;
Structure prediction by ZEFSAII (Michael W. Deem and Ramdas Pophale) SiO2 
 PCOD9463036
Probable space group: P N M A
;
_chemical_formula_sum "Si O2"
_cell_formula_units_Z 48
_cell_length_a 8.147160
_cell_length_b 16.142874
_cell_length_c 16.796883
_cell_angle_alpha 90.000000
_cell_angle_beta 90.000000
_cell_angle_gamma 90.000000
_cell_volume 2209.102156
_symmetry_space_group_name_H-M "P N M A"
_symmetry_group_IT_number 62
_symmetry_cell_setting 'orthorhombic'
loop_
_space_group_symop_operation_xyz
x,y,z
1/2-x,-y,1/2+z
1/2+x,1/2-y,1/2-z
-x,1/2+y,-z
-x,-y,-z
1/2+x,y,1/2-z
1/2-x,1/2+y,1/2+z
x,1/2-y,z
loop_
_atom_site_type_symbol
_atom_site_label
_atom_site_fract_x
_atom_site_fract_y
_atom_site_fract_z
Si Si1 0.773850 0.156657 0.877276
Si Si2 0.231506 0.340892 0.124860
Si Si3 0.698986 0.999223 0.985040
Si Si4 0.770241 0.995355 0.162227
Si Si5 0.002083 0.399529 0.256446
Si Si6 0.438728 0.343565 0.777803
O O1 0.777784 0.250000 0.912031
O O2 0.750997 0.081757 0.937799
O O3 0.927757 0.146227 0.817790
O O4 0.615813 0.152026 0.818714
O O5 0.234202 0.250000 0.086988
O O6 0.256138 0.417695 0.065705
O O7 0.376619 0.349266 0.189887
O O8 0.070720 0.352844 0.179438
O O9 0.794572 0.997780 0.068468
O O10 0.500000 0.000000 0.000000
O O11 0.645620 0.069616 0.185926
O O12 0.919464 0.017409 0.220334
O O13 0.677661 0.911186 0.182799
O O14 0.376543 0.250000 0.792562
#
# Coordination Sequence:
#
# PCOD9463036 Si02
#       6
#     8   8   8   8   8   8
#     4  10  21  38  60  87 120 155 202 250 298 361
#     4  11  23  41  65  92 125 162 209 260 307 368
#     4  12  23  38  59  95 126 162 202 248 318 365
#     4  11  21  39  63  88 122 161 206 255 306 374
#     4  10  22  41  65  87 117 164 212 255 304 363
#     4  10  19  33  57  85 114 154 199 247 295 353
#
# _framework density 21.728283999999999
#
# number of rings (size 3 to 8) (size 9 to 14) (size 15 to 20)
#    0.000    1.333    3.333    3.500    0.000    2.000 
#    0.000    1.667    0.000    4.000    0.000    0.000 
#    0.000    0.000    0.000    0.000    0.000    0.000 
#
# Total GULP energy -268319.396746 kJ/mol
# GULP energy per Si atom -5589.987432 kJ/mol
# Density = 2.167883 g / cm^3
# Si number density = 21.728284 Si / 1000 Ang^3
#
#
#
# Elastic Constant Matrix: (Units=GPa)
#
#
# Indices 1 2 3 4 5 6 
#
# 1 22.5407 -5.9692 -0.0259 0.0000 0.0000 0.0000
# 2 -5.9692 132.3407 35.7343 0.0000 0.0000 0.0000
# 3 -0.0259 35.7343 103.9848 0.0000 0.0000 0.0000
# 4 0.0000 0.0000 0.0000 18.2009 0.0000 0.0000
# 5 0.0000 0.0000 0.0000 0.0000 26.5908 0.0000
# 6 0.0000 0.0000 0.0000 0.0000 0.0000 21.2237
#
#
#
# Elastic Compliance Matrix: (Units=1/GPa)
#
#
# Indices 1 2 3 4 5 6 
#
# 1 0.044954 0.002232 -0.000756 0.000000 0.000000 0.000000
# 2 0.002232 0.008440 -0.002900 0.000000 0.000000 0.000000
# 3 -0.000756 -0.002900 0.010613 0.000000 0.000000 0.000000
# 4 0.000000 0.000000 0.000000 0.054942 0.000000 0.000000
# 5 0.000000 0.000000 0.000000 0.000000 0.037607 0.000000
# 6 0.000000 0.000000 0.000000 0.000000 0.000000 0.047117
#
#
# Mechanical properties :
#
#
# Convention : Reuss Voigt Hill
#
# Bulk Modulus (GPa) = 16.35063 35.37161 25.86112
# Shear Modulus (GPa) = 22.03535 28.47821 25.25678
#
# Velocity S-wave (km/s) = 3.18800 3.62422 3.41309
# Velocity P-wave (km/s) = 4.59266 5.81616 5.24024
#
# Compressibility (1/GPa) = 0.06115974
#
# Stress axis : x y z
#
# Youngs Moduli (GPa) = 22.24479 118.48456 94.22305
#
# Poissons Ratio (x) = -0.26443 0.07121
# Poissons Ratio (y) = -0.04964 0.27323
# Poissons Ratio (z) = 0.01681 0.34358
#
# Static dielectric constant tensor:
#      x y z
#    x 1.857590 0.000000 0.000000 
#    y 0.000000 1.804050 0.000000 
#    z 0.000000 0.000000 1.768990 
# 
# From -- ./inp_files/22215.got.cif
#   From: 2010.05.17/outbox.cif.g08.bks.cpg/sg62_12_cif.got.tgz:22215.got - 2010.06.03 15:25:27.
