data_PCOD9463629
_publ_section_title
;
Structure prediction by ZEFSAII (Michael W. Deem and Ramdas Pophale) SiO2 
 PCOD9463629
Probable space group: P N M A
;
_chemical_formula_sum "Si O2"
_cell_formula_units_Z 56
_cell_length_a 14.815994
_cell_length_b 7.619249
_cell_length_c 22.251857
_cell_angle_alpha 90.000000
_cell_angle_beta 90.000000
_cell_angle_gamma 90.000000
_cell_volume 2511.939762
_symmetry_space_group_name_H-M "P N M A"
_symmetry_group_IT_number 62
_symmetry_cell_setting 'orthorhombic'
loop_
_space_group_symop_operation_xyz
x,y,z
1/2-x,-y,1/2+z
1/2+x,1/2-y,1/2-z
-x,1/2+y,-z
-x,-y,-z
1/2+x,y,1/2-z
1/2-x,1/2+y,1/2+z
x,1/2-y,z
loop_
_atom_site_type_symbol
_atom_site_label
_atom_site_fract_x
_atom_site_fract_y
_atom_site_fract_z
Si Si1 0.055478 0.035931 0.363233
Si Si2 0.816078 0.455002 0.841684
Si Si3 0.082212 0.958714 0.544590
Si Si4 0.783111 0.051736 0.972799
Si Si5 0.756065 0.541607 0.597093
Si Si6 0.517469 0.460255 0.267584
Si Si7 0.306344 0.543311 0.268929
O O1 0.058239 0.250000 0.365045
O O2 0.141760 0.969520 0.399758
O O3 0.960007 0.986007 0.391481
O O4 0.062368 0.979982 0.294836
O O5 0.790047 0.250000 0.847842
O O6 0.808501 0.533183 0.908803
O O7 0.751521 0.529316 0.788085
O O8 0.919147 0.467620 0.819738
O O9 0.099145 0.750000 0.544552
O O10 0.174113 0.054690 0.530242
O O11 0.000000 0.000000 0.500000
O O12 0.821463 0.250000 0.972672
O O13 0.798739 0.970811 0.039347
O O14 0.761329 0.750000 0.585955
O O15 0.719907 0.522537 0.664596
O O16 0.521747 0.250000 0.270796
O O17 0.413118 0.511097 0.263998
O O18 0.288672 0.750000 0.269787
#
# Coordination Sequence:
#
# PCOD9463629 Si02
#       7
#     8   8   8   8   8   8   8
#     4   9  18  33  54  81 112 147 190 236 281 339
#     4  10  22  40  61  88 121 155 191 242 302 350
#     4  11  20  32  51  80 116 151 189 232 284 347
#     4  10  21  38  58  82 117 156 192 238 294 350
#     4  10  19  37  60  82 113 152 195 235 281 342
#     4  11  22  38  62  87 114 153 199 245 290 344
#     4  11  23  39  60  89 122 154 194 243 296 350
#
# _framework density 22.293527999999998
#
# number of rings (size 3 to 8) (size 9 to 14) (size 15 to 20)
#    0.000    1.714    2.857    2.143    0.000    1.714 
#    0.000    2.857    0.000    0.000    0.000    0.000 
#    0.000    0.000    0.000    0.000    0.000    0.000 
#
# Total GULP energy -312472.769651 kJ/mol
# GULP energy per Si atom -5579.870887 kJ/mol
# Density = 2.224279 g / cm^3
# Si number density = 22.293528 Si / 1000 Ang^3
#
#
#
# Elastic Constant Matrix: (Units=GPa)
#
#
# Indices 1 2 3 4 5 6 
#
# 1 45.2533 -10.2275 14.2828 0.0000 0.0000 0.0000
# 2 -10.2275 62.2936 9.1174 0.0000 0.0000 0.0000
# 3 14.2828 9.1174 153.7047 0.0000 0.0000 0.0000
# 4 0.0000 0.0000 0.0000 14.7097 0.0000 0.0000
# 5 0.0000 0.0000 0.0000 0.0000 39.6775 0.0000
# 6 0.0000 0.0000 0.0000 0.0000 0.0000 16.0704
#
#
#
# Elastic Compliance Matrix: (Units=1/GPa)
#
#
# Indices 1 2 3 4 5 6 
#
# 1 0.023844 0.004276 -0.002469 0.000000 0.000000 0.000000
# 2 0.004276 0.016960 -0.001403 0.000000 0.000000 0.000000
# 3 -0.002469 -0.001403 0.006819 0.000000 0.000000 0.000000
# 4 0.000000 0.000000 0.000000 0.067982 0.000000 0.000000
# 5 0.000000 0.000000 0.000000 0.000000 0.025203 0.000000
# 6 0.000000 0.000000 0.000000 0.000000 0.000000 0.062226
#
#
# Mechanical properties :
#
#
# Convention : Reuss Voigt Hill
#
# Bulk Modulus (GPa) = 20.64852 31.95522 26.30187
# Shear Modulus (GPa) = 22.89680 30.63011 26.76346
#
# Velocity S-wave (km/s) = 3.20826 3.71070 3.46859
# Velocity P-wave (km/s) = 4.79647 5.72049 5.27874
#
# Compressibility (1/GPa) = 0.04842962
#
# Stress axis : x y z
#
# Youngs Moduli (GPa) = 41.93994 58.96058 146.65594
#
# Poissons Ratio (x) = -0.25212 0.36213
# Poissons Ratio (y) = -0.17934 0.20582
# Poissons Ratio (z) = 0.10356 0.08275
#
# Static dielectric constant tensor:
#      x y z
#    x 1.789190 0.000000 0.000000 
#    y 0.000000 1.827770 0.000000 
#    z 0.000000 0.000000 1.933830 
# 
# From -- ./inp_files/27157.got.cif
#   From: 2010.05.17/outbox.cif.g08.bks.cpg/sg62_14_cif.got.tgz:27157.got - 2010.06.03 15:25:27.
