data_PCOD9463227
_publ_section_title
;
Structure prediction by ZEFSAII (Michael W. Deem and Ramdas Pophale) SiO2 
 PCOD9463227
Probable space group: P N M A
;
_chemical_formula_sum "Si O2"
_cell_formula_units_Z 64
_cell_length_a 15.983940
_cell_length_b 8.400221
_cell_length_c 24.519742
_cell_angle_alpha 90.000000
_cell_angle_beta 90.000000
_cell_angle_gamma 90.000000
_cell_volume 3292.232128
_symmetry_space_group_name_H-M "P N M A"
_symmetry_group_IT_number 62
_symmetry_cell_setting 'orthorhombic'
loop_
_space_group_symop_operation_xyz
x,y,z
1/2-x,-y,1/2+z
1/2+x,1/2-y,1/2-z
-x,1/2+y,-z
-x,-y,-z
1/2+x,y,1/2-z
1/2-x,1/2+y,1/2+z
x,1/2-y,z
loop_
_atom_site_type_symbol
_atom_site_label
_atom_site_fract_x
_atom_site_fract_y
_atom_site_fract_z
Si Si1 0.158194 0.055785 0.117636
Si Si2 0.340557 0.057669 0.882148
Si Si3 0.904654 0.057786 0.500375
Si Si4 0.904509 0.558990 0.000870
Si Si5 0.499376 0.057464 0.312107
Si Si6 0.341262 0.059705 0.383605
Si Si7 0.500303 0.940483 0.188654
Si Si8 0.844202 0.057352 0.381678
O O1 0.157446 0.250000 0.118066
O O2 0.250999 0.005073 0.134779
O O3 0.082809 0.002114 0.156337
O O4 0.139216 0.007115 0.055391
O O5 0.339866 0.250000 0.882161
O O6 0.416608 0.003520 0.843625
O O7 0.249510 0.998714 0.865113
O O8 0.360115 0.003461 0.944111
O O9 0.904367 0.250000 0.501154
O O10 0.861159 0.006949 0.444232
O O11 0.000000 0.000000 0.500000
O O12 0.903987 0.750000 0.001819
O O13 0.859482 0.498186 0.055062
O O14 0.000000 0.500000 0.000000
O O15 0.499386 0.250000 0.313312
O O16 0.417083 0.002837 0.345014
O O17 0.498859 0.002777 0.250043
O O18 0.342458 0.250000 0.383394
O O19 0.502195 0.750000 0.189181
O O20 0.418195 0.994840 0.156053
O O21 0.846612 0.250000 0.380201
#
# Coordination Sequence:
#
# PCOD9463227 Si02
#       8
#     8   8   8   8   8   8   8   8
#     4   9  19  38  62  86 117 154 193 237 287 345
#     4  10  22  40  60  86 122 158 190 240 305 354
#     4  10  19  34  58  87 120 155 191 231 292 355
#     4  11  20  36  62  91 126 159 192 239 296 355
#     4  10  22  42  62  82 114 154 201 246 288 349
#     4  11  23  39  61  91 120 155 202 245 291 354
#     4  11  24  41  60  84 117 153 195 248 302 349
#     4  10  20  36  62  89 114 154 196 233 287 351
#
# _framework density 19.439699000000001
#
# number of rings (size 3 to 8) (size 9 to 14) (size 15 to 20)
#    0.000    1.750    2.500    1.875    0.000    5.500 
#    0.000    6.875    0.000    0.000    0.000    0.000 
#    0.000    0.000    0.000    0.000    0.000    0.000 
#
# Total GULP energy -357573.535621 kJ/mol
# GULP energy per Si atom -5587.086494 kJ/mol
# Density = 1.939545 g / cm^3
# Si number density = 19.439699 Si / 1000 Ang^3
#
#
#
# Elastic Constant Matrix: (Units=GPa)
#
#
# Indices 1 2 3 4 5 6 
#
# 1 207.4996 25.1634 97.2357 0.0000 0.0000 0.0000
# 2 25.1634 11.0185 22.4305 0.0000 0.0000 0.0000
# 3 97.2357 22.4305 161.9987 0.0000 0.0000 0.0000
# 4 0.0000 0.0000 0.0000 18.5282 0.0000 0.0000
# 5 0.0000 0.0000 0.0000 0.0000 1.4332 0.0000
# 6 0.0000 0.0000 0.0000 0.0000 0.0000 29.2530
#
#
#
# Elastic Compliance Matrix: (Units=1/GPa)
#
#
# Indices 1 2 3 4 5 6 
#
# 1 0.007585 -0.011216 -0.003000 0.000000 0.000000 0.000000
# 2 -0.011216 0.142963 -0.013063 0.000000 0.000000 0.000000
# 3 -0.003000 -0.013063 0.009782 0.000000 0.000000 0.000000
# 4 0.000000 0.000000 0.000000 0.053972 0.000000 0.000000
# 5 0.000000 0.000000 0.000000 0.000000 0.697717 0.000000
# 6 0.000000 0.000000 0.000000 0.000000 0.000000 0.034185
#
#
# Mechanical properties :
#
#
# Convention : Reuss Voigt Hill
#
# Bulk Modulus (GPa) = 9.45415 74.46401 41.95908
# Shear Modulus (GPa) = 4.82616 25.55535 15.19076
#
# Velocity S-wave (km/s) = 1.57735 3.62967 2.79844
# Velocity P-wave (km/s) = 2.86203 7.48026 5.66328
#
# Compressibility (1/GPa) = 0.10577368
#
# Stress axis : x y z
#
# Youngs Moduli (GPa) = 131.83608 6.99480 102.22667
#
# Poissons Ratio (x) = 0.07845 0.30667
# Poissons Ratio (y) = 1.47864 1.33538
# Poissons Ratio (z) = 0.39549 0.09137
#
# Static dielectric constant tensor:
#      x y z
#    x 1.672220 0.000000 0.000000 
#    y 0.000000 1.667380 0.000000 
#    z 0.000000 0.000000 1.656060 
# 
# From -- ./inp_files/29898.got.cif
#   From: 2010.05.17/outbox.cif.g08.bks.cpg/sg62_15_cif.got.tgz:29898.got - 2010.06.03 15:25:27.
