data_PCOD9463327
_publ_section_title
;
Structure prediction by ZEFSAII (Michael W. Deem and Ramdas Pophale) SiO2 
 PCOD9463327
Probable space group: P N M A
;
_chemical_formula_sum "Si O2"
_cell_formula_units_Z 64
_cell_length_a 20.547705
_cell_length_b 16.698456
_cell_length_c 9.869888
_cell_angle_alpha 90.000000
_cell_angle_beta 90.000000
_cell_angle_gamma 90.000000
_cell_volume 3386.506106
_symmetry_space_group_name_H-M "P N M A"
_symmetry_group_IT_number 62
_symmetry_cell_setting 'orthorhombic'
loop_
_space_group_symop_operation_xyz
x,y,z
1/2-x,-y,1/2+z
1/2+x,1/2-y,1/2-z
-x,1/2+y,-z
-x,-y,-z
1/2+x,y,1/2-z
1/2-x,1/2+y,1/2+z
x,1/2-y,z
loop_
_atom_site_type_symbol
_atom_site_label
_atom_site_fract_x
_atom_site_fract_y
_atom_site_fract_z
Si Si1 0.110662 0.155837 0.816246
Si Si2 0.832421 0.340587 0.984977
Si Si3 0.804424 0.033412 0.763441
Si Si4 0.247825 0.660038 0.438943
Si Si5 0.917781 0.499593 0.355834
Si Si6 0.033861 0.841660 0.148350
Si Si7 0.798387 0.106599 0.277951
Si Si8 0.560511 0.511259 0.175155
O O1 0.112324 0.250000 0.769326
O O2 0.176306 0.143637 0.902688
O O3 0.041293 0.145452 0.893397
O O4 0.106134 0.085739 0.703081
O O5 0.818723 0.250000 0.936069
O O6 0.809418 0.347775 0.138290
O O7 0.799698 0.409750 0.894698
O O8 0.910088 0.355115 0.963178
O O9 0.795314 0.094291 0.638203
O O10 0.874307 0.989566 0.756078
O O11 0.749012 0.968328 0.755332
O O12 0.233100 0.750000 0.390870
O O13 0.232259 0.654360 0.597255
O O14 0.866775 0.431733 0.320175
O O15 0.925743 0.503164 0.517663
O O16 0.988881 0.477147 0.295751
O O17 0.039224 0.750000 0.190446
O O18 0.050290 0.896835 0.277005
#
# Coordination Sequence:
#
# PCOD9463327 Si02
#       8
#     8   8   8   8   8   8   8   8
#     4   9  18  34  58  85 111 148 193 240 285 345
#     4  10  22  39  58  83 114 149 189 236 289 341
#     4  11  21  38  60  83 109 153 196 233 275 343
#     4  11  22  37  58  85 114 149 191 235 286 343
#     4  10  19  35  57  82 118 145 188 237 288 338
#     4   8  16  35  59  83 111 148 197 238 278 342
#     4  12  23  37  57  87 117 149 184 242 295 336
#     4   9  19  35  55  84 112 151 187 238 282 335
#
# _framework density 18.898533
#
# number of rings (size 3 to 8) (size 9 to 14) (size 15 to 20)
#    0.000    2.000    2.500    1.500    0.000    0.500 
#    2.250    1.875    0.000    0.000    0.000    0.000 
#    0.000    0.000    0.000    0.000    0.000    0.000 
#
# Total GULP energy -356517.001113 kJ/mol
# GULP energy per Si atom -5570.578142 kJ/mol
# Density = 1.885552 g / cm^3
# Si number density = 18.898533 Si / 1000 Ang^3
#
#
#
# Elastic Constant Matrix: (Units=GPa)
#
#
# Indices 1 2 3 4 5 6 
#
# 1 104.0630 46.4431 34.8307 0.0000 0.0000 0.0000
# 2 46.4431 47.6788 26.1144 0.0000 0.0000 0.0000
# 3 34.8307 26.1144 88.8579 0.0000 0.0000 0.0000
# 4 0.0000 0.0000 0.0000 292.6592 0.0000 0.0000
# 5 0.0000 0.0000 0.0000 0.0000 22.6865 0.0000
# 6 0.0000 0.0000 0.0000 0.0000 0.0000 16.6419
#
#
#
# Elastic Compliance Matrix: (Units=1/GPa)
#
#
# Indices 1 2 3 4 5 6 
#
# 1 0.017349 -0.015702 -0.002186 0.000000 0.000000 0.000000
# 2 -0.015702 0.039209 -0.005368 0.000000 0.000000 0.000000
# 3 -0.002186 -0.005368 0.013688 0.000000 0.000000 0.000000
# 4 0.000000 0.000000 0.000000 0.003417 0.000000 0.000000
# 5 0.000000 0.000000 0.000000 0.000000 0.044079 0.000000
# 6 0.000000 0.000000 0.000000 0.000000 0.000000 0.060089
#
#
# Mechanical properties :
#
#
# Convention : Reuss Voigt Hill
#
# Bulk Modulus (GPa) = 42.13328 50.59736 46.36532
# Shear Modulus (GPa) = 21.52800 75.27829 48.40315
#
# Velocity S-wave (km/s) = 3.37877 6.31818 5.06633
# Velocity P-wave (km/s) = 6.12897 8.94746 7.66881
#
# Compressibility (1/GPa) = 0.02373420
#
# Stress axis : x y z
#
# Youngs Moduli (GPa) = 57.64006 25.50424 73.05474
#
# Poissons Ratio (x) = 0.40047 0.15968
# Poissons Ratio (y) = 0.90508 0.39217
# Poissons Ratio (z) = 0.12599 0.13691
#
# Static dielectric constant tensor:
#      x y z
#    x 1.711570 0.000000 0.000000 
#    y 0.000000 1.557910 0.000000 
#    z 0.000000 0.000000 1.645520 
# 
# From -- ./inp_files/8892.got.cif
#   From: 2010.05.17/outbox.cif.g08.bks.cpg/sg62_5_cif.got.tgz:8892.got - 2010.06.03 15:25:27.
