data_PCOD9463561
_publ_section_title
;
Structure prediction by ZEFSAII (Michael W. Deem and Ramdas Pophale) SiO2 
 PCOD9463561
Probable space group: P N M A
;
_chemical_formula_sum "Si O2"
_cell_formula_units_Z 64
_cell_length_a 19.539139
_cell_length_b 18.909271
_cell_length_c 9.385434
_cell_angle_alpha 90.000000
_cell_angle_beta 90.000000
_cell_angle_gamma 90.000000
_cell_volume 3467.644507
_symmetry_space_group_name_H-M "P N M A"
_symmetry_group_IT_number 62
_symmetry_cell_setting 'orthorhombic'
loop_
_space_group_symop_operation_xyz
x,y,z
1/2-x,-y,1/2+z
1/2+x,1/2-y,1/2-z
-x,1/2+y,-z
-x,-y,-z
1/2+x,y,1/2-z
1/2-x,1/2+y,1/2+z
x,1/2-y,z
loop_
_atom_site_type_symbol
_atom_site_label
_atom_site_fract_x
_atom_site_fract_y
_atom_site_fract_z
Si Si1 0.344183 0.168291 0.878756
Si Si2 0.409620 0.562501 0.408760
Si Si3 0.517295 0.583468 0.636149
Si Si4 0.254409 0.538754 0.351496
Si Si5 0.370611 0.166742 0.548355
Si Si6 0.729113 0.413433 0.964378
Si Si7 0.097353 0.166523 0.646388
Si Si8 0.974881 0.332669 0.426625
O O1 0.319698 0.250000 0.886979
O O2 0.285127 0.110418 0.893104
O O3 0.376096 0.159700 0.720103
O O4 0.402107 0.156817 0.996505
O O5 0.444138 0.582922 0.557897
O O6 0.454000 0.496093 0.353607
O O7 0.330671 0.539538 0.416254
O O8 0.412527 0.625260 0.294133
O O9 0.569771 0.625785 0.533550
O O10 0.516452 0.619461 0.789039
O O11 0.259971 0.541577 0.180834
O O12 0.217608 0.469129 0.409870
O O13 0.372175 0.250000 0.513947
O O14 0.297276 0.132512 0.509803
O O15 0.665239 0.363443 0.929571
O O16 0.103798 0.250000 0.671300
O O17 0.033308 0.153597 0.543189
O O18 0.979588 0.250000 0.385332
#
# Coordination Sequence:
#
# PCOD9463561 Si02
#       8
#     8   8   8   8   8   8   8   8
#     4   9  20  37  59  87 115 151 196 236 285 351
#     4  10  23  39  58  85 117 157 190 239 283 351
#     4  11  22  38  57  88 120 147 199 236 292 341
#     4  10  21  37  59  84 118 150 191 237 292 338
#     4  10  19  36  61  84 113 153 191 236 287 343
#     4  10  21  37  58  88 115 151 191 240 285 347
#     4  10  22  41  61  85 115 154 199 238 287 347
#     4  10  22  39  59  85 117 151 192 241 288 339
#
# _framework density 18.456330999999999
#
# number of rings (size 3 to 8) (size 9 to 14) (size 15 to 20)
#    0.000    2.000    1.250    1.500    3.500    6.500 
#    2.250    0.000    0.000    3.750    0.000    0.000 
#    0.000    0.000    0.000    0.000    0.000    0.000 
#
# Total GULP energy -357425.474511 kJ/mol
# GULP energy per Si atom -5584.773039 kJ/mol
# Density = 1.841432 g / cm^3
# Si number density = 18.456331 Si / 1000 Ang^3
#
#
#
# Elastic Constant Matrix: (Units=GPa)
#
#
# Indices 1 2 3 4 5 6 
#
# 1 30.6289 10.7049 6.6246 0.0000 0.0000 0.0000
# 2 10.7049 66.1651 34.4788 0.0000 0.0000 0.0000
# 3 6.6246 34.4788 35.0725 0.0000 0.0000 0.0000
# 4 0.0000 0.0000 0.0000 35.2646 0.0000 0.0000
# 5 0.0000 0.0000 0.0000 0.0000 15.0754 0.0000
# 6 0.0000 0.0000 0.0000 0.0000 0.0000 16.1494
#
#
#
# Elastic Compliance Matrix: (Units=1/GPa)
#
#
# Indices 1 2 3 4 5 6 
#
# 1 0.034683 -0.004506 -0.002121 0.000000 0.000000 0.000000
# 2 -0.004506 0.031574 -0.030189 0.000000 0.000000 0.000000
# 3 -0.002121 -0.030189 0.058591 0.000000 0.000000 0.000000
# 4 0.000000 0.000000 0.000000 0.028357 0.000000 0.000000
# 5 0.000000 0.000000 0.000000 0.000000 0.066333 0.000000
# 6 0.000000 0.000000 0.000000 0.000000 0.000000 0.061922
#
#
# Mechanical properties :
#
#
# Convention : Reuss Voigt Hill
#
# Bulk Modulus (GPa) = 19.52527 26.16481 22.84504
# Shear Modulus (GPa) = 13.43496 18.63507 16.03502
#
# Velocity S-wave (km/s) = 2.70095 3.18100 2.95075
# Velocity P-wave (km/s) = 4.50877 5.26299 4.90041
#
# Compressibility (1/GPa) = 0.05121568
#
# Stress axis : x y z
#
# Youngs Moduli (GPa) = 28.83293 31.67156 17.06755
#
# Poissons Ratio (x) = 0.14271 0.03621
# Poissons Ratio (y) = 0.12992 0.51524
# Poissons Ratio (z) = 0.06117 0.95612
#
# Static dielectric constant tensor:
#      x y z
#    x 1.627920 0.000000 0.000000 
#    y 0.000000 1.622770 0.000000 
#    z 0.000000 0.000000 1.616120 
# 
# From -- ./inp_files/8897.got.cif
#   From: 2010.05.17/outbox.cif.g08.bks.cpg/sg62_5_cif.got.tgz:8897.got - 2010.06.03 15:25:27.
