data_PCOD9463880
_publ_section_title
;
Structure prediction by ZEFSAII (Michael W. Deem and Ramdas Pophale) SiO2 
 PCOD9463880
Probable space group: P N M A
;
_chemical_formula_sum "Si O2"
_cell_formula_units_Z 48
_cell_length_a 19.503199
_cell_length_b 15.957143
_cell_length_c 6.097593
_cell_angle_alpha 90.000000
_cell_angle_beta 90.000000
_cell_angle_gamma 90.000000
_cell_volume 1897.664451
_symmetry_space_group_name_H-M "P N M A"
_symmetry_group_IT_number 62
_symmetry_cell_setting 'orthorhombic'
loop_
_space_group_symop_operation_xyz
x,y,z
1/2-x,-y,1/2+z
1/2+x,1/2-y,1/2-z
-x,1/2+y,-z
-x,-y,-z
1/2+x,y,1/2-z
1/2-x,1/2+y,1/2+z
x,1/2-y,z
loop_
_atom_site_type_symbol
_atom_site_label
_atom_site_fract_x
_atom_site_fract_y
_atom_site_fract_z
Si Si1 0.839253 0.048497 0.350490
Si Si2 0.103188 0.250000 0.087340
Si Si3 0.722776 0.250000 0.087995
Si Si4 0.992949 0.250000 0.454739
Si Si5 0.938136 0.106191 0.730711
Si Si6 0.592437 0.056791 0.469632
Si Si7 0.614078 0.750000 0.554879
Si Si8 0.713480 0.414739 0.126342
O O1 0.881576 0.089666 0.543382
O O2 0.787471 0.107352 0.222174
O O3 0.782691 0.990011 0.463122
O O4 0.884984 0.992305 0.188842
O O5 0.184162 0.250000 0.167388
O O6 0.079729 0.342471 0.991092
O O7 0.059750 0.250000 0.309752
O O8 0.692783 0.333964 0.986229
O O9 0.803981 0.250000 0.048840
O O10 0.990457 0.165219 0.597828
O O11 0.926829 0.250000 0.287066
O O12 0.911016 0.167040 0.922977
O O13 0.953486 0.013637 0.832854
O O14 0.656630 0.065478 0.304427
#
# Coordination Sequence:
#
# PCOD9463880 Si02
#       8
#     8   4   4   4   8   8   4   8
#     4  11  20  36  60  92 133 177 224 275 334 407
#     4  10  25  45  67  99 137 186 227 286 354 422
#     4  10  21  37  61  94 130 163 220 280 333 407
#     4  11  23  46  70  97 137 176 237 290 348 421
#     4  10  23  40  69  99 128 180 227 290 341 407
#     4  10  21  40  61  94 135 176 228 276 347 408
#     4  11  23  42  70 104 134 175 232 288 347 412
#     4  10  20  32  56  89 130 174 212 268 339 400
#
# _framework density 25.294248
#
# number of rings (size 3 to 8) (size 9 to 14) (size 15 to 20)
#    0.000    1.667    1.667    3.000    2.333    2.000 
#    0.000   15.833    0.000    0.000    0.000    0.000 
#    0.000    0.000    0.000    0.000    0.000    0.000 
#
# Total GULP energy -267354.668198 kJ/mol
# GULP energy per Si atom -5569.888921 kJ/mol
# Density = 2.523668 g / cm^3
# Si number density = 25.294248 Si / 1000 Ang^3
#
#
#
# Elastic Constant Matrix: (Units=GPa)
#
#
# Indices 1 2 3 4 5 6 
#
# 1 76.8876 8.7376 30.5582 0.0000 0.0000 0.0000
# 2 8.7376 141.8061 22.3982 0.0000 0.0000 0.0000
# 3 30.5582 22.3982 73.1910 0.0000 0.0000 0.0000
# 4 0.0000 0.0000 0.0000 35.8084 0.0000 0.0000
# 5 0.0000 0.0000 0.0000 0.0000 10.1223 0.0000
# 6 0.0000 0.0000 0.0000 0.0000 0.0000 -21.6914
#
#
#
# Elastic Compliance Matrix: (Units=1/GPa)
#
#
# Indices 1 2 3 4 5 6 
#
# 1 0.015594 0.000071 -0.006532 0.000000 0.000000 0.000000
# 2 0.000071 0.007410 -0.002297 0.000000 0.000000 0.000000
# 3 -0.006532 -0.002297 0.017093 0.000000 0.000000 0.000000
# 4 0.000000 0.000000 0.000000 0.027926 0.000000 0.000000
# 5 0.000000 0.000000 0.000000 0.000000 0.098792 0.000000
# 6 0.000000 0.000000 0.000000 0.000000 0.000000 -0.046101
#
#
# Mechanical properties :
#
#
# Convention : Reuss Voigt Hill
#
# Bulk Modulus (GPa) = 44.28682 46.14140 45.21411
# Shear Modulus (GPa) = 34.30313 20.19392 27.24852
#
# Velocity S-wave (km/s) = 3.68661 2.82859 3.28573
# Velocity P-wave (km/s) = 5.97228 5.38046 5.68408
#
# Compressibility (1/GPa) = 0.02258008
#
# Stress axis : x y z
#
# Youngs Moduli (GPa) = 64.12640 134.94583 58.50233
#
# Poissons Ratio (x) = -0.00957 0.38217
# Poissons Ratio (y) = -0.00455 0.13440
# Poissons Ratio (z) = 0.41890 0.31002
#
# Static dielectric constant tensor:
#      x y z
#    x 2.081790 0.000000 0.000000 
#    y 0.000000 2.149640 0.000000 
#    z 0.000000 0.000000 1.934040 
# 
# From -- ./inp_files/2776.got.cif
#   From: 2010.05.17/outbox.cif.g08.bks.cpg/sg62_2_cif.got.tgz:2776.got - 2010.06.03 15:25:27.
