data_PCOD9463474
_publ_section_title
;
Structure prediction by ZEFSAII (Michael W. Deem and Ramdas Pophale) SiO2 
 PCOD9463474
Probable space group: P N M A
;
_chemical_formula_sum "Si O2"
_cell_formula_units_Z 64
_cell_length_a 20.104672
_cell_length_b 31.412698
_cell_length_c 4.952248
_cell_angle_alpha 90.000000
_cell_angle_beta 90.000000
_cell_angle_gamma 90.000000
_cell_volume 3127.552557
_symmetry_space_group_name_H-M "P N M A"
_symmetry_group_IT_number 62
_symmetry_cell_setting 'orthorhombic'
loop_
_space_group_symop_operation_xyz
x,y,z
1/2-x,-y,1/2+z
1/2+x,1/2-y,1/2-z
-x,1/2+y,-z
-x,-y,-z
1/2+x,y,1/2-z
1/2-x,1/2+y,1/2+z
x,1/2-y,z
loop_
_atom_site_type_symbol
_atom_site_label
_atom_site_fract_x
_atom_site_fract_y
_atom_site_fract_z
Si Si1 0.323390 0.867442 0.781306
Si Si2 0.036034 0.905193 0.333146
Si Si3 0.950521 0.912313 0.837440
Si Si4 0.255843 0.903303 0.264172
Si Si5 0.645371 0.838317 0.223390
Si Si6 0.925480 0.003085 0.623998
Si Si7 0.715286 0.514903 0.893839
Si Si8 0.213365 0.700934 0.803348
O O1 0.401810 0.875027 0.763417
O O2 0.299017 0.876965 0.479500
O O3 0.282940 0.824483 0.857573
O O4 0.299598 0.903173 0.995424
O O5 0.015202 0.910125 0.645173
O O6 0.074452 0.860893 0.296042
O O7 0.074373 0.949170 0.251292
O O8 0.971348 0.905944 0.144808
O O9 0.920142 0.960057 0.802217
O O10 0.190797 0.877707 0.181498
O O11 0.231170 0.942041 0.446317
O O12 0.663518 0.802992 0.442640
O O13 0.674207 0.822195 0.939634
O O14 0.862047 0.003018 0.424801
O O15 0.000000 0.000000 0.500000
O O16 0.761340 0.484600 0.084757
O O17 0.226829 0.750000 0.739862
#
# Coordination Sequence:
#
# PCOD9463474 Si02
#       8
#     8   8   8   8   8   8   8   8
#     4  10  21  37  60  85 118 147 191 240 300 359
#     4  11  22  38  57  82 116 163 204 239 290 337
#     4  11  22  36  56  82 119 163 207 241 279 342
#     4  10  19  36  54  79 110 151 190 241 296 345
#     4  10  20  37  60  86 117 147 192 236 293 358
#     4  10  23  40  56  84 121 170 217 257 285 347
#     4  12  24  36  56  81 116 157 209 263 304 336
#     4  10  21  38  66  92 113 142 182 243 309 370
#
# _framework density 20.463284999999999
#
# number of rings (size 3 to 8) (size 9 to 14) (size 15 to 20)
#    0.000    1.500    1.250    4.500    0.000    5.000 
#    0.000    0.000    0.000    4.500    0.000    0.000 
#    0.000    0.000    0.000    0.000    0.000    0.000 
#
# Total GULP energy -356622.988877 kJ/mol
# GULP energy per Si atom -5572.234201 kJ/mol
# Density = 2.041671 g / cm^3
# Si number density = 20.463285 Si / 1000 Ang^3
#
#
#
# Elastic Constant Matrix: (Units=GPa)
#
#
# Indices 1 2 3 4 5 6 
#
# 1 69.6211 19.9971 3.9744 0.0000 0.0000 0.0000
# 2 19.9971 94.4184 -13.4017 0.0000 0.0000 0.0000
# 3 3.9744 -13.4017 63.8437 0.0000 0.0000 0.0000
# 4 0.0000 0.0000 0.0000 16.8991 0.0000 0.0000
# 5 0.0000 0.0000 0.0000 0.0000 20.2554 0.0000
# 6 0.0000 0.0000 0.0000 0.0000 0.0000 17.4968
#
#
#
# Elastic Compliance Matrix: (Units=1/GPa)
#
#
# Indices 1 2 3 4 5 6 
#
# 1 0.015471 -0.003518 -0.001702 0.000000 0.000000 0.000000
# 2 -0.003518 0.011716 0.002678 0.000000 0.000000 0.000000
# 3 -0.001702 0.002678 0.016331 0.000000 0.000000 0.000000
# 4 0.000000 0.000000 0.000000 0.059175 0.000000 0.000000
# 5 0.000000 0.000000 0.000000 0.000000 0.049370 0.000000
# 6 0.000000 0.000000 0.000000 0.000000 0.000000 0.057153
#
#
# Mechanical properties :
#
#
# Convention : Reuss Voigt Hill
#
# Bulk Modulus (GPa) = 26.01706 27.66919 26.84312
# Shear Modulus (GPa) = 22.01562 25.41781 23.71671
#
# Velocity S-wave (km/s) = 3.28359 3.52819 3.40809
# Velocity P-wave (km/s) = 5.20745 5.49074 5.35097
#
# Compressibility (1/GPa) = 0.03843632
#
# Stress axis : x y z
#
# Youngs Moduli (GPa) = 64.63657 85.34996 61.23160
#
# Poissons Ratio (x) = 0.30028 0.10419
# Poissons Ratio (y) = 0.22740 -0.16401
# Poissons Ratio (z) = 0.10999 -0.22861
#
# Static dielectric constant tensor:
#      x y z
#    x 1.786880 0.000000 0.000000 
#    y 0.000000 1.820010 0.000000 
#    z 0.000000 0.000000 1.731340 
# 
# From -- ./inp_files/1872.got.cif
#   From: 2010.05.17/outbox.cif.g08.bks.cpg/sg62_1_cif.got.tgz:1872.got - 2010.06.03 15:25:27.
