data_PCOD9463237
_publ_section_title
;
Structure prediction by ZEFSAII (Michael W. Deem and Ramdas Pophale) SiO2 
 PCOD9463237
Probable space group: P N M A
;
_chemical_formula_sum "Si O2"
_cell_formula_units_Z 64
_cell_length_a 12.997750
_cell_length_b 7.997657
_cell_length_c 28.643180
_cell_angle_alpha 90.000000
_cell_angle_beta 90.000000
_cell_angle_gamma 90.000000
_cell_volume 2977.502851
_symmetry_space_group_name_H-M "P N M A"
_symmetry_group_IT_number 62
_symmetry_cell_setting 'orthorhombic'
loop_
_space_group_symop_operation_xyz
x,y,z
1/2-x,-y,1/2+z
1/2+x,1/2-y,1/2-z
-x,1/2+y,-z
-x,-y,-z
1/2+x,y,1/2-z
1/2-x,1/2+y,1/2+z
x,1/2-y,z
loop_
_atom_site_type_symbol
_atom_site_label
_atom_site_fract_x
_atom_site_fract_y
_atom_site_fract_z
Si Si1 0.117233 0.953847 0.909775
Si Si2 0.940833 0.452389 0.195217
Si Si3 0.319790 0.552466 0.038607
Si Si4 0.150081 0.554787 0.708288
Si Si5 0.646155 0.938850 0.339796
Si Si6 0.598451 0.059575 0.439738
Si Si7 0.846176 0.953369 0.562355
Si Si8 0.539269 0.051699 0.877776
O O1 0.112924 0.750000 0.911619
O O2 0.102296 0.002519 0.855546
O O3 0.229655 0.005873 0.925969
O O4 0.017897 0.012037 0.939825
O O5 0.945212 0.250000 0.196325
O O6 0.877418 0.508030 0.240224
O O7 0.055778 0.523289 0.196425
O O8 0.339149 0.750000 0.039630
O O9 0.196638 0.528430 0.037525
O O10 0.374750 0.485441 0.085132
O O11 0.367199 0.486541 0.990474
O O12 0.176721 0.750000 0.711779
O O13 0.245229 0.463901 0.684232
O O14 0.056316 0.532911 0.672113
O O15 0.638222 0.750000 0.357946
O O16 0.626751 0.055557 0.384391
O O17 0.596314 0.250000 0.456409
O O18 0.849135 0.750000 0.563250
O O19 0.929977 0.018409 0.598423
O O20 0.553759 0.250000 0.871369
#
# Coordination Sequence:
#
# PCOD9463237 Si02
#       8
#     8   8   8   8   8   8   8   8
#     4   8  17  36  58  82 112 147 188 240 287 337
#     4   9  20  38  59  83 111 146 191 235 283 343
#     4  10  21  36  56  84 116 152 192 243 297 348
#     4  11  22  37  60  86 111 150 199 240 284 343
#     4  11  21  35  56  83 116 148 182 233 291 340
#     4  10  19  34  59  84 110 148 195 239 284 340
#     4  10  21  38  59  82 115 157 196 235 295 360
#     4  11  23  38  55  81 118 152 193 246 295 343
#
# _framework density 21.494522
#
# number of rings (size 3 to 8) (size 9 to 14) (size 15 to 20)
#    0.000    2.000    1.250    3.375    0.000    3.500 
#    0.000    5.625    0.000    0.000    0.000    0.000 
#    0.000    0.000    0.000    0.000    0.000    0.000 
#
# Total GULP energy -357459.370593 kJ/mol
# GULP energy per Si atom -5585.302666 kJ/mol
# Density = 2.144560 g / cm^3
# Si number density = 21.494522 Si / 1000 Ang^3
#
#
#
# Elastic Constant Matrix: (Units=GPa)
#
#
# Indices 1 2 3 4 5 6 
#
# 1 89.5553 -7.8913 10.2172 0.0000 0.0000 0.0000
# 2 -7.8913 28.0022 -0.2939 0.0000 0.0000 0.0000
# 3 10.2172 -0.2939 60.9295 0.0000 0.0000 0.0000
# 4 0.0000 0.0000 0.0000 8.6809 0.0000 0.0000
# 5 0.0000 0.0000 0.0000 0.0000 20.9852 0.0000
# 6 0.0000 0.0000 0.0000 0.0000 0.0000 14.0512
#
#
#
# Elastic Compliance Matrix: (Units=1/GPa)
#
#
# Indices 1 2 3 4 5 6 
#
# 1 0.011676 0.003270 -0.001942 0.000000 0.000000 0.000000
# 2 0.003270 0.036629 -0.000372 0.000000 0.000000 0.000000
# 3 -0.001942 -0.000372 0.016736 0.000000 0.000000 0.000000
# 4 0.000000 0.000000 0.000000 0.115196 0.000000 0.000000
# 5 0.000000 0.000000 0.000000 0.000000 0.047653 0.000000
# 6 0.000000 0.000000 0.000000 0.000000 0.000000 0.071168
#
#
# Mechanical properties :
#
#
# Convention : Reuss Voigt Hill
#
# Bulk Modulus (GPa) = 14.93567 20.28345 17.60956
# Shear Modulus (GPa) = 15.65123 20.50711 18.07917
#
# Velocity S-wave (km/s) = 2.70135 3.09214 2.90333
# Velocity P-wave (km/s) = 4.08576 4.71227 4.41015
#
# Compressibility (1/GPa) = 0.06695379
#
# Stress axis : x y z
#
# Youngs Moduli (GPa) = 85.64571 27.30072 59.75034
#
# Poissons Ratio (x) = -0.08927 0.11605
# Poissons Ratio (y) = -0.28006 0.02221
# Poissons Ratio (z) = 0.16634 0.01015
#
# Static dielectric constant tensor:
#      x y z
#    x 1.787730 0.000000 0.000000 
#    y 0.000000 1.755980 0.000000 
#    z 0.000000 0.000000 1.783060 
# 
# From -- ./inp_files/32573.got.cif
#   From: 2010.05.17/outbox.cif.g08.bks.cpg/sg62_17_cif.got.tgz:32573.got - 2010.06.03 15:25:27.
