data_PCOD9463929
_publ_section_title
;
Structure prediction by ZEFSAII (Michael W. Deem and Ramdas Pophale) SiO2 
 PCOD9463929
Probable space group: P N M A
;
_chemical_formula_sum "Si O2"
_cell_formula_units_Z 56
_cell_length_a 21.038041
_cell_length_b 7.404957
_cell_length_c 16.373843
_cell_angle_alpha 90.000000
_cell_angle_beta 90.000000
_cell_angle_gamma 90.000000
_cell_volume 2550.812050
_symmetry_space_group_name_H-M "P N M A"
_symmetry_group_IT_number 62
_symmetry_cell_setting 'orthorhombic'
loop_
_space_group_symop_operation_xyz
x,y,z
1/2-x,-y,1/2+z
1/2+x,1/2-y,1/2-z
-x,1/2+y,-z
-x,-y,-z
1/2+x,y,1/2-z
1/2-x,1/2+y,1/2+z
x,1/2-y,z
loop_
_atom_site_type_symbol
_atom_site_label
_atom_site_fract_x
_atom_site_fract_y
_atom_site_fract_z
Si Si1 0.695146 0.468737 0.818476
Si Si2 0.530733 0.971208 0.254941
Si Si3 0.101326 0.470469 0.826183
Si Si4 0.180428 0.538173 0.492499
Si Si5 0.837386 0.040242 0.827516
Si Si6 0.048260 0.534071 0.426723
Si Si7 0.822824 0.530735 0.015692
O O1 0.696630 0.250000 0.817700
O O2 0.647302 0.527286 0.748002
O O3 0.767645 0.535077 0.806103
O O4 0.673805 0.521283 0.909560
O O5 0.530689 0.750000 0.257796
O O6 0.470351 0.029272 0.307906
O O7 0.599020 0.035062 0.287347
O O8 0.523521 0.028508 0.160935
O O9 0.101747 0.250000 0.826312
O O10 0.130917 0.528263 0.912141
O O11 0.182602 0.750000 0.472016
O O12 0.118273 0.461627 0.448853
O O13 0.250244 0.466169 0.470460
O O14 0.835096 0.250000 0.802607
O O15 0.842778 0.028955 0.925460
O O16 0.054020 0.750000 0.420109
O O17 0.000000 0.500000 0.500000
O O18 0.821815 0.750000 0.014550
#
# Coordination Sequence:
#
# PCOD9463929 Si02
#       7
#     8   8   8   8   8   8   8
#     4   9  17  30  51  73  95 125 162 202 238 281
#     4   9  18  31  48  72  99 127 161 202 243 284
#     4   9  17  29  48  72  95 124 162 199 237 284
#     4   9  18  31  48  71  97 126 158 196 243 291
#     4   9  18  32  50  72  97 125 162 203 243 285
#     4  10  20  33  51  73 101 132 162 199 245 293
#     4   9  18  32  50  71  96 125 162 201 241 287
#
# _framework density 21.953793000000001
#
# number of rings (size 3 to 8) (size 9 to 14) (size 15 to 20)
#    0.000    2.857    0.000    0.857    2.000    2.286 
#    0.000    1.429    0.000    1.714    0.000    0.000 
#    0.000    0.000    0.000    0.000    0.000    0.000 
#
# Total GULP energy -312711.255319 kJ/mol
# GULP energy per Si atom -5584.129559 kJ/mol
# Density = 2.190383 g / cm^3
# Si number density = 21.953793 Si / 1000 Ang^3
#
#
#
# Elastic Constant Matrix: (Units=GPa)
#
#
# Indices 1 2 3 4 5 6 
#
# 1 88.8971 -0.9060 23.6602 0.0000 0.0000 0.0000
# 2 -0.9060 72.6270 -10.7790 0.0000 0.0000 0.0000
# 3 23.6602 -10.7790 21.5228 0.0000 0.0000 0.0000
# 4 0.0000 0.0000 0.0000 -0.9015 0.0000 0.0000
# 5 0.0000 0.0000 0.0000 0.0000 39.3208 0.0000
# 6 0.0000 0.0000 0.0000 0.0000 0.0000 2.2020
#
#
#
# Elastic Compliance Matrix: (Units=1/GPa)
#
#
# Indices 1 2 3 4 5 6 
#
# 1 0.016365 -0.002664 -0.019324 0.000000 0.000000 0.000000
# 2 -0.002664 0.015308 0.010595 0.000000 0.000000 0.000000
# 3 -0.019324 0.010595 0.073012 0.000000 0.000000 0.000000
# 4 0.000000 0.000000 0.000000 -1.109249 0.000000 0.000000
# 5 0.000000 0.000000 0.000000 0.000000 0.025432 0.000000
# 6 0.000000 0.000000 0.000000 0.000000 0.000000 0.454142
#
#
# Mechanical properties :
#
#
# Convention : Reuss Voigt Hill
#
# Bulk Modulus (GPa) = 12.21019 22.99971 17.60495
# Shear Modulus (GPa) = -10.52844 19.52902 4.50029
#
# Velocity S-wave (km/s) = -2.19229 2.98577 1.43330
# Velocity P-wave (km/s) = 0.91342 4.73134 3.28262
#
# Compressibility (1/GPa) = 0.08189882
#
# Stress axis : x y z
#
# Youngs Moduli (GPa) = 61.10587 65.32431 13.69640
#
# Poissons Ratio (x) = 0.17402 0.26467
# Poissons Ratio (y) = 0.16278 -0.14511
# Poissons Ratio (z) = 1.18083 -0.69212
#
# Static dielectric constant tensor:
#      x y z
#    x 1.790900 0.000000 0.000000 
#    y 0.000000 1.850810 0.000000 
#    z 0.000000 0.000000 1.746480 
# 
# From -- ./inp_files/20266.got.cif
#   From: 2010.05.17/outbox.cif.g08.bks.cpg/sg62_11_cif.got.tgz:20266.got - 2010.06.03 15:25:27.
