data_PCOD9463386
_publ_section_title
;
Structure prediction by ZEFSAII (Michael W. Deem and Ramdas Pophale) SiO2 
 PCOD9463386
Probable space group: P N M A
;
_chemical_formula_sum "Si O2"
_cell_formula_units_Z 56
_cell_length_a 8.589323
_cell_length_b 20.008404
_cell_length_c 16.796887
_cell_angle_alpha 90.000000
_cell_angle_beta 90.000000
_cell_angle_gamma 90.000000
_cell_volume 2886.690235
_symmetry_space_group_name_H-M "P N M A"
_symmetry_group_IT_number 62
_symmetry_cell_setting 'orthorhombic'
loop_
_space_group_symop_operation_xyz
x,y,z
1/2-x,-y,1/2+z
1/2+x,1/2-y,1/2-z
-x,1/2+y,-z
-x,-y,-z
1/2+x,y,1/2-z
1/2-x,1/2+y,1/2+z
x,1/2-y,z
loop_
_atom_site_type_symbol
_atom_site_label
_atom_site_fract_x
_atom_site_fract_y
_atom_site_fract_z
Si Si1 0.561578 0.475601 0.635086
Si Si2 0.690464 0.330365 0.010764
Si Si3 0.895654 0.673322 0.841694
Si Si4 0.730329 0.171666 0.180930
Si Si5 0.482017 0.900080 0.519860
Si Si6 0.544910 0.169187 0.845292
Si Si7 0.799818 0.416096 0.750204
O O1 0.589236 0.425069 0.561952
O O2 0.530720 0.542660 0.584250
O O3 0.702307 0.469234 0.697475
O O4 0.411769 0.453172 0.686687
O O5 0.707505 0.250000 0.014297
O O6 0.575553 0.345257 0.938647
O O7 0.651291 0.354702 0.100270
O O8 0.861138 0.360947 0.995883
O O9 0.846103 0.750000 0.845096
O O10 0.083271 0.670509 0.829593
O O11 0.818972 0.640315 0.764414
O O12 0.864951 0.643096 0.927609
O O13 0.683569 0.250000 0.185609
O O14 0.540547 0.250000 0.834360
O O15 0.397394 0.131139 0.809223
O O16 0.686489 0.134032 0.797887
#
# Coordination Sequence:
#
# PCOD9463386 Si02
#       7
#     8   8   8   8   8   8   8
#     4  10  22  37  58  75 114 146 187 227 272 321
#     4   9  17  32  56  81 109 142 176 223 283 333
#     4   9  17  31  51  75 103 134 174 220 270 322
#     4   8  15  28  46  70 101 133 163 205 261 320
#     4  10  19  36  56  80 106 147 186 223 268 334
#     4  10  19  35  59  84 111 142 181 231 286 329
#     4  10  21  39  56  81 110 146 186 232 271 330
#
# _framework density 19.399380000000001
#
# number of rings (size 3 to 8) (size 9 to 14) (size 15 to 20)
#    0.000    2.571    1.429    1.714    0.000    2.286 
#    2.571    2.857    0.000    0.000    0.000    0.000 
#    0.000    0.000    0.000    0.000    0.000    0.000 
#
# Total GULP energy -311798.174016 kJ/mol
# GULP energy per Si atom -5567.824536 kJ/mol
# Density = 1.935523 g / cm^3
# Si number density = 19.399380 Si / 1000 Ang^3
#
#
#
# Elastic Constant Matrix: (Units=GPa)
#
#
# Indices 1 2 3 4 5 6 
#
# 1 18.1440 8.4229 -0.8378 0.0000 0.0000 0.0000
# 2 8.4229 23.2505 24.0124 0.0000 0.0000 0.0000
# 3 -0.8378 24.0124 95.9446 0.0000 0.0000 0.0000
# 4 0.0000 0.0000 0.0000 33.6292 0.0000 0.0000
# 5 0.0000 0.0000 0.0000 0.0000 28.8406 0.0000
# 6 0.0000 0.0000 0.0000 0.0000 0.0000 9.1880
#
#
#
# Elastic Compliance Matrix: (Units=1/GPa)
#
#
# Indices 1 2 3 4 5 6 
#
# 1 0.072388 -0.036245 0.009703 0.000000 0.000000 0.000000
# 2 -0.036245 0.076150 -0.019375 0.000000 0.000000 0.000000
# 3 0.009703 -0.019375 0.015356 0.000000 0.000000 0.000000
# 4 0.000000 0.000000 0.000000 0.029736 0.000000 0.000000
# 5 0.000000 0.000000 0.000000 0.000000 0.034673 0.000000
# 6 0.000000 0.000000 0.000000 0.000000 0.000000 0.108838
#
#
# Mechanical properties :
#
#
# Convention : Reuss Voigt Hill
#
# Bulk Modulus (GPa) = 13.87704 22.28155 18.07929
# Shear Modulus (GPa) = 11.03762 21.38099 16.20930
#
# Velocity S-wave (km/s) = 2.38789 3.32346 2.89374
# Velocity P-wave (km/s) = 3.84338 5.12229 4.52821
#
# Compressibility (1/GPa) = 0.07206149
#
# Stress axis : x y z
#
# Youngs Moduli (GPa) = 13.81435 13.13197 65.11938
#
# Poissons Ratio (x) = 0.47597 -0.63187
# Poissons Ratio (y) = 0.50070 1.26168
# Poissons Ratio (z) = -0.13404 0.25443
#
# Static dielectric constant tensor:
#      x y z
#    x 1.659670 0.000000 0.000000 
#    y 0.000000 1.734070 0.000000 
#    z 0.000000 0.000000 1.715190 
# 
# From -- ./inp_files/22516.got.cif
#   From: 2010.05.17/outbox.cif.g08.bks.cpg/sg62_12_cif.got.tgz:22516.got - 2010.06.03 15:25:27.
