data_PCOD9463006
_publ_section_title
;
Structure prediction by ZEFSAII (Michael W. Deem and Ramdas Pophale) SiO2 
 PCOD9463006
Probable space group: P N M A
;
_chemical_formula_sum "Si O2"
_cell_formula_units_Z 64
_cell_length_a 19.954466
_cell_length_b 8.471409
_cell_length_c 20.563425
_cell_angle_alpha 90.000000
_cell_angle_beta 90.000000
_cell_angle_gamma 90.000000
_cell_volume 3476.091596
_symmetry_space_group_name_H-M "P N M A"
_symmetry_group_IT_number 62
_symmetry_cell_setting 'orthorhombic'
loop_
_space_group_symop_operation_xyz
x,y,z
1/2-x,-y,1/2+z
1/2+x,1/2-y,1/2-z
-x,1/2+y,-z
-x,-y,-z
1/2+x,y,1/2-z
1/2-x,1/2+y,1/2+z
x,1/2-y,z
loop_
_atom_site_type_symbol
_atom_site_label
_atom_site_fract_x
_atom_site_fract_y
_atom_site_fract_z
Si Si1 0.680030 0.559661 0.907615
Si Si2 0.599008 0.558978 0.317755
Si Si3 0.564849 0.560950 0.462011
Si Si4 0.569247 0.942285 0.174607
Si Si5 0.245990 0.060974 0.217587
Si Si6 0.292867 0.941307 0.488753
Si Si7 0.466681 0.561296 0.065662
Si Si8 0.279573 0.059932 0.856811
O O1 0.677153 0.750000 0.910174
O O2 0.698223 0.511125 0.834289
O O3 0.609432 0.493744 0.929767
O O4 0.740624 0.510734 0.954961
O O5 0.601170 0.750000 0.318060
O O6 0.567933 0.506517 0.386272
O O7 0.563499 0.509393 0.250205
O O8 0.674704 0.497132 0.310413
O O9 0.500000 0.500000 0.500000
O O10 0.563112 0.750000 0.461696
O O11 0.633648 0.505773 0.495972
O O12 0.569412 0.750000 0.173911
O O13 0.510448 0.996705 0.127275
O O14 0.642490 0.992968 0.147678
O O15 0.244701 0.250000 0.220900
O O16 0.253749 0.992798 0.289479
O O17 0.296566 0.750000 0.488542
O O18 0.260716 0.993844 0.420210
O O19 0.469077 0.750000 0.065652
O O20 0.500000 0.500000 0.000000
O O21 0.281174 0.250000 0.858796
#
# Coordination Sequence:
#
# PCOD9463006 Si02
#       8
#     8   8   8   8   8   8   8   8
#     4  10  21  37  57  80 112 149 185 228 278 334
#     4   9  18  36  60  80 105 143 189 230 271 332
#     4  11  23  38  59  84 113 145 185 238 288 343
#     4   8  16  34  57  80 107 145 190 228 266 322
#     4  10  19  33  56  82 111 142 178 230 282 328
#     4  10  20  38  61  83 111 150 190 228 279 337
#     4  11  22  36  56  81 113 149 189 234 280 334
#     4   9  18  34  58  82 109 146 187 228 271 332
#
# _framework density 18.411481999999999
#
# number of rings (size 3 to 8) (size 9 to 14) (size 15 to 20)
#    0.000    2.250    1.250    2.625    0.000    4.500 
#    2.250    7.500    0.000    0.000    0.000    0.000 
#    0.000    0.000    0.000    0.000    0.000    0.000 
#
# Total GULP energy -357111.842912 kJ/mol
# GULP energy per Si atom -5579.872545 kJ/mol
# Density = 1.836958 g / cm^3
# Si number density = 18.411482 Si / 1000 Ang^3
#
#
#
# Elastic Constant Matrix: (Units=GPa)
#
#
# Indices 1 2 3 4 5 6 
#
# 1 130.6034 19.3513 80.1940 0.0000 0.0000 0.0000
# 2 19.3513 9.7843 19.1141 0.0000 0.0000 0.0000
# 3 80.1940 19.1141 140.2184 0.0000 0.0000 0.0000
# 4 0.0000 0.0000 0.0000 27.0964 0.0000 0.0000
# 5 0.0000 0.0000 0.0000 0.0000 31.6459 0.0000
# 6 0.0000 0.0000 0.0000 0.0000 0.0000 29.4990
#
#
#
# Elastic Compliance Matrix: (Units=1/GPa)
#
#
# Indices 1 2 3 4 5 6 
#
# 1 0.013358 -0.015666 -0.005504 0.000000 0.000000 0.000000
# 2 -0.015666 0.157676 -0.012534 0.000000 0.000000 0.000000
# 3 -0.005504 -0.012534 0.011988 0.000000 0.000000 0.000000
# 4 0.000000 0.000000 0.000000 0.036905 0.000000 0.000000
# 5 0.000000 0.000000 0.000000 0.000000 0.031600 0.000000
# 6 0.000000 0.000000 0.000000 0.000000 0.000000 0.033900
#
#
# Mechanical properties :
#
#
# Convention : Reuss Voigt Hill
#
# Bulk Modulus (GPa) = 8.64954 57.54719 33.09837
# Shear Modulus (GPa) = 12.77557 28.44469 20.61013
#
# Velocity S-wave (km/s) = 2.63704 3.93484 3.34940
# Velocity P-wave (km/s) = 3.73899 7.20888 5.74230
#
# Compressibility (1/GPa) = 0.11561305
#
# Stress axis : x y z
#
# Youngs Moduli (GPa) = 74.86384 6.34213 83.41599
#
# Poissons Ratio (x) = 0.09936 0.45911
# Poissons Ratio (y) = 1.17285 1.04552
# Poissons Ratio (z) = 0.41204 0.07949
#
# Static dielectric constant tensor:
#      x y z
#    x 1.594730 0.000000 0.000000 
#    y 0.000000 1.635940 0.000000 
#    z 0.000000 0.000000 1.654590 
# 
# From -- ./inp_files/27759.got.cif
#   From: 2010.05.17/outbox.cif.g08.bks.cpg/sg62_14_cif.got.tgz:27759.got - 2010.06.03 15:25:27.
