data_PCOD9463380
_publ_section_title
;
Structure prediction by ZEFSAII (Michael W. Deem and Ramdas Pophale) SiO2 
 PCOD9463380
Probable space group: P N M A
;
_chemical_formula_sum "Si O2"
_cell_formula_units_Z 64
_cell_length_a 12.785726
_cell_length_b 8.887744
_cell_length_c 29.468061
_cell_angle_alpha 90.000000
_cell_angle_beta 90.000000
_cell_angle_gamma 90.000000
_cell_volume 3348.640228
_symmetry_space_group_name_H-M "P N M A"
_symmetry_group_IT_number 62
_symmetry_cell_setting 'orthorhombic'
loop_
_space_group_symop_operation_xyz
x,y,z
1/2-x,-y,1/2+z
1/2+x,1/2-y,1/2-z
-x,1/2+y,-z
-x,-y,-z
1/2+x,y,1/2-z
1/2-x,1/2+y,1/2+z
x,1/2-y,z
loop_
_atom_site_type_symbol
_atom_site_label
_atom_site_fract_x
_atom_site_fract_y
_atom_site_fract_z
Si Si1 0.040421 0.925012 0.425278
Si Si2 0.363036 0.426761 0.305898
Si Si3 0.349325 0.567105 0.562586
Si Si4 0.748816 0.567529 0.032789
Si Si5 0.575028 0.568057 0.595585
Si Si6 0.428323 0.927786 0.212046
Si Si7 0.345851 0.070116 0.119765
Si Si8 0.150129 0.577575 0.326696
O O1 0.014757 0.750000 0.434396
O O2 0.127784 0.980515 0.460851
O O3 0.103098 0.930152 0.377314
O O4 0.934909 0.015552 0.415686
O O5 0.377124 0.250000 0.298235
O O6 0.427196 0.470510 0.351060
O O7 0.392002 0.512868 0.260337
O O8 0.243721 0.464675 0.318503
O O9 0.351816 0.750000 0.562365
O O10 0.300607 0.520018 0.514585
O O11 0.467688 0.517175 0.571626
O O12 0.267439 0.521588 0.601446
O O13 0.748120 0.750000 0.035368
O O14 0.824306 0.504533 0.071880
O O15 0.583518 0.750000 0.592215
O O16 0.411039 0.750000 0.208090
O O17 0.552172 0.954436 0.205745
O O18 0.372280 0.005210 0.169178
O O19 0.349011 0.250000 0.121736
O O20 0.186572 0.750000 0.319560
#
# Coordination Sequence:
#
# PCOD9463380 Si02
#       8
#     8   8   8   8   8   8   8   8
#     4   9  18  33  55  81 110 144 186 234 278 325
#     4  11  22  34  55  85 112 143 183 232 286 340
#     4   9  20  37  56  81 117 154 185 228 284 340
#     4  10  19  35  59  83 110 150 193 230 279 337
#     4  10  21  37  55  81 116 147 186 237 284 331
#     4  10  22  39  58  81 110 145 188 233 283 339
#     4  10  20  36  57  81 112 151 190 231 287 343
#     4   9  18  35  55  76 106 144 182 228 277 326
#
# _framework density 19.112234999999998
#
# number of rings (size 3 to 8) (size 9 to 14) (size 15 to 20)
#    0.000    2.250    1.250    2.250    0.000    5.000 
#    0.000    3.750    0.000    0.000    0.000    0.000 
#    0.000    0.000    0.000    0.000    0.000    0.000 
#
# Total GULP energy -357172.426148 kJ/mol
# GULP energy per Si atom -5580.819159 kJ/mol
# Density = 1.906873 g / cm^3
# Si number density = 19.112235 Si / 1000 Ang^3
#
#
#
# Elastic Constant Matrix: (Units=GPa)
#
#
# Indices 1 2 3 4 5 6 
#
# 1 15.5283 2.6386 -10.4470 0.0000 0.0000 0.0000
# 2 2.6386 14.5872 5.2147 0.0000 0.0000 0.0000
# 3 -10.4470 5.2147 49.0508 0.0000 0.0000 0.0000
# 4 0.0000 0.0000 0.0000 18.6924 0.0000 0.0000
# 5 0.0000 0.0000 0.0000 0.0000 19.4518 0.0000
# 6 0.0000 0.0000 0.0000 0.0000 0.0000 20.8186
#
#
#
# Elastic Compliance Matrix: (Units=1/GPa)
#
#
# Indices 1 2 3 4 5 6 
#
# 1 0.081291 -0.021719 0.019623 0.000000 0.000000 0.000000
# 2 -0.021719 0.077064 -0.012819 0.000000 0.000000 0.000000
# 3 0.019623 -0.012819 0.025929 0.000000 0.000000 0.000000
# 4 0.000000 0.000000 0.000000 0.053498 0.000000 0.000000
# 5 0.000000 0.000000 0.000000 0.000000 0.051409 0.000000
# 6 0.000000 0.000000 0.000000 0.000000 0.000000 0.048034
#
#
# Mechanical properties :
#
#
# Convention : Reuss Voigt Hill
#
# Bulk Modulus (GPa) = 6.47439 8.21985 7.34712
# Shear Modulus (GPa) = 11.94632 17.24324 14.59478
#
# Velocity S-wave (km/s) = 2.50284 3.00694 2.76639
# Velocity P-wave (km/s) = 3.42741 4.04546 3.74919
#
# Compressibility (1/GPa) = 0.15445459
#
# Stress axis : x y z
#
# Youngs Moduli (GPa) = 12.30151 12.97623 38.56671
#
# Poissons Ratio (x) = 0.28183 -0.75678
# Poissons Ratio (y) = 0.26717 0.49437
# Poissons Ratio (z) = -0.24139 0.16634
#
# Static dielectric constant tensor:
#      x y z
#    x 1.658720 0.000000 0.000000 
#    y 0.000000 1.645360 0.000000 
#    z 0.000000 0.000000 1.672330 
# 
# From -- ./inp_files/32438.got.cif
#   From: 2010.05.17/outbox.cif.g08.bks.cpg/sg62_17_cif.got.tgz:32438.got - 2010.06.03 15:25:27.
