data_PCOD9463627
_publ_section_title
;
Structure prediction by ZEFSAII (Michael W. Deem and Ramdas Pophale) SiO2 
 PCOD9463627
Probable space group: P N M A
;
_chemical_formula_sum "Si O2"
_cell_formula_units_Z 56
_cell_length_a 9.408461
_cell_length_b 23.930208
_cell_length_c 11.874028
_cell_angle_alpha 90.000000
_cell_angle_beta 90.000000
_cell_angle_gamma 90.000000
_cell_volume 2673.394998
_symmetry_space_group_name_H-M "P N M A"
_symmetry_group_IT_number 62
_symmetry_cell_setting 'orthorhombic'
loop_
_space_group_symop_operation_xyz
x,y,z
1/2-x,-y,1/2+z
1/2+x,1/2-y,1/2-z
-x,1/2+y,-z
-x,-y,-z
1/2+x,y,1/2-z
1/2-x,1/2+y,1/2+z
x,1/2-y,z
loop_
_atom_site_type_symbol
_atom_site_label
_atom_site_fract_x
_atom_site_fract_y
_atom_site_fract_z
Si Si1 0.330433 0.750000 0.324010
Si Si2 0.987381 0.457890 0.365082
Si Si3 0.054014 0.570463 0.237540
Si Si4 0.882044 0.866316 0.056412
Si Si5 0.789494 0.018501 0.940723
Si Si6 0.447796 0.368430 0.965528
Si Si7 0.962701 0.071401 0.119017
Si Si8 0.497257 0.250000 0.900239
O O1 0.387660 0.693737 0.383945
O O2 0.159311 0.750000 0.340102
O O3 0.383210 0.750000 0.195829
O O4 0.856403 0.487532 0.427619
O O5 0.032591 0.411629 0.456095
O O6 0.945728 0.423958 0.251760
O O7 0.059098 0.512630 0.308694
O O8 0.189375 0.566176 0.154455
O O9 0.046524 0.616431 0.333378
O O10 0.928141 0.585939 0.148341
O O11 0.721460 0.872778 0.011327
O O12 0.989490 0.875066 0.952422
O O13 0.825546 0.043740 0.061484
O O14 0.911484 0.973147 0.909848
O O15 0.501652 0.305652 0.974635
#
# Coordination Sequence:
#
# PCOD9463627 Si02
#       8
#     4   8   8   8   8   8   8   4
#     4  10  20  38  67  86 110 152 199 259 292 347
#     4  11  21  32  54  82 119 152 184 234 287 356
#     4  10  20  32  54  83 114 146 185 235 289 345
#     4  10  19  37  60  80 111 151 196 238 291 347
#     4   9  18  32  53  73 111 147 185 225 277 339
#     4  11  21  36  56  83 114 149 190 239 289 354
#     4   9  19  35  50  76 108 151 187 226 275 346
#     4  10  22  40  63  86 116 150 201 247 302 343
#
# _framework density 20.947147999999999
#
# number of rings (size 3 to 8) (size 9 to 14) (size 15 to 20)
#    0.000    2.000    2.857    2.143    2.000    0.000 
#    0.000    0.714    0.000    0.000    0.000    0.000 
#    0.000    0.000    0.000    0.000    0.000    0.000 
#
# Total GULP energy -312303.081974 kJ/mol
# GULP energy per Si atom -5576.840750 kJ/mol
# Density = 2.089947 g / cm^3
# Si number density = 20.947148 Si / 1000 Ang^3
#
#
#
# Elastic Constant Matrix: (Units=GPa)
#
#
# Indices 1 2 3 4 5 6 
#
# 1 38.0731 14.6435 -0.8754 0.0000 0.0000 0.0000
# 2 14.6435 100.5479 32.8624 0.0000 0.0000 0.0000
# 3 -0.8754 32.8624 85.7041 0.0000 0.0000 0.0000
# 4 0.0000 0.0000 0.0000 24.0477 0.0000 0.0000
# 5 0.0000 0.0000 0.0000 0.0000 17.0168 0.0000
# 6 0.0000 0.0000 0.0000 0.0000 0.0000 20.2631
#
#
#
# Elastic Compliance Matrix: (Units=1/GPa)
#
#
# Indices 1 2 3 4 5 6 
#
# 1 0.028159 -0.004796 0.002127 0.000000 0.000000 0.000000
# 2 -0.004796 0.012187 -0.004722 0.000000 0.000000 0.000000
# 3 0.002127 -0.004722 0.013500 0.000000 0.000000 0.000000
# 4 0.000000 0.000000 0.000000 0.041584 0.000000 0.000000
# 5 0.000000 0.000000 0.000000 0.000000 0.058765 0.000000
# 6 0.000000 0.000000 0.000000 0.000000 0.000000 0.049351
#
#
# Mechanical properties :
#
#
# Convention : Reuss Voigt Hill
#
# Bulk Modulus (GPa) = 25.59933 35.28735 30.44334
# Shear Modulus (GPa) = 21.61219 24.11184 22.86202
#
# Velocity S-wave (km/s) = 3.21557 3.39644 3.30724
# Velocity P-wave (km/s) = 5.10235 5.68010 5.39896
#
# Compressibility (1/GPa) = 0.03906352
#
# Stress axis : x y z
#
# Youngs Moduli (GPa) = 35.51289 82.05244 74.07177
#
# Poissons Ratio (x) = 0.39352 -0.15752
# Poissons Ratio (y) = 0.17032 0.34977
# Poissons Ratio (z) = -0.07552 0.38746
#
# Static dielectric constant tensor:
#      x y z
#    x 1.842570 0.000000 0.000000 
#    y 0.000000 1.782060 0.000000 
#    z 0.000000 0.000000 1.791150 
# 
# From -- ./inp_files/12442.got.cif
#   From: 2010.05.17/outbox.cif.g08.bks.cpg/sg62_7_cif.got.tgz:12442.got - 2010.06.03 15:25:27.
