data_PCOD9463114
_publ_section_title
;
Structure prediction by ZEFSAII (Michael W. Deem and Ramdas Pophale) SiO2 
 PCOD9463114
Probable space group: P N M A
;
_chemical_formula_sum "Si O2"
_cell_formula_units_Z 48
_cell_length_a 15.459125
_cell_length_b 19.755972
_cell_length_c 7.129519
_cell_angle_alpha 90.000000
_cell_angle_beta 90.000000
_cell_angle_gamma 90.000000
_cell_volume 2177.426688
_symmetry_space_group_name_H-M "P N M A"
_symmetry_group_IT_number 62
_symmetry_cell_setting 'orthorhombic'
loop_
_space_group_symop_operation_xyz
x,y,z
1/2-x,-y,1/2+z
1/2+x,1/2-y,1/2-z
-x,1/2+y,-z
-x,-y,-z
1/2+x,y,1/2-z
1/2-x,1/2+y,1/2+z
x,1/2-y,z
loop_
_atom_site_type_symbol
_atom_site_label
_atom_site_fract_x
_atom_site_fract_y
_atom_site_fract_z
Si Si1 0.510545 0.530418 0.208072
Si Si2 0.420596 0.672504 0.182724
Si Si3 0.309840 0.049078 0.892584
Si Si4 0.851584 0.452409 0.168217
Si Si5 0.254621 0.829095 0.915013
Si Si6 0.281896 0.675333 0.476168
O O1 0.485501 0.609649 0.186586
O O2 0.613298 0.525331 0.242354
O O3 0.444320 0.489471 0.341017
O O4 0.500000 0.500000 0.000000
O O5 0.450855 0.750000 0.141694
O O6 0.376587 0.673013 0.387405
O O7 0.340329 0.656935 0.039980
O O8 0.275468 0.123873 0.857986
O O9 0.227349 0.000996 0.887752
O O10 0.341775 0.054087 0.106288
O O11 0.826502 0.380730 0.073763
O O12 0.231826 0.750000 0.946138
O O13 0.283548 0.837642 0.697265
O O14 0.245967 0.750000 0.447876
#
# Coordination Sequence:
#
# PCOD9463114 Si02
#       6
#     8   8   8   8   8   8
#     4  10  20  34  55  84 112 146 191 232 283 343
#     4  10  19  35  60  82 112 151 186 230 283 330
#     4  10  20  34  57  78 110 151 184 234 286 334
#     4  10  19  34  55  78 112 144 183 236 283 331
#     4   9  18  32  55  82 106 147 192 226 278 337
#     4   9  18  33  55  82 108 143 188 228 276 335
#
# _framework density 22.044371000000002
#
# number of rings (size 3 to 8) (size 9 to 14) (size 15 to 20)
#    0.000    2.333    1.667    2.000    0.000    0.667 
#    0.000    3.333    7.333    1.000    0.000    9.333 
#    0.000    0.000    0.000    0.000    0.000    0.000 
#
# Total GULP energy -267674.461713 kJ/mol
# GULP energy per Si atom -5576.551286 kJ/mol
# Density = 2.199420 g / cm^3
# Si number density = 22.044371 Si / 1000 Ang^3
#
#
#
# Elastic Constant Matrix: (Units=GPa)
#
#
# Indices 1 2 3 4 5 6 
#
# 1 98.4354 41.4694 15.3352 0.0000 0.0000 0.0000
# 2 41.4694 88.9576 14.4157 0.0000 0.0000 0.0000
# 3 15.3352 14.4157 59.0440 0.0000 0.0000 0.0000
# 4 0.0000 0.0000 0.0000 56.3904 0.0000 0.0000
# 5 0.0000 0.0000 0.0000 0.0000 37.1337 0.0000
# 6 0.0000 0.0000 0.0000 0.0000 0.0000 20.7331
#
#
#
# Elastic Compliance Matrix: (Units=1/GPa)
#
#
# Indices 1 2 3 4 5 6 
#
# 1 0.012854 -0.005676 -0.001953 0.000000 0.000000 0.000000
# 2 -0.005676 0.014211 -0.001995 0.000000 0.000000 0.000000
# 3 -0.001953 -0.001995 0.017931 0.000000 0.000000 0.000000
# 4 0.000000 0.000000 0.000000 0.017734 0.000000 0.000000
# 5 0.000000 0.000000 0.000000 0.000000 0.026930 0.000000
# 6 0.000000 0.000000 0.000000 0.000000 0.000000 0.048232
#
#
# Mechanical properties :
#
#
# Convention : Reuss Voigt Hill
#
# Bulk Modulus (GPa) = 38.83840 43.20861 41.02350
# Shear Modulus (GPa) = 30.17105 34.53256 32.35180
#
# Velocity S-wave (km/s) = 3.70354 3.96220 3.83505
# Velocity P-wave (km/s) = 5.99540 6.36988 6.18547
#
# Compressibility (1/GPa) = 0.02574771
#
# Stress axis : x y z
#
# Youngs Moduli (GPa) = 77.79477 70.37010 55.76962
#
# Poissons Ratio (x) = 0.39941 0.10891
# Poissons Ratio (y) = 0.44155 0.11128
# Poissons Ratio (z) = 0.15192 0.14041
#
# Static dielectric constant tensor:
#      x y z
#    x 1.831930 0.000000 0.000000 
#    y 0.000000 1.884680 0.000000 
#    z 0.000000 0.000000 1.946360 
# 
# From -- ./inp_files/6604.got.cif
#   From: 2010.05.17/outbox.cif.g08.bks.cpg/sg62_4_cif.got.tgz:6604.got - 2010.06.03 15:25:27.
