data_PCOD9463205
_publ_section_title
;
Structure prediction by ZEFSAII (Michael W. Deem and Ramdas Pophale) SiO2 
 PCOD9463205
Probable space group: P N M A
;
_chemical_formula_sum "Si O2"
_cell_formula_units_Z 64
_cell_length_a 15.297781
_cell_length_b 10.563027
_cell_length_c 18.964687
_cell_angle_alpha 90.000000
_cell_angle_beta 90.000000
_cell_angle_gamma 90.000000
_cell_volume 3064.520343
_symmetry_space_group_name_H-M "P N M A"
_symmetry_group_IT_number 62
_symmetry_cell_setting 'orthorhombic'
loop_
_space_group_symop_operation_xyz
x,y,z
1/2-x,-y,1/2+z
1/2+x,1/2-y,1/2-z
-x,1/2+y,-z
-x,-y,-z
1/2+x,y,1/2-z
1/2-x,1/2+y,1/2+z
x,1/2-y,z
loop_
_atom_site_type_symbol
_atom_site_label
_atom_site_fract_x
_atom_site_fract_y
_atom_site_fract_z
Si Si1 0.384515 0.886672 0.235256
Si Si2 0.267294 0.477884 0.022787
Si Si3 0.648074 0.610302 0.580202
Si Si4 0.870833 0.393847 0.604079
Si Si5 0.942818 0.605825 0.423428
Si Si6 0.491522 0.598834 0.376338
Si Si7 0.730537 0.053702 0.214496
Si Si8 0.639564 0.111075 0.359064
O O1 0.340511 0.750000 0.243951
O O2 0.430037 0.891546 0.160709
O O3 0.454494 0.898545 0.296916
O O4 0.308261 0.985775 0.243783
O O5 0.357683 0.535008 0.050070
O O6 0.217967 0.405817 0.084834
O O7 0.205770 0.585799 0.989226
O O8 0.294813 0.396745 0.954413
O O9 0.606430 0.750000 0.577171
O O10 0.581226 0.490655 0.584665
O O11 0.713696 0.612100 0.648448
O O12 0.890856 0.250000 0.622999
O O13 0.837273 0.466587 0.672029
O O14 0.959591 0.449323 0.569775
O O15 0.942062 0.750000 0.451890
O O16 0.499266 0.750000 0.398192
O O17 0.577558 0.510577 0.373288
O O18 0.675450 0.113281 0.278576
O O19 0.597857 0.250000 0.371490
#
# Coordination Sequence:
#
# PCOD9463205 Si02
#       8
#     8   8   8   8   8   8   8   8
#     4   9  17  33  59  91 124 157 201 256 309 365
#     4  11  23  39  60  87 126 167 212 257 314 376
#     4  10  22  42  66  91 125 168 213 258 314 376
#     4  10  21  37  60  88 123 167 213 260 310 370
#     4  10  19  34  57  87 123 161 206 259 311 367
#     4  10  23  41  65  94 124 164 212 261 316 376
#     4  10  20  37  62  91 126 164 208 252 309 374
#     4  12  25  41  63  93 130 165 206 261 319 375
#
# _framework density 20.884183
#
# number of rings (size 3 to 8) (size 9 to 14) (size 15 to 20)
#    0.000    1.750    1.250    3.000    0.000    7.000 
#    0.000    0.000    0.000    3.000    0.000    0.000 
#    0.000    0.000    0.000    0.000    0.000    0.000 
#
# Total GULP energy -356455.026583 kJ/mol
# GULP energy per Si atom -5569.609790 kJ/mol
# Density = 2.083665 g / cm^3
# Si number density = 20.884183 Si / 1000 Ang^3
#
#
#
# Elastic Constant Matrix: (Units=GPa)
#
#
# Indices 1 2 3 4 5 6 
#
# 1 98.7013 52.8515 24.8570 0.0000 0.0000 0.0000
# 2 52.8515 123.2390 22.6132 0.0000 0.0000 0.0000
# 3 24.8570 22.6132 77.6768 0.0000 0.0000 0.0000
# 4 0.0000 0.0000 0.0000 -2.6836 0.0000 0.0000
# 5 0.0000 0.0000 0.0000 0.0000 23.6416 0.0000
# 6 0.0000 0.0000 0.0000 0.0000 0.0000 33.4720
#
#
#
# Elastic Compliance Matrix: (Units=1/GPa)
#
#
# Indices 1 2 3 4 5 6 
#
# 1 0.013715 -0.005363 -0.002828 0.000000 0.000000 0.000000
# 2 -0.005363 0.010669 -0.001390 0.000000 0.000000 0.000000
# 3 -0.002828 -0.001390 0.014183 0.000000 0.000000 0.000000
# 4 0.000000 0.000000 0.000000 -0.372629 0.000000 0.000000
# 5 0.000000 0.000000 0.000000 0.000000 0.042298 0.000000
# 6 0.000000 0.000000 0.000000 0.000000 0.000000 0.029876
#
#
# Mechanical properties :
#
#
# Convention : Reuss Voigt Hill
#
# Bulk Modulus (GPa) = 51.52812 55.58449 53.55630
# Shear Modulus (GPa) = -21.16344 24.17234 1.50445
#
# Velocity S-wave (km/s) = -3.18680 3.40582 0.84967
# Velocity P-wave (km/s) = 3.34453 6.49149 5.16359
#
# Compressibility (1/GPa) = 0.01940688
#
# Stress axis : x y z
#
# Youngs Moduli (GPa) = 72.91027 93.72678 70.50520
#
# Poissons Ratio (x) = 0.50266 0.19937
# Poissons Ratio (y) = 0.39102 0.09799
# Poissons Ratio (z) = 0.20617 0.13026
#
# Static dielectric constant tensor:
#      x y z
#    x 1.750840 0.000000 0.000000 
#    y 0.000000 1.811320 0.000000 
#    z 0.000000 0.000000 1.744920 
# 
# From -- ./inp_files/24009.got.cif
#   From: 2010.05.17/outbox.cif.g08.bks.cpg/sg62_13_cif.got.tgz:24009.got - 2010.06.03 15:25:27.
