data_PCOD9463123
_publ_section_title
;
Structure prediction by ZEFSAII (Michael W. Deem and Ramdas Pophale) SiO2 
 PCOD9463123
Probable space group: P N M A
;
_chemical_formula_sum "Si O2"
_cell_formula_units_Z 64
_cell_length_a 25.503520
_cell_length_b 7.681450
_cell_length_c 14.907271
_cell_angle_alpha 90.000000
_cell_angle_beta 90.000000
_cell_angle_gamma 90.000000
_cell_volume 2920.394222
_symmetry_space_group_name_H-M "P N M A"
_symmetry_group_IT_number 62
_symmetry_cell_setting 'orthorhombic'
loop_
_space_group_symop_operation_xyz
x,y,z
1/2-x,-y,1/2+z
1/2+x,1/2-y,1/2-z
-x,1/2+y,-z
-x,-y,-z
1/2+x,y,1/2-z
1/2-x,1/2+y,1/2+z
x,1/2-y,z
loop_
_atom_site_type_symbol
_atom_site_label
_atom_site_fract_x
_atom_site_fract_y
_atom_site_fract_z
Si Si1 0.621807 0.463916 0.371791
Si Si2 0.547909 0.036441 0.216925
Si Si3 0.838510 0.547212 0.053505
Si Si4 0.341301 0.956250 0.243115
Si Si5 0.776805 0.959112 0.554980
Si Si6 0.389805 0.952346 0.955277
Si Si7 0.441318 0.449934 0.131733
Si Si8 0.225211 0.458445 0.233695
O O1 0.622329 0.250000 0.373186
O O2 0.572669 0.518530 0.311288
O O3 0.625625 0.525759 0.474251
O O4 0.675087 0.521030 0.321312
O O5 0.548155 0.250000 0.217996
O O6 0.489545 0.979742 0.190303
O O7 0.585625 0.975732 0.135850
O O8 0.851659 0.750000 0.063040
O O9 0.841284 0.473338 0.154158
O O10 0.777891 0.536047 0.021786
O O11 0.351213 0.750000 0.243329
O O12 0.387732 0.039378 0.187202
O O13 0.282816 0.981001 0.204623
O O14 0.771517 0.750000 0.544504
O O15 0.832552 0.022276 0.516931
O O16 0.780305 0.003564 0.661096
O O17 0.379583 0.750000 0.935105
O O18 0.430288 0.962748 0.036469
O O19 0.453671 0.250000 0.110779
O O20 0.224944 0.250000 0.228783
#
# Coordination Sequence:
#
# PCOD9463123 Si02
#       8
#     8   8   8   8   8   8   8   8
#     4   9  16  31  56  82 105 134 175 220 266 315
#     4   9  18  35  57  80 107 138 180 224 267 321
#     4   9  19  33  53  79 108 141 175 217 265 314
#     4  10  21  37  52  73 110 146 177 219 271 319
#     4   9  17  30  50  77 109 141 169 204 257 319
#     4  10  19  34  55  80 110 143 173 212 271 328
#     4  11  23  36  54  78 103 141 189 230 263 310
#     4   9  16  30  54  80 105 136 172 212 259 318
#
# _framework density 21.914850000000001
#
# number of rings (size 3 to 8) (size 9 to 14) (size 15 to 20)
#    0.000    2.500    1.250    1.125    1.750    1.000 
#    0.000    1.250    0.000    3.750    0.000    0.000 
#    0.000    0.000    0.000    0.000    0.000    0.000 
#
# Total GULP energy -357226.206952 kJ/mol
# GULP energy per Si atom -5581.659484 kJ/mol
# Density = 2.186497 g / cm^3
# Si number density = 21.914850 Si / 1000 Ang^3
#
#
#
# Elastic Constant Matrix: (Units=GPa)
#
#
# Indices 1 2 3 4 5 6 
#
# 1 52.1243 -5.4800 -4.0595 0.0000 0.0000 0.0000
# 2 -5.4800 29.2939 -2.9148 0.0000 0.0000 0.0000
# 3 -4.0595 -2.9148 26.9780 0.0000 0.0000 0.0000
# 4 0.0000 0.0000 0.0000 10.3627 0.0000 0.0000
# 5 0.0000 0.0000 0.0000 0.0000 28.4843 0.0000
# 6 0.0000 0.0000 0.0000 0.0000 0.0000 11.3067
#
#
#
# Elastic Compliance Matrix: (Units=1/GPa)
#
#
# Indices 1 2 3 4 5 6 
#
# 1 0.019879 0.004060 0.003430 0.000000 0.000000 0.000000
# 2 0.004060 0.035337 0.004429 0.000000 0.000000 0.000000
# 3 0.003430 0.004429 0.038062 0.000000 0.000000 0.000000
# 4 0.000000 0.000000 0.000000 0.096500 0.000000 0.000000
# 5 0.000000 0.000000 0.000000 0.000000 0.035107 0.000000
# 6 0.000000 0.000000 0.000000 0.000000 0.000000 0.088443
#
#
# Mechanical properties :
#
#
# Convention : Reuss Voigt Hill
#
# Bulk Modulus (GPa) = 8.53859 9.27640 8.90749
# Shear Modulus (GPa) = 15.21935 18.08743 16.65339
#
# Velocity S-wave (km/s) = 2.63815 2.87601 2.75964
# Velocity P-wave (km/s) = 3.63105 3.90777 3.77195
#
# Compressibility (1/GPa) = 0.11711540
#
# Stress axis : x y z
#
# Youngs Moduli (GPa) = 50.30468 28.29897 26.27300
#
# Poissons Ratio (x) = -0.11489 -0.09011
# Poissons Ratio (y) = -0.20424 -0.11636
# Poissons Ratio (z) = -0.17254 -0.12533
#
# Static dielectric constant tensor:
#      x y z
#    x 1.808190 0.000000 0.000000 
#    y 0.000000 1.857330 0.000000 
#    z 0.000000 0.000000 1.814270 
# 
# From -- ./inp_files/20874.got.cif
#   From: 2010.05.17/outbox.cif.g08.bks.cpg/sg62_11_cif.got.tgz:20874.got - 2010.06.03 15:25:27.
