data_PCOD9463125
_publ_section_title
;
Structure prediction by ZEFSAII (Michael W. Deem and Ramdas Pophale) SiO2 
 PCOD9463125
Probable space group: P N M A
;
_chemical_formula_sum "Si O2"
_cell_formula_units_Z 64
_cell_length_a 5.526193
_cell_length_b 22.637838
_cell_length_c 25.821789
_cell_angle_alpha 90.000000
_cell_angle_beta 90.000000
_cell_angle_gamma 90.000000
_cell_volume 3230.333224
_symmetry_space_group_name_H-M "P N M A"
_symmetry_group_IT_number 62
_symmetry_cell_setting 'orthorhombic'
loop_
_space_group_symop_operation_xyz
x,y,z
1/2-x,-y,1/2+z
1/2+x,1/2-y,1/2-z
-x,1/2+y,-z
-x,-y,-z
1/2+x,y,1/2-z
1/2-x,1/2+y,1/2+z
x,1/2-y,z
loop_
_atom_site_type_symbol
_atom_site_label
_atom_site_fract_x
_atom_site_fract_y
_atom_site_fract_z
Si Si1 0.410693 0.317640 0.063098
Si Si2 0.905591 0.536252 0.431064
Si Si3 0.230236 0.084558 0.767233
Si Si4 0.675854 0.426405 0.392533
Si Si5 0.399339 0.683090 0.464658
Si Si6 0.400406 0.910468 0.387146
Si Si7 0.701765 0.050321 0.272372
Si Si8 0.216800 0.593090 0.968354
O O1 0.430031 0.250000 0.079662
O O2 0.224089 0.357414 0.095828
O O3 0.645628 0.357766 0.065090
O O4 0.335862 0.317326 0.002039
O O5 0.889421 0.467954 0.414180
O O6 0.670682 0.564898 0.400540
O O7 0.855878 0.552181 0.490794
O O8 0.168844 0.560421 0.416008
O O9 0.497058 0.112588 0.761124
O O10 0.155168 0.081101 0.826956
O O11 0.270906 0.018903 0.742938
O O12 0.645771 0.440466 0.332650
O O13 0.453790 0.442765 0.429810
O O14 0.493898 0.750000 0.466035
O O15 0.380184 0.657218 0.407276
O O16 0.560437 0.634715 0.493505
O O17 0.468799 0.074907 0.241396
#
# Coordination Sequence:
#
# PCOD9463125 Si02
#       8
#     8   8   8   8   8   8   8   8
#     4  10  21  39  60  84 117 160 205 241 289 358
#     4  11  22  36  57  91 130 157 191 238 312 370
#     4  10  19  34  55  80 114 153 196 245 297 354
#     4  11  24  36  60  87 121 158 199 251 304 368
#     4   9  19  37  58  86 120 162 209 241 281 352
#     4  11  21  37  60  90 123 162 198 249 304 360
#     4  10  21  37  57  84 113 150 196 247 299 359
#     4  10  21  36  56  90 125 165 192 247 298 366
#
# _framework density 19.812197000000001
#
# number of rings (size 3 to 8) (size 9 to 14) (size 15 to 20)
#    0.000    1.750    1.250    4.500    3.500    1.000 
#    0.000    0.000    0.000    1.500    0.000    0.000 
#    0.000    0.000    0.000    0.000    0.000    0.000 
#
# Total GULP energy -356679.584905 kJ/mol
# GULP energy per Si atom -5573.118514 kJ/mol
# Density = 1.976710 g / cm^3
# Si number density = 19.812197 Si / 1000 Ang^3
#
#
#
# Elastic Constant Matrix: (Units=GPa)
#
#
# Indices 1 2 3 4 5 6 
#
# 1 95.7963 -2.1061 5.8771 0.0000 0.0000 0.0000
# 2 -2.1061 65.6282 12.3436 0.0000 0.0000 0.0000
# 3 5.8771 12.3436 120.7260 0.0000 0.0000 0.0000
# 4 0.0000 0.0000 0.0000 16.0155 0.0000 0.0000
# 5 0.0000 0.0000 0.0000 0.0000 29.6584 0.0000
# 6 0.0000 0.0000 0.0000 0.0000 0.0000 12.8638
#
#
#
# Elastic Compliance Matrix: (Units=1/GPa)
#
#
# Indices 1 2 3 4 5 6 
#
# 1 0.010483 0.000441 -0.000555 0.000000 0.000000 0.000000
# 2 0.000441 0.015555 -0.001612 0.000000 0.000000 0.000000
# 3 -0.000555 -0.001612 0.008475 0.000000 0.000000 0.000000
# 4 0.000000 0.000000 0.000000 0.062440 0.000000 0.000000
# 5 0.000000 0.000000 0.000000 0.000000 0.033717 0.000000
# 6 0.000000 0.000000 0.000000 0.000000 0.000000 0.077738
#
#
# Mechanical properties :
#
#
# Convention : Reuss Voigt Hill
#
# Bulk Modulus (GPa) = 32.19619 34.93107 33.56363
# Shear Modulus (GPa) = 22.50095 29.44325 25.97210
#
# Velocity S-wave (km/s) = 3.37369 3.85920 3.62458
# Velocity P-wave (km/s) = 5.60907 6.12595 5.87320
#
# Compressibility (1/GPa) = 0.03105958
#
# Stress axis : x y z
#
# Youngs Moduli (GPa) = 95.39636 64.28937 117.99323
#
# Poissons Ratio (x) = -0.02834 0.06553
# Poissons Ratio (y) = -0.04206 0.19019
# Poissons Ratio (z) = 0.05298 0.10362
#
# Static dielectric constant tensor:
#      x y z
#    x 1.838240 0.000000 0.000000 
#    y 0.000000 1.713190 0.000000 
#    z 0.000000 0.000000 1.702190 
# 
# From -- ./inp_files/28452.got.cif
#   From: 2010.05.17/outbox.cif.g08.bks.cpg/sg62_15_cif.got.tgz:28452.got - 2010.06.03 15:25:27.
