data_PCOD9463776
_publ_section_title
;
Structure prediction by ZEFSAII (Michael W. Deem and Ramdas Pophale) SiO2 
 PCOD9463776
Probable space group: P N M A
;
_chemical_formula_sum "Si O2"
_cell_formula_units_Z 40
_cell_length_a 14.636011
_cell_length_b 13.499147
_cell_length_c 9.276327
_cell_angle_alpha 90.000000
_cell_angle_beta 90.000000
_cell_angle_gamma 90.000000
_cell_volume 1832.757914
_symmetry_space_group_name_H-M "P N M A"
_symmetry_group_IT_number 62
_symmetry_cell_setting 'orthorhombic'
loop_
_space_group_symop_operation_xyz
x,y,z
1/2-x,-y,1/2+z
1/2+x,1/2-y,1/2-z
-x,1/2+y,-z
-x,-y,-z
1/2+x,y,1/2-z
1/2-x,1/2+y,1/2+z
x,1/2-y,z
loop_
_atom_site_type_symbol
_atom_site_label
_atom_site_fract_x
_atom_site_fract_y
_atom_site_fract_z
Si Si1 0.698375 0.465327 0.883622
Si Si2 0.984009 0.916988 0.242910
Si Si3 0.852383 0.945032 0.710983
Si Si4 0.211640 0.750000 0.185410
Si Si5 0.573940 0.750000 0.068862
Si Si6 0.970134 0.750000 0.706563
Si Si7 0.012831 0.750000 0.036464
O O1 0.603436 0.474078 0.798603
O O2 0.768072 0.544925 0.818899
O O3 0.735151 0.352266 0.850594
O O4 0.681288 0.479773 0.053102
O O5 0.018136 0.843628 0.369216
O O6 0.069957 0.986300 0.219055
O O7 0.966567 0.846776 0.106733
O O8 0.903282 0.842618 0.684773
O O9 0.171874 0.750000 0.350310
O O10 0.117434 0.750000 0.093073
O O11 0.556709 0.750000 0.900156
O O12 0.005818 0.750000 0.868113
#
# Coordination Sequence:
#
# PCOD9463776 Si02
#       7
#     8   8   8   4   4   4   4
#     4  12  24  44  74 102 144 184 232 295 343 422
#     4  10  22  47  75  95 140 197 228 271 373 420
#     4  12  27  46  69 109 139 184 242 285 351 425
#     4  10  21  46  71 103 141 183 241 272 366 416
#     4  10  19  45  74 100 134 187 231 284 342 437
#     4  12  27  43  70 108 148 174 242 299 346 397
#     4  10  23  44  75 103 139 186 230 297 336 424
#
# _framework density 21.825030999999999
#
# number of rings (size 3 to 8) (size 9 to 14) (size 15 to 20)
#    0.000    1.200    6.000    2.400    2.800    2.400 
#    0.000    3.000    0.000    0.000    0.000    0.000 
#    0.000    0.000    0.000    0.000    0.000    0.000 
#
# Total GULP energy -223639.663232 kJ/mol
# GULP energy per Si atom -5590.991581 kJ/mol
# Density = 2.177536 g / cm^3
# Si number density = 21.825031 Si / 1000 Ang^3
#
#
#
# Elastic Constant Matrix: (Units=GPa)
#
#
# Indices 1 2 3 4 5 6 
#
# 1 66.9910 -4.4599 10.1138 0.0000 0.0000 0.0000
# 2 -4.4599 27.7907 -15.7678 0.0000 0.0000 0.0000
# 3 10.1138 -15.7678 124.5325 0.0000 0.0000 0.0000
# 4 0.0000 0.0000 0.0000 7.0243 0.0000 0.0000
# 5 0.0000 0.0000 0.0000 0.0000 19.6346 0.0000
# 6 0.0000 0.0000 0.0000 0.0000 0.0000 13.6237
#
#
#
# Elastic Compliance Matrix: (Units=1/GPa)
#
#
# Indices 1 2 3 4 5 6 
#
# 1 0.015203 0.001874 -0.000997 0.000000 0.000000 0.000000
# 2 0.001874 0.038999 0.004786 0.000000 0.000000 0.000000
# 3 -0.000997 0.004786 0.008717 0.000000 0.000000 0.000000
# 4 0.000000 0.000000 0.000000 0.142364 0.000000 0.000000
# 5 0.000000 0.000000 0.000000 0.000000 0.050931 0.000000
# 6 0.000000 0.000000 0.000000 0.000000 0.000000 0.073401
#
#
# Mechanical properties :
#
#
# Convention : Reuss Voigt Hill
#
# Bulk Modulus (GPa) = 13.46924 22.12073 17.79498
# Shear Modulus (GPa) = 14.57565 23.35172 18.96369
#
# Velocity S-wave (km/s) = 2.58707 3.27456 2.95090
# Velocity P-wave (km/s) = 3.88700 4.94515 4.44765
#
# Compressibility (1/GPa) = 0.07424326
#
# Stress axis : x y z
#
# Youngs Moduli (GPa) = 65.77778 25.64153 114.71852
#
# Poissons Ratio (x) = -0.04805 0.11442
# Poissons Ratio (y) = -0.12326 -0.54901
# Poissons Ratio (z) = 0.06561 -0.12271
#
# Static dielectric constant tensor:
#      x y z
#    x 1.764500 0.000000 0.000000 
#    y 0.000000 1.901180 0.000000 
#    z 0.000000 0.000000 1.772570 
# 
# From -- ./inp_files/6159.got.cif
#   From: 2010.05.17/outbox.cif.g08.bks.cpg/sg62_4_cif.got.tgz:6159.got - 2010.06.03 15:25:27.
