data_PCOD9463550
_publ_section_title
;
Structure prediction by ZEFSAII (Michael W. Deem and Ramdas Pophale) SiO2 
 PCOD9463550
Probable space group: P N M A
;
_chemical_formula_sum "Si O2"
_cell_formula_units_Z 64
_cell_length_a 25.327008
_cell_length_b 9.093445
_cell_length_c 14.284126
_cell_angle_alpha 90.000000
_cell_angle_beta 90.000000
_cell_angle_gamma 90.000000
_cell_volume 3289.773549
_symmetry_space_group_name_H-M "P N M A"
_symmetry_group_IT_number 62
_symmetry_cell_setting 'orthorhombic'
loop_
_space_group_symop_operation_xyz
x,y,z
1/2-x,-y,1/2+z
1/2+x,1/2-y,1/2-z
-x,1/2+y,-z
-x,-y,-z
1/2+x,y,1/2-z
1/2-x,1/2+y,1/2+z
x,1/2-y,z
loop_
_atom_site_type_symbol
_atom_site_label
_atom_site_fract_x
_atom_site_fract_y
_atom_site_fract_z
Si Si1 0.626043 0.924736 0.367802
Si Si2 0.550612 0.074644 0.228493
Si Si3 0.826670 0.579269 0.032737
Si Si4 0.333907 0.922460 0.243093
Si Si5 0.780641 0.919990 0.542287
Si Si6 0.401081 0.926231 0.972927
Si Si7 0.435133 0.425227 0.153170
Si Si8 0.225103 0.421138 0.231364
O O1 0.627778 0.750000 0.364619
O O2 0.575124 0.986632 0.314320
O O3 0.632563 0.983805 0.473083
O O4 0.676383 0.994099 0.314073
O O5 0.556958 0.250000 0.244531
O O6 0.489610 0.043067 0.206688
O O7 0.582548 0.038492 0.133169
O O8 0.831726 0.750000 0.007868
O O9 0.834448 0.564345 0.143974
O O10 0.767590 0.521194 0.010905
O O11 0.332755 0.750000 0.218466
O O12 0.385575 0.998588 0.202483
O O13 0.280529 0.001209 0.209037
O O14 0.770414 0.750000 0.515002
O O15 0.839340 0.962290 0.510519
O O16 0.781394 0.925018 0.655757
O O17 0.407145 0.750000 0.984181
O O18 0.435890 0.011010 0.048255
O O19 0.428411 0.250000 0.150237
O O20 0.225162 0.250000 0.203595
#
# Coordination Sequence:
#
# PCOD9463550 Si02
#       8
#     8   8   8   8   8   8   8   8
#     4  12  24  37  60  91 121 155 198 247 301 358
#     4  10  22  43  63  85 120 160 204 248 296 352
#     4  10  22  39  60  85 119 159 197 245 298 355
#     4  10  22  41  62  87 120 156 201 251 299 352
#     4   9  18  34  57  85 118 156 192 236 291 346
#     4  10  20  37  60  86 121 160 197 244 296 349
#     4  11  24  39  61  89 119 159 203 248 299 357
#     4  10  19  36  60  85 119 157 194 239 295 354
#
# _framework density 19.454225999999998
#
# number of rings (size 3 to 8) (size 9 to 14) (size 15 to 20)
#    0.000    1.750    1.250    3.000    1.750    4.000 
#    0.000    0.625    0.000    0.000    0.000    0.000 
#    0.000    0.000    0.000    0.000    0.000    0.000 
#
# Total GULP energy -357881.076669 kJ/mol
# GULP energy per Si atom -5591.891823 kJ/mol
# Density = 1.940995 g / cm^3
# Si number density = 19.454226 Si / 1000 Ang^3
#
#
#
# Elastic Constant Matrix: (Units=GPa)
#
#
# Indices 1 2 3 4 5 6 
#
# 1 75.0275 33.3035 7.9911 0.0000 0.0000 0.0000
# 2 33.3035 72.8427 14.3546 0.0000 0.0000 0.0000
# 3 7.9911 14.3546 36.2093 0.0000 0.0000 0.0000
# 4 0.0000 0.0000 0.0000 28.6385 0.0000 0.0000
# 5 0.0000 0.0000 0.0000 0.0000 30.6118 0.0000
# 6 0.0000 0.0000 0.0000 0.0000 0.0000 29.2952
#
#
#
# Elastic Compliance Matrix: (Units=1/GPa)
#
#
# Indices 1 2 3 4 5 6 
#
# 1 0.016739 -0.007512 -0.000716 0.000000 0.000000 0.000000
# 2 -0.007512 0.018263 -0.005582 0.000000 0.000000 0.000000
# 3 -0.000716 -0.005582 0.029988 0.000000 0.000000 0.000000
# 4 0.000000 0.000000 0.000000 0.034918 0.000000 0.000000
# 5 0.000000 0.000000 0.000000 0.000000 0.032667 0.000000
# 6 0.000000 0.000000 0.000000 0.000000 0.000000 0.034135
#
#
# Mechanical properties :
#
#
# Convention : Reuss Voigt Hill
#
# Bulk Modulus (GPa) = 26.75978 32.81975 29.78977
# Shear Modulus (GPa) = 24.17940 26.27112 25.22526
#
# Velocity S-wave (km/s) = 3.52928 3.67877 3.60480
# Velocity P-wave (km/s) = 5.51298 5.91197 5.71596
#
# Compressibility (1/GPa) = 0.03736951
#
# Stress axis : x y z
#
# Youngs Moduli (GPa) = 59.74012 54.75646 33.34647
#
# Poissons Ratio (x) = 0.41133 0.02388
# Poissons Ratio (y) = 0.44877 0.18614
# Poissons Ratio (z) = 0.04279 0.30566
#
# Static dielectric constant tensor:
#      x y z
#    x 1.655480 0.000000 0.000000 
#    y 0.000000 1.643980 0.000000 
#    z 0.000000 0.000000 1.713390 
# 
# From -- ./inp_files/20811.got.cif
#   From: 2010.05.17/outbox.cif.g08.bks.cpg/sg62_11_cif.got.tgz:20811.got - 2010.06.03 15:25:27.
