data_PCOD9463989
_publ_section_title
;
Structure prediction by ZEFSAII (Michael W. Deem and Ramdas Pophale) SiO2 
 PCOD9463989
Probable space group: P N M A
;
_chemical_formula_sum "Si O2"
_cell_formula_units_Z 56
_cell_length_a 21.178011
_cell_length_b 9.088932
_cell_length_c 14.589908
_cell_angle_alpha 90.000000
_cell_angle_beta 90.000000
_cell_angle_gamma 90.000000
_cell_volume 2808.345764
_symmetry_space_group_name_H-M "P N M A"
_symmetry_group_IT_number 62
_symmetry_cell_setting 'orthorhombic'
loop_
_space_group_symop_operation_xyz
x,y,z
1/2-x,-y,1/2+z
1/2+x,1/2-y,1/2-z
-x,1/2+y,-z
-x,-y,-z
1/2+x,y,1/2-z
1/2-x,1/2+y,1/2+z
x,1/2-y,z
loop_
_atom_site_type_symbol
_atom_site_label
_atom_site_fract_x
_atom_site_fract_y
_atom_site_fract_z
Si Si1 0.984969 0.926584 0.143227
Si Si2 0.327852 0.421675 0.880279
Si Si3 0.763982 0.419326 0.256550
Si Si4 0.931324 0.573123 0.501708
Si Si5 0.107770 0.073449 0.704111
Si Si6 0.593785 0.576040 0.481501
Si Si7 0.779385 0.913363 0.965744
O O1 0.981290 0.750000 0.139638
O O2 0.955703 0.970445 0.240753
O O3 0.055810 0.966660 0.111716
O O4 0.940336 0.993775 0.064912
O O5 0.342032 0.250000 0.862015
O O6 0.291494 0.496566 0.796283
O O7 0.389224 0.506097 0.916850
O O8 0.276716 0.429966 0.962324
O O9 0.767767 0.250000 0.224936
O O10 0.831885 0.497662 0.249054
O O11 0.747715 0.420889 0.363908
O O12 0.935604 0.750000 0.509031
O O13 0.899092 0.537334 0.403157
O O14 0.000000 0.500000 0.500000
O O15 0.115580 0.250000 0.710868
O O16 0.587088 0.750000 0.494493
O O17 0.666050 0.530943 0.478031
O O18 0.807705 0.750000 0.979723
#
# Coordination Sequence:
#
# PCOD9463989 Si02
#       7
#     8   8   8   8   8   8   8
#     4   9  19  36  55  79 115 154 192 239 298 356
#     4  11  23  42  64  89 123 164 207 257 318 376
#     4  11  23  39  61  91 122 156 203 255 310 370
#     4  11  24  42  65  92 124 163 211 262 318 378
#     4  10  21  39  62  87 117 159 208 254 306 373
#     4  10  20  33  54  85 117 152 196 242 292 354
#     4  10  22  39  58  82 119 157 191 241 304 362
#
# _framework density 19.940563999999998
#
# number of rings (size 3 to 8) (size 9 to 14) (size 15 to 20)
#    0.000    1.714    1.429    2.571    0.000    8.571 
#    0.000    1.429    0.000    0.000    0.000    0.000 
#    0.000    0.000    0.000    0.000    0.000    0.000 
#
# Total GULP energy -312793.242416 kJ/mol
# GULP energy per Si atom -5585.593615 kJ/mol
# Density = 1.989518 g / cm^3
# Si number density = 19.940564 Si / 1000 Ang^3
#
#
#
# Elastic Constant Matrix: (Units=GPa)
#
#
# Indices 1 2 3 4 5 6 
#
# 1 62.1929 20.2180 -17.9563 0.0000 0.0000 0.0000
# 2 20.2180 37.1785 2.4443 0.0000 0.0000 0.0000
# 3 -17.9563 2.4443 15.3635 0.0000 0.0000 0.0000
# 4 0.0000 0.0000 0.0000 23.5873 0.0000 0.0000
# 5 0.0000 0.0000 0.0000 0.0000 28.7814 0.0000
# 6 0.0000 0.0000 0.0000 0.0000 0.0000 36.2776
#
#
#
# Elastic Compliance Matrix: (Units=1/GPa)
#
#
# Indices 1 2 3 4 5 6 
#
# 1 0.037406 -0.023462 0.047452 0.000000 0.000000 0.000000
# 2 -0.023462 0.041897 -0.034087 0.000000 0.000000 0.000000
# 3 0.047452 -0.034087 0.125972 0.000000 0.000000 0.000000
# 4 0.000000 0.000000 0.000000 0.042396 0.000000 0.000000
# 5 0.000000 0.000000 0.000000 0.000000 0.034745 0.000000
# 6 0.000000 0.000000 0.000000 0.000000 0.000000 0.027565
#
#
# Mechanical properties :
#
#
# Convention : Reuss Voigt Hill
#
# Bulk Modulus (GPa) = 5.40300 13.79410 9.59855
# Shear Modulus (GPa) = 12.75940 25.06451 18.91195
#
# Velocity S-wave (km/s) = 2.53231 3.54921 3.08298
# Velocity P-wave (km/s) = 3.35642 4.87119 4.18295
#
# Compressibility (1/GPa) = 0.18508220
#
# Stress axis : x y z
#
# Youngs Moduli (GPa) = 26.73353 23.86814 7.93826
#
# Poissons Ratio (x) = 0.55998 -0.37668
# Poissons Ratio (y) = 0.62721 0.27059
# Poissons Ratio (z) = -1.26855 0.81359
#
# Static dielectric constant tensor:
#      x y z
#    x 1.687230 0.000000 0.000000 
#    y 0.000000 1.724550 0.000000 
#    z 0.000000 0.000000 1.710200 
# 
# From -- ./inp_files/20290.got.cif
#   From: 2010.05.17/outbox.cif.g08.bks.cpg/sg62_11_cif.got.tgz:20290.got - 2010.06.03 15:25:27.
