data_PCOD9463527
_publ_section_title
;
Structure prediction by ZEFSAII (Michael W. Deem and Ramdas Pophale) SiO2 
 PCOD9463527
Probable space group: P N M A
;
_chemical_formula_sum "Si O2"
_cell_formula_units_Z 48
_cell_length_a 20.811971
_cell_length_b 8.332777
_cell_length_c 14.600049
_cell_angle_alpha 90.000000
_cell_angle_beta 90.000000
_cell_angle_gamma 90.000000
_cell_volume 2531.962591
_symmetry_space_group_name_H-M "P N M A"
_symmetry_group_IT_number 62
_symmetry_cell_setting 'orthorhombic'
loop_
_space_group_symop_operation_xyz
x,y,z
1/2-x,-y,1/2+z
1/2+x,1/2-y,1/2-z
-x,1/2+y,-z
-x,-y,-z
1/2+x,y,1/2-z
1/2-x,1/2+y,1/2+z
x,1/2-y,z
loop_
_atom_site_type_symbol
_atom_site_label
_atom_site_fract_x
_atom_site_fract_y
_atom_site_fract_z
Si Si1 0.062421 0.942676 0.445796
Si Si2 0.490930 0.443994 0.752685
Si Si3 0.685389 0.946282 0.551694
Si Si4 0.139154 0.558080 0.748325
Si Si5 0.939987 0.443673 0.940906
Si Si6 0.186771 0.441216 0.553212
O O1 0.066979 0.750000 0.449643
O O2 0.048928 0.993954 0.341763
O O3 0.124750 0.014968 0.493169
O O4 0.000000 0.000000 0.500000
O O5 0.493321 0.250000 0.752389
O O6 0.564872 0.500872 0.754985
O O7 0.454311 0.499733 0.661793
O O8 0.686502 0.750000 0.553412
O O9 0.672428 0.998648 0.656676
O O10 0.625192 0.998153 0.489416
O O11 0.750509 0.000514 0.501877
O O12 0.137851 0.750000 0.750651
O O13 0.175560 0.506033 0.655894
O O14 0.938269 0.250000 0.939895
O O15 0.000000 0.500000 0.000000
O O16 0.191735 0.250000 0.561078
#
# Coordination Sequence:
#
# PCOD9463527 Si02
#       6
#     8   8   8   8   8   8
#     4  11  22  37  58  87 118 152 197 245 290 343
#     4  10  21  35  58  88 117 149 194 243 294 348
#     4   9  21  39  59  84 119 157 191 237 296 352
#     4  11  21  37  61  86 114 152 197 241 295 354
#     4  10  19  36  59  86 115 150 193 239 291 345
#     4  11  23  40  60  85 120 159 197 240 296 353
#
# _framework density 18.957626000000001
#
# number of rings (size 3 to 8) (size 9 to 14) (size 15 to 20)
#    0.000    1.667    3.333    1.500    0.000    2.000 
#    0.000    6.667    0.000    0.000    0.000    0.000 
#    0.000    0.000    0.000    0.000    0.000    0.000 
#
# Total GULP energy -267998.040445 kJ/mol
# GULP energy per Si atom -5583.292509 kJ/mol
# Density = 1.891448 g / cm^3
# Si number density = 18.957626 Si / 1000 Ang^3
#
#
#
# Elastic Constant Matrix: (Units=GPa)
#
#
# Indices 1 2 3 4 5 6 
#
# 1 164.0918 7.2010 98.8860 0.0000 0.0000 0.0000
# 2 7.2010 14.0198 20.2541 0.0000 0.0000 0.0000
# 3 98.8860 20.2541 219.8346 0.0000 0.0000 0.0000
# 4 0.0000 0.0000 0.0000 19.2304 0.0000 0.0000
# 5 0.0000 0.0000 0.0000 0.0000 30.1235 0.0000
# 6 0.0000 0.0000 0.0000 0.0000 0.0000 20.5533
#
#
#
# Elastic Compliance Matrix: (Units=1/GPa)
#
#
# Indices 1 2 3 4 5 6 
#
# 1 0.008381 0.001317 -0.003891 0.000000 0.000000 0.000000
# 2 0.001317 0.082487 -0.008192 0.000000 0.000000 0.000000
# 3 -0.003891 -0.008192 0.007054 0.000000 0.000000 0.000000
# 4 0.000000 0.000000 0.000000 0.052001 0.000000 0.000000
# 5 0.000000 0.000000 0.000000 0.000000 0.033197 0.000000
# 6 0.000000 0.000000 0.000000 0.000000 0.000000 0.048654
#
#
# Mechanical properties :
#
#
# Convention : Reuss Voigt Hill
#
# Bulk Modulus (GPa) = 13.09094 72.29205 42.69150
# Shear Modulus (GPa) = 17.93594 32.08845 25.01219
#
# Velocity S-wave (km/s) = 3.07922 4.11863 3.63626
# Velocity P-wave (km/s) = 4.42295 7.79960 6.34020
#
# Compressibility (1/GPa) = 0.07638870
#
# Stress axis : x y z
#
# Youngs Moduli (GPa) = 119.31079 12.12320 141.76110
#
# Poissons Ratio (x) = -0.01597 0.55166
# Poissons Ratio (y) = -0.15713 1.16133
# Poissons Ratio (z) = 0.46430 0.09932
#
# Static dielectric constant tensor:
#      x y z
#    x 1.619940 0.000000 0.000000 
#    y 0.000000 1.660220 0.000000 
#    z 0.000000 0.000000 1.624230 
# 
# From -- ./inp_files/19540.got.cif
#   From: 2010.05.17/outbox.cif.g08.bks.cpg/sg62_10_cif.got.tgz:19540.got - 2010.06.03 15:25:27.
