data_PCOD9463508
_publ_section_title
;
Structure prediction by ZEFSAII (Michael W. Deem and Ramdas Pophale) SiO2 
 PCOD9463508
Probable space group: P N M A
;
_chemical_formula_sum "Si O2"
_cell_formula_units_Z 48
_cell_length_a 8.314442
_cell_length_b 17.364692
_cell_length_c 13.945104
_cell_angle_alpha 90.000000
_cell_angle_beta 90.000000
_cell_angle_gamma 90.000000
_cell_volume 2013.362383
_symmetry_space_group_name_H-M "P N M A"
_symmetry_group_IT_number 62
_symmetry_cell_setting 'orthorhombic'
loop_
_space_group_symop_operation_xyz
x,y,z
1/2-x,-y,1/2+z
1/2+x,1/2-y,1/2-z
-x,1/2+y,-z
-x,-y,-z
1/2+x,y,1/2-z
1/2-x,1/2+y,1/2+z
x,1/2-y,z
loop_
_atom_site_type_symbol
_atom_site_label
_atom_site_fract_x
_atom_site_fract_y
_atom_site_fract_z
Si Si1 0.661002 0.333479 0.389789
Si Si2 0.973413 0.666130 0.684531
Si Si3 0.638525 0.999552 0.392672
Si Si4 0.550310 0.660776 0.141616
Si Si5 0.114653 0.426480 0.481293
Si Si6 0.662196 0.436202 0.718546
O O1 0.636667 0.250000 0.438481
O O2 0.544410 0.339236 0.297998
O O3 0.641465 0.415652 0.438498
O O4 0.841723 0.333865 0.347520
O O5 0.902332 0.750000 0.658355
O O6 0.885021 0.597885 0.628702
O O7 0.714171 0.942884 0.471293
O O8 0.469027 0.977142 0.347277
O O9 0.761798 0.990525 0.301661
O O10 0.591716 0.750000 0.150836
O O11 0.468958 0.642914 0.039696
O O12 0.699209 0.603626 0.157038
O O13 0.425699 0.632319 0.222658
O O14 0.000000 0.500000 0.500000
#
# Coordination Sequence:
#
# PCOD9463508 Si02
#       6
#     8   8   8   8   8   8
#     4  10  20  35  59  84 112 154 198 243 288 344
#     4  10  21  38  59  84 114 151 197 244 294 349
#     4  10  19  36  58  89 121 151 197 245 292 355
#     4  10  20  37  59  85 118 155 194 237 288 349
#     4  11  22  37  57  87 117 157 192 240 303 351
#     4   9  20  34  60  88 115 155 194 240 286 347
#
# _framework density 23.840716
#
# number of rings (size 3 to 8) (size 9 to 14) (size 15 to 20)
#    0.000    2.000    1.667    2.000    4.667    0.000 
#    0.000    5.000    0.000    2.000    0.000    0.000 
#    0.000    0.000    0.000    0.000    0.000    0.000 
#
# Total GULP energy -268645.169056 kJ/mol
# GULP energy per Si atom -5596.774355 kJ/mol
# Density = 2.378645 g / cm^3
# Si number density = 23.840716 Si / 1000 Ang^3
#
#
#
# Elastic Constant Matrix: (Units=GPa)
#
#
# Indices 1 2 3 4 5 6 
#
# 1 79.2940 8.9391 14.6265 0.0000 0.0000 0.0000
# 2 8.9391 118.0962 -3.7506 0.0000 0.0000 0.0000
# 3 14.6265 -3.7506 27.2616 0.0000 0.0000 0.0000
# 4 0.0000 0.0000 0.0000 26.7383 0.0000 0.0000
# 5 0.0000 0.0000 0.0000 0.0000 30.4880 0.0000
# 6 0.0000 0.0000 0.0000 0.0000 0.0000 20.0240
#
#
#
# Elastic Compliance Matrix: (Units=1/GPa)
#
#
# Indices 1 2 3 4 5 6 
#
# 1 0.014199 -0.001323 -0.007800 0.000000 0.000000 0.000000
# 2 -0.001323 0.008628 0.001897 0.000000 0.000000 0.000000
# 3 -0.007800 0.001897 0.041127 0.000000 0.000000 0.000000
# 4 0.000000 0.000000 0.000000 0.037400 0.000000 0.000000
# 5 0.000000 0.000000 0.000000 0.000000 0.032800 0.000000
# 6 0.000000 0.000000 0.000000 0.000000 0.000000 0.049940
#
#
# Mechanical properties :
#
#
# Convention : Reuss Voigt Hill
#
# Bulk Modulus (GPa) = 20.20098 29.36465 24.78281
# Shear Modulus (GPa) = 23.25073 29.10585 26.17829
#
# Velocity S-wave (km/s) = 3.12629 3.49785 3.31728
# Velocity P-wave (km/s) = 4.63932 5.35323 5.00901
#
# Compressibility (1/GPa) = 0.04950254
#
# Stress axis : x y z
#
# Youngs Moduli (GPa) = 70.42647 115.90153 24.31464
#
# Poissons Ratio (x) = 0.15328 0.18966
# Poissons Ratio (y) = 0.09314 -0.04612
# Poissons Ratio (z) = 0.54934 -0.21982
#
# Static dielectric constant tensor:
#      x y z
#    x 1.909980 0.000000 0.000000 
#    y 0.000000 1.919730 0.000000 
#    z 0.000000 0.000000 1.935930 
# 
# From -- ./inp_files/16909.got.cif
#   From: 2010.05.17/outbox.cif.g08.bks.cpg/sg62_9_cif.got.tgz:16909.got - 2010.06.03 15:25:27.
