data_PCOD9463554
_publ_section_title
;
Structure prediction by ZEFSAII (Michael W. Deem and Ramdas Pophale) SiO2 
 PCOD9463554
Probable space group: P N M A
;
_chemical_formula_sum "Si O2"
_cell_formula_units_Z 48
_cell_length_a 8.221903
_cell_length_b 13.840546
_cell_length_c 16.889680
_cell_angle_alpha 90.000000
_cell_angle_beta 90.000000
_cell_angle_gamma 90.000000
_cell_volume 1921.971720
_symmetry_space_group_name_H-M "P N M A"
_symmetry_group_IT_number 62
_symmetry_cell_setting 'orthorhombic'
loop_
_space_group_symop_operation_xyz
x,y,z
1/2-x,-y,1/2+z
1/2+x,1/2-y,1/2-z
-x,1/2+y,-z
-x,-y,-z
1/2+x,y,1/2-z
1/2-x,1/2+y,1/2+z
x,1/2-y,z
loop_
_atom_site_type_symbol
_atom_site_label
_atom_site_fract_x
_atom_site_fract_y
_atom_site_fract_z
Si Si1 0.259536 0.974308 0.498755
Si Si2 0.834777 0.355420 0.636929
Si Si3 0.566177 0.364577 0.064249
Si Si4 0.567133 0.583621 0.770540
Si Si5 0.592759 0.361731 0.763298
Si Si6 0.387130 0.859296 0.631113
O O1 0.270048 0.929076 0.411931
O O2 0.392805 0.936954 0.560200
O O3 0.096734 0.916678 0.530082
O O4 0.213465 0.084613 0.482814
O O5 0.799685 0.250000 0.604347
O O6 0.775605 0.361012 0.728380
O O7 0.029138 0.365115 0.645456
O O8 0.561471 0.250000 0.055340
O O9 0.558022 0.391226 0.157812
O O10 0.547683 0.472671 0.744088
O O11 0.738782 0.607106 0.811741
O O12 0.537643 0.641776 0.690576
O O13 0.545970 0.250000 0.738834
O O14 0.356063 0.750000 0.601713
#
# Coordination Sequence:
#
# PCOD9463554 Si02
#       6
#     8   8   8   8   8   8
#     4  10  20  37  59  87 116 159 203 247 304 365
#     4  10  19  36  60  86 122 158 201 249 297 362
#     4  10  20  36  58  87 119 156 206 256 302 354
#     4  11  21  39  62  90 122 159 206 257 298 364
#     4  10  21  36  59  90 121 163 203 246 304 364
#     4  11  23  40  64  91 120 161 207 253 307 363
#
# _framework density 24.974354000000002
#
# number of rings (size 3 to 8) (size 9 to 14) (size 15 to 20)
#    0.000    1.667    1.667    5.000    0.000    0.000 
#    0.000    1.667    0.000    0.000    0.000    0.000 
#    0.000    0.000    0.000    0.000    0.000    0.000 
#
# Total GULP energy -267205.100332 kJ/mol
# GULP energy per Si atom -5566.772924 kJ/mol
# Density = 2.491751 g / cm^3
# Si number density = 24.974354 Si / 1000 Ang^3
#
#
#
# Elastic Constant Matrix: (Units=GPa)
#
#
# Indices 1 2 3 4 5 6 
#
# 1 29.7803 8.5284 15.0780 0.0000 0.0000 0.0000
# 2 8.5284 189.2925 29.1444 0.0000 0.0000 0.0000
# 3 15.0780 29.1444 83.2180 0.0000 0.0000 0.0000
# 4 0.0000 0.0000 0.0000 25.2090 0.0000 0.0000
# 5 0.0000 0.0000 0.0000 0.0000 32.8162 0.0000
# 6 0.0000 0.0000 0.0000 0.0000 0.0000 22.4956
#
#
#
# Elastic Compliance Matrix: (Units=1/GPa)
#
#
# Indices 1 2 3 4 5 6 
#
# 1 0.037051 -0.000672 -0.006478 0.000000 0.000000 0.000000
# 2 -0.000672 0.005596 -0.001838 0.000000 0.000000 0.000000
# 3 -0.006478 -0.001838 0.013834 0.000000 0.000000 0.000000
# 4 0.000000 0.000000 0.000000 0.039668 0.000000 0.000000
# 5 0.000000 0.000000 0.000000 0.000000 0.030473 0.000000
# 6 0.000000 0.000000 0.000000 0.000000 0.000000 0.044453
#
#
# Mechanical properties :
#
#
# Convention : Reuss Voigt Hill
#
# Bulk Modulus (GPa) = 25.97014 45.31026 35.64020
# Shear Modulus (GPa) = 24.76631 32.74015 28.75323
#
# Velocity S-wave (km/s) = 3.15250 3.62463 3.39678
# Velocity P-wave (km/s) = 4.86542 5.97490 5.44847
#
# Compressibility (1/GPa) = 0.03850576
#
# Stress axis : x y z
#
# Youngs Moduli (GPa) = 26.98949 178.69559 72.28528
#
# Poissons Ratio (x) = 0.12007 0.46826
# Poissons Ratio (y) = 0.01814 0.13287
# Poissons Ratio (z) = 0.17483 0.32846
#
# Static dielectric constant tensor:
#      x y z
#    x 2.100560 0.000000 0.000000 
#    y 0.000000 1.980630 0.000000 
#    z 0.000000 0.000000 2.061340 
# 
# From -- ./inp_files/17992.got.cif
#   From: 2010.05.17/outbox.cif.g08.bks.cpg/sg62_9_cif.got.tgz:17992.got - 2010.06.03 15:25:27.
