data_PCOD9463904
_publ_section_title
;
Structure prediction by ZEFSAII (Michael W. Deem and Ramdas Pophale) SiO2 
 PCOD9463904
Probable space group: P N M A
;
_chemical_formula_sum "Si O2"
_cell_formula_units_Z 48
_cell_length_a 24.271418
_cell_length_b 11.339199
_cell_length_c 6.947563
_cell_angle_alpha 90.000000
_cell_angle_beta 90.000000
_cell_angle_gamma 90.000000
_cell_volume 1912.097442
_symmetry_space_group_name_H-M "P N M A"
_symmetry_group_IT_number 62
_symmetry_cell_setting 'orthorhombic'
loop_
_space_group_symop_operation_xyz
x,y,z
1/2-x,-y,1/2+z
1/2+x,1/2-y,1/2-z
-x,1/2+y,-z
-x,-y,-z
1/2+x,y,1/2-z
1/2-x,1/2+y,1/2+z
x,1/2-y,z
loop_
_atom_site_type_symbol
_atom_site_label
_atom_site_fract_x
_atom_site_fract_y
_atom_site_fract_z
Si Si1 0.526689 0.878614 0.759518
Si Si2 0.925118 0.621675 0.174583
Si Si3 0.376657 0.376490 0.940168
Si Si4 0.785275 0.122624 0.220865
Si Si5 0.808105 0.621798 0.014953
Si Si6 0.101321 0.121227 0.373362
O O1 0.540294 0.750000 0.669654
O O2 0.462290 0.880219 0.806509
O O3 0.542510 0.999722 0.654601
O O4 0.563461 0.879812 0.954925
O O5 0.953829 0.750000 0.155172
O O6 0.874102 0.620870 0.029381
O O7 0.900810 0.619421 0.391616
O O8 0.371348 0.250000 0.839253
O O9 0.331139 0.379634 0.109297
O O10 0.372057 0.495862 0.821431
O O11 0.792907 0.250000 0.118564
O O12 0.725771 0.123985 0.319022
O O13 0.790700 0.000604 0.111136
O O14 0.792769 0.750000 0.110235
O O15 0.124769 0.250000 0.324819
#
# Coordination Sequence:
#
# PCOD9463904 Si02
#       6
#     8   8   8   8   8   8
#     4   9  15  22  36  59  86 115 146 179 225 282
#     4   9  15  24  38  56  83 116 146 179 222 270
#     4   9  15  24  38  56  83 116 146 179 222 270
#     4  10  20  33  49  69  93 125 164 202 237 277
#     4  10  20  33  49  69  93 125 164 202 237 277
#     4   9  15  22  36  59  86 115 146 179 225 282
#
# _framework density 25.103325000000002
#
# number of rings (size 3 to 8) (size 9 to 14) (size 15 to 20)
#    0.000    2.667    3.333    2.000    0.000    2.667 
#    0.000    0.000    0.000    0.000    0.000    0.000 
#    0.000    5.333    0.000   15.333    0.000   11.333 
#
# Total GULP energy -268046.164097 kJ/mol
# GULP energy per Si atom -5584.295085 kJ/mol
# Density = 2.504619 g / cm^3
# Si number density = 25.103325 Si / 1000 Ang^3
#
#
#
# Elastic Constant Matrix: (Units=GPa)
#
#
# Indices 1 2 3 4 5 6 
#
# 1 77.2547 51.7189 10.3774 0.0000 0.0000 0.0000
# 2 51.7189 362.8982 55.1176 0.0000 0.0000 0.0000
# 3 10.3774 55.1176 44.9147 0.0000 0.0000 0.0000
# 4 0.0000 0.0000 0.0000 -0.0178 0.0000 0.0000
# 5 0.0000 0.0000 0.0000 0.0000 29.9906 0.0000
# 6 0.0000 0.0000 0.0000 0.0000 0.0000 12.9713
#
#
#
# Elastic Compliance Matrix: (Units=1/GPa)
#
#
# Indices 1 2 3 4 5 6 
#
# 1 0.014345 -0.001894 -0.000990 0.000000 0.000000 0.000000
# 2 -0.001894 0.003637 -0.004025 0.000000 0.000000 0.000000
# 3 -0.000990 -0.004025 0.027433 0.000000 0.000000 0.000000
# 4 0.000000 0.000000 0.000000-56.065781 0.000000 0.000000
# 5 0.000000 0.000000 0.000000 0.000000 0.033344 0.000000
# 6 0.000000 0.000000 0.000000 0.000000 0.000000 0.077093
#
#
# Mechanical properties :
#
#
# Convention : Reuss Voigt Hill
#
# Bulk Modulus (GPa) = 31.64961 79.94391 55.79676
# Shear Modulus (GPa) = -0.08947 33.11240 16.51146
#
# Velocity S-wave (km/s) = -0.18899 3.63581 2.56743
# Velocity P-wave (km/s) = 3.54788 7.03850 5.57351
#
# Compressibility (1/GPa) = 0.03159596
#
# Stress axis : x y z
#
# Youngs Moduli (GPa) = 69.70980 274.95781 36.45227
#
# Poissons Ratio (x) = 0.52078 0.03609
# Poissons Ratio (y) = 0.13203 0.14674
# Poissons Ratio (z) = 0.06902 1.10684
#
# Static dielectric constant tensor:
#      x y z
#    x 1.944260 0.000000 0.000000 
#    y 0.000000 2.024470 0.000000 
#    z 0.000000 0.000000 1.999440 
# 
# From -- ./inp_files/9293.got.cif
#   From: 2010.05.17/outbox.cif.g08.bks.cpg/sg62_5_cif.got.tgz:9293.got - 2010.06.03 15:25:27.
