data_PCOD9463245
_publ_section_title
;
Structure prediction by ZEFSAII (Michael W. Deem and Ramdas Pophale) SiO2 
 PCOD9463245
Probable space group: P N M A
;
_chemical_formula_sum "Si O2"
_cell_formula_units_Z 56
_cell_length_a 14.305954
_cell_length_b 13.520306
_cell_length_c 13.080718
_cell_angle_alpha 90.000000
_cell_angle_beta 90.000000
_cell_angle_gamma 90.000000
_cell_volume 2530.083930
_symmetry_space_group_name_H-M "P N M A"
_symmetry_group_IT_number 62
_symmetry_cell_setting 'orthorhombic'
loop_
_space_group_symop_operation_xyz
x,y,z
1/2-x,-y,1/2+z
1/2+x,1/2-y,1/2-z
-x,1/2+y,-z
-x,-y,-z
1/2+x,y,1/2-z
1/2-x,1/2+y,1/2+z
x,1/2-y,z
loop_
_atom_site_type_symbol
_atom_site_label
_atom_site_fract_x
_atom_site_fract_y
_atom_site_fract_z
Si Si1 0.600393 0.129710 0.848807
Si Si2 0.920067 0.632242 0.925005
Si Si3 0.796145 0.041437 0.901252
Si Si4 0.252291 0.869829 0.880527
Si Si5 0.578659 0.869954 0.743841
Si Si6 0.491452 0.131541 0.644289
Si Si7 0.459579 0.869683 0.926589
O O1 0.613278 0.250000 0.850566
O O2 0.700834 0.078356 0.852091
O O3 0.547803 0.102801 0.745171
O O4 0.545371 0.104229 0.953970
O O5 0.905823 0.750000 0.919899
O O6 0.824730 0.573349 0.904457
O O7 0.000244 0.606013 0.842006
O O8 0.958231 0.604441 0.037605
O O9 0.887035 0.091301 0.852365
O O10 0.788057 0.083096 0.016497
O O11 0.250342 0.750000 0.890349
O O12 0.181483 0.899913 0.791866
O O13 0.360806 0.899622 0.874448
O O14 0.580457 0.750000 0.745516
O O15 0.543936 0.903388 0.854916
O O16 0.486361 0.250000 0.642980
O O17 0.461172 0.750000 0.924340
#
# Coordination Sequence:
#
# PCOD9463245 Si02
#       7
#     8   8   8   8   8   8   8
#     4   9  19  35  57  86 114 149 191 230 282 347
#     4  10  21  35  54  85 114 143 185 241 294 326
#     4  11  19  34  57  85 111 150 193 236 275 344
#     4   9  16  28  52  82 105 136 183 228 275 333
#     4   9  16  29  49  74 107 139 176 227 276 322
#     4  10  19  34  59  87 119 146 183 243 295 337
#     4   8  15  29  50  75 106 143 182 219 266 333
#
# _framework density 22.133652999999999
#
# number of rings (size 3 to 8) (size 9 to 14) (size 15 to 20)
#    0.000    2.571    1.429    2.571    0.000    0.000 
#    5.143    0.000    3.143    1.714    0.000    0.000 
#    0.000    0.000    0.000    0.000    0.000    0.000 
#
# Total GULP energy -313188.216608 kJ/mol
# GULP energy per Si atom -5592.646725 kJ/mol
# Density = 2.208328 g / cm^3
# Si number density = 22.133653 Si / 1000 Ang^3
#
#
#
# Elastic Constant Matrix: (Units=GPa)
#
#
# Indices 1 2 3 4 5 6 
#
# 1 79.0404 20.6322 69.2614 0.0000 0.0000 0.0000
# 2 20.6322 75.8073 42.9979 0.0000 0.0000 0.0000
# 3 69.2614 42.9979 134.1266 0.0000 0.0000 0.0000
# 4 0.0000 0.0000 0.0000 28.9534 0.0000 0.0000
# 5 0.0000 0.0000 0.0000 0.0000 41.7368 0.0000
# 6 0.0000 0.0000 0.0000 0.0000 0.0000 27.1597
#
#
#
# Elastic Compliance Matrix: (Units=1/GPa)
#
#
# Indices 1 2 3 4 5 6 
#
# 1 0.023130 0.000586 -0.012132 0.000000 0.000000 0.000000
# 2 0.000586 0.016138 -0.005476 0.000000 0.000000 0.000000
# 3 -0.012132 -0.005476 0.015476 0.000000 0.000000 0.000000
# 4 0.000000 0.000000 0.000000 0.034538 0.000000 0.000000
# 5 0.000000 0.000000 0.000000 0.000000 0.023960 0.000000
# 6 0.000000 0.000000 0.000000 0.000000 0.000000 0.036819
#
#
# Mechanical properties :
#
#
# Convention : Reuss Voigt Hill
#
# Bulk Modulus (GPa) = 48.30974 61.63970 54.97472
# Shear Modulus (GPa) = 26.17749 29.97547 28.07648
#
# Velocity S-wave (km/s) = 3.44277 3.68407 3.56546
# Velocity P-wave (km/s) = 6.13819 6.78276 6.46850
#
# Compressibility (1/GPa) = 0.02069976
#
# Stress axis : x y z
#
# Youngs Moduli (GPa) = 43.23483 61.96605 64.61710
#
# Poissons Ratio (x) = -0.03631 0.78391
# Poissons Ratio (y) = -0.02534 0.35385
# Poissons Ratio (z) = 0.52451 0.33933
#
# Static dielectric constant tensor:
#      x y z
#    x 1.774600 0.000000 0.000000 
#    y 0.000000 1.849100 0.000000 
#    z 0.000000 0.000000 1.804300 
# 
# From -- ./inp_files/13394.got.cif
#   From: 2010.05.17/outbox.cif.g08.bks.cpg/sg62_7_cif.got.tgz:13394.got - 2010.06.03 15:25:27.
