data_PCOD9463074
_publ_section_title
;
Structure prediction by ZEFSAII (Michael W. Deem and Ramdas Pophale) SiO2 
 PCOD9463074
Probable space group: P N M A
;
_chemical_formula_sum "Si O2"
_cell_formula_units_Z 56
_cell_length_a 11.293108
_cell_length_b 8.867938
_cell_length_c 23.336990
_cell_angle_alpha 90.000000
_cell_angle_beta 90.000000
_cell_angle_gamma 90.000000
_cell_volume 2337.119773
_symmetry_space_group_name_H-M "P N M A"
_symmetry_group_IT_number 62
_symmetry_cell_setting 'orthorhombic'
loop_
_space_group_symop_operation_xyz
x,y,z
1/2-x,-y,1/2+z
1/2+x,1/2-y,1/2-z
-x,1/2+y,-z
-x,-y,-z
1/2+x,y,1/2-z
1/2-x,1/2+y,1/2+z
x,1/2-y,z
loop_
_atom_site_type_symbol
_atom_site_label
_atom_site_fract_x
_atom_site_fract_y
_atom_site_fract_z
Si Si1 0.430619 0.250000 0.732024
Si Si2 0.666576 0.427455 0.539627
Si Si3 0.403497 0.074389 0.579212
Si Si4 0.448426 0.916429 0.055010
Si Si5 0.199878 0.250000 0.799500
Si Si6 0.835811 0.492338 0.627170
Si Si7 0.002306 0.415692 0.278935
Si Si8 0.778788 0.074735 0.355980
O O1 0.282962 0.250000 0.740783
O O2 0.557144 0.250000 0.696176
O O3 0.457035 0.420099 0.756774
O O4 0.703538 0.250000 0.540162
O O5 0.643177 0.479603 0.475082
O O6 0.543765 0.440219 0.573860
O O7 0.759182 0.534881 0.571737
O O8 0.374557 0.250000 0.572832
O O9 0.343064 0.017332 0.637791
O O10 0.403511 0.750000 0.040768
O O11 0.556393 0.901561 0.099190
O O12 0.354014 0.013947 0.089965
O O13 0.500000 0.000000 0.000000
O O14 0.247904 0.106798 0.834729
O O15 0.906976 0.602031 0.667974
O O16 0.005508 0.250000 0.248079
O O17 0.867559 0.438723 0.302230
O O18 0.751439 0.250000 0.362330
#
# Coordination Sequence:
#
# PCOD9463074 Si02
#       8
#     4   8   8   8   4   8   8   8
#     4  10  22  42  70  98 130 162 208 272 336 416
#     4  10  19  34  52  77 111 160 203 254 305 363
#     4  10  21  32  48  77 116 163 212 256 302 363
#     4  11  20  30  51  83 118 159 200 253 301 367
#     4  10  20  42  66 100 122 166 220 270 350 408
#     4  10  19  36  61  83 121 160 207 262 319 388
#     4   9  21  39  63  91 121 158 200 256 326 388
#     4  10  20  34  51  74 108 151 199 247 302 362
#
# _framework density 23.961117000000002
#
# number of rings (size 3 to 8) (size 9 to 14) (size 15 to 20)
#    0.000    2.000    1.429    2.143    4.000    1.714 
#    2.571    2.857    0.000    0.000    0.000    0.000 
#    0.000    0.000    0.000    0.000    0.000    0.000 
#
# Total GULP energy -311840.815532 kJ/mol
# GULP energy per Si atom -5568.585992 kJ/mol
# Density = 2.390658 g / cm^3
# Si number density = 23.961117 Si / 1000 Ang^3
#
#
#
# Elastic Constant Matrix: (Units=GPa)
#
#
# Indices 1 2 3 4 5 6 
#
# 1 88.9621 9.2913 16.4375 0.0000 0.0000 0.0000
# 2 9.2913 101.8781 18.0494 0.0000 0.0000 0.0000
# 3 16.4375 18.0494 48.5592 0.0000 0.0000 0.0000
# 4 0.0000 0.0000 0.0000 8.1722 0.0000 0.0000
# 5 0.0000 0.0000 0.0000 0.0000 46.4782 0.0000
# 6 0.0000 0.0000 0.0000 0.0000 0.0000 26.9405
#
#
#
# Elastic Compliance Matrix: (Units=1/GPa)
#
#
# Indices 1 2 3 4 5 6 
#
# 1 0.012006 -0.000401 -0.003915 0.000000 0.000000 0.000000
# 2 -0.000401 0.010521 -0.003775 0.000000 0.000000 0.000000
# 3 -0.003915 -0.003775 0.023322 0.000000 0.000000 0.000000
# 4 0.000000 0.000000 0.000000 0.122366 0.000000 0.000000
# 5 0.000000 0.000000 0.000000 0.000000 0.021515 0.000000
# 6 0.000000 0.000000 0.000000 0.000000 0.000000 0.037119
#
#
# Mechanical properties :
#
#
# Convention : Reuss Voigt Hill
#
# Bulk Modulus (GPa) = 33.70789 36.32843 35.01816
# Shear Modulus (GPa) = 19.76910 29.35960 24.56435
#
# Velocity S-wave (km/s) = 2.87548 3.50423 3.20531
# Velocity P-wave (km/s) = 5.01227 5.61846 5.32400
#
# Compressibility (1/GPa) = 0.02966664
#
# Stress axis : x y z
#
# Youngs Moduli (GPa) = 83.29158 95.04787 42.87850
#
# Poissons Ratio (x) = 0.03815 0.16787
# Poissons Ratio (y) = 0.03343 0.16186
# Poissons Ratio (z) = 0.32608 0.35878
#
# Static dielectric constant tensor:
#      x y z
#    x 1.953460 0.000000 0.000000 
#    y 0.000000 2.005850 0.000000 
#    z 0.000000 0.000000 2.020240 
# 
# From -- ./inp_files/31119.got.cif
#   From: 2010.05.17/outbox.cif.g08.bks.cpg/sg62_16_cif.got.tgz:31119.got - 2010.06.03 15:25:27.
