data_PCOD9463562
_publ_section_title
;
Structure prediction by ZEFSAII (Michael W. Deem and Ramdas Pophale) SiO2 
 PCOD9463562
Probable space group: P N M A
;
_chemical_formula_sum "Si O2"
_cell_formula_units_Z 56
_cell_length_a 14.864227
_cell_length_b 7.547223
_cell_length_c 22.228562
_cell_angle_alpha 90.000000
_cell_angle_beta 90.000000
_cell_angle_gamma 90.000000
_cell_volume 2493.680906
_symmetry_space_group_name_H-M "P N M A"
_symmetry_group_IT_number 62
_symmetry_cell_setting 'orthorhombic'
loop_
_space_group_symop_operation_xyz
x,y,z
1/2-x,-y,1/2+z
1/2+x,1/2-y,1/2-z
-x,1/2+y,-z
-x,-y,-z
1/2+x,y,1/2-z
1/2-x,1/2+y,1/2+z
x,1/2-y,z
loop_
_atom_site_type_symbol
_atom_site_label
_atom_site_fract_x
_atom_site_fract_y
_atom_site_fract_z
Si Si1 0.427249 0.538002 0.827322
Si Si2 0.202014 0.539213 0.219973
Si Si3 0.408187 0.465291 0.603787
Si Si4 0.910440 0.537739 0.536794
Si Si5 0.611035 0.544829 0.621582
Si Si6 0.283469 0.032894 0.493290
Si Si7 0.400598 0.457511 0.244767
O O1 0.437425 0.750000 0.832784
O O2 0.342599 0.506047 0.783895
O O3 0.415720 0.468440 0.894816
O O4 0.516857 0.467442 0.793852
O O5 0.206991 0.750000 0.215073
O O6 0.136498 0.476022 0.166699
O O7 0.303377 0.470706 0.214280
O O8 0.413328 0.250000 0.603998
O O9 0.508879 0.535786 0.598411
O O10 0.344996 0.522550 0.548926
O O11 0.901841 0.750000 0.540797
O O12 0.819845 0.475172 0.503969
O O13 0.000000 0.500000 0.500000
O O14 0.639415 0.750000 0.628692
O O15 0.675052 0.470402 0.570049
O O16 0.609689 0.463365 0.688258
O O17 0.286607 0.250000 0.493732
O O18 0.422597 0.250000 0.253344
#
# Coordination Sequence:
#
# PCOD9463562 Si02
#       7
#     8   8   8   8   8   8   8
#     4  10  21  40  62  85 115 153 195 240 288 342
#     4  11  23  36  56  86 118 153 191 237 293 346
#     4  10  21  36  54  82 117 149 183 230 287 344
#     4  10  22  40  62  85 114 153 195 240 286 343
#     4  10  19  36  61  86 109 146 191 232 282 337
#     4   9  19  36  57  80 112 152 188 227 284 344
#     4  10  21  36  58  84 113 149 190 237 285 340
#
# _framework density 22.456762000000001
#
# number of rings (size 3 to 8) (size 9 to 14) (size 15 to 20)
#    0.000    2.000    1.429    1.714    2.000    4.571 
#    0.000    1.429    0.000    0.000    0.000    0.000 
#    0.000    0.000    0.000    0.000    0.000    0.000 
#
# Total GULP energy -313037.739023 kJ/mol
# GULP energy per Si atom -5589.959625 kJ/mol
# Density = 2.240565 g / cm^3
# Si number density = 22.456762 Si / 1000 Ang^3
#
#
#
# Elastic Constant Matrix: (Units=GPa)
#
#
# Indices 1 2 3 4 5 6 
#
# 1 90.1560 -16.3167 -16.3980 0.0000 0.0000 0.0000
# 2 -16.3167 50.5520 3.2373 0.0000 0.0000 0.0000
# 3 -16.3980 3.2373 35.8921 0.0000 0.0000 0.0000
# 4 0.0000 0.0000 0.0000 -5.8551 0.0000 0.0000
# 5 0.0000 0.0000 0.0000 0.0000 25.9197 0.0000
# 6 0.0000 0.0000 0.0000 0.0000 0.0000 15.2476
#
#
#
# Elastic Compliance Matrix: (Units=1/GPa)
#
#
# Indices 1 2 3 4 5 6 
#
# 1 0.012774 0.003771 0.005496 0.000000 0.000000 0.000000
# 2 0.003771 0.021010 -0.000172 0.000000 0.000000 0.000000
# 3 0.005496 -0.000172 0.030388 0.000000 0.000000 0.000000
# 4 0.000000 0.000000 0.000000 -0.170791 0.000000 0.000000
# 5 0.000000 0.000000 0.000000 0.000000 0.038581 0.000000
# 6 0.000000 0.000000 0.000000 0.000000 0.000000 0.065584
#
#
# Mechanical properties :
#
#
# Convention : Reuss Voigt Hill
#
# Bulk Modulus (GPa) = 12.14159 13.07169 12.60664
# Shear Modulus (GPa) = 734.30730 20.80096 377.55413
#
# Velocity S-wave (km/s) = 18.10240 3.04677 12.98037
# Velocity P-wave (km/s) = 21.03206 4.26738 15.17495
#
# Compressibility (1/GPa) = 0.08236154
#
# Stress axis : x y z
#
# Youngs Moduli (GPa) = 78.28385 47.59674 32.90804
#
# Poissons Ratio (x) = -0.17949 -0.18086
# Poissons Ratio (y) = -0.29522 0.00566
# Poissons Ratio (z) = -0.43024 0.00819
#
# Static dielectric constant tensor:
#      x y z
#    x 1.790120 0.000000 0.000000 
#    y 0.000000 1.856680 0.000000 
#    z 0.000000 0.000000 1.824120 
# 
# From -- ./inp_files/27153.got.cif
#   From: 2010.05.17/outbox.cif.g08.bks.cpg/sg62_14_cif.got.tgz:27153.got - 2010.06.03 15:25:27.
