data_PCOD9463907
_publ_section_title
;
Structure prediction by ZEFSAII (Michael W. Deem and Ramdas Pophale) SiO2 
 PCOD9463907
Probable space group: P N M A
;
_chemical_formula_sum "Si O2"
_cell_formula_units_Z 52
_cell_length_a 5.346094
_cell_length_b 16.450989
_cell_length_c 27.610990
_cell_angle_alpha 90.000000
_cell_angle_beta 90.000000
_cell_angle_gamma 90.000000
_cell_volume 2428.346081
_symmetry_space_group_name_H-M "P N M A"
_symmetry_group_IT_number 62
_symmetry_cell_setting 'orthorhombic'
loop_
_space_group_symop_operation_xyz
x,y,z
1/2-x,-y,1/2+z
1/2+x,1/2-y,1/2-z
-x,1/2+y,-z
-x,-y,-z
1/2+x,y,1/2-z
1/2-x,1/2+y,1/2+z
x,1/2-y,z
loop_
_atom_site_type_symbol
_atom_site_label
_atom_site_fract_x
_atom_site_fract_y
_atom_site_fract_z
Si Si1 0.057243 0.499945 0.057325
Si Si2 0.693518 0.250000 0.275220
Si Si3 0.779196 0.931611 0.810506
Si Si4 0.220483 0.491801 0.357189
Si Si5 0.270250 0.414076 0.765751
Si Si6 0.742511 0.338724 0.471455
Si Si7 0.237715 0.160776 0.537177
O O1 0.802562 0.503491 0.087753
O O2 0.199095 0.414682 0.063320
O O3 0.218378 0.580281 0.068881
O O4 0.000000 0.500000 0.000000
O O5 0.893604 0.250000 0.231114
O O6 0.757348 0.162101 0.297267
O O7 0.048439 0.939648 0.835544
O O8 0.547680 0.956438 0.844270
O O9 0.776506 0.998733 0.765930
O O10 0.236535 0.570505 0.322818
O O11 0.022467 0.371438 0.748758
O O12 0.766478 0.250000 0.447386
O O13 0.492017 0.334881 0.504793
O O14 0.992117 0.350696 0.503674
O O15 0.211459 0.250000 0.560815
#
# Coordination Sequence:
#
# PCOD9463907 Si02
#       7
#     8   4   8   8   8   8   8
#     4  10  21  36  56  77 105 144 181 224 284 336
#     4  12  20  32  56  78 104 150 194 226 278 322
#     4  10  20  34  49  73 100 137 177 226 264 321
#     4  10  20  33  49  71 102 129 178 222 265 319
#     4   8  14  28  46  63  90 123 156 207 248 294
#     4   9  18  33  50  72  98 133 173 214 263 320
#     4   9  18  33  54  74  95 126 175 224 264 317
#
# _framework density 21.413751000000001
#
# number of rings (size 3 to 8) (size 9 to 14) (size 15 to 20)
#    0.000    2.462    0.000    4.154    0.000    4.923 
#    2.769    0.000    0.000    0.000    0.000    0.000 
#    0.000   11.077    0.000    0.000    0.000   14.923 
#
# Total GULP energy -289530.336545 kJ/mol
# GULP energy per Si atom -5567.891087 kJ/mol
# Density = 2.136501 g / cm^3
# Si number density = 21.413751 Si / 1000 Ang^3
#
#
#
# Elastic Constant Matrix: (Units=GPa)
#
#
# Indices 1 2 3 4 5 6 
#
# 1 106.6080 2.5102 4.6532 0.0000 0.0000 0.0000
# 2 2.5102 89.2232 -18.0815 0.0000 0.0000 0.0000
# 3 4.6532 -18.0815 62.6234 0.0000 0.0000 0.0000
# 4 0.0000 0.0000 0.0000 7.5374 0.0000 0.0000
# 5 0.0000 0.0000 0.0000 0.0000 34.8127 0.0000
# 6 0.0000 0.0000 0.0000 0.0000 0.0000 9.4852
#
#
#
# Elastic Compliance Matrix: (Units=1/GPa)
#
#
# Indices 1 2 3 4 5 6 
#
# 1 0.009426 -0.000432 -0.000825 0.000000 0.000000 0.000000
# 2 -0.000432 0.011924 0.003475 0.000000 0.000000 0.000000
# 3 -0.000825 0.003475 0.017033 0.000000 0.000000 0.000000
# 4 0.000000 0.000000 0.000000 0.132672 0.000000 0.000000
# 5 0.000000 0.000000 0.000000 0.000000 0.028725 0.000000
# 6 0.000000 0.000000 0.000000 0.000000 0.000000 0.105428
#
#
# Mechanical properties :
#
#
# Convention : Reuss Voigt Hill
#
# Bulk Modulus (GPa) = 23.35442 26.29093 24.82268
# Shear Modulus (GPa) = 15.87065 28.32522 22.09793
#
# Velocity S-wave (km/s) = 2.72535 3.64092 3.21588
# Velocity P-wave (km/s) = 4.56435 5.47534 5.04047
#
# Compressibility (1/GPa) = 0.04281845
#
# Stress axis : x y z
#
# Youngs Moduli (GPa) = 106.08546 83.86266 58.70901
#
# Poissons Ratio (x) = 0.03627 0.04845
# Poissons Ratio (y) = 0.04588 -0.20402
# Poissons Ratio (z) = 0.08755 -0.29143
#
# Static dielectric constant tensor:
#      x y z
#    x 1.826200 0.000000 0.000000 
#    y 0.000000 1.857650 0.000000 
#    z 0.000000 0.000000 1.881230 
# 
# From -- ./inp_files/30489.got.cif
#   From: 2010.05.17/outbox.cif.g08.bks.cpg/sg62_16_cif.got.tgz:30489.got - 2010.06.03 15:25:27.
