data_PCOD9463832
_publ_section_title
;
Structure prediction by ZEFSAII (Michael W. Deem and Ramdas Pophale) SiO2 
 PCOD9463832
Probable space group: P N M A
;
_chemical_formula_sum "Si O2"
_cell_formula_units_Z 64
_cell_length_a 19.637851
_cell_length_b 8.701334
_cell_length_c 24.011717
_cell_angle_alpha 90.000000
_cell_angle_beta 90.000000
_cell_angle_gamma 90.000000
_cell_volume 4103.014162
_symmetry_space_group_name_H-M "P N M A"
_symmetry_group_IT_number 62
_symmetry_cell_setting 'orthorhombic'
loop_
_space_group_symop_operation_xyz
x,y,z
1/2-x,-y,1/2+z
1/2+x,1/2-y,1/2-z
-x,1/2+y,-z
-x,-y,-z
1/2+x,y,1/2-z
1/2-x,1/2+y,1/2+z
x,1/2-y,z
loop_
_atom_site_type_symbol
_atom_site_label
_atom_site_fract_x
_atom_site_fract_y
_atom_site_fract_z
Si Si1 0.729613 0.933666 0.661029
Si Si2 0.857942 0.434300 0.271093
Si Si3 0.861151 0.936701 0.937650
Si Si4 0.000913 0.066611 0.756503
Si Si5 0.851459 0.433809 0.726627
Si Si6 0.859251 0.565366 0.064807
Si Si7 0.774770 0.936007 0.833769
Si Si8 0.496498 0.434714 0.381173
O O1 0.730234 0.750000 0.657032
O O2 0.678302 0.974567 0.712125
O O3 0.803381 0.993239 0.679727
O O4 0.700052 0.005680 0.605105
O O5 0.866917 0.250000 0.271653
O O6 0.930630 0.513681 0.274009
O O7 0.802799 0.476559 0.318258
O O8 0.860959 0.750000 0.938330
O O9 0.803353 0.984278 0.893604
O O10 0.934625 0.982992 0.913099
O O11 0.851393 0.987926 0.000957
O O12 0.001522 0.250000 0.763799
O O13 0.931000 0.024167 0.725250
O O14 0.000539 0.989938 0.817500
O O15 0.845171 0.250000 0.724374
O O16 0.821863 0.493205 0.785559
O O17 0.860395 0.750000 0.065945
O O18 0.930342 0.503420 0.089188
O O19 0.780064 0.750000 0.829295
O O20 0.492075 0.250000 0.381931
#
# Coordination Sequence:
#
# PCOD9463832 Si02
#       8
#     8   8   8   8   8   8   8   8
#     4  10  20  34  50  70  94 128 165 200 242 291
#     4   9  18  30  49  70  93 124 160 197 240 290
#     4   9  19  33  50  70  95 132 170 204 243 285
#     4  11  21  31  47  72 101 130 160 198 246 292
#     4  10  20  32  48  72  97 124 159 201 248 291
#     4  11  21  33  49  70  98 131 167 207 245 282
#     4   9  17  33  51  69  94 126 163 201 240 290
#     4  11  20  32  48  67  97 136 173 202 233 282
#
# _framework density 15.598288999999999
#
# number of rings (size 3 to 8) (size 9 to 14) (size 15 to 20)
#    0.000    2.000    2.500    3.000    0.000    3.500 
#    0.000    3.125    0.000    0.000    0.000    0.875 
#    0.000    0.000    0.000    0.000    0.000    0.000 
#
# Total GULP energy -357090.434344 kJ/mol
# GULP energy per Si atom -5579.538037 kJ/mol
# Density = 1.556279 g / cm^3
# Si number density = 15.598289 Si / 1000 Ang^3
#
#
#
# Elastic Constant Matrix: (Units=GPa)
#
#
# Indices 1 2 3 4 5 6 
#
# 1 142.8055 41.8668 72.7238 0.0000 0.0000 0.0000
# 2 41.8668 35.8919 25.7360 0.0000 0.0000 0.0000
# 3 72.7238 25.7360 100.5562 0.0000 0.0000 0.0000
# 4 0.0000 0.0000 0.0000 15.7910 0.0000 0.0000
# 5 0.0000 0.0000 0.0000 0.0000 17.6646 0.0000
# 6 0.0000 0.0000 0.0000 0.0000 0.0000 24.1693
#
#
#
# Elastic Compliance Matrix: (Units=1/GPa)
#
#
# Indices 1 2 3 4 5 6 
#
# 1 0.013936 -0.011058 -0.007248 0.000000 0.000000 0.000000
# 2 -0.011058 0.042899 -0.002982 0.000000 0.000000 0.000000
# 3 -0.007248 -0.002982 0.015950 0.000000 0.000000 0.000000
# 4 0.000000 0.000000 0.000000 0.063327 0.000000 0.000000
# 5 0.000000 0.000000 0.000000 0.000000 0.056610 0.000000
# 6 0.000000 0.000000 0.000000 0.000000 0.000000 0.041375
#
#
# Mechanical properties :
#
#
# Convention : Reuss Voigt Hill
#
# Bulk Modulus (GPa) = 33.10438 62.21186 47.65812
# Shear Modulus (GPa) = 17.43723 20.78678 19.11200
#
# Velocity S-wave (km/s) = 3.34712 3.65448 3.50417
# Velocity P-wave (km/s) = 6.01721 7.60114 6.85508
#
# Compressibility (1/GPa) = 0.03020748
#
# Stress axis : x y z
#
# Youngs Moduli (GPa) = 71.75793 23.31080 62.69612
#
# Poissons Ratio (x) = 0.25778 0.45444
# Poissons Ratio (y) = 0.79352 0.18695
# Poissons Ratio (z) = 0.52013 0.06951
#
# Static dielectric constant tensor:
#      x y z
#    x 1.522640 0.000000 0.000000 
#    y 0.000000 1.524960 0.000000 
#    z 0.000000 0.000000 1.502680 
# 
# From -- ./inp_files/30062.got.cif
#   From: 2010.05.17/outbox.cif.g08.bks.cpg/sg62_16_cif.got.tgz:30062.got - 2010.06.03 15:25:27.
