data_PCOD9463466
_publ_section_title
;
Structure prediction by ZEFSAII (Michael W. Deem and Ramdas Pophale) SiO2 
 PCOD9463466
Probable space group: P N M A
;
_chemical_formula_sum "Si O2"
_cell_formula_units_Z 48
_cell_length_a 14.126650
_cell_length_b 19.138847
_cell_length_c 9.468603
_cell_angle_alpha 90.000000
_cell_angle_beta 90.000000
_cell_angle_gamma 90.000000
_cell_volume 2560.005296
_symmetry_space_group_name_H-M "P N M A"
_symmetry_group_IT_number 62
_symmetry_cell_setting 'orthorhombic'
loop_
_space_group_symop_operation_xyz
x,y,z
1/2-x,-y,1/2+z
1/2+x,1/2-y,1/2-z
-x,1/2+y,-z
-x,-y,-z
1/2+x,y,1/2-z
1/2-x,1/2+y,1/2+z
x,1/2-y,z
loop_
_atom_site_type_symbol
_atom_site_label
_atom_site_fract_x
_atom_site_fract_y
_atom_site_fract_z
Si Si1 0.084493 0.065057 0.352992
Si Si2 0.776883 0.039944 0.240766
Si Si3 0.050631 0.167252 0.876631
Si Si4 0.471914 0.430082 0.413174
Si Si5 0.750432 0.595213 0.062738
Si Si6 0.542255 0.898966 0.104677
O O1 0.196253 0.076833 0.354392
O O2 0.054197 0.084185 0.196935
O O3 0.020988 0.104580 0.465016
O O4 0.060989 0.982086 0.368856
O O5 0.879146 0.059804 0.181244
O O6 0.761571 0.056677 0.407659
O O7 0.763484 0.959617 0.192584
O O8 0.048330 0.250000 0.872216
O O9 0.154687 0.141163 0.927241
O O10 0.019833 0.134011 0.727885
O O11 0.972257 0.134058 0.980763
O O12 0.500000 0.500000 0.500000
O O13 0.648160 0.631321 0.086499
#
# Coordination Sequence:
#
# PCOD9463466 Si02
#       6
#     8   8   8   8   8   8
#     4  10  19  35  64  99 126 155 215 278 322 369
#     4  11  21  35  67 104 128 160 214 280 327 372
#     4  12  27  44  62  92 137 180 216 267 336 405
#     4  12  20  39  65  97 127 166 219 274 322 378
#     4  11  23  39  65  99 130 164 212 273 333 386
#     4  10  22  38  63  94 130 166 212 266 327 386
#
# _framework density 18.749962
#
# number of rings (size 3 to 8) (size 9 to 14) (size 15 to 20)
#    0.000    1.000    6.667    0.000    7.000    0.667 
#    0.000    1.667    0.000    0.000    0.000    0.000 
#    0.000    0.000    0.000    0.000    0.000    0.000 
#
# Total GULP energy -267506.196804 kJ/mol
# GULP energy per Si atom -5573.045767 kJ/mol
# Density = 1.870729 g / cm^3
# Si number density = 18.749962 Si / 1000 Ang^3
#
#
#
# Elastic Constant Matrix: (Units=GPa)
#
#
# Indices 1 2 3 4 5 6 
#
# 1 118.0521 26.1658 29.4829 0.0000 0.0000 0.0000
# 2 26.1658 30.9855 26.4006 0.0000 0.0000 0.0000
# 3 29.4829 26.4006 110.2960 0.0000 0.0000 0.0000
# 4 0.0000 0.0000 0.0000 4.4203 0.0000 0.0000
# 5 0.0000 0.0000 0.0000 0.0000 33.8074 0.0000
# 6 0.0000 0.0000 0.0000 0.0000 0.0000 14.1402
#
#
#
# Elastic Compliance Matrix: (Units=1/GPa)
#
#
# Indices 1 2 3 4 5 6 
#
# 1 0.010486 -0.008123 -0.000859 0.000000 0.000000 0.000000
# 2 -0.008123 0.046834 -0.009039 0.000000 0.000000 0.000000
# 3 -0.000859 -0.009039 0.011460 0.000000 0.000000 0.000000
# 4 0.000000 0.000000 0.000000 0.226228 0.000000 0.000000
# 5 0.000000 0.000000 0.000000 0.000000 0.029579 0.000000
# 6 0.000000 0.000000 0.000000 0.000000 0.000000 0.070721
#
#
# Mechanical properties :
#
#
# Convention : Reuss Voigt Hill
#
# Bulk Modulus (GPa) = 30.54532 47.04801 38.79666
# Shear Modulus (GPa) = 11.30554 22.29252 16.79903
#
# Velocity S-wave (km/s) = 2.45819 3.45184 2.99649
# Velocity P-wave (km/s) = 4.93793 6.40576 5.71913
#
# Compressibility (1/GPa) = 0.03273824
#
# Stress axis : x y z
#
# Youngs Moduli (GPa) = 95.36777 21.35190 87.26329
#
# Poissons Ratio (x) = 0.17345 0.07492
# Poissons Ratio (y) = 0.77469 0.78877
# Poissons Ratio (z) = 0.08188 0.19300
#
# Static dielectric constant tensor:
#      x y z
#    x 1.652670 0.000000 0.000000 
#    y 0.000000 1.635040 0.000000 
#    z 0.000000 0.000000 1.982320 
# 
# From -- ./inp_files/6620.got.cif
#   From: 2010.05.17/outbox.cif.g08.bks.cpg/sg62_4_cif.got.tgz:6620.got - 2010.06.03 15:25:27.
