data_PCOD9463551
_publ_section_title
;
Structure prediction by ZEFSAII (Michael W. Deem and Ramdas Pophale) SiO2 
 PCOD9463551
Probable space group: P N M A
;
_chemical_formula_sum "Si O2"
_cell_formula_units_Z 40
_cell_length_a 8.855437
_cell_length_b 10.520119
_cell_length_c 22.361488
_cell_angle_alpha 90.000000
_cell_angle_beta 90.000000
_cell_angle_gamma 90.000000
_cell_volume 2083.201836
_symmetry_space_group_name_H-M "P N M A"
_symmetry_group_IT_number 62
_symmetry_cell_setting 'orthorhombic'
loop_
_space_group_symop_operation_xyz
x,y,z
1/2-x,-y,1/2+z
1/2+x,1/2-y,1/2-z
-x,1/2+y,-z
-x,-y,-z
1/2+x,y,1/2-z
1/2-x,1/2+y,1/2+z
x,1/2-y,z
loop_
_atom_site_type_symbol
_atom_site_label
_atom_site_fract_x
_atom_site_fract_y
_atom_site_fract_z
Si Si1 0.021741 0.402450 0.829258
Si Si2 0.014988 0.612121 0.928776
Si Si3 0.256731 0.474201 0.997072
Si Si4 0.132759 0.597243 0.293011
Si Si5 0.520351 0.103074 0.911463
O O1 0.007064 0.250000 0.841578
O O2 0.990409 0.492762 0.885116
O O3 0.194164 0.428654 0.809026
O O4 0.915850 0.439036 0.773439
O O5 0.014632 0.750000 0.898666
O O6 0.881063 0.607041 0.977215
O O7 0.173617 0.588113 0.962027
O O8 0.357058 0.524037 0.051967
O O9 0.366980 0.404258 0.950816
O O10 0.117101 0.750000 0.294659
O O11 0.022608 0.550861 0.345955
O O12 0.568945 0.250000 0.906588
#
# Coordination Sequence:
#
# PCOD9463551 Si02
#       5
#     8   8   8   8   8
#     4  10  21  38  61  86 114 150 196 246 288 340
#     4  11  23  39  58  87 123 157 194 238 293 354
#     4  10  22  36  58  83 118 157 195 236 290 352
#     4   9  19  35  59  86 111 142 192 245 288 334
#     4  10  19  36  60  86 112 147 196 247 291 339
#
# _framework density 19.201212000000002
#
# number of rings (size 3 to 8) (size 9 to 14) (size 15 to 20)
#    0.000    2.000    2.000    1.200    2.800    4.000 
#    0.000    1.000    0.000    0.000    0.000    0.000 
#    0.000    0.000    0.000    0.000    0.000    0.000 
#
# Total GULP energy -223160.604706 kJ/mol
# GULP energy per Si atom -5579.015118 kJ/mol
# Density = 1.915751 g / cm^3
# Si number density = 19.201212 Si / 1000 Ang^3
#
#
#
# Elastic Constant Matrix: (Units=GPa)
#
#
# Indices 1 2 3 4 5 6 
#
# 1 43.6670 6.7569 12.2396 0.0000 0.0000 0.0000
# 2 6.7569 67.5382 24.5123 0.0000 0.0000 0.0000
# 3 12.2396 24.5123 71.1406 0.0000 0.0000 0.0000
# 4 0.0000 0.0000 0.0000 20.9783 0.0000 0.0000
# 5 0.0000 0.0000 0.0000 0.0000 31.3204 0.0000
# 6 0.0000 0.0000 0.0000 0.0000 0.0000 3.2145
#
#
#
# Elastic Compliance Matrix: (Units=1/GPa)
#
#
# Indices 1 2 3 4 5 6 
#
# 1 0.024124 -0.001037 -0.003793 0.000000 0.000000 0.000000
# 2 -0.001037 0.016967 -0.005668 0.000000 0.000000 0.000000
# 3 -0.003793 -0.005668 0.016662 0.000000 0.000000 0.000000
# 4 0.000000 0.000000 0.000000 0.047668 0.000000 0.000000
# 5 0.000000 0.000000 0.000000 0.000000 0.031928 0.000000
# 6 0.000000 0.000000 0.000000 0.000000 0.000000 0.311094
#
#
# Mechanical properties :
#
#
# Convention : Reuss Voigt Hill
#
# Bulk Modulus (GPa) = 27.20509 29.92925 28.56717
# Shear Modulus (GPa) = 10.38007 20.35843 15.36925
#
# Velocity S-wave (km/s) = 2.32759 3.25971 2.83226
# Velocity P-wave (km/s) = 4.62847 5.45789 5.06021
#
# Compressibility (1/GPa) = 0.03675783
#
# Stress axis : x y z
#
# Youngs Moduli (GPa) = 41.45211 58.93699 60.01595
#
# Poissons Ratio (x) = 0.06110 0.22766
# Poissons Ratio (y) = 0.04298 0.34016
# Poissons Ratio (z) = 0.15724 0.33405
#
# Static dielectric constant tensor:
#      x y z
#    x 1.680930 0.000000 0.000000 
#    y 0.000000 1.663940 0.000000 
#    z 0.000000 0.000000 1.694480 
# 
# From -- ./inp_files/25763.got.cif
#   From: 2010.05.17/outbox.cif.g08.bks.cpg/sg62_13_cif.got.tgz:25763.got - 2010.06.03 15:25:27.
