data_PCOD9463421
_publ_section_title
;
Structure prediction by ZEFSAII (Michael W. Deem and Ramdas Pophale) SiO2 
 PCOD9463421
Probable space group: P N M A
;
_chemical_formula_sum "Si O2"
_cell_formula_units_Z 64
_cell_length_a 9.602504
_cell_length_b 10.940727
_cell_length_c 24.726794
_cell_angle_alpha 90.000000
_cell_angle_beta 90.000000
_cell_angle_gamma 90.000000
_cell_volume 2597.756791
_symmetry_space_group_name_H-M "P N M A"
_symmetry_group_IT_number 62
_symmetry_cell_setting 'orthorhombic'
loop_
_space_group_symop_operation_xyz
x,y,z
1/2-x,-y,1/2+z
1/2+x,1/2-y,1/2-z
-x,1/2+y,-z
-x,-y,-z
1/2+x,y,1/2-z
1/2-x,1/2+y,1/2+z
x,1/2-y,z
loop_
_atom_site_type_symbol
_atom_site_label
_atom_site_fract_x
_atom_site_fract_y
_atom_site_fract_z
Si Si1 0.741563 0.615559 0.924828
Si Si2 0.091348 0.376885 0.423473
Si Si3 0.584222 0.116230 0.650346
Si Si4 0.655411 0.031457 0.312178
Si Si5 0.923664 0.103389 0.962936
Si Si6 0.637379 0.879538 0.092321
Si Si7 0.072332 0.116416 0.296512
Si Si8 0.093087 0.381721 0.678017
O O1 0.793432 0.750000 0.946481
O O2 0.574805 0.620734 0.928066
O O3 0.790111 0.611763 0.861938
O O4 0.792762 0.482564 0.945693
O O5 0.143861 0.250000 0.446926
O O6 0.152007 0.502934 0.444809
O O7 0.124641 0.378721 0.358824
O O8 0.555180 0.250000 0.674291
O O9 0.520447 0.113535 0.590129
O O10 0.749799 0.111009 0.640656
O O11 0.505682 0.006054 0.679325
O O12 0.674367 0.090082 0.253396
O O13 0.743471 0.906431 0.319786
O O14 0.902757 0.250000 0.978960
O O15 0.000000 0.000000 0.000000
O O16 0.658979 0.750000 0.064645
O O17 0.485212 0.880526 0.119938
O O18 0.007989 0.250000 0.287165
O O19 0.969868 0.001880 0.295637
O O20 0.059605 0.250000 0.701990
#
# Coordination Sequence:
#
# PCOD9463421 Si02
#       8
#     8   8   8   8   8   8   8   8
#     4  10  19  35  60  86 114 152 198 248 300 358
#     4   9  18  35  54  77 109 151 196 246 296 343
#     4   9  20  36  57  85 120 151 186 239 302 359
#     4  11  20  34  55  83 110 148 203 251 301 352
#     4  10  21  38  62  93 125 156 190 241 301 368
#     4   9  17  34  55  78 108 147 188 232 287 346
#     4  10  21  34  49  74 111 150 194 247 297 343
#     4  10  21  36  56  78 107 150 203 256 301 354
#
# _framework density 24.636641000000001
#
# number of rings (size 3 to 8) (size 9 to 14) (size 15 to 20)
#    0.000    2.250    2.500    1.125    0.000    4.500 
#    0.000    7.500    0.000    0.750    0.000    0.000 
#    0.000    0.000    0.000    0.000    0.000    0.000 
#
# Total GULP energy -356451.355643 kJ/mol
# GULP energy per Si atom -5569.552432 kJ/mol
# Density = 2.458057 g / cm^3
# Si number density = 24.636641 Si / 1000 Ang^3
#
#
#
# Elastic Constant Matrix: (Units=GPa)
#
#
# Indices 1 2 3 4 5 6 
#
# 1 54.1668 36.7546 14.8983 0.0000 0.0000 0.0000
# 2 36.7546 253.9627 16.8854 0.0000 0.0000 0.0000
# 3 14.8983 16.8854 75.6080 0.0000 0.0000 0.0000
# 4 0.0000 0.0000 0.0000 -6.8709 0.0000 0.0000
# 5 0.0000 0.0000 0.0000 0.0000 14.4441 0.0000
# 6 0.0000 0.0000 0.0000 0.0000 0.0000 -34.2474
#
#
#
# Elastic Compliance Matrix: (Units=1/GPa)
#
#
# Indices 1 2 3 4 5 6 
#
# 1 0.021384 -0.002857 -0.003576 0.000000 0.000000 0.000000
# 2 -0.002857 0.004379 -0.000415 0.000000 0.000000 0.000000
# 3 -0.003576 -0.000415 0.014023 0.000000 0.000000 0.000000
# 4 0.000000 0.000000 0.000000 -0.145540 0.000000 0.000000
# 5 0.000000 0.000000 0.000000 0.000000 0.069233 0.000000
# 6 0.000000 0.000000 0.000000 0.000000 0.000000 -0.029199
#
#
# Mechanical properties :
#
#
# Convention : Reuss Voigt Hill
#
# Bulk Modulus (GPa) = 38.32789 57.86822 48.09805
# Shear Modulus (GPa) = -115.39354 15.67842 -49.85756
#
# Velocity S-wave (km/s) = -6.85127 2.52541 -4.50345
# Velocity P-wave (km/s) = 6.85532 5.66068 2.73425
#
# Compressibility (1/GPa) = 0.02609066
#
# Stress axis : x y z
#
# Youngs Moduli (GPa) = 46.76501 228.38096 71.30976
#
# Poissons Ratio (x) = 0.65248 0.25497
# Poissons Ratio (y) = 0.13361 0.02959
# Poissons Ratio (z) = 0.16721 0.09476
#
# Static dielectric constant tensor:
#      x y z
#    x 1.999680 0.000000 0.000000 
#    y 0.000000 2.052660 0.000000 
#    z 0.000000 0.000000 1.987780 
# 
# From -- ./inp_files/32238.got.cif
#   From: 2010.05.17/outbox.cif.g08.bks.cpg/sg62_17_cif.got.tgz:32238.got - 2010.06.03 15:25:27.
