data_PCOD9463804
_publ_section_title
;
Structure prediction by ZEFSAII (Michael W. Deem and Ramdas Pophale) SiO2 
 PCOD9463804
Probable space group: P N M A
;
_chemical_formula_sum "Si O2"
_cell_formula_units_Z 64
_cell_length_a 17.830616
_cell_length_b 8.983131
_cell_length_c 22.315928
_cell_angle_alpha 90.000000
_cell_angle_beta 90.000000
_cell_angle_gamma 90.000000
_cell_volume 3574.448397
_symmetry_space_group_name_H-M "P N M A"
_symmetry_group_IT_number 62
_symmetry_cell_setting 'orthorhombic'
loop_
_space_group_symop_operation_xyz
x,y,z
1/2-x,-y,1/2+z
1/2+x,1/2-y,1/2-z
-x,1/2+y,-z
-x,-y,-z
1/2+x,y,1/2-z
1/2-x,1/2+y,1/2+z
x,1/2-y,z
loop_
_atom_site_type_symbol
_atom_site_label
_atom_site_fract_x
_atom_site_fract_y
_atom_site_fract_z
Si Si1 0.602115 0.427945 0.619398
Si Si2 0.164170 0.578540 0.442525
Si Si3 0.073526 0.927839 0.135513
Si Si4 0.417315 0.428993 0.502726
Si Si5 0.430790 0.929940 0.037186
Si Si6 0.979623 0.080386 0.647111
Si Si7 0.257247 0.427914 0.340412
Si Si8 0.618795 0.427018 0.243121
O O1 0.607559 0.250000 0.616598
O O2 0.515513 0.466972 0.633738
O O3 0.621416 0.498145 0.554441
O O4 0.662178 0.494991 0.665215
O O5 0.187755 0.750000 0.450889
O O6 0.141220 0.500418 0.504770
O O7 0.089386 0.581648 0.400528
O O8 0.221636 0.484964 0.402840
O O9 0.077472 0.750000 0.142978
O O10 0.111669 0.006293 0.191166
O O11 0.108723 0.963483 0.070333
O O12 0.500000 0.500000 0.500000
O O13 0.420514 0.250000 0.496437
O O14 0.431173 0.750000 0.031375
O O15 0.449197 0.966367 0.106611
O O16 0.500000 0.000000 0.000000
O O17 0.991043 0.250000 0.667825
O O18 0.950303 0.983268 0.701915
O O19 0.264537 0.250000 0.340983
O O20 0.196119 0.471645 0.290151
O O21 0.616953 0.250000 0.245189
#
# Coordination Sequence:
#
# PCOD9463804 Si02
#       8
#     8   8   8   8   8   8   8   8
#     4  10  20  34  54  80 105 134 170 210 258 310
#     4   9  16  26  41  62  88 121 159 201 247 295
#     4   9  19  34  53  77 105 135 168 205 253 309
#     4   9  17  31  52  79 106 131 160 201 251 303
#     4   9  15  23  37  58  83 115 154 199 248 294
#     4   8  15  26  40  59  87 122 158 197 243 291
#     4  10  20  33  49  73 104 137 172 213 258 308
#     4  10  20  31  48  74 102 135 176 216 255 300
#
# _framework density 17.904861
#
# number of rings (size 3 to 8) (size 9 to 14) (size 15 to 20)
#    0.000    2.750    0.000    3.750    0.000    8.000 
#    0.000    0.000    0.000    1.500    0.000    5.250 
#    0.000    0.000    0.000    0.000    0.000    0.000 
#
# Total GULP energy -356409.309919 kJ/mol
# GULP energy per Si atom -5568.895467 kJ/mol
# Density = 1.786411 g / cm^3
# Si number density = 17.904861 Si / 1000 Ang^3
#
#
#
# Elastic Constant Matrix: (Units=GPa)
#
#
# Indices 1 2 3 4 5 6 
#
# 1 46.3727 22.0197 28.7040 0.0000 0.0000 0.0000
# 2 22.0197 55.8735 38.8082 0.0000 0.0000 0.0000
# 3 28.7040 38.8082 90.9289 0.0000 0.0000 0.0000
# 4 0.0000 0.0000 0.0000 31.7913 0.0000 0.0000
# 5 0.0000 0.0000 0.0000 0.0000 15.0383 0.0000
# 6 0.0000 0.0000 0.0000 0.0000 0.0000 22.0652
#
#
#
# Elastic Compliance Matrix: (Units=1/GPa)
#
#
# Indices 1 2 3 4 5 6 
#
# 1 0.028666 -0.007124 -0.006009 0.000000 0.000000 0.000000
# 2 -0.007124 0.027209 -0.009364 0.000000 0.000000 0.000000
# 3 -0.006009 -0.009364 0.016891 0.000000 0.000000 0.000000
# 4 0.000000 0.000000 0.000000 0.031455 0.000000 0.000000
# 5 0.000000 0.000000 0.000000 0.000000 0.066497 0.000000
# 6 0.000000 0.000000 0.000000 0.000000 0.000000 0.045320
#
#
# Mechanical properties :
#
#
# Convention : Reuss Voigt Hill
#
# Bulk Modulus (GPa) = 36.00591 41.35986 38.68288
# Shear Modulus (GPa) = 18.49868 20.68850 19.59359
#
# Velocity S-wave (km/s) = 3.21778 3.40291 3.31163
# Velocity P-wave (km/s) = 5.82741 6.21206 6.02280
#
# Compressibility (1/GPa) = 0.02777322
#
# Stress axis : x y z
#
# Youngs Moduli (GPa) = 34.88394 36.75259 59.20335
#
# Poissons Ratio (x) = 0.26182 0.35574
# Poissons Ratio (y) = 0.24851 0.55437
# Poissons Ratio (z) = 0.20961 0.34415
#
# Static dielectric constant tensor:
#      x y z
#    x 1.514300 0.000000 0.000000 
#    y 0.000000 1.596320 0.000000 
#    z 0.000000 0.000000 1.602590 
# 
# From -- ./inp_files/30022.got.cif
#   From: 2010.05.17/outbox.cif.g08.bks.cpg/sg62_16_cif.got.tgz:30022.got - 2010.06.03 15:25:27.
