data_PCOD9463864
_publ_section_title
;
Structure prediction by ZEFSAII (Michael W. Deem and Ramdas Pophale) SiO2 
 PCOD9463864
Probable space group: P N M A
;
_chemical_formula_sum "Si O2"
_cell_formula_units_Z 60
_cell_length_a 13.550877
_cell_length_b 9.270434
_cell_length_c 22.092124
_cell_angle_alpha 90.000000
_cell_angle_beta 90.000000
_cell_angle_gamma 90.000000
_cell_volume 2775.268087
_symmetry_space_group_name_H-M "P N M A"
_symmetry_group_IT_number 62
_symmetry_cell_setting 'orthorhombic'
loop_
_space_group_symop_operation_xyz
x,y,z
1/2-x,-y,1/2+z
1/2+x,1/2-y,1/2-z
-x,1/2+y,-z
-x,-y,-z
1/2+x,y,1/2-z
1/2-x,1/2+y,1/2+z
x,1/2-y,z
loop_
_atom_site_type_symbol
_atom_site_label
_atom_site_fract_x
_atom_site_fract_y
_atom_site_fract_z
Si Si1 0.146536 0.578475 0.252532
Si Si2 0.943452 0.582871 0.410245
Si Si3 0.599613 0.997420 0.432363
Si Si4 0.543030 0.750000 0.515783
Si Si5 0.363582 0.583869 0.955201
Si Si6 0.467671 0.584491 0.318604
Si Si7 0.234249 0.419856 0.871234
Si Si8 0.223879 0.920078 0.653585
O O1 0.151605 0.750000 0.236915
O O2 0.179949 0.566165 0.321340
O O3 0.222810 0.491169 0.211243
O O4 0.036505 0.526155 0.235113
O O5 0.964035 0.750000 0.394583
O O6 0.881864 0.580546 0.473174
O O7 0.876550 0.503722 0.361126
O O8 0.042693 0.497212 0.425727
O O9 0.609797 0.876419 0.482974
O O10 0.537540 0.923012 0.377483
O O11 0.531966 0.125521 0.456986
O O12 0.699682 0.053973 0.401903
O O13 0.360280 0.750000 0.935685
O O14 0.268318 0.501211 0.930712
O O15 0.443627 0.750000 0.302471
O O16 0.364629 0.518023 0.340048
O O17 0.218459 0.250000 0.884742
O O18 0.208248 0.750000 0.661415
#
# Coordination Sequence:
#
# PCOD9463864 Si02
#       8
#     8   8   8   4   8   8   8   8
#     4   9  20  38  61  83 118 160 205 254 296 360
#     4  10  22  40  63  87 117 162 201 244 301 363
#     4  10  20  36  51  81 117 155 191 240 290 351
#     4  10  20  32  52  76 114 154 196 232 282 352
#     4  10  22  41  60  87 122 152 195 253 304 360
#     4   9  18  36  57  80 116 151 190 246 299 340
#     4  10  21  38  61  90 116 158 206 248 306 365
#     4  11  22  37  58  86 117 155 200 249 304 359
#
# _framework density 21.619534000000002
#
# number of rings (size 3 to 8) (size 9 to 14) (size 15 to 20)
#    0.000    2.133    1.333    1.200    1.867    5.333 
#    3.600    2.667    0.000    0.000    0.000    0.000 
#    0.000    0.000    0.000    0.000    0.000    0.000 
#
# Total GULP energy -334152.739615 kJ/mol
# GULP energy per Si atom -5569.212327 kJ/mol
# Density = 2.157033 g / cm^3
# Si number density = 21.619534 Si / 1000 Ang^3
#
#
#
# Elastic Constant Matrix: (Units=GPa)
#
#
# Indices 1 2 3 4 5 6 
#
# 1 62.9400 2.4950 22.6336 0.0000 0.0000 0.0000
# 2 2.4950 96.2185 28.7989 0.0000 0.0000 0.0000
# 3 22.6336 28.7989 29.3026 0.0000 0.0000 0.0000
# 4 0.0000 0.0000 0.0000 21.8843 0.0000 0.0000
# 5 0.0000 0.0000 0.0000 0.0000 19.7377 0.0000
# 6 0.0000 0.0000 0.0000 0.0000 0.0000 22.3864
#
#
#
# Elastic Compliance Matrix: (Units=1/GPa)
#
#
# Indices 1 2 3 4 5 6 
#
# 1 0.025180 0.007322 -0.026645 0.000000 0.000000 0.000000
# 2 0.007322 0.016854 -0.022220 0.000000 0.000000 0.000000
# 3 -0.026645 -0.022220 0.076545 0.000000 0.000000 0.000000
# 4 0.000000 0.000000 0.000000 0.045695 0.000000 0.000000
# 5 0.000000 0.000000 0.000000 0.000000 0.050664 0.000000
# 6 0.000000 0.000000 0.000000 0.000000 0.000000 0.044670
#
#
# Mechanical properties :
#
#
# Convention : Reuss Voigt Hill
#
# Bulk Modulus (GPa) = 28.17445 32.92402 30.54923
# Shear Modulus (GPa) = 14.10338 21.77060 17.93699
#
# Velocity S-wave (km/s) = 2.55687 3.17675 2.88352
# Velocity P-wave (km/s) = 4.66659 5.35887 5.02467
#
# Compressibility (1/GPa) = 0.03549315
#
# Stress axis : x y z
#
# Youngs Moduli (GPa) = 39.71443 59.33440 13.06413
#
# Poissons Ratio (x) = -0.43446 0.34810
# Poissons Ratio (y) = -0.29080 0.29028
# Poissons Ratio (z) = 1.05821 1.31839
#
# Static dielectric constant tensor:
#      x y z
#    x 1.813250 0.000000 0.000000 
#    y 0.000000 1.735780 0.000000 
#    z 0.000000 0.000000 1.807210 
# 
# From -- ./inp_files/31130.got.cif
#   From: 2010.05.17/outbox.cif.g08.bks.cpg/sg62_16_cif.got.tgz:31130.got - 2010.06.03 15:25:27.
