data_PCOD9463161
_publ_section_title
;
Structure prediction by ZEFSAII (Michael W. Deem and Ramdas Pophale) SiO2 
 PCOD9463161
Probable space group: P N M A
;
_chemical_formula_sum "Si O2"
_cell_formula_units_Z 40
_cell_length_a 16.144510
_cell_length_b 8.724960
_cell_length_c 16.007651
_cell_angle_alpha 90.000000
_cell_angle_beta 90.000000
_cell_angle_gamma 90.000000
_cell_volume 2254.840985
_symmetry_space_group_name_H-M "P N M A"
_symmetry_group_IT_number 62
_symmetry_cell_setting 'orthorhombic'
loop_
_space_group_symop_operation_xyz
x,y,z
1/2-x,-y,1/2+z
1/2+x,1/2-y,1/2-z
-x,1/2+y,-z
-x,-y,-z
1/2+x,y,1/2-z
1/2-x,1/2+y,1/2+z
x,1/2-y,z
loop_
_atom_site_type_symbol
_atom_site_label
_atom_site_fract_x
_atom_site_fract_y
_atom_site_fract_z
Si Si1 0.459938 0.433133 0.372570
Si Si2 0.122314 0.566582 0.048407
Si Si3 0.933803 0.934084 0.306049
Si Si4 0.564850 0.934161 0.066765
Si Si5 0.303754 0.065681 0.059972
O O1 0.462262 0.250000 0.365572
O O2 0.404347 0.473616 0.453351
O O3 0.551467 0.495978 0.392927
O O4 0.427039 0.504794 0.287273
O O5 0.121059 0.750000 0.056544
O O6 0.212801 0.502782 0.067219
O O7 0.927076 0.750000 0.307530
O O8 0.024409 0.978441 0.344809
O O9 0.864222 0.003791 0.367255
O O10 0.562817 0.750000 0.063631
O O11 0.653677 0.980237 0.029227
O O12 0.500000 0.000000 0.000000
O O13 0.300755 0.250000 0.064336
#
# Coordination Sequence:
#
# PCOD9463161 Si02
#       5
#     8   8   8   8   8
#     4  10  21  38  58  79 107 145 186 228 275 328
#     4  10  21  38  58  79 106 143 186 227 275 330
#     4  10  19  34  56  82 113 146 182 225 273 324
#     4   8  16  30  50  76 106 141 175 213 262 318
#     4  10  19  34  56  82 112 143 181 226 275 326
#
# _framework density 17.739611
#
# number of rings (size 3 to 8) (size 9 to 14) (size 15 to 20)
#    0.000    2.400    0.000    2.400    0.000    4.000 
#    3.600    0.000    0.000    0.000    0.000    0.000 
#    0.000    0.000    0.000    0.000    0.000    0.000 
#
# Total GULP energy -222943.562480 kJ/mol
# GULP energy per Si atom -5573.589062 kJ/mol
# Density = 1.769924 g / cm^3
# Si number density = 17.739611 Si / 1000 Ang^3
#
#
#
# Elastic Constant Matrix: (Units=GPa)
#
#
# Indices 1 2 3 4 5 6 
#
# 1 112.9192 27.9993 37.9174 0.0000 0.0000 0.0000
# 2 27.9993 38.4912 26.2136 0.0000 0.0000 0.0000
# 3 37.9174 26.2136 80.7889 0.0000 0.0000 0.0000
# 4 0.0000 0.0000 0.0000 27.5565 0.0000 0.0000
# 5 0.0000 0.0000 0.0000 0.0000 11.6816 0.0000
# 6 0.0000 0.0000 0.0000 0.0000 0.0000 26.5555
#
#
#
# Elastic Compliance Matrix: (Units=1/GPa)
#
#
# Indices 1 2 3 4 5 6 
#
# 1 0.011507 -0.006023 -0.003446 0.000000 0.000000 0.000000
# 2 -0.006023 0.036502 -0.009017 0.000000 0.000000 0.000000
# 3 -0.003446 -0.009017 0.016921 0.000000 0.000000 0.000000
# 4 0.000000 0.000000 0.000000 0.036289 0.000000 0.000000
# 5 0.000000 0.000000 0.000000 0.000000 0.085605 0.000000
# 6 0.000000 0.000000 0.000000 0.000000 0.000000 0.037657
#
#
# Mechanical properties :
#
#
# Convention : Reuss Voigt Hill
#
# Bulk Modulus (GPa) = 35.76891 46.27333 41.02112
# Shear Modulus (GPa) = 18.46570 22.49665 20.48118
#
# Velocity S-wave (km/s) = 3.22985 3.56499 3.40155
# Velocity P-wave (km/s) = 5.84091 6.56406 6.21302
#
# Compressibility (1/GPa) = 0.02795724
#
# Stress axis : x y z
#
# Youngs Moduli (GPa) = 86.90673 27.39562 59.09794
#
# Poissons Ratio (x) = 0.16501 0.20366
# Poissons Ratio (y) = 0.52346 0.53288
# Poissons Ratio (z) = 0.29949 0.24702
#
# Static dielectric constant tensor:
#      x y z
#    x 1.598830 0.000000 0.000000 
#    y 0.000000 1.607170 0.000000 
#    z 0.000000 0.000000 1.611280 
# 
# From -- ./inp_files/18609.got.cif
#   From: 2010.05.17/outbox.cif.g08.bks.cpg/sg62_10_cif.got.tgz:18609.got - 2010.06.03 15:25:27.
