data_PCOD9463993
_publ_section_title
;
Structure prediction by ZEFSAII (Michael W. Deem and Ramdas Pophale) SiO2 
 PCOD9463993
Probable space group: P N M A
;
_chemical_formula_sum "Si O2"
_cell_formula_units_Z 32
_cell_length_a 5.462801
_cell_length_b 10.670769
_cell_length_c 23.145731
_cell_angle_alpha 90.000000
_cell_angle_beta 90.000000
_cell_angle_gamma 90.000000
_cell_volume 1349.217607
_symmetry_space_group_name_H-M "P N M A"
_symmetry_group_IT_number 62
_symmetry_cell_setting 'orthorhombic'
loop_
_space_group_symop_operation_xyz
x,y,z
1/2-x,-y,1/2+z
1/2+x,1/2-y,1/2-z
-x,1/2+y,-z
-x,-y,-z
1/2+x,y,1/2-z
1/2-x,1/2+y,1/2+z
x,1/2-y,z
loop_
_atom_site_type_symbol
_atom_site_label
_atom_site_fract_x
_atom_site_fract_y
_atom_site_fract_z
Si Si1 0.561538 0.016259 0.904180
Si Si2 0.628420 0.469454 0.224037
Si Si3 0.821856 0.250000 0.705706
Si Si4 0.188631 0.112358 0.996443
Si Si5 0.175182 0.750000 0.133883
O O1 0.452132 0.969842 0.843164
O O2 0.785638 0.114519 0.895812
O O3 0.646814 0.904902 0.945982
O O4 0.360098 0.091570 0.941017
O O5 0.397479 0.416899 0.260369
O O6 0.668123 0.617753 0.238561
O O7 0.583538 0.250000 0.665633
O O8 0.071312 0.250000 0.669940
O O9 0.076202 0.250000 0.994936
O O10 0.000000 0.000000 0.000000
#
# Coordination Sequence:
#
# PCOD9463993 Si02
#       5
#     8   8   4   8   4
#     4  10  24  41  67  97 143 182 247 298 371 442
#     4  11  22  36  61  97 139 183 229 288 359 437
#     4  10  20  33  54  94 140 184 226 271 353 434
#     4  11  26  44  71 102 141 194 248 318 378 448
#     4  10  20  35  66  92 140 180 224 293 353 426
#
# _framework density 23.717449999999999
#
# number of rings (size 3 to 8) (size 9 to 14) (size 15 to 20)
#    0.000    1.500    1.250    3.750   12.250    1.000 
#    0.000    0.000    0.000    1.500    0.000    0.000 
#    0.000    0.000    0.000    0.000    0.000    0.000 
#
# Total GULP energy -178817.990249 kJ/mol
# GULP energy per Si atom -5588.062195 kJ/mol
# Density = 2.366347 g / cm^3
# Si number density = 23.717450 Si / 1000 Ang^3
#
#
#
# Elastic Constant Matrix: (Units=GPa)
#
#
# Indices 1 2 3 4 5 6 
#
# 1 173.7839 33.5138 70.1328 0.0000 0.0000 0.0000
# 2 33.5138 88.6870 20.3788 0.0000 0.0000 0.0000
# 3 70.1328 20.3788 148.9315 0.0000 0.0000 0.0000
# 4 0.0000 0.0000 0.0000 19.4631 0.0000 0.0000
# 5 0.0000 0.0000 0.0000 0.0000 56.8832 0.0000
# 6 0.0000 0.0000 0.0000 0.0000 0.0000 20.7596
#
#
#
# Elastic Compliance Matrix: (Units=1/GPa)
#
#
# Indices 1 2 3 4 5 6 
#
# 1 0.007457 -0.002076 -0.003228 0.000000 0.000000 0.000000
# 2 -0.002076 0.012220 -0.000694 0.000000 0.000000 0.000000
# 3 -0.003228 -0.000694 0.008329 0.000000 0.000000 0.000000
# 4 0.000000 0.000000 0.000000 0.051379 0.000000 0.000000
# 5 0.000000 0.000000 0.000000 0.000000 0.017580 0.000000
# 6 0.000000 0.000000 0.000000 0.000000 0.000000 0.048171
#
#
# Mechanical properties :
#
#
# Convention : Reuss Voigt Hill
#
# Bulk Modulus (GPa) = 62.46110 73.27258 67.86684
# Shear Modulus (GPa) = 30.77508 38.57963 34.67735
#
# Velocity S-wave (km/s) = 3.60609 4.03753 3.82789
# Velocity P-wave (km/s) = 6.61296 7.25924 6.94362
#
# Compressibility (1/GPa) = 0.01600996
#
# Stress axis : x y z
#
# Youngs Moduli (GPa) = 134.09845 81.83451 120.05717
#
# Poissons Ratio (x) = 0.16992 0.38749
# Poissons Ratio (y) = 0.27844 0.08336
# Poissons Ratio (z) = 0.43281 0.05682
#
# Static dielectric constant tensor:
#      x y z
#    x 1.921480 0.000000 0.000000 
#    y 0.000000 1.911820 0.000000 
#    z 0.000000 0.000000 1.983940 
# 
# From -- ./inp_files/28140.got.cif
#   From: 2010.05.17/outbox.cif.g08.bks.cpg/sg62_15_cif.got.tgz:28140.got - 2010.06.03 15:25:27.
