data_PCOD9463509
_publ_section_title
;
Structure prediction by ZEFSAII (Michael W. Deem and Ramdas Pophale) SiO2 
 PCOD9463509
Probable space group: P N M A
;
_chemical_formula_sum "Si O2"
_cell_formula_units_Z 60
_cell_length_a 5.272145
_cell_length_b 25.597201
_cell_length_c 18.655208
_cell_angle_alpha 90.000000
_cell_angle_beta 90.000000
_cell_angle_gamma 90.000000
_cell_volume 2517.560527
_symmetry_space_group_name_H-M "P N M A"
_symmetry_group_IT_number 62
_symmetry_cell_setting 'orthorhombic'
loop_
_space_group_symop_operation_xyz
x,y,z
1/2-x,-y,1/2+z
1/2+x,1/2-y,1/2-z
-x,1/2+y,-z
-x,-y,-z
1/2+x,y,1/2-z
1/2-x,1/2+y,1/2+z
x,1/2-y,z
loop_
_atom_site_type_symbol
_atom_site_label
_atom_site_fract_x
_atom_site_fract_y
_atom_site_fract_z
Si Si1 0.846334 0.809409 0.519570
Si Si2 0.247809 0.498510 0.451201
Si Si3 0.738790 0.940739 0.797973
Si Si4 0.632850 0.660806 0.375956
Si Si5 0.771658 0.112051 0.559492
Si Si6 0.855360 0.250000 0.776659
Si Si7 0.450841 0.393258 0.417028
Si Si8 0.283470 0.562040 0.201002
O O1 0.935122 0.750000 0.535044
O O2 0.670601 0.807334 0.449123
O O3 0.699599 0.838584 0.584353
O O4 0.036615 0.853560 0.487845
O O5 0.500000 0.500000 0.500000
O O6 0.214571 0.553105 0.410437
O O7 0.272432 0.444531 0.408241
O O8 0.000000 0.500000 0.500000
O O9 0.473193 0.933155 0.757576
O O10 0.816773 0.902882 0.863219
O O11 0.737478 0.001426 0.823805
O O12 0.336604 0.647172 0.377073
O O13 0.734610 0.697606 0.315019
O O14 0.766758 0.604683 0.362869
O O15 0.552876 0.104830 0.498425
O O16 0.657835 0.250000 0.711691
O O17 0.534100 0.569524 0.248992
#
# Coordination Sequence:
#
# PCOD9463509 Si02
#       8
#     8   8   8   8   8   4   8   8
#     4  11  24  41  64  94 130 175 226 279 342 394
#     4  10  19  36  58  95 129 163 208 252 326 400
#     4  10  23  41  68  99 132 167 212 266 328 408
#     4  11  24  40  60  90 127 174 226 284 319 384
#     4  10  23  37  63  93 131 171 209 280 335 401
#     4  12  28  44  64  88 120 180 234 282 318 364
#     4  10  22  41  64  95 131 172 213 271 342 412
#     4  10  22  41  62  93 130 174 218 269 326 387
#
# _framework density 23.832592999999999
#
# number of rings (size 3 to 8) (size 9 to 14) (size 15 to 20)
#    0.000    1.600    2.000    1.600    6.533    1.600 
#    2.400    0.000    0.000    0.800    0.000    0.000 
#    0.000    0.000    0.000    0.000    0.000    0.000 
#
# Total GULP energy -334626.980316 kJ/mol
# GULP energy per Si atom -5577.116339 kJ/mol
# Density = 2.377835 g / cm^3
# Si number density = 23.832593 Si / 1000 Ang^3
#
#
#
# Elastic Constant Matrix: (Units=GPa)
#
#
# Indices 1 2 3 4 5 6 
#
# 1 90.4598 29.2712 10.0422 0.0000 0.0000 0.0000
# 2 29.2712 146.4406 26.1800 0.0000 0.0000 0.0000
# 3 10.0422 26.1800 51.1895 0.0000 0.0000 0.0000
# 4 0.0000 0.0000 0.0000 34.7057 0.0000 0.0000
# 5 0.0000 0.0000 0.0000 0.0000 30.9030 0.0000
# 6 0.0000 0.0000 0.0000 0.0000 0.0000 22.1382
#
#
#
# Elastic Compliance Matrix: (Units=1/GPa)
#
#
# Indices 1 2 3 4 5 6 
#
# 1 0.011889 -0.002157 -0.001229 0.000000 0.000000 0.000000
# 2 -0.002157 0.007907 -0.003621 0.000000 0.000000 0.000000
# 3 -0.001229 -0.003621 0.021628 0.000000 0.000000 0.000000
# 4 0.000000 0.000000 0.000000 0.028814 0.000000 0.000000
# 5 0.000000 0.000000 0.000000 0.000000 0.032359 0.000000
# 6 0.000000 0.000000 0.000000 0.000000 0.000000 0.045171
#
#
# Mechanical properties :
#
#
# Convention : Reuss Voigt Hill
#
# Bulk Modulus (GPa) = 36.48227 46.56407 41.52317
# Shear Modulus (GPa) = 29.25366 32.38915 30.82141
#
# Velocity S-wave (km/s) = 3.50732 3.69050 3.60007
# Velocity P-wave (km/s) = 5.63406 6.14330 5.89418
#
# Compressibility (1/GPa) = 0.02741058
#
# Stress axis : x y z
#
# Youngs Moduli (GPa) = 84.11163 126.46848 46.23586
#
# Poissons Ratio (x) = 0.27275 0.05684
# Poissons Ratio (y) = 0.18140 0.16741
# Poissons Ratio (z) = 0.10340 0.45793
#
# Static dielectric constant tensor:
#      x y z
#    x 2.171310 0.000000 0.000000 
#    y 0.000000 1.994870 0.000000 
#    z 0.000000 0.000000 1.952920 
# 
# From -- ./inp_files/25415.got.cif
#   From: 2010.05.17/outbox.cif.g08.bks.cpg/sg62_13_cif.got.tgz:25415.got - 2010.06.03 15:25:27.
