data_PCOD9463712
_publ_section_title
;
Structure prediction by ZEFSAII (Michael W. Deem and Ramdas Pophale) SiO2 
 PCOD9463712
Probable space group: P N M A
;
_chemical_formula_sum "Si O2"
_cell_formula_units_Z 64
_cell_length_a 15.733667
_cell_length_b 8.532300
_cell_length_c 24.709266
_cell_angle_alpha 90.000000
_cell_angle_beta 90.000000
_cell_angle_gamma 90.000000
_cell_volume 3317.079772
_symmetry_space_group_name_H-M "P N M A"
_symmetry_group_IT_number 62
_symmetry_cell_setting 'orthorhombic'
loop_
_space_group_symop_operation_xyz
x,y,z
1/2-x,-y,1/2+z
1/2+x,1/2-y,1/2-z
-x,1/2+y,-z
-x,-y,-z
1/2+x,y,1/2-z
1/2-x,1/2+y,1/2+z
x,1/2-y,z
loop_
_atom_site_type_symbol
_atom_site_label
_atom_site_fract_x
_atom_site_fract_y
_atom_site_fract_z
Si Si1 0.604808 0.439492 0.253704
Si Si2 0.591398 0.561413 0.516128
Si Si3 0.648566 0.061676 0.131375
Si Si4 0.587226 0.563833 0.022831
Si Si5 0.747269 0.561195 0.949688
Si Si6 0.260219 0.562851 0.173334
Si Si7 0.094712 0.559715 0.753861
Si Si8 0.159230 0.559933 0.870576
O O1 0.609431 0.250000 0.259052
O O2 0.631555 0.483894 0.192904
O O3 0.673755 0.507644 0.295670
O O4 0.505115 0.483998 0.256298
O O5 0.500000 0.500000 0.500000
O O6 0.594402 0.750000 0.514347
O O7 0.666257 0.497505 0.477915
O O8 0.605718 0.508680 0.578127
O O9 0.640585 0.250000 0.128514
O O10 0.744459 0.014933 0.118075
O O11 0.592384 0.987691 0.085049
O O12 0.588293 0.750000 0.019663
O O13 0.500000 0.500000 0.000000
O O14 0.667937 0.506679 0.987207
O O15 0.747783 0.750000 0.948611
O O16 0.739326 0.501088 0.888102
O O17 0.261402 0.750000 0.172240
O O18 0.343353 0.503706 0.206808
O O19 0.098181 0.750000 0.750215
O O20 0.132050 0.506093 0.811516
O O21 0.155782 0.750000 0.868426
#
# Coordination Sequence:
#
# PCOD9463712 Si02
#       8
#     8   8   8   8   8   8   8   8
#     4  10  22  40  67  94 123 166 212 254 303 374
#     4  11  23  40  63  95 128 164 208 261 316 372
#     4  10  19  38  64  91 122 160 206 256 308 366
#     4  11  25  42  64  93 124 162 207 260 316 373
#     4  11  25  45  65  87 122 170 217 258 309 377
#     4  12  26  42  62  92 130 166 204 262 321 369
#     4  10  21  41  66  93 123 165 213 252 300 372
#     4   9  18  36  63  89 120 159 203 252 305 361
#
# _framework density 19.294079
#
# number of rings (size 3 to 8) (size 9 to 14) (size 15 to 20)
#    0.000    1.500    2.500    2.250    3.500    2.500 
#    0.000    1.250    0.000    0.000    0.000    0.000 
#    0.000    0.000    0.000    0.000    0.000    0.000 
#
# Total GULP energy -357363.628710 kJ/mol
# GULP energy per Si atom -5583.806699 kJ/mol
# Density = 1.925016 g / cm^3
# Si number density = 19.294079 Si / 1000 Ang^3
#
#
#
# Elastic Constant Matrix: (Units=GPa)
#
#
# Indices 1 2 3 4 5 6 
#
# 1 81.6297 18.8217 13.1570 0.0000 0.0000 0.0000
# 2 18.8217 45.4299 21.8279 0.0000 0.0000 0.0000
# 3 13.1570 21.8279 96.4101 0.0000 0.0000 0.0000
# 4 0.0000 0.0000 0.0000 25.9053 0.0000 0.0000
# 5 0.0000 0.0000 0.0000 0.0000 39.4748 0.0000
# 6 0.0000 0.0000 0.0000 0.0000 0.0000 27.0682
#
#
#
# Elastic Compliance Matrix: (Units=1/GPa)
#
#
# Indices 1 2 3 4 5 6 
#
# 1 0.013581 -0.005314 -0.000650 0.000000 0.000000 0.000000
# 2 -0.005314 0.026778 -0.005338 0.000000 0.000000 0.000000
# 3 -0.000650 -0.005338 0.011670 0.000000 0.000000 0.000000
# 4 0.000000 0.000000 0.000000 0.038602 0.000000 0.000000
# 5 0.000000 0.000000 0.000000 0.000000 0.025333 0.000000
# 6 0.000000 0.000000 0.000000 0.000000 0.000000 0.036944
#
#
# Mechanical properties :
#
#
# Convention : Reuss Voigt Hill
#
# Bulk Modulus (GPa) = 33.98514 36.78700 35.38607
# Shear Modulus (GPa) = 26.98060 29.80054 28.39057
#
# Velocity S-wave (km/s) = 3.74356 3.93433 3.84013
# Velocity P-wave (km/s) = 6.02811 6.30448 6.16785
#
# Compressibility (1/GPa) = 0.02942462
#
# Stress axis : x y z
#
# Youngs Moduli (GPa) = 73.63486 37.34395 85.69316
#
# Poissons Ratio (x) = 0.19845 0.05572
# Poissons Ratio (y) = 0.39130 0.45739
# Poissons Ratio (z) = 0.04788 0.19932
#
# Static dielectric constant tensor:
#      x y z
#    x 1.691860 0.000000 0.000000 
#    y 0.000000 1.670260 0.000000 
#    z 0.000000 0.000000 1.706330 
# 
# From -- ./inp_files/29778.got.cif
#   From: 2010.05.17/outbox.cif.g08.bks.cpg/sg62_15_cif.got.tgz:29778.got - 2010.06.03 15:25:27.
