data_PCOD9463199
_publ_section_title
;
Structure prediction by ZEFSAII (Michael W. Deem and Ramdas Pophale) SiO2 
 PCOD9463199
Probable space group: P N M A
;
_chemical_formula_sum "Si O2"
_cell_formula_units_Z 64
_cell_length_a 17.051801
_cell_length_b 8.647413
_cell_length_c 20.994705
_cell_angle_alpha 90.000000
_cell_angle_beta 90.000000
_cell_angle_gamma 90.000000
_cell_volume 3095.752510
_symmetry_space_group_name_H-M "P N M A"
_symmetry_group_IT_number 62
_symmetry_cell_setting 'orthorhombic'
loop_
_space_group_symop_operation_xyz
x,y,z
1/2-x,-y,1/2+z
1/2+x,1/2-y,1/2-z
-x,1/2+y,-z
-x,-y,-z
1/2+x,y,1/2-z
1/2-x,1/2+y,1/2+z
x,1/2-y,z
loop_
_atom_site_type_symbol
_atom_site_label
_atom_site_fract_x
_atom_site_fract_y
_atom_site_fract_z
Si Si1 0.711252 0.434620 0.113045
Si Si2 0.952978 0.562708 0.654449
Si Si3 0.220508 0.065180 0.110022
Si Si4 0.846407 0.435711 0.016073
Si Si5 0.040043 0.427480 0.885056
Si Si6 0.407004 0.564154 0.703161
Si Si7 0.877503 0.565140 0.353103
Si Si8 0.182898 0.072079 0.784011
O O1 0.709934 0.250000 0.108443
O O2 0.621528 0.488898 0.112323
O O3 0.771466 0.489300 0.058998
O O4 0.749142 0.477985 0.181055
O O5 0.955644 0.750000 0.654617
O O6 0.933736 0.509370 0.727059
O O7 0.036892 0.500844 0.633041
O O8 0.227409 0.250000 0.110575
O O9 0.177150 0.012915 0.175326
O O10 0.306060 0.990632 0.103271
O O11 0.166063 0.010898 0.052190
O O12 0.845841 0.250000 0.011700
O O13 0.923798 0.490454 0.053193
O O14 0.018693 0.250000 0.899430
O O15 0.110715 0.427540 0.833605
O O16 0.969907 0.512417 0.849352
O O17 0.405219 0.750000 0.706174
O O18 0.881710 0.750000 0.352962
O O19 0.851046 0.510795 0.282311
O O20 0.208336 0.250000 0.775086
#
# Coordination Sequence:
#
# PCOD9463199 Si02
#       8
#     8   8   8   8   8   8   8   8
#     4   9  19  35  58  84 110 145 190 235 281 335
#     4  10  20  36  58  86 116 145 181 230 284 340
#     4  11  24  41  59  82 112 152 196 239 286 339
#     4  10  21  39  60  83 113 151 197 242 285 336
#     4  10  19  34  57  85 117 152 187 229 279 336
#     4  10  21  36  57  86 118 148 186 232 284 342
#     4  11  22  37  56  83 116 149 185 230 285 341
#     4   9  18  32  52  81 114 145 179 221 278 336
#
# _framework density 20.673487000000002
#
# number of rings (size 3 to 8) (size 9 to 14) (size 15 to 20)
#    0.000    2.000    1.250    2.250    0.000    5.000 
#    0.000    0.625    0.000    0.000    0.000    0.000 
#    0.000    0.000    0.000    0.000    0.000    0.000 
#
# Total GULP energy -357435.016853 kJ/mol
# GULP energy per Si atom -5584.922138 kJ/mol
# Density = 2.062643 g / cm^3
# Si number density = 20.673487 Si / 1000 Ang^3
#
#
#
# Elastic Constant Matrix: (Units=GPa)
#
#
# Indices 1 2 3 4 5 6 
#
# 1 66.4575 -2.4118 -10.9259 0.0000 0.0000 0.0000
# 2 -2.4118 6.4704 0.6732 0.0000 0.0000 0.0000
# 3 -10.9259 0.6732 31.5207 0.0000 0.0000 0.0000
# 4 0.0000 0.0000 0.0000 23.2246 0.0000 0.0000
# 5 0.0000 0.0000 0.0000 0.0000 26.1875 0.0000
# 6 0.0000 0.0000 0.0000 0.0000 0.0000 14.1279
#
#
#
# Elastic Compliance Matrix: (Units=1/GPa)
#
#
# Indices 1 2 3 4 5 6 
#
# 1 0.016146 0.005448 0.005480 0.000000 0.000000 0.000000
# 2 0.005448 0.156733 -0.001459 0.000000 0.000000 0.000000
# 3 0.005480 -0.001459 0.033656 0.000000 0.000000 0.000000
# 4 0.000000 0.000000 0.000000 0.043058 0.000000 0.000000
# 5 0.000000 0.000000 0.000000 0.000000 0.038186 0.000000
# 6 0.000000 0.000000 0.000000 0.000000 0.000000 0.070782
#
#
# Mechanical properties :
#
#
# Convention : Reuss Voigt Hill
#
# Bulk Modulus (GPa) = 4.43508 8.79104 6.61306
# Shear Modulus (GPa) = 12.05458 20.51554 16.28506
#
# Velocity S-wave (km/s) = 2.41735 3.15359 2.80969
# Velocity P-wave (km/s) = 3.15300 4.18590 3.70562
#
# Compressibility (1/GPa) = 0.22547486
#
# Stress axis : x y z
#
# Youngs Moduli (GPa) = 61.93517 6.38026 29.71245
#
# Poissons Ratio (x) = -0.03476 -0.16283
# Poissons Ratio (y) = -0.33744 0.04334
# Poissons Ratio (z) = -0.33942 0.00931
#
# Static dielectric constant tensor:
#      x y z
#    x 1.756250 0.000000 0.000000 
#    y 0.000000 1.698670 0.000000 
#    z 0.000000 0.000000 1.752570 
# 
# From -- ./inp_files/29812.got.cif
#   From: 2010.05.17/outbox.cif.g08.bks.cpg/sg62_15_cif.got.tgz:29812.got - 2010.06.03 15:25:27.
