data_PCOD9463196
_publ_section_title
;
Structure prediction by ZEFSAII (Michael W. Deem and Ramdas Pophale) SiO2 
 PCOD9463196
Probable space group: P N M A
;
_chemical_formula_sum "Si O2"
_cell_formula_units_Z 48
_cell_length_a 10.450184
_cell_length_b 8.618525
_cell_length_c 30.070150
_cell_angle_alpha 90.000000
_cell_angle_beta 90.000000
_cell_angle_gamma 90.000000
_cell_volume 2708.273234
_symmetry_space_group_name_H-M "P N M A"
_symmetry_group_IT_number 62
_symmetry_cell_setting 'orthorhombic'
loop_
_space_group_symop_operation_xyz
x,y,z
1/2-x,-y,1/2+z
1/2+x,1/2-y,1/2-z
-x,1/2+y,-z
-x,-y,-z
1/2+x,y,1/2-z
1/2-x,1/2+y,1/2+z
x,1/2-y,z
loop_
_atom_site_type_symbol
_atom_site_label
_atom_site_fract_x
_atom_site_fract_y
_atom_site_fract_z
Si Si1 0.990428 0.561661 0.216179
Si Si2 0.284206 0.938407 0.211258
Si Si3 0.485428 0.936314 0.384969
Si Si4 0.379975 0.064374 0.472391
Si Si5 0.728962 0.564941 0.886282
Si Si6 0.623395 0.436212 0.975041
O O1 0.988817 0.750000 0.217181
O O2 0.138351 0.515085 0.223778
O O3 0.954603 0.516119 0.165722
O O4 0.888894 0.508962 0.252844
O O5 0.286189 0.750000 0.208950
O O6 0.310925 0.003678 0.162242
O O7 0.487955 0.750000 0.387200
O O8 0.392208 0.001325 0.422433
O O9 0.628479 0.997691 0.394590
O O10 0.387312 0.250000 0.471862
O O11 0.249608 0.018205 0.496919
O O12 0.500000 0.000000 0.500000
O O13 0.734093 0.750000 0.886455
O O14 0.639687 0.504301 0.925740
O O15 0.619106 0.250000 0.972557
O O16 0.500000 0.500000 0.000000
#
# Coordination Sequence:
#
# PCOD9463196 Si02
#       6
#     8   8   8   8   8   8
#     4   8  16  31  54  78 106 138 179 226 272 326
#     4   9  17  34  56  79 106 141 182 227 274 328
#     4  10  19  34  57  85 113 144 188 235 276 327
#     4  11  22  36  59  86 114 147 187 231 279 333
#     4  11  21  35  57  82 111 149 189 227 279 338
#     4  11  24  41  59  82 115 151 189 233 283 337
#
# _framework density 17.723469999999999
#
# number of rings (size 3 to 8) (size 9 to 14) (size 15 to 20)
#    0.000    2.000    1.667    4.000    0.000    2.000 
#    3.000    4.167    0.000    0.000    0.000    0.000 
#    0.000    0.000    0.000    0.000    0.000    0.000 
#
# Total GULP energy -267943.787987 kJ/mol
# GULP energy per Si atom -5582.162250 kJ/mol
# Density = 1.768313 g / cm^3
# Si number density = 17.723470 Si / 1000 Ang^3
#
#
#
# Elastic Constant Matrix: (Units=GPa)
#
#
# Indices 1 2 3 4 5 6 
#
# 1 119.6601 37.3587 99.0086 0.0000 0.0000 0.0000
# 2 37.3587 49.2822 36.0906 0.0000 0.0000 0.0000
# 3 99.0086 36.0906 164.0519 0.0000 0.0000 0.0000
# 4 0.0000 0.0000 0.0000 30.1841 0.0000 0.0000
# 5 0.0000 0.0000 0.0000 0.0000 38.5608 0.0000
# 6 0.0000 0.0000 0.0000 0.0000 0.0000 21.7873
#
#
#
# Elastic Compliance Matrix: (Units=1/GPa)
#
#
# Indices 1 2 3 4 5 6 
#
# 1 0.018506 -0.006973 -0.009635 0.000000 0.000000 0.000000
# 2 -0.006973 0.026815 -0.001691 0.000000 0.000000 0.000000
# 3 -0.009635 -0.001691 0.012282 0.000000 0.000000 0.000000
# 4 0.000000 0.000000 0.000000 0.033130 0.000000 0.000000
# 5 0.000000 0.000000 0.000000 0.000000 0.025933 0.000000
# 6 0.000000 0.000000 0.000000 0.000000 0.000000 0.045898
#
#
# Mechanical properties :
#
#
# Convention : Reuss Voigt Hill
#
# Bulk Modulus (GPa) = 47.60394 75.32332 61.46363
# Shear Modulus (GPa) = 24.25253 28.80887 26.53070
#
# Velocity S-wave (km/s) = 3.70318 4.03608 3.87321
# Velocity P-wave (km/s) = 6.72327 8.01944 7.39979
#
# Compressibility (1/GPa) = 0.02100666
#
# Stress axis : x y z
#
# Youngs Moduli (GPa) = 54.03711 37.29196 81.41761
#
# Poissons Ratio (x) = 0.26003 0.78443
# Poissons Ratio (y) = 0.37679 0.13768
# Poissons Ratio (z) = 0.52063 0.06306
#
# Static dielectric constant tensor:
#      x y z
#    x 1.573230 0.000000 0.000000 
#    y 0.000000 1.695350 0.000000 
#    z 0.000000 0.000000 1.604360 
# 
# From -- ./inp_files/32003.got.cif
#   From: 2010.05.17/outbox.cif.g08.bks.cpg/sg62_17_cif.got.tgz:32003.got - 2010.06.03 15:25:27.
