data_PCOD9463482
_publ_section_title
;
Structure prediction by ZEFSAII (Michael W. Deem and Ramdas Pophale) SiO2 
 PCOD9463482
Probable space group: P N M A
;
_chemical_formula_sum "Si O2"
_cell_formula_units_Z 64
_cell_length_a 17.057821
_cell_length_b 24.128793
_cell_length_c 8.019512
_cell_angle_alpha 90.000000
_cell_angle_beta 90.000000
_cell_angle_gamma 90.000000
_cell_volume 3300.707895
_symmetry_space_group_name_H-M "P N M A"
_symmetry_group_IT_number 62
_symmetry_cell_setting 'orthorhombic'
loop_
_space_group_symop_operation_xyz
x,y,z
1/2-x,-y,1/2+z
1/2+x,1/2-y,1/2-z
-x,1/2+y,-z
-x,-y,-z
1/2+x,y,1/2-z
1/2-x,1/2+y,1/2+z
x,1/2-y,z
loop_
_atom_site_type_symbol
_atom_site_label
_atom_site_fract_x
_atom_site_fract_y
_atom_site_fract_z
Si Si1 0.116709 0.188946 0.228065
Si Si2 0.891432 0.967656 0.090940
Si Si3 0.257350 0.025544 0.244991
Si Si4 0.826638 0.071008 0.601909
Si Si5 0.587878 0.430836 0.245168
Si Si6 0.396401 0.688831 0.106891
Si Si7 0.298371 0.849387 0.412311
Si Si8 0.487724 0.926006 0.103448
O O1 0.080057 0.250000 0.203648
O O2 0.065557 0.132914 0.212321
O O3 0.141661 0.186561 0.422037
O O4 0.181249 0.181281 0.084107
O O5 0.830080 0.016718 0.129483
O O6 0.842843 0.909278 0.083806
O O7 0.947343 0.959415 0.247354
O O8 0.071608 0.032127 0.092491
O O9 0.213381 0.965990 0.253201
O O10 0.183001 0.065257 0.284144
O O11 0.296580 0.042478 0.070606
O O12 0.791089 0.132464 0.604536
O O13 0.919296 0.071256 0.610774
O O14 0.545471 0.446243 0.074854
O O15 0.433006 0.750000 0.122992
O O16 0.333596 0.681362 0.253478
O O17 0.456502 0.637639 0.118432
#
# Coordination Sequence:
#
# PCOD9463482 Si02
#       8
#     8   8   8   8   8   8   8   8
#     4   9  16  30  56  86 109 141 191 238 281 343
#     4   9  19  35  55  81 111 153 197 234 291 355
#     4  11  19  37  58  77 115 152 205 243 281 357
#     4  11  23  39  56  87 117 159 200 246 304 350
#     4  10  19  36  56  84 116 152 196 242 297 355
#     4   9  18  34  61  88 111 152 193 235 296 356
#     4   9  17  35  55  81 115 147 193 235 280 350
#     4  10  22  38  58  83 127 148 188 253 303 354
#
# _framework density 19.389779999999998
#
# number of rings (size 3 to 8) (size 9 to 14) (size 15 to 20)
#    0.000    2.250    3.750    1.125    0.000    3.000 
#    2.250    2.500    0.000    0.000    0.000    7.000 
#    0.000    0.000    0.000    0.000    0.000    0.000 
#
# Total GULP energy -356496.678735 kJ/mol
# GULP energy per Si atom -5570.260605 kJ/mol
# Density = 1.934565 g / cm^3
# Si number density = 19.389780 Si / 1000 Ang^3
#
#
#
# Elastic Constant Matrix: (Units=GPa)
#
#
# Indices 1 2 3 4 5 6 
#
# 1 114.9924 27.1390 60.5525 0.0000 0.0000 0.0000
# 2 27.1390 81.2240 30.6122 0.0000 0.0000 0.0000
# 3 60.5525 30.6122 129.4835 0.0000 0.0000 0.0000
# 4 0.0000 0.0000 0.0000 28.8372 0.0000 0.0000
# 5 0.0000 0.0000 0.0000 0.0000 27.2318 0.0000
# 6 0.0000 0.0000 0.0000 0.0000 0.0000 17.0134
#
#
#
# Elastic Compliance Matrix: (Units=1/GPa)
#
#
# Indices 1 2 3 4 5 6 
#
# 1 0.011841 -0.002052 -0.005052 0.000000 0.000000 0.000000
# 2 -0.002052 0.013872 -0.002320 0.000000 0.000000 0.000000
# 3 -0.005052 -0.002320 0.010634 0.000000 0.000000 0.000000
# 4 0.000000 0.000000 0.000000 0.034677 0.000000 0.000000
# 5 0.000000 0.000000 0.000000 0.000000 0.036722 0.000000
# 6 0.000000 0.000000 0.000000 0.000000 0.000000 0.058777
#
#
# Mechanical properties :
#
#
# Convention : Reuss Voigt Hill
#
# Bulk Modulus (GPa) = 57.14869 62.47859 59.81364
# Shear Modulus (GPa) = 26.15007 28.44290 27.29649
#
# Velocity S-wave (km/s) = 3.67638 3.83417 3.75611
# Velocity P-wave (km/s) = 6.89628 7.20372 7.05167
#
# Compressibility (1/GPa) = 0.01749821
#
# Stress axis : x y z
#
# Youngs Moduli (GPa) = 84.45269 72.08949 94.03745
#
# Poissons Ratio (x) = 0.14795 0.47509
# Poissons Ratio (y) = 0.17332 0.21815
# Poissons Ratio (z) = 0.42667 0.16723
#
# Static dielectric constant tensor:
#      x y z
#    x 1.688980 0.000000 0.000000 
#    y 0.000000 1.746230 0.000000 
#    z 0.000000 0.000000 1.729640 
# 
# From -- ./inp_files/6951.got.cif
#   From: 2010.05.17/outbox.cif.g08.bks.cpg/sg62_4_cif.got.tgz:6951.got - 2010.06.03 15:25:27.
