data_PCOD9463856
_publ_section_title
;
Structure prediction by ZEFSAII (Michael W. Deem and Ramdas Pophale) SiO2 
 PCOD9463856
Probable space group: P N M A
;
_chemical_formula_sum "Si O2"
_cell_formula_units_Z 48
_cell_length_a 29.309815
_cell_length_b 15.769287
_cell_length_c 5.032772
_cell_angle_alpha 90.000000
_cell_angle_beta 90.000000
_cell_angle_gamma 90.000000
_cell_volume 2326.121474
_symmetry_space_group_name_H-M "P N M A"
_symmetry_group_IT_number 62
_symmetry_cell_setting 'orthorhombic'
loop_
_space_group_symop_operation_xyz
x,y,z
1/2-x,-y,1/2+z
1/2+x,1/2-y,1/2-z
-x,1/2+y,-z
-x,-y,-z
1/2+x,y,1/2-z
1/2-x,1/2+y,1/2+z
x,1/2-y,z
loop_
_atom_site_type_symbol
_atom_site_label
_atom_site_fract_x
_atom_site_fract_y
_atom_site_fract_z
Si Si1 0.511530 0.750000 0.829570
Si Si2 0.568220 0.071242 0.493139
Si Si3 0.231649 0.953515 0.240336
Si Si4 0.474428 0.063652 0.201345
Si Si5 0.811117 0.652602 0.141034
Si Si6 0.651959 0.442221 0.139041
Si Si7 0.550795 0.250000 0.677224
O O1 0.535993 0.659919 0.889033
O O2 0.492151 0.750000 0.528314
O O3 0.467466 0.750000 0.023463
O O4 0.515183 0.077838 0.412419
O O5 0.600425 0.056694 0.241445
O O6 0.577657 0.163174 0.620093
O O7 0.567812 0.988505 0.679241
O O8 0.242120 0.980623 0.938799
O O9 0.257675 0.867001 0.303739
O O10 0.179059 0.970017 0.309720
O O11 0.500000 0.000000 0.000000
O O12 0.821555 0.750000 0.187109
O O13 0.838061 0.591653 0.346174
O O14 0.823779 0.623384 0.844732
#
# Coordination Sequence:
#
# PCOD9463856 Si02
#       7
#     4   8   8   8   8   8   4
#     4  10  20  36  54  74  98 138 185 227 264 324
#     4  10  22  34  53  81 111 144 183 225 278 326
#     4   8  16  33  51  70 100 139 171 197 252 314
#     4  10  20  37  55  76 106 150 187 224 277 328
#     4  10  20  33  53  82 110 139 171 215 269 325
#     4  10  21  34  52  80 110 141 173 221 264 324
#     4  10  20  32  50  78 108 132 169 229 278 318
#
# _framework density 20.635207000000001
#
# number of rings (size 3 to 8) (size 9 to 14) (size 15 to 20)
#    0.000    2.333    1.667    0.500    4.667    0.000 
#    0.000    0.000    1.833    0.000    0.000    0.000 
#    0.000    0.000    0.000    0.000    0.000    0.000 
#
# Total GULP energy -267486.737697 kJ/mol
# GULP energy per Si atom -5572.640369 kJ/mol
# Density = 2.058824 g / cm^3
# Si number density = 20.635207 Si / 1000 Ang^3
#
#
#
# Elastic Constant Matrix: (Units=GPa)
#
#
# Indices 1 2 3 4 5 6 
#
# 1 51.8054 26.2127 -1.9148 0.0000 0.0000 0.0000
# 2 26.2127 130.5332 12.6580 0.0000 0.0000 0.0000
# 3 -1.9148 12.6580 54.7589 0.0000 0.0000 0.0000
# 4 0.0000 0.0000 0.0000 18.4062 0.0000 0.0000
# 5 0.0000 0.0000 0.0000 0.0000 28.3523 0.0000
# 6 0.0000 0.0000 0.0000 0.0000 0.0000 25.7117
#
#
#
# Elastic Compliance Matrix: (Units=1/GPa)
#
#
# Indices 1 2 3 4 5 6 
#
# 1 0.021659 -0.004524 0.001803 0.000000 0.000000 0.000000
# 2 -0.004524 0.008782 -0.002188 0.000000 0.000000 0.000000
# 3 0.001803 -0.002188 0.018831 0.000000 0.000000 0.000000
# 4 0.000000 0.000000 0.000000 0.054330 0.000000 0.000000
# 5 0.000000 0.000000 0.000000 0.000000 0.035270 0.000000
# 6 0.000000 0.000000 0.000000 0.000000 0.000000 0.038893
#
#
# Mechanical properties :
#
#
# Convention : Reuss Voigt Hill
#
# Bulk Modulus (GPa) = 25.34677 34.55659 29.95168
# Shear Modulus (GPa) = 24.90868 27.83682 26.37275
#
# Velocity S-wave (km/s) = 3.47810 3.67685 3.57886
# Velocity P-wave (km/s) = 5.33287 5.89987 5.62352
#
# Compressibility (1/GPa) = 0.03945277
#
# Stress axis : x y z
#
# Youngs Moduli (GPa) = 46.17054 113.87452 53.10466
#
# Poissons Ratio (x) = 0.51519 -0.09576
# Poissons Ratio (y) = 0.20889 0.11620
# Poissons Ratio (z) = -0.08325 0.24917
#
# Static dielectric constant tensor:
#      x y z
#    x 1.800770 0.000000 0.000000 
#    y 0.000000 1.791220 0.000000 
#    z 0.000000 0.000000 1.776670 
# 
# From -- ./inp_files/3219.got.cif
#   From: 2010.05.17/outbox.cif.g08.bks.cpg/sg62_2_cif.got.tgz:3219.got - 2010.06.03 15:25:27.
