data_PCOD9463035
_publ_section_title
;
Structure prediction by ZEFSAII (Michael W. Deem and Ramdas Pophale) SiO2 
 PCOD9463035
Probable space group: P N M A
;
_chemical_formula_sum "Si O2"
_cell_formula_units_Z 64
_cell_length_a 28.699139
_cell_length_b 8.219161
_cell_length_c 13.017733
_cell_angle_alpha 90.000000
_cell_angle_beta 90.000000
_cell_angle_gamma 90.000000
_cell_volume 3070.659883
_symmetry_space_group_name_H-M "P N M A"
_symmetry_group_IT_number 62
_symmetry_cell_setting 'orthorhombic'
loop_
_space_group_symop_operation_xyz
x,y,z
1/2-x,-y,1/2+z
1/2+x,1/2-y,1/2-z
-x,1/2+y,-z
-x,-y,-z
1/2+x,y,1/2-z
1/2-x,1/2+y,1/2+z
x,1/2-y,z
loop_
_atom_site_type_symbol
_atom_site_label
_atom_site_fract_x
_atom_site_fract_y
_atom_site_fract_z
Si Si1 0.938914 0.937887 0.905079
Si Si2 0.461555 0.056190 0.812137
Si Si3 0.911570 0.556072 0.122776
Si Si4 0.438037 0.947980 0.149412
Si Si5 0.191697 0.942904 0.924840
Si Si6 0.339117 0.438127 0.646262
Si Si7 0.708736 0.443269 0.148877
Si Si8 0.120867 0.943875 0.456794
O O1 0.952997 0.750000 0.908276
O O2 0.964371 0.020798 0.809376
O O3 0.884512 0.952856 0.872185
O O4 0.938719 0.009073 0.021221
O O5 0.460221 0.250000 0.823330
O O6 0.508551 0.997813 0.867184
O O7 0.414914 0.993931 0.867864
O O8 0.919166 0.750000 0.120858
O O9 0.925757 0.496917 0.235019
O O10 0.856607 0.523144 0.109027
O O11 0.436009 0.750000 0.146105
O O12 0.403393 0.015603 0.064299
O O13 0.187443 0.750000 0.903187
O O14 0.239404 0.004506 0.875648
O O15 0.193739 0.960610 0.047931
O O16 0.355570 0.250000 0.647461
O O17 0.312707 0.476359 0.750101
O O18 0.711320 0.250000 0.164133
O O19 0.671362 0.478854 0.059631
O O20 0.125855 0.750000 0.445808
#
# Coordination Sequence:
#
# PCOD9463035 Si02
#       8
#     8   8   8   8   8   8   8   8
#     4  10  19  33  57  85 112 145 188 236 281 335
#     4  10  21  37  58  84 115 152 193 238 289 341
#     4   9  20  38  58  83 115 151 192 236 288 343
#     4  10  22  40  59  81 117 159 192 234 291 346
#     4   9  21  38  57  82 113 148 188 232 286 343
#     4  10  19  35  56  79 109 145 184 231 281 332
#     4  11  22  37  58  85 113 147 189 234 286 343
#     4  11  23  38  57  84 115 149 195 242 284 339
#
# _framework density 20.842426
#
# number of rings (size 3 to 8) (size 9 to 14) (size 15 to 20)
#    0.000    2.000    1.250    1.875    0.000    5.000 
#    0.000    3.750    0.000    0.000    0.000    0.000 
#    0.000    0.000    0.000    0.000    0.000    0.000 
#
# Total GULP energy -357359.711840 kJ/mol
# GULP energy per Si atom -5583.745498 kJ/mol
# Density = 2.079499 g / cm^3
# Si number density = 20.842426 Si / 1000 Ang^3
#
#
#
# Elastic Constant Matrix: (Units=GPa)
#
#
# Indices 1 2 3 4 5 6 
#
# 1 49.8267 -3.6993 9.5365 0.0000 0.0000 0.0000
# 2 -3.6993 11.4398 -2.9018 0.0000 0.0000 0.0000
# 3 9.5365 -2.9018 88.4516 0.0000 0.0000 0.0000
# 4 0.0000 0.0000 0.0000 19.7025 0.0000 0.0000
# 5 0.0000 0.0000 0.0000 0.0000 21.8653 0.0000
# 6 0.0000 0.0000 0.0000 0.0000 0.0000 13.5942
#
#
#
# Elastic Compliance Matrix: (Units=1/GPa)
#
#
# Indices 1 2 3 4 5 6 
#
# 1 0.020926 0.006247 -0.002051 0.000000 0.000000 0.000000
# 2 0.006247 0.090012 0.002280 0.000000 0.000000 0.000000
# 3 -0.002051 0.002280 0.011602 0.000000 0.000000 0.000000
# 4 0.000000 0.000000 0.000000 0.050755 0.000000 0.000000
# 5 0.000000 0.000000 0.000000 0.000000 0.045735 0.000000
# 6 0.000000 0.000000 0.000000 0.000000 0.000000 0.073561
#
#
# Mechanical properties :
#
#
# Convention : Reuss Voigt Hill
#
# Bulk Modulus (GPa) = 7.38064 17.28764 12.33414
# Shear Modulus (GPa) = 15.39392 20.81792 18.10592
#
# Velocity S-wave (km/s) = 2.72064 3.16385 2.95058
# Velocity P-wave (km/s) = 3.66306 4.65393 4.18790
#
# Compressibility (1/GPa) = 0.13548965
#
# Stress axis : x y z
#
# Youngs Moduli (GPa) = 47.78762 11.10958 86.19533
#
# Poissons Ratio (x) = -0.06940 0.17681
# Poissons Ratio (y) = -0.29851 -0.19649
# Poissons Ratio (z) = 0.09802 -0.02532
#
# Static dielectric constant tensor:
#      x y z
#    x 1.744120 0.000000 0.000000 
#    y 0.000000 1.729050 0.000000 
#    z 0.000000 0.000000 1.764050 
# 
# From -- ./inp_files/15912.got.cif
#   From: 2010.05.17/outbox.cif.g08.bks.cpg/sg62_8_cif.got.tgz:15912.got - 2010.06.03 15:25:27.
