data_PCOD9463207
_publ_section_title
;
Structure prediction by ZEFSAII (Michael W. Deem and Ramdas Pophale) SiO2 
 PCOD9463207
Probable space group: P N M A
;
_chemical_formula_sum "Si O2"
_cell_formula_units_Z 64
_cell_length_a 19.382671
_cell_length_b 13.661607
_cell_length_c 12.160798
_cell_angle_alpha 90.000000
_cell_angle_beta 90.000000
_cell_angle_gamma 90.000000
_cell_volume 3220.160264
_symmetry_space_group_name_H-M "P N M A"
_symmetry_group_IT_number 62
_symmetry_cell_setting 'orthorhombic'
loop_
_space_group_symop_operation_xyz
x,y,z
1/2-x,-y,1/2+z
1/2+x,1/2-y,1/2-z
-x,1/2+y,-z
-x,-y,-z
1/2+x,y,1/2-z
1/2-x,1/2+y,1/2+z
x,1/2-y,z
loop_
_atom_site_type_symbol
_atom_site_label
_atom_site_fract_x
_atom_site_fract_y
_atom_site_fract_z
Si Si1 0.470362 0.545078 0.858557
Si Si2 0.654026 0.137741 0.240156
Si Si3 0.571028 0.637738 0.284352
Si Si4 0.434749 0.857098 0.430411
Si Si5 0.387569 0.999259 0.068505
Si Si6 0.815082 0.638961 0.254022
Si Si7 0.273724 0.019551 0.909409
Si Si8 0.350678 0.504597 0.566782
O O1 0.427488 0.615898 0.778563
O O2 0.450782 0.436023 0.813630
O O3 0.552853 0.555715 0.863676
O O4 0.436221 0.557224 0.979357
O O5 0.669591 0.250000 0.230048
O O6 0.692431 0.073069 0.149621
O O7 0.675541 0.092682 0.356219
O O8 0.584989 0.750000 0.251472
O O9 0.506826 0.638107 0.368375
O O10 0.630983 0.585119 0.354231
O O11 0.429509 0.750000 0.487284
O O12 0.376926 0.858217 0.335121
O O13 0.417375 0.948237 0.507776
O O14 0.342937 0.929004 0.147356
O O15 0.331864 0.057390 0.994678
O O16 0.801170 0.750000 0.290788
O O17 0.751907 0.593732 0.184451
O O18 0.207181 0.985099 0.977240
#
# Coordination Sequence:
#
# PCOD9463207 Si02
#       8
#     8   8   8   8   8   8   8   8
#     4   9  20  36  58  88 115 146 198 251 297 343
#     4  10  21  39  59  80 115 160 201 244 298 361
#     4  10  19  34  57  88 122 152 192 247 300 347
#     4   9  17  31  55  87 115 151 198 241 289 348
#     4  10  19  37  59  82 117 155 188 240 297 343
#     4  10  20  36  62  91 118 154 201 243 289 357
#     4  10  22  38  57  87 121 155 199 242 294 354
#     4  10  20  35  57  85 118 158 195 242 295 355
#
# _framework density 19.874787999999999
#
# number of rings (size 3 to 8) (size 9 to 14) (size 15 to 20)
#    0.000    2.250    1.250    1.500    0.000    3.000 
#    0.000   13.125    0.000    1.500    0.000    0.000 
#    0.000    0.000    0.000    0.000    0.000    0.000 
#
# Total GULP energy -356755.758882 kJ/mol
# GULP energy per Si atom -5574.308733 kJ/mol
# Density = 1.982955 g / cm^3
# Si number density = 19.874788 Si / 1000 Ang^3
#
#
#
# Elastic Constant Matrix: (Units=GPa)
#
#
# Indices 1 2 3 4 5 6 
#
# 1 96.7250 38.7162 34.5644 0.0000 0.0000 0.0000
# 2 38.7162 65.6812 32.2972 0.0000 0.0000 0.0000
# 3 34.5644 32.2972 75.1263 0.0000 0.0000 0.0000
# 4 0.0000 0.0000 0.0000 12.7194 0.0000 0.0000
# 5 0.0000 0.0000 0.0000 0.0000 40.5226 0.0000
# 6 0.0000 0.0000 0.0000 0.0000 0.0000 12.8946
#
#
#
# Elastic Compliance Matrix: (Units=1/GPa)
#
#
# Indices 1 2 3 4 5 6 
#
# 1 0.014320 -0.006595 -0.003753 0.000000 0.000000 0.000000
# 2 -0.006595 0.022344 -0.006571 0.000000 0.000000 0.000000
# 3 -0.003753 -0.006571 0.017863 0.000000 0.000000 0.000000
# 4 0.000000 0.000000 0.000000 0.078620 0.000000 0.000000
# 5 0.000000 0.000000 0.000000 0.000000 0.024678 0.000000
# 6 0.000000 0.000000 0.000000 0.000000 0.000000 0.077552
#
#
# Mechanical properties :
#
#
# Convention : Reuss Voigt Hill
#
# Bulk Modulus (GPa) = 48.33945 49.85424 49.09684
# Shear Modulus (GPa) = 18.10867 22.02430 20.06649
#
# Velocity S-wave (km/s) = 3.02178 3.33250 3.18094
# Velocity P-wave (km/s) = 6.04563 6.32029 6.18449
#
# Compressibility (1/GPa) = 0.02068704
#
# Stress axis : x y z
#
# Youngs Moduli (GPa) = 69.83445 44.75458 55.98283
#
# Poissons Ratio (x) = 0.29517 0.21009
# Poissons Ratio (y) = 0.46059 0.36789
# Poissons Ratio (z) = 0.26208 0.29410
#
# Static dielectric constant tensor:
#      x y z
#    x 1.757070 0.000000 0.000000 
#    y 0.000000 1.686660 0.000000 
#    z 0.000000 0.000000 1.740650 
# 
# From -- ./inp_files/14334.got.cif
#   From: 2010.05.17/outbox.cif.g08.bks.cpg/sg62_8_cif.got.tgz:14334.got - 2010.06.03 15:25:27.
