data_PCOD9463279
_publ_section_title
;
Structure prediction by ZEFSAII (Michael W. Deem and Ramdas Pophale) SiO2 
 PCOD9463279
Probable space group: P N M A
;
_chemical_formula_sum "Si O2"
_cell_formula_units_Z 48
_cell_length_a 5.658017
_cell_length_b 13.848291
_cell_length_c 27.144416
_cell_angle_alpha 90.000000
_cell_angle_beta 90.000000
_cell_angle_gamma 90.000000
_cell_volume 2126.869931
_symmetry_space_group_name_H-M "P N M A"
_symmetry_group_IT_number 62
_symmetry_cell_setting 'orthorhombic'
loop_
_space_group_symop_operation_xyz
x,y,z
1/2-x,-y,1/2+z
1/2+x,1/2-y,1/2-z
-x,1/2+y,-z
-x,-y,-z
1/2+x,y,1/2-z
1/2-x,1/2+y,1/2+z
x,1/2-y,z
loop_
_atom_site_type_symbol
_atom_site_label
_atom_site_fract_x
_atom_site_fract_y
_atom_site_fract_z
Si Si1 0.087158 0.395258 0.735781
Si Si2 0.860987 0.135702 0.959496
Si Si3 0.886190 0.964181 0.372146
Si Si4 0.353549 0.387261 0.272808
Si Si5 0.730698 0.525678 0.548249
Si Si6 0.556196 0.140442 0.373859
O O1 0.348911 0.351183 0.741760
O O2 0.040108 0.413404 0.678037
O O3 0.127683 0.497944 0.763513
O O4 0.881156 0.250000 0.965634
O O5 0.775176 0.107016 0.904916
O O6 0.689614 0.085796 0.000317
O O7 0.099770 0.073458 0.966736
O O8 0.749000 0.061921 0.357484
O O9 0.086412 0.997859 0.409699
O O10 0.105117 0.353118 0.249994
O O11 0.363104 0.363005 0.330390
O O12 0.547844 0.598092 0.575704
O O13 0.641538 0.250000 0.379312
#
# Coordination Sequence:
#
# PCOD9463279 Si02
#       6
#     8   8   8   8   8   8
#     4  10  19  35  62  92 128 176 219 272 331 398
#     4  10  23  42  66  96 127 165 220 281 340 406
#     4  11  22  39  65  92 128 172 223 268 336 398
#     4  10  19  35  52  82 124 174 219 269 321 394
#     4  10  22  42  64  92 129 171 213 275 343 409
#     4  11  23  35  55  88 127 172 218 267 324 398
#
# _framework density 22.568377000000002
#
# number of rings (size 3 to 8) (size 9 to 14) (size 15 to 20)
#    0.000    1.667    3.333    3.000    2.333    2.667 
#    0.000    0.000    0.000    1.000    0.000    0.000 
#    0.000    0.000    0.000    0.000    0.000    0.000 
#
# Total GULP energy -267969.163084 kJ/mol
# GULP energy per Si atom -5582.690898 kJ/mol
# Density = 2.251701 g / cm^3
# Si number density = 22.568377 Si / 1000 Ang^3
#
#
#
# Elastic Constant Matrix: (Units=GPa)
#
#
# Indices 1 2 3 4 5 6 
#
# 1 105.4271 20.7015 23.4369 0.0000 0.0000 0.0000
# 2 20.7015 170.6618 32.8008 0.0000 0.0000 0.0000
# 3 23.4369 32.8008 134.5823 0.0000 0.0000 0.0000
# 4 0.0000 0.0000 0.0000 -8.2902 0.0000 0.0000
# 5 0.0000 0.0000 0.0000 0.0000 44.5567 0.0000
# 6 0.0000 0.0000 0.0000 0.0000 0.0000 -15.5995
#
#
#
# Elastic Compliance Matrix: (Units=1/GPa)
#
#
# Indices 1 2 3 4 5 6 
#
# 1 0.010004 -0.000922 -0.001517 0.000000 0.000000 0.000000
# 2 -0.000922 0.006232 -0.001358 0.000000 0.000000 0.000000
# 3 -0.001517 -0.001358 0.008026 0.000000 0.000000 0.000000
# 4 0.000000 0.000000 0.000000 -0.120625 0.000000 0.000000
# 5 0.000000 0.000000 0.000000 0.000000 0.022443 0.000000
# 6 0.000000 0.000000 0.000000 0.000000 0.000000 -0.064104
#
#
# Mechanical properties :
#
#
# Convention : Reuss Voigt Hill
#
# Bulk Modulus (GPa) = 60.00099 62.72774 61.36437
# Shear Modulus (GPa) = -40.04050 26.38218 -6.82916
#
# Velocity S-wave (km/s) = -4.21668 3.42276 -1.74142
# Velocity P-wave (km/s) = 1.71373 6.59357 4.81726
#
# Compressibility (1/GPa) = 0.01666639
#
# Stress axis : x y z
#
# Youngs Moduli (GPa) = 99.96439 160.45045 124.59907
#
# Poissons Ratio (x) = 0.14790 0.18907
# Poissons Ratio (y) = 0.09215 0.16926
# Poissons Ratio (z) = 0.15169 0.21797
#
# Static dielectric constant tensor:
#      x y z
#    x 1.938080 0.000000 0.000000 
#    y 0.000000 1.801930 0.000000 
#    z 0.000000 0.000000 1.852060 
# 
# From -- ./inp_files/30402.got.cif
#   From: 2010.05.17/outbox.cif.g08.bks.cpg/sg62_16_cif.got.tgz:30402.got - 2010.06.03 15:25:27.
