data_PCOD9463250
_publ_section_title
;
Structure prediction by ZEFSAII (Michael W. Deem and Ramdas Pophale) SiO2 
 PCOD9463250
Probable space group: P N M A
;
_chemical_formula_sum "Si O2"
_cell_formula_units_Z 64
_cell_length_a 12.713633
_cell_length_b 18.200158
_cell_length_c 14.870999
_cell_angle_alpha 90.000000
_cell_angle_beta 90.000000
_cell_angle_gamma 90.000000
_cell_volume 3441.002382
_symmetry_space_group_name_H-M "P N M A"
_symmetry_group_IT_number 62
_symmetry_cell_setting 'orthorhombic'
loop_
_space_group_symop_operation_xyz
x,y,z
1/2-x,-y,1/2+z
1/2+x,1/2-y,1/2-z
-x,1/2+y,-z
-x,-y,-z
1/2+x,y,1/2-z
1/2-x,1/2+y,1/2+z
x,1/2-y,z
loop_
_atom_site_type_symbol
_atom_site_label
_atom_site_fract_x
_atom_site_fract_y
_atom_site_fract_z
Si Si1 0.137813 0.555504 0.530612
Si Si2 0.099095 0.096315 0.445532
Si Si3 0.380479 0.904118 0.740879
Si Si4 0.050692 0.604785 0.020813
Si Si5 0.710366 0.471949 0.790809
Si Si6 0.445186 0.011484 0.355320
Si Si7 0.746165 0.332031 0.905441
Si Si8 0.829154 0.835602 0.944591
O O1 0.133398 0.489415 0.458326
O O2 0.152781 0.513199 0.625863
O O3 0.235406 0.611199 0.521860
O O4 0.025384 0.595909 0.532183
O O5 0.117955 0.121518 0.343354
O O6 0.165235 0.143302 0.516611
O O7 0.340781 0.849186 0.663141
O O8 0.307227 0.975874 0.733406
O O9 0.494695 0.931937 0.709481
O O10 0.136450 0.661428 0.054534
O O11 0.025293 0.544710 0.097229
O O12 0.099908 0.559131 0.937558
O O13 0.939944 0.638200 0.987923
O O14 0.637406 0.468659 0.704007
O O15 0.739183 0.392276 0.827273
O O16 0.723499 0.250000 0.875181
O O17 0.810316 0.750000 0.963048
#
# Coordination Sequence:
#
# PCOD9463250 Si02
#       8
#     8   8   8   8   8   8   8   8
#     4   9  20  36  58  85 112 148 190 240 289 336
#     4  10  20  36  60  86 110 147 198 241 288 346
#     4  10  19  34  60  85 108 141 191 245 289 335
#     4  10  21  37  60  87 113 153 195 242 288 338
#     4  10  19  35  58  85 111 142 191 243 282 339
#     4  10  19  34  61  88 106 142 197 245 284 324
#     4  11  23  38  55  82 122 157 186 233 294 357
#     4  10  22  38  56  83 121 154 187 235 296 357
#
# _framework density 18.599231
#
# number of rings (size 3 to 8) (size 9 to 14) (size 15 to 20)
#    0.000    2.000    2.500    1.125    7.000    1.000 
#    0.000    1.250    0.000    0.000    0.000    0.000 
#    0.000    0.000    0.000    0.000    0.000    0.000 
#
# Total GULP energy -357153.805729 kJ/mol
# GULP energy per Si atom -5580.528215 kJ/mol
# Density = 1.855690 g / cm^3
# Si number density = 18.599231 Si / 1000 Ang^3
#
#
#
# Elastic Constant Matrix: (Units=GPa)
#
#
# Indices 1 2 3 4 5 6 
#
# 1 87.3609 29.5573 18.9504 0.0000 0.0000 0.0000
# 2 29.5573 76.9347 4.8564 0.0000 0.0000 0.0000
# 3 18.9504 4.8564 54.9135 0.0000 0.0000 0.0000
# 4 0.0000 0.0000 0.0000 9.3426 0.0000 0.0000
# 5 0.0000 0.0000 0.0000 0.0000 17.1441 0.0000
# 6 0.0000 0.0000 0.0000 0.0000 0.0000 14.5064
#
#
#
# Elastic Compliance Matrix: (Units=1/GPa)
#
#
# Indices 1 2 3 4 5 6 
#
# 1 0.014152 -0.005158 -0.004428 0.000000 0.000000 0.000000
# 2 -0.005158 0.014951 0.000458 0.000000 0.000000 0.000000
# 3 -0.004428 0.000458 0.019698 0.000000 0.000000 0.000000
# 4 0.000000 0.000000 0.000000 0.107036 0.000000 0.000000
# 5 0.000000 0.000000 0.000000 0.000000 0.058329 0.000000
# 6 0.000000 0.000000 0.000000 0.000000 0.000000 0.068935
#
#
# Mechanical properties :
#
#
# Convention : Reuss Voigt Hill
#
# Bulk Modulus (GPa) = 32.73805 36.21524 34.47665
# Shear Modulus (GPa) = 16.04938 19.25495 17.65216
#
# Velocity S-wave (km/s) = 2.94071 3.22103 3.08406
# Velocity P-wave (km/s) = 5.40097 5.77469 5.59095
#
# Compressibility (1/GPa) = 0.03054549
#
# Stress axis : x y z
#
# Youngs Moduli (GPa) = 70.66013 66.88682 50.76659
#
# Poissons Ratio (x) = 0.34498 0.22478
# Poissons Ratio (y) = 0.36444 -0.02324
# Poissons Ratio (z) = 0.31287 -0.03061
#
# Static dielectric constant tensor:
#      x y z
#    x 1.669470 0.000000 0.000000 
#    y 0.000000 1.612700 0.000000 
#    z 0.000000 0.000000 1.642690 
# 
# From -- ./inp_files/18261.got.cif
#   From: 2010.05.17/outbox.cif.g08.bks.cpg/sg62_10_cif.got.tgz:18261.got - 2010.06.03 15:25:27.
