data_PCOD9463061
_publ_section_title
;
Structure prediction by ZEFSAII (Michael W. Deem and Ramdas Pophale) SiO2 
 PCOD9463061
Probable space group: P N M A
;
_chemical_formula_sum "Si O2"
_cell_formula_units_Z 64
_cell_length_a 8.022809
_cell_length_b 20.712714
_cell_length_c 18.832615
_cell_angle_alpha 90.000000
_cell_angle_beta 90.000000
_cell_angle_gamma 90.000000
_cell_volume 3129.493758
_symmetry_space_group_name_H-M "P N M A"
_symmetry_group_IT_number 62
_symmetry_cell_setting 'orthorhombic'
loop_
_space_group_symop_operation_xyz
x,y,z
1/2-x,-y,1/2+z
1/2+x,1/2-y,1/2-z
-x,1/2+y,-z
-x,-y,-z
1/2+x,y,1/2-z
1/2-x,1/2+y,1/2+z
x,1/2-y,z
loop_
_atom_site_type_symbol
_atom_site_label
_atom_site_fract_x
_atom_site_fract_y
_atom_site_fract_z
Si Si1 0.490661 0.427624 0.557253
Si Si2 0.988718 0.676538 0.161665
Si Si3 0.592886 0.512231 0.688894
Si Si4 0.831973 0.326257 0.344601
Si Si5 0.606925 0.066835 0.926959
Si Si6 0.812902 0.888099 0.278488
Si Si7 0.362594 0.605212 0.782753
Si Si8 0.306259 0.071964 0.036747
O O1 0.559918 0.359878 0.589903
O O2 0.509911 0.480070 0.620570
O O3 0.293184 0.416515 0.542439
O O4 0.628349 0.445265 0.498644
O O5 0.037685 0.750000 0.150272
O O6 0.134169 0.630894 0.192095
O O7 0.857010 0.669053 0.224586
O O8 0.674804 0.453887 0.733849
O O9 0.467381 0.551673 0.738981
O O10 0.733236 0.564663 0.670204
O O11 0.816100 0.250000 0.352799
O O12 0.729687 0.351997 0.276584
O O13 0.779639 0.366797 0.413404
O O14 0.019743 0.349140 0.328253
O O15 0.582807 0.100559 0.850611
O O16 0.624334 0.989239 0.918338
O O17 0.451454 0.081570 0.977875
#
# Coordination Sequence:
#
# PCOD9463061 Si02
#       8
#     8   8   8   8   8   8   8   8
#     4  10  22  38  59  91 127 163 204 256 307 371
#     4  10  21  36  56  84 121 168 215 250 302 362
#     4  10  19  33  62  96 122 153 204 261 328 362
#     4  11  24  44  62  91 123 160 206 248 309 387
#     4  10  22  39  59  91 125 155 210 253 316 367
#     4  10  20  34  57  87 123 157 202 268 304 359
#     4  10  21  38  67  90 120 152 200 264 321 369
#     4  11  24  38  65  89 126 167 196 256 313 378
#
# _framework density 20.450593000000001
#
# number of rings (size 3 to 8) (size 9 to 14) (size 15 to 20)
#    0.000    1.750    0.000    5.625    8.750    0.500 
#    2.250    3.125    0.000    0.000    0.000    0.000 
#    0.000    0.000    0.000    0.000    0.000    0.000 
#
# Total GULP energy -357222.702471 kJ/mol
# GULP energy per Si atom -5581.604726 kJ/mol
# Density = 2.040405 g / cm^3
# Si number density = 20.450593 Si / 1000 Ang^3
#
#
#
# Elastic Constant Matrix: (Units=GPa)
#
#
# Indices 1 2 3 4 5 6 
#
# 1 54.2074 3.3936 0.0888 0.0000 0.0000 0.0000
# 2 3.3936 95.5230 16.6796 0.0000 0.0000 0.0000
# 3 0.0888 16.6796 36.4940 0.0000 0.0000 0.0000
# 4 0.0000 0.0000 0.0000 18.8686 0.0000 0.0000
# 5 0.0000 0.0000 0.0000 0.0000 27.3947 0.0000
# 6 0.0000 0.0000 0.0000 0.0000 0.0000 17.7876
#
#
#
# Elastic Compliance Matrix: (Units=1/GPa)
#
#
# Indices 1 2 3 4 5 6 
#
# 1 0.018491 -0.000705 0.000277 0.000000 0.000000 0.000000
# 2 -0.000705 0.011404 -0.005210 0.000000 0.000000 0.000000
# 3 0.000277 -0.005210 0.029782 0.000000 0.000000 0.000000
# 4 0.000000 0.000000 0.000000 0.052998 0.000000 0.000000
# 5 0.000000 0.000000 0.000000 0.000000 0.036503 0.000000
# 6 0.000000 0.000000 0.000000 0.000000 0.000000 0.056219
#
#
# Mechanical properties :
#
#
# Convention : Reuss Voigt Hill
#
# Bulk Modulus (GPa) = 20.66078 25.17205 22.91642
# Shear Modulus (GPa) = 21.47691 23.88099 22.67895
#
# Velocity S-wave (km/s) = 3.24417 3.42093 3.33372
# Velocity P-wave (km/s) = 4.91504 5.28575 5.10376
#
# Compressibility (1/GPa) = 0.04840088
#
# Stress axis : x y z
#
# Youngs Moduli (GPa) = 54.07925 87.69214 33.57680
#
# Poissons Ratio (x) = 0.06186 -0.00931
# Poissons Ratio (y) = 0.03815 0.17494
# Poissons Ratio (z) = -0.01500 0.45690
#
# Static dielectric constant tensor:
#      x y z
#    x 1.820140 0.000000 0.000000 
#    y 0.000000 1.709410 0.000000 
#    z 0.000000 0.000000 1.790200 
# 
# From -- ./inp_files/22578.got.cif
#   From: 2010.05.17/outbox.cif.g08.bks.cpg/sg62_12_cif.got.tgz:22578.got - 2010.06.03 15:25:27.
