data_PCOD9463569
_publ_section_title
;
Structure prediction by ZEFSAII (Michael W. Deem and Ramdas Pophale) SiO2 
 PCOD9463569
Probable space group: P N M A
;
_chemical_formula_sum "Si O2"
_cell_formula_units_Z 64
_cell_length_a 22.845532
_cell_length_b 8.421871
_cell_length_c 17.136329
_cell_angle_alpha 90.000000
_cell_angle_beta 90.000000
_cell_angle_gamma 90.000000
_cell_volume 3297.066087
_symmetry_space_group_name_H-M "P N M A"
_symmetry_group_IT_number 62
_symmetry_cell_setting 'orthorhombic'
loop_
_space_group_symop_operation_xyz
x,y,z
1/2-x,-y,1/2+z
1/2+x,1/2-y,1/2-z
-x,1/2+y,-z
-x,-y,-z
1/2+x,y,1/2-z
1/2-x,1/2+y,1/2+z
x,1/2-y,z
loop_
_atom_site_type_symbol
_atom_site_label
_atom_site_fract_x
_atom_site_fract_y
_atom_site_fract_z
Si Si1 0.267031 0.058163 0.411095
Si Si2 0.066186 0.940298 0.498826
Si Si3 0.859645 0.942042 0.647798
Si Si4 0.385516 0.557618 0.677102
Si Si5 0.615305 0.942391 0.677573
Si Si6 0.358420 0.443737 0.147915
Si Si7 0.499501 0.561368 0.411406
Si Si8 0.232090 0.058070 0.088594
O O1 0.267228 0.250000 0.411340
O O2 0.207185 0.006643 0.368791
O O3 0.325498 0.005545 0.366482
O O4 0.266861 0.999350 0.499746
O O5 0.066432 0.750000 0.499518
O O6 0.101277 0.996028 0.575863
O O7 0.099821 0.998438 0.422050
O O8 0.000000 0.000000 0.500000
O O9 0.860355 0.750000 0.647145
O O10 0.881447 0.994230 0.732829
O O11 0.386468 0.750000 0.676164
O O12 0.442990 0.497781 0.633741
O O13 0.326721 0.505203 0.632202
O O14 0.614247 0.750000 0.676894
O O15 0.618699 0.995109 0.767660
O O16 0.558236 0.001897 0.633128
O O17 0.358636 0.250000 0.148219
O O18 0.291576 0.493727 0.131760
O O19 0.500000 0.500000 0.500000
O O20 0.499382 0.750000 0.412978
O O21 0.232103 0.250000 0.088598
#
# Coordination Sequence:
#
# PCOD9463569 Si02
#       8
#     8   8   8   8   8   8   8   8
#     4  10  20  35  59  90 121 154 195 246 298 352
#     4  11  23  39  60  88 122 162 202 246 299 356
#     4  10  21  39  61  89 122 158 200 245 299 359
#     4  10  22  39  63  89 118 157 201 248 298 355
#     4  10  21  39  63  88 118 156 200 247 297 352
#     4   9  19  37  61  87 116 155 198 241 293 352
#     4  12  26  44  63  88 121 157 199 244 295 354
#     4  10  19  36  61  88 118 155 199 243 294 359
#
# _framework density 19.411196
#
# number of rings (size 3 to 8) (size 9 to 14) (size 15 to 20)
#    0.000    1.750    1.250    3.000    1.750    6.500 
#    0.000    1.250    0.000    3.000    0.000    0.000 
#    0.000    0.000    0.000    0.000    0.000    0.000 
#
# Total GULP energy -357690.641687 kJ/mol
# GULP energy per Si atom -5588.916276 kJ/mol
# Density = 1.936702 g / cm^3
# Si number density = 19.411196 Si / 1000 Ang^3
#
#
#
# Elastic Constant Matrix: (Units=GPa)
#
#
# Indices 1 2 3 4 5 6 
#
# 1 219.6810 32.7411 130.7907 0.0000 0.0000 0.0000
# 2 32.7411 20.9350 31.8299 0.0000 0.0000 0.0000
# 3 130.7907 31.8299 217.4203 0.0000 0.0000 0.0000
# 4 0.0000 0.0000 0.0000 31.2039 0.0000 0.0000
# 5 0.0000 0.0000 0.0000 0.0000 23.4833 0.0000
# 6 0.0000 0.0000 0.0000 0.0000 0.0000 22.5523
#
#
#
# Elastic Compliance Matrix: (Units=1/GPa)
#
#
# Indices 1 2 3 4 5 6 
#
# 1 0.007713 -0.006442 -0.003697 0.000000 0.000000 0.000000
# 2 -0.006442 0.066824 -0.005908 0.000000 0.000000 0.000000
# 3 -0.003697 -0.005908 0.007688 0.000000 0.000000 0.000000
# 4 0.000000 0.000000 0.000000 0.032047 0.000000 0.000000
# 5 0.000000 0.000000 0.000000 0.000000 0.042583 0.000000
# 6 0.000000 0.000000 0.000000 0.000000 0.000000 0.044341
#
#
# Mechanical properties :
#
#
# Convention : Reuss Voigt Hill
#
# Bulk Modulus (GPa) = 19.94726 94.30663 57.12694
# Shear Modulus (GPa) = 19.99990 32.95954 26.47972
#
# Velocity S-wave (km/s) = 3.21335 4.12511 3.69744
# Velocity P-wave (km/s) = 4.90571 8.44854 6.90810
#
# Compressibility (1/GPa) = 0.05013220
#
# Stress axis : x y z
#
# Youngs Moduli (GPa) = 129.64918 14.96466 130.07216
#
# Poissons Ratio (x) = 0.09641 0.48084
# Poissons Ratio (y) = 0.83523 0.76841
# Poissons Ratio (z) = 0.47928 0.08840
#
# Static dielectric constant tensor:
#      x y z
#    x 1.652830 0.000000 0.000000 
#    y 0.000000 1.680700 0.000000 
#    z 0.000000 0.000000 1.651900 
# 
# From -- ./inp_files/20871.got.cif
#   From: 2010.05.17/outbox.cif.g08.bks.cpg/sg62_11_cif.got.tgz:20871.got - 2010.06.03 15:25:27.
