data_PCOD9463889
_publ_section_title
;
Structure prediction by ZEFSAII (Michael W. Deem and Ramdas Pophale) SiO2 
 PCOD9463889
Probable space group: P N M A
;
_chemical_formula_sum "Si O2"
_cell_formula_units_Z 48
_cell_length_a 7.403007
_cell_length_b 27.097321
_cell_length_c 14.727527
_cell_angle_alpha 90.000000
_cell_angle_beta 90.000000
_cell_angle_gamma 90.000000
_cell_volume 2954.366320
_symmetry_space_group_name_H-M "P N M A"
_symmetry_group_IT_number 62
_symmetry_cell_setting 'orthorhombic'
loop_
_space_group_symop_operation_xyz
x,y,z
1/2-x,-y,1/2+z
1/2+x,1/2-y,1/2-z
-x,1/2+y,-z
-x,-y,-z
1/2+x,y,1/2-z
1/2-x,1/2+y,1/2+z
x,1/2-y,z
loop_
_atom_site_type_symbol
_atom_site_label
_atom_site_fract_x
_atom_site_fract_y
_atom_site_fract_z
Si Si1 0.630289 0.694975 0.372484
Si Si2 0.748073 0.662940 0.170763
Si Si3 0.610019 0.952767 0.965692
Si Si4 0.740524 0.477007 0.825922
Si Si5 0.357329 0.553389 0.361222
Si Si6 0.592378 0.118700 0.927170
O O1 0.690277 0.750000 0.398227
O O2 0.692560 0.684249 0.268368
O O3 0.412585 0.692693 0.373725
O O4 0.727891 0.651597 0.428940
O O5 0.837311 0.608715 0.177064
O O6 0.565055 0.653117 0.114858
O O7 0.769769 0.947145 0.039660
O O8 0.483320 0.905209 0.980055
O O9 0.500000 0.000000 0.000000
O O10 0.677551 0.971330 0.868669
O O11 0.741408 0.478121 0.717036
O O12 0.623076 0.429873 0.862858
O O13 0.938612 0.464371 0.862271
#
# Coordination Sequence:
#
# PCOD9463889 Si02
#       6
#     8   8   8   8   8   8
#     4  12  21  29  43  64  87 120 165 205 237 276
#     4  11  19  30  43  62  87 123 161 199 233 273
#     4   9  20  31  46  69  92 124 171 197 235 289
#     4  11  18  31  48  69  93 126 169 199 238 288
#     4  11  18  30  50  67  96 130 161 205 237 285
#     4  10  20  33  45  61  91 124 158 202 237 277
#
# _framework density 16.247139000000001
#
# number of rings (size 3 to 8) (size 9 to 14) (size 15 to 20)
#    0.000    1.333    5.000    4.000    0.000    0.667 
#    0.000    0.000    0.000    0.000    0.000    0.000 
#    0.000    0.000    0.000   13.500    0.000    4.667 
#
# Total GULP energy -267396.739733 kJ/mol
# GULP energy per Si atom -5570.765411 kJ/mol
# Density = 1.621016 g / cm^3
# Si number density = 16.247139 Si / 1000 Ang^3
#
#
#
# Elastic Constant Matrix: (Units=GPa)
#
#
# Indices 1 2 3 4 5 6 
#
# 1 74.9084 13.3676 -5.5818 0.0000 0.0000 0.0000
# 2 13.3676 60.6569 23.4042 0.0000 0.0000 0.0000
# 3 -5.5818 23.4042 27.4616 0.0000 0.0000 0.0000
# 4 0.0000 0.0000 0.0000 14.4379 0.0000 0.0000
# 5 0.0000 0.0000 0.0000 0.0000 9.9789 0.0000
# 6 0.0000 0.0000 0.0000 0.0000 0.0000 16.8180
#
#
#
# Elastic Compliance Matrix: (Units=1/GPa)
#
#
# Indices 1 2 3 4 5 6 
#
# 1 0.015220 -0.006776 0.008868 0.000000 0.000000 0.000000
# 2 -0.006776 0.027580 -0.024883 0.000000 0.000000 0.000000
# 3 0.008868 -0.024883 0.059423 0.000000 0.000000 0.000000
# 4 0.000000 0.000000 0.000000 0.069262 0.000000 0.000000
# 5 0.000000 0.000000 0.000000 0.000000 0.100211 0.000000
# 6 0.000000 0.000000 0.000000 0.000000 0.000000 0.059460
#
#
# Mechanical properties :
#
#
# Convention : Reuss Voigt Hill
#
# Bulk Modulus (GPa) = 17.65446 25.04519 21.34982
# Shear Modulus (GPa) = 12.63845 17.03610 14.83728
#
# Velocity S-wave (km/s) = 2.79209 3.24166 3.02524
# Velocity P-wave (km/s) = 4.61347 5.42768 5.03706
#
# Compressibility (1/GPa) = 0.05664291
#
# Stress axis : x y z
#
# Youngs Moduli (GPa) = 65.70449 36.25779 16.82840
#
# Poissons Ratio (x) = 0.24568 -0.14924
# Poissons Ratio (y) = 0.44521 0.41873
# Poissons Ratio (z) = -0.58269 0.90219
#
# Static dielectric constant tensor:
#      x y z
#    x 1.635940 0.000000 0.000000 
#    y 0.000000 1.565960 0.000000 
#    z 0.000000 0.000000 1.576780 
# 
# From -- ./inp_files/17277.got.cif
#   From: 2010.05.17/outbox.cif.g08.bks.cpg/sg62_9_cif.got.tgz:17277.got - 2010.06.03 15:25:27.
