data_PCOD9463184
_publ_section_title
;
Structure prediction by ZEFSAII (Michael W. Deem and Ramdas Pophale) SiO2 
 PCOD9463184
Probable space group: P N M A
;
_chemical_formula_sum "Si O2"
_cell_formula_units_Z 48
_cell_length_a 29.856297
_cell_length_b 8.756603
_cell_length_c 10.462472
_cell_angle_alpha 90.000000
_cell_angle_beta 90.000000
_cell_angle_gamma 90.000000
_cell_volume 2735.305958
_symmetry_space_group_name_H-M "P N M A"
_symmetry_group_IT_number 62
_symmetry_cell_setting 'orthorhombic'
loop_
_space_group_symop_operation_xyz
x,y,z
1/2-x,-y,1/2+z
1/2+x,1/2-y,1/2-z
-x,1/2+y,-z
-x,-y,-z
1/2+x,y,1/2-z
1/2-x,1/2+y,1/2+z
x,1/2-y,z
loop_
_atom_site_type_symbol
_atom_site_label
_atom_site_fract_x
_atom_site_fract_y
_atom_site_fract_z
Si Si1 0.523220 0.568264 0.875287
Si Si2 0.717252 0.566162 0.494123
Si Si3 0.476264 0.067301 0.625645
Si Si4 0.285278 0.934344 0.225792
Si Si5 0.114799 0.932459 0.003089
Si Si6 0.388292 0.932065 0.224466
O O1 0.521859 0.750000 0.878462
O O2 0.497160 0.507442 0.750617
O O3 0.574357 0.512185 0.860834
O O4 0.500000 0.500000 0.000000
O O5 0.720269 0.750000 0.502016
O O6 0.751578 0.513893 0.385096
O O7 0.726275 0.499217 0.634538
O O8 0.665639 0.527550 0.460008
O O9 0.482862 0.250000 0.630179
O O10 0.423359 0.035710 0.606783
O O11 0.500000 0.000000 0.500000
O O12 0.283520 0.750000 0.232954
O O13 0.336879 0.976624 0.195821
O O14 0.113316 0.750000 0.976622
O O15 0.103766 0.018637 0.871491
O O16 0.392644 0.750000 0.212963
#
# Coordination Sequence:
#
# PCOD9463184 Si02
#       6
#     8   8   8   8   8   8
#     4  12  25  41  58  80 112 149 187 232 282 337
#     4   9  18  35  56  79 111 144 180 225 270 325
#     4  11  21  35  58  86 114 146 184 226 271 325
#     4   9  19  35  56  82 112 143 180 227 276 326
#     4   9  18  33  56  82 109 143 185 226 269 324
#     4  10  19  34  57  81 110 146 185 227 275 332
#
# _framework density 17.548311000000002
#
# number of rings (size 3 to 8) (size 9 to 14) (size 15 to 20)
#    0.000    2.000    1.667    2.500    0.000    2.000 
#    3.000    0.000    0.000    0.000    0.000    0.000 
#    0.000    0.000    0.000    0.000    0.000    0.000 
#
# Total GULP energy -267914.206066 kJ/mol
# GULP energy per Si atom -5581.545960 kJ/mol
# Density = 1.750837 g / cm^3
# Si number density = 17.548311 Si / 1000 Ang^3
#
#
#
# Elastic Constant Matrix: (Units=GPa)
#
#
# Indices 1 2 3 4 5 6 
#
# 1 138.3304 51.8687 94.3270 0.0000 0.0000 0.0000
# 2 51.8687 62.3387 45.4168 0.0000 0.0000 0.0000
# 3 94.3270 45.4168 128.9988 0.0000 0.0000 0.0000
# 4 0.0000 0.0000 0.0000 31.8363 0.0000 0.0000
# 5 0.0000 0.0000 0.0000 0.0000 36.2094 0.0000
# 6 0.0000 0.0000 0.0000 0.0000 0.0000 23.9014
#
#
#
# Elastic Compliance Matrix: (Units=1/GPa)
#
#
# Indices 1 2 3 4 5 6 
#
# 1 0.016170 -0.006509 -0.009532 0.000000 0.000000 0.000000
# 2 -0.006509 0.024196 -0.003759 0.000000 0.000000 0.000000
# 3 -0.009532 -0.003759 0.016045 0.000000 0.000000 0.000000
# 4 0.000000 0.000000 0.000000 0.031411 0.000000 0.000000
# 5 0.000000 0.000000 0.000000 0.000000 0.027617 0.000000
# 6 0.000000 0.000000 0.000000 0.000000 0.000000 0.041839
#
#
# Mechanical properties :
#
#
# Convention : Reuss Voigt Hill
#
# Bulk Modulus (GPa) = 59.48593 79.21033 69.34813
# Shear Modulus (GPa) = 24.69365 27.59310 26.14337
#
# Velocity S-wave (km/s) = 3.75531 3.96966 3.86397
# Velocity P-wave (km/s) = 7.26465 8.13925 7.71435
#
# Compressibility (1/GPa) = 0.01681070
#
# Stress axis : x y z
#
# Youngs Moduli (GPa) = 61.84457 41.32892 62.32369
#
# Poissons Ratio (x) = 0.26903 0.59406
# Poissons Ratio (y) = 0.40258 0.23427
# Poissons Ratio (z) = 0.58949 0.15535
#
# Static dielectric constant tensor:
#      x y z
#    x 1.625050 0.000000 0.000000 
#    y 0.000000 1.580790 0.000000 
#    z 0.000000 0.000000 1.558510 
# 
# From -- ./inp_files/10227.got.cif
#   From: 2010.05.17/outbox.cif.g08.bks.cpg/sg62_6_cif.got.tgz:10227.got - 2010.06.03 15:25:27.
