data_PCOD9463729
_publ_section_title
;
Structure prediction by ZEFSAII (Michael W. Deem and Ramdas Pophale) SiO2 
 PCOD9463729
Probable space group: P N M A
;
_chemical_formula_sum "Si O2"
_cell_formula_units_Z 56
_cell_length_a 19.246999
_cell_length_b 8.343126
_cell_length_c 17.655506
_cell_angle_alpha 90.000000
_cell_angle_beta 90.000000
_cell_angle_gamma 90.000000
_cell_volume 2835.123586
_symmetry_space_group_name_H-M "P N M A"
_symmetry_group_IT_number 62
_symmetry_cell_setting 'orthorhombic'
loop_
_space_group_symop_operation_xyz
x,y,z
1/2-x,-y,1/2+z
1/2+x,1/2-y,1/2-z
-x,1/2+y,-z
-x,-y,-z
1/2+x,y,1/2-z
1/2-x,1/2+y,1/2+z
x,1/2-y,z
loop_
_atom_site_type_symbol
_atom_site_label
_atom_site_fract_x
_atom_site_fract_y
_atom_site_fract_z
Si Si1 0.648155 0.944039 0.045992
Si Si2 0.300070 0.945543 0.403759
Si Si3 0.898613 0.056306 0.380434
Si Si4 0.278143 0.943775 0.231134
Si Si5 0.951603 0.941740 0.679420
Si Si6 0.373850 0.058590 0.675682
Si Si7 0.921967 0.941049 0.987763
O O1 0.645590 0.750000 0.048955
O O2 0.728705 0.991994 0.054215
O O3 0.604613 0.008650 0.116512
O O4 0.615862 0.998170 0.966341
O O5 0.301745 0.750000 0.403135
O O6 0.294747 0.998628 0.316607
O O7 0.367721 0.002747 0.448845
O O8 0.899206 0.250000 0.381550
O O9 0.972878 0.001194 0.348685
O O10 0.836885 0.000248 0.326380
O O11 0.276851 0.750000 0.232342
O O12 0.202056 0.998741 0.203785
O O13 0.953139 0.750000 0.685579
O O14 0.928825 0.012430 0.759710
O O15 0.371452 0.250000 0.669283
O O16 0.394315 0.988765 0.594792
O O17 0.922564 0.750000 0.993167
O O18 0.000000 0.000000 0.000000
#
# Coordination Sequence:
#
# PCOD9463729 Si02
#       7
#     8   8   8   8   8   8   8
#     4  10  19  39  64  85 117 159 198 237 297 365
#     4   9  19  38  62  87 116 157 203 247 300 362
#     4  10  23  38  58  89 123 157 194 242 301 361
#     4  10  21  39  63  90 118 156 207 252 296 361
#     4  11  23  38  58  92 127 155 197 248 300 360
#     4  11  23  42  65  88 120 162 207 251 307 368
#     4  11  24  42  65  93 128 165 209 259 311 368
#
# _framework density 19.752224999999999
#
# number of rings (size 3 to 8) (size 9 to 14) (size 15 to 20)
#    0.000    1.714    1.429    2.571    2.000    4.000 
#    0.000    2.143    0.000    0.000    0.000    0.000 
#    0.000    0.000    0.000    0.000    0.000    0.000 
#
# Total GULP energy -313005.264034 kJ/mol
# GULP energy per Si atom -5589.379715 kJ/mol
# Density = 1.970727 g / cm^3
# Si number density = 19.752225 Si / 1000 Ang^3
#
#
#
# Elastic Constant Matrix: (Units=GPa)
#
#
# Indices 1 2 3 4 5 6 
#
# 1 89.0896 17.4218 64.6697 0.0000 0.0000 0.0000
# 2 17.4218 17.2027 11.2831 0.0000 0.0000 0.0000
# 3 64.6697 11.2831 139.6570 0.0000 0.0000 0.0000
# 4 0.0000 0.0000 0.0000 28.0054 0.0000 0.0000
# 5 0.0000 0.0000 0.0000 0.0000 7.8587 0.0000
# 6 0.0000 0.0000 0.0000 0.0000 0.0000 26.3431
#
#
#
# Elastic Compliance Matrix: (Units=1/GPa)
#
#
# Indices 1 2 3 4 5 6 
#
# 1 0.019995 -0.014970 -0.008050 0.000000 0.000000 0.000000
# 2 -0.014970 0.072591 0.001067 0.000000 0.000000 0.000000
# 3 -0.008050 0.001067 0.010802 0.000000 0.000000 0.000000
# 4 0.000000 0.000000 0.000000 0.035707 0.000000 0.000000
# 5 0.000000 0.000000 0.000000 0.000000 0.127248 0.000000
# 6 0.000000 0.000000 0.000000 0.000000 0.000000 0.037961
#
#
# Mechanical properties :
#
#
# Convention : Reuss Voigt Hill
#
# Bulk Modulus (GPa) = 16.81143 48.07761 32.44452
# Shear Modulus (GPa) = 13.58561 22.61309 18.09935
#
# Velocity S-wave (km/s) = 2.62544 3.38722 3.03036
# Velocity P-wave (km/s) = 4.20954 6.30007 5.35775
#
# Compressibility (1/GPa) = 0.05948333
#
# Stress axis : x y z
#
# Youngs Moduli (GPa) = 50.01185 13.77573 92.57896
#
# Poissons Ratio (x) = 0.20623 0.74522
# Poissons Ratio (y) = 0.74869 -0.09882
# Poissons Ratio (z) = 0.40257 -0.01470
#
# Static dielectric constant tensor:
#      x y z
#    x 1.687970 0.000000 0.000000 
#    y 0.000000 1.686300 0.000000 
#    z 0.000000 0.000000 1.662650 
# 
# From -- ./inp_files/20295.got.cif
#   From: 2010.05.17/outbox.cif.g08.bks.cpg/sg62_11_cif.got.tgz:20295.got - 2010.06.03 15:25:27.
