data_PCOD9463106
_publ_section_title
;
Structure prediction by ZEFSAII (Michael W. Deem and Ramdas Pophale) SiO2 
 PCOD9463106
Probable space group: P N M A
;
_chemical_formula_sum "Si O2"
_cell_formula_units_Z 64
_cell_length_a 19.740001
_cell_length_b 7.469789
_cell_length_c 16.827038
_cell_angle_alpha 90.000000
_cell_angle_beta 90.000000
_cell_angle_gamma 90.000000
_cell_volume 2481.208043
_symmetry_space_group_name_H-M "P N M A"
_symmetry_group_IT_number 62
_symmetry_cell_setting 'orthorhombic'
loop_
_space_group_symop_operation_xyz
x,y,z
1/2-x,-y,1/2+z
1/2+x,1/2-y,1/2-z
-x,1/2+y,-z
-x,-y,-z
1/2+x,y,1/2-z
1/2-x,1/2+y,1/2+z
x,1/2-y,z
loop_
_atom_site_type_symbol
_atom_site_label
_atom_site_fract_x
_atom_site_fract_y
_atom_site_fract_z
Si Si1 0.412938 0.962121 0.094220
Si Si2 0.950003 0.546251 0.664660
Si Si3 0.667842 0.954514 0.419655
Si Si4 0.294488 0.531179 0.994250
Si Si5 0.298580 0.966135 0.818519
Si Si6 0.162177 0.040040 0.750896
Si Si7 0.961778 0.466745 0.838897
Si Si8 0.402864 0.532511 0.415983
O O1 0.402604 0.750000 0.093817
O O2 0.370066 0.026419 0.018415
O O3 0.374324 0.034702 0.172798
O O4 0.492897 0.986849 0.103117
O O5 0.936140 0.750000 0.642627
O O6 0.875835 0.464234 0.680006
O O7 0.983065 0.529263 0.751814
O O8 0.678843 0.750000 0.393765
O O9 0.740654 0.033503 0.440655
O O10 0.612868 0.037300 0.360557
O O11 0.629454 0.954747 0.504802
O O12 0.291039 0.750000 0.993260
O O13 0.273865 0.475379 0.906246
O O14 0.299415 0.750000 0.813588
O O15 0.243640 0.025397 0.754168
O O16 0.144676 0.250000 0.751777
O O17 0.134410 0.969801 0.835125
O O18 0.959892 0.250000 0.837843
O O19 0.018694 0.517864 0.902349
O O20 0.398143 0.750000 0.421571
#
# Coordination Sequence:
#
# PCOD9463106 Si02
#       8
#     8   8   8   8   8   8   8   8
#     4  10  21  40  63  85 112 148 192 240 283 332
#     4  11  24  39  57  84 116 152 190 235 291 343
#     4  10  20  34  57  86 113 152 195 228 278 344
#     4   9  19  37  60  84 110 146 190 236 282 334
#     4  10  22  40  59  83 117 151 188 233 287 342
#     4  10  20  35  59  87 112 146 188 230 282 336
#     4  10  21  37  57  83 116 152 194 236 275 336
#     4  10  19  34  54  82 119 150 182 232 284 334
#
# _framework density 25.793885
#
# number of rings (size 3 to 8) (size 9 to 14) (size 15 to 20)
#    0.000    2.000    2.500    0.750    1.750    3.000 
#    0.000    1.250    0.000    0.000    0.000    0.000 
#    0.000    0.000    0.000    0.000    0.000    0.000 
#
# Total GULP energy -357803.495053 kJ/mol
# GULP energy per Si atom -5590.679610 kJ/mol
# Density = 2.573518 g / cm^3
# Si number density = 25.793885 Si / 1000 Ang^3
#
#
#
# Elastic Constant Matrix: (Units=GPa)
#
#
# Indices 1 2 3 4 5 6 
#
# 1 134.3123 -9.2325 10.4519 0.0000 0.0000 0.0000
# 2 -9.2325 74.0915 -2.8240 0.0000 0.0000 0.0000
# 3 10.4519 -2.8240 50.3137 0.0000 0.0000 0.0000
# 4 0.0000 0.0000 0.0000 8.5575 0.0000 0.0000
# 5 0.0000 0.0000 0.0000 0.0000 48.9964 0.0000
# 6 0.0000 0.0000 0.0000 0.0000 0.0000 12.1890
#
#
#
# Elastic Compliance Matrix: (Units=1/GPa)
#
#
# Indices 1 2 3 4 5 6 
#
# 1 0.007626 0.000892 -0.001534 0.000000 0.000000 0.000000
# 2 0.000892 0.013630 0.000580 0.000000 0.000000 0.000000
# 3 -0.001534 0.000580 0.020227 0.000000 0.000000 0.000000
# 4 0.000000 0.000000 0.000000 0.116856 0.000000 0.000000
# 5 0.000000 0.000000 0.000000 0.000000 0.020410 0.000000
# 6 0.000000 0.000000 0.000000 0.000000 0.000000 0.082041
#
#
# Mechanical properties :
#
#
# Convention : Reuss Voigt Hill
#
# Bulk Modulus (GPa) = 24.17943 28.38981 26.28462
# Shear Modulus (GPa) = 18.20163 31.30339 24.75251
#
# Velocity S-wave (km/s) = 2.65930 3.48745 3.10115
# Velocity P-wave (km/s) = 4.33862 5.21984 4.79950
#
# Compressibility (1/GPa) = 0.04135747
#
# Stress axis : x y z
#
# Youngs Moduli (GPa) = 131.13005 73.36733 49.44003
#
# Poissons Ratio (x) = -0.06543 0.07585
# Poissons Ratio (y) = -0.11694 -0.02866
# Poissons Ratio (z) = 0.20117 -0.04254
#
# Static dielectric constant tensor:
#      x y z
#    x 2.087550 0.000000 0.000000 
#    y 0.000000 1.969810 0.000000 
#    z 0.000000 0.000000 2.008220 
# 
# From -- ./inp_files/24739.got.cif
#   From: 2010.05.17/outbox.cif.g08.bks.cpg/sg62_13_cif.got.tgz:24739.got - 2010.06.03 15:25:27.
