data_PCOD9463384
_publ_section_title
;
Structure prediction by ZEFSAII (Michael W. Deem and Ramdas Pophale) SiO2 
 PCOD9463384
Probable space group: P N M A
;
_chemical_formula_sum "Si O2"
_cell_formula_units_Z 64
_cell_length_a 11.755958
_cell_length_b 8.566510
_cell_length_c 33.566224
_cell_angle_alpha 90.000000
_cell_angle_beta 90.000000
_cell_angle_gamma 90.000000
_cell_volume 3380.371570
_symmetry_space_group_name_H-M "P N M A"
_symmetry_group_IT_number 62
_symmetry_cell_setting 'orthorhombic'
loop_
_space_group_symop_operation_xyz
x,y,z
1/2-x,-y,1/2+z
1/2+x,1/2-y,1/2-z
-x,1/2+y,-z
-x,-y,-z
1/2+x,y,1/2-z
1/2-x,1/2+y,1/2+z
x,1/2-y,z
loop_
_atom_site_type_symbol
_atom_site_label
_atom_site_fract_x
_atom_site_fract_y
_atom_site_fract_z
Si Si1 0.577059 0.435200 0.058791
Si Si2 0.320851 0.063294 0.587691
Si Si3 0.696521 0.936231 0.835033
Si Si4 0.166122 0.563975 0.521494
Si Si5 0.957349 0.560810 0.132787
Si Si6 0.299970 0.063697 0.864933
Si Si7 0.455682 0.563550 0.797799
Si Si8 0.094008 0.936667 0.211227
O O1 0.579581 0.250000 0.065624
O O2 0.448471 0.478778 0.046160
O O3 0.620759 0.520121 0.097942
O O4 0.654483 0.480926 0.020989
O O5 0.321184 0.250000 0.583427
O O6 0.446643 0.009092 0.601343
O O7 0.238571 0.017804 0.624531
O O8 0.272582 0.986600 0.547901
O O9 0.457653 0.750000 0.793312
O O10 0.571681 0.983856 0.820445
O O11 0.788394 0.981696 0.801437
O O12 0.164812 0.750000 0.515460
O O13 0.956626 0.750000 0.130807
O O14 0.828759 0.507522 0.126751
O O15 0.003947 0.519378 0.176681
O O16 0.298008 0.250000 0.859647
O O17 0.351225 0.987139 0.825458
O O18 0.196914 0.750000 0.658366
O O19 0.446155 0.486879 0.754592
O O20 0.109843 0.750000 0.209492
#
# Coordination Sequence:
#
# PCOD9463384 Si02
#       8
#     8   8   8   8   8   8   8   8
#     4  10  21  37  56  84 119 151 184 231 284 335
#     4  10  19  35  59  84 110 145 188 232 279 332
#     4  10  21  37  55  79 112 144 181 230 279 333
#     4  10  20  35  58  86 116 148 186 233 282 335
#     4   8  19  38  57  80 110 145 186 233 279 330
#     4  11  22  38  59  83 112 150 190 230 280 339
#     4  11  24  38  54  81 113 146 184 230 283 338
#     4  10  21  38  59  81 107 142 188 236 282 331
#
# _framework density 18.932831
#
# number of rings (size 3 to 8) (size 9 to 14) (size 15 to 20)
#    0.000    2.000    0.000    4.125    1.750    6.500 
#    0.000    7.500    0.000    0.000    0.000    0.000 
#    0.000    0.000    0.000    0.000    0.000    0.000 
#
# Total GULP energy -357490.353517 kJ/mol
# GULP energy per Si atom -5585.786774 kJ/mol
# Density = 1.888974 g / cm^3
# Si number density = 18.932831 Si / 1000 Ang^3
#
#
#
# Elastic Constant Matrix: (Units=GPa)
#
#
# Indices 1 2 3 4 5 6 
#
# 1 37.6944 7.2703 -4.6327 0.0000 0.0000 0.0000
# 2 7.2703 13.2321 -8.5332 0.0000 0.0000 0.0000
# 3 -4.6327 -8.5332 29.2390 0.0000 0.0000 0.0000
# 4 0.0000 0.0000 0.0000 28.0885 0.0000 0.0000
# 5 0.0000 0.0000 0.0000 0.0000 12.9647 0.0000
# 6 0.0000 0.0000 0.0000 0.0000 0.0000 22.2284
#
#
#
# Elastic Compliance Matrix: (Units=1/GPa)
#
#
# Indices 1 2 3 4 5 6 
#
# 1 0.029674 -0.016349 -0.000070 0.000000 0.000000 0.000000
# 2 -0.016349 0.102103 0.027208 0.000000 0.000000 0.000000
# 3 -0.000070 0.027208 0.042130 0.000000 0.000000 0.000000
# 4 0.000000 0.000000 0.000000 0.035602 0.000000 0.000000
# 5 0.000000 0.000000 0.000000 0.000000 0.077132 0.000000
# 6 0.000000 0.000000 0.000000 0.000000 0.000000 0.044988
#
#
# Mechanical properties :
#
#
# Convention : Reuss Voigt Hill
#
# Bulk Modulus (GPa) = 5.11551 7.59715 6.35633
# Shear Modulus (GPa) = 13.32578 18.39373 15.85976
#
# Velocity S-wave (km/s) = 2.65589 3.12031 2.89742
# Velocity P-wave (km/s) = 3.48034 4.12349 3.81549
#
# Compressibility (1/GPa) = 0.19548387
#
# Stress axis : x y z
#
# Youngs Moduli (GPa) = 33.69961 9.79407 23.73590
#
# Poissons Ratio (x) = 0.16013 0.00166
# Poissons Ratio (y) = 0.55096 -0.64580
# Poissons Ratio (z) = 0.00235 -0.26647
#
# Static dielectric constant tensor:
#      x y z
#    x 1.664480 0.000000 0.000000 
#    y 0.000000 1.637660 0.000000 
#    z 0.000000 0.000000 1.628120 
# 
# From -- ./inp_files/32472.got.cif
#   From: 2010.05.17/outbox.cif.g08.bks.cpg/sg62_17_cif.got.tgz:32472.got - 2010.06.03 15:25:27.
