data_PCOD9463543
_publ_section_title
;
Structure prediction by ZEFSAII (Michael W. Deem and Ramdas Pophale) SiO2 
 PCOD9463543
Probable space group: P N M A
;
_chemical_formula_sum "Si O2"
_cell_formula_units_Z 48
_cell_length_a 9.193959
_cell_length_b 8.431305
_cell_length_c 31.824690
_cell_angle_alpha 90.000000
_cell_angle_beta 90.000000
_cell_angle_gamma 90.000000
_cell_volume 2466.956802
_symmetry_space_group_name_H-M "P N M A"
_symmetry_group_IT_number 62
_symmetry_cell_setting 'orthorhombic'
loop_
_space_group_symop_operation_xyz
x,y,z
1/2-x,-y,1/2+z
1/2+x,1/2-y,1/2-z
-x,1/2+y,-z
-x,-y,-z
1/2+x,y,1/2-z
1/2-x,1/2+y,1/2+z
x,1/2-y,z
loop_
_atom_site_type_symbol
_atom_site_label
_atom_site_fract_x
_atom_site_fract_y
_atom_site_fract_z
Si Si1 0.920734 0.442087 0.207524
Si Si2 0.416447 0.059641 0.123974
Si Si3 0.415068 0.556483 0.792187
Si Si4 0.582691 0.441681 0.541288
Si Si5 0.081601 0.559687 0.458553
Si Si6 0.913554 0.440191 0.874949
O O1 0.922030 0.250000 0.207112
O O2 0.752768 0.494586 0.207484
O O3 0.002336 0.494491 0.249962
O O4 0.004271 0.501038 0.166514
O O5 0.416385 0.250000 0.123806
O O6 0.500267 0.004960 0.166017
O O7 0.499445 0.999875 0.082804
O O8 0.251050 0.001249 0.124311
O O9 0.415364 0.750000 0.792097
O O10 0.500000 0.500000 0.500000
O O11 0.582285 0.250000 0.541016
O O12 0.750467 0.494891 0.541466
O O13 0.499398 0.495039 0.583344
O O14 0.080476 0.750000 0.458590
O O15 0.000000 0.500000 0.500000
O O16 0.912048 0.250000 0.875092
#
# Coordination Sequence:
#
# PCOD9463543 Si02
#       6
#     8   8   8   8   8   8
#     4  10  19  36  60  85 112 148 190 234 280 335
#     4  11  22  38  60  87 116 152 193 237 287 341
#     4   9  19  35  59  87 115 147 190 237 283 334
#     4  10  23  40  59  82 113 149 188 232 282 336
#     4  11  23  40  60  86 117 151 190 237 287 342
#     4  11  23  39  57  83 116 151 188 233 284 338
#
# _framework density 19.457170999999999
#
# number of rings (size 3 to 8) (size 9 to 14) (size 15 to 20)
#    0.000    1.667    0.000    4.500    0.000    8.000 
#    0.000    5.000    0.000    0.000    0.000    0.000 
#    0.000    0.000    0.000    0.000    0.000    0.000 
#
# Total GULP energy -268388.337910 kJ/mol
# GULP energy per Si atom -5591.423706 kJ/mol
# Density = 1.941289 g / cm^3
# Si number density = 19.457171 Si / 1000 Ang^3
#
#
#
# Elastic Constant Matrix: (Units=GPa)
#
#
# Indices 1 2 3 4 5 6 
#
# 1 248.7962 36.3296 152.8703 0.0000 0.0000 0.0000
# 2 36.3296 29.8913 33.6087 0.0000 0.0000 0.0000
# 3 152.8703 33.6087 246.3985 0.0000 0.0000 0.0000
# 4 0.0000 0.0000 0.0000 33.6228 0.0000 0.0000
# 5 0.0000 0.0000 0.0000 0.0000 47.2441 0.0000
# 6 0.0000 0.0000 0.0000 0.0000 0.0000 27.0987
#
#
#
# Elastic Compliance Matrix: (Units=1/GPa)
#
#
# Indices 1 2 3 4 5 6 
#
# 1 0.006921 -0.004233 -0.003717 0.000000 0.000000 0.000000
# 2 -0.004233 0.042104 -0.003117 0.000000 0.000000 0.000000
# 3 -0.003717 -0.003117 0.006789 0.000000 0.000000 0.000000
# 4 0.000000 0.000000 0.000000 0.029742 0.000000 0.000000
# 5 0.000000 0.000000 0.000000 0.000000 0.021167 0.000000
# 6 0.000000 0.000000 0.000000 0.000000 0.000000 0.036902
#
#
# Mechanical properties :
#
#
# Convention : Reuss Voigt Hill
#
# Bulk Modulus (GPa) = 29.68986 107.85592 68.77289
# Shear Modulus (GPa) = 28.25108 41.74494 34.99801
#
# Velocity S-wave (km/s) = 3.81460 4.63696 4.24573
# Velocity P-wave (km/s) = 5.89014 9.17722 7.71087
#
# Compressibility (1/GPa) = 0.03368153
#
# Stress axis : x y z
#
# Youngs Moduli (GPa) = 144.48589 23.75094 147.28785
#
# Poissons Ratio (x) = 0.10054 0.54741
# Poissons Ratio (y) = 0.61161 0.45905
# Poissons Ratio (z) = 0.53700 0.07402
#
# Static dielectric constant tensor:
#      x y z
#    x 1.649500 0.000000 0.000000 
#    y 0.000000 1.679940 0.000000 
#    z 0.000000 0.000000 1.637630 
# 
# From -- ./inp_files/31968.got.cif
#   From: 2010.05.17/outbox.cif.g08.bks.cpg/sg62_16_cif.got.tgz:31968.got - 2010.06.03 15:25:27.
