data_PCOD9463160
_publ_section_title
;
Structure prediction by ZEFSAII (Michael W. Deem and Ramdas Pophale) SiO2 
 PCOD9463160
Probable space group: P N M A
;
_chemical_formula_sum "Si O2"
_cell_formula_units_Z 48
_cell_length_a 16.873113
_cell_length_b 8.824030
_cell_length_c 18.484756
_cell_angle_alpha 90.000000
_cell_angle_beta 90.000000
_cell_angle_gamma 90.000000
_cell_volume 2752.174161
_symmetry_space_group_name_H-M "P N M A"
_symmetry_group_IT_number 62
_symmetry_cell_setting 'orthorhombic'
loop_
_space_group_symop_operation_xyz
x,y,z
1/2-x,-y,1/2+z
1/2+x,1/2-y,1/2-z
-x,1/2+y,-z
-x,-y,-z
1/2+x,y,1/2-z
1/2-x,1/2+y,1/2+z
x,1/2-y,z
loop_
_atom_site_type_symbol
_atom_site_label
_atom_site_fract_x
_atom_site_fract_y
_atom_site_fract_z
Si Si1 0.829182 0.430177 0.907368
Si Si2 0.138250 0.432456 0.829256
Si Si3 0.505848 0.430241 0.419595
Si Si4 0.163558 0.432102 0.664437
Si Si5 0.417071 0.068973 0.024565
Si Si6 0.246656 0.568302 0.453838
O O1 0.842926 0.250000 0.907953
O O2 0.909690 0.515613 0.888753
O O3 0.755227 0.464529 0.855079
O O4 0.799902 0.484558 0.986333
O O5 0.127934 0.250000 0.830945
O O6 0.144237 0.479720 0.745925
O O7 0.217725 0.466404 0.875320
O O8 0.065286 0.507783 0.870756
O O9 0.500000 0.500000 0.500000
O O10 0.502435 0.250000 0.424813
O O11 0.153480 0.250000 0.658833
O O12 0.110193 0.509119 0.603036
O O13 0.423097 0.250000 0.026100
O O14 0.344435 0.027823 0.970287
O O15 0.500000 0.000000 0.000000
O O16 0.254454 0.750000 0.465476
#
# Coordination Sequence:
#
# PCOD9463160 Si02
#       6
#     8   8   8   8   8   8
#     4  10  19  34  56  82 110 144 183 222 272 332
#     4  10  20  37  58  82 112 145 184 232 284 334
#     4  12  23  35  55  84 116 149 187 229 275 331
#     4   9  20  38  59  82 111 146 185 232 283 336
#     4  10  20  36  58  83 111 147 192 236 278 330
#     4   9  18  33  56  80 105 142 185 226 273 329
#
# _framework density 17.440757999999999
#
# number of rings (size 3 to 8) (size 9 to 14) (size 15 to 20)
#    0.000    2.000    1.667    2.500    0.000    2.000 
#    3.000    0.000    0.000    0.000    0.000    0.000 
#    0.000    0.000    0.000    0.000    0.000    0.000 
#
# Total GULP energy -267912.180561 kJ/mol
# GULP energy per Si atom -5581.503762 kJ/mol
# Density = 1.740106 g / cm^3
# Si number density = 17.440758 Si / 1000 Ang^3
#
#
#
# Elastic Constant Matrix: (Units=GPa)
#
#
# Indices 1 2 3 4 5 6 
#
# 1 152.2508 57.6260 93.5123 0.0000 0.0000 0.0000
# 2 57.6260 51.3478 54.0416 0.0000 0.0000 0.0000
# 3 93.5123 54.0416 139.6540 0.0000 0.0000 0.0000
# 4 0.0000 0.0000 0.0000 24.3821 0.0000 0.0000
# 5 0.0000 0.0000 0.0000 0.0000 22.0577 0.0000
# 6 0.0000 0.0000 0.0000 0.0000 0.0000 30.1491
#
#
#
# Elastic Compliance Matrix: (Units=1/GPa)
#
#
# Indices 1 2 3 4 5 6 
#
# 1 0.013417 -0.009451 -0.005327 0.000000 0.000000 0.000000
# 2 -0.009451 0.039514 -0.008962 0.000000 0.000000 0.000000
# 3 -0.005327 -0.008962 0.014195 0.000000 0.000000 0.000000
# 4 0.000000 0.000000 0.000000 0.041014 0.000000 0.000000
# 5 0.000000 0.000000 0.000000 0.000000 0.045336 0.000000
# 6 0.000000 0.000000 0.000000 0.000000 0.000000 0.033169
#
#
# Mechanical properties :
#
#
# Convention : Reuss Voigt Hill
#
# Bulk Modulus (GPa) = 50.90009 83.73471 67.31740
# Shear Modulus (GPa) = 20.77503 24.52263 22.64883
#
# Velocity S-wave (km/s) = 3.45509 3.75381 3.60754
# Velocity P-wave (km/s) = 6.72047 8.17944 7.48559
#
# Compressibility (1/GPa) = 0.01964633
#
# Stress axis : x y z
#
# Youngs Moduli (GPa) = 74.53212 25.30730 70.44559
#
# Poissons Ratio (x) = 0.23919 0.37524
# Poissons Ratio (y) = 0.70443 0.63134
# Poissons Ratio (z) = 0.39701 0.22681
#
# Static dielectric constant tensor:
#      x y z
#    x 1.593290 0.000000 0.000000 
#    y 0.000000 1.585400 0.000000 
#    z 0.000000 0.000000 1.572600 
# 
# From -- ./inp_files/23751.got.cif
#   From: 2010.05.17/outbox.cif.g08.bks.cpg/sg62_12_cif.got.tgz:23751.got - 2010.06.03 15:25:27.
