data_PCOD9463495
_publ_section_title
;
Structure prediction by ZEFSAII (Michael W. Deem and Ramdas Pophale) SiO2 
 PCOD9463495
Probable space group: P N M A
;
_chemical_formula_sum "Si O2"
_cell_formula_units_Z 56
_cell_length_a 11.178876
_cell_length_b 17.094939
_cell_length_c 15.572672
_cell_angle_alpha 90.000000
_cell_angle_beta 90.000000
_cell_angle_gamma 90.000000
_cell_volume 2975.971931
_symmetry_space_group_name_H-M "P N M A"
_symmetry_group_IT_number 62
_symmetry_cell_setting 'orthorhombic'
loop_
_space_group_symop_operation_xyz
x,y,z
1/2-x,-y,1/2+z
1/2+x,1/2-y,1/2-z
-x,1/2+y,-z
-x,-y,-z
1/2+x,y,1/2-z
1/2-x,1/2+y,1/2+z
x,1/2-y,z
loop_
_atom_site_type_symbol
_atom_site_label
_atom_site_fract_x
_atom_site_fract_y
_atom_site_fract_z
Si Si1 0.568554 0.058796 0.210412
Si Si2 0.588745 0.429267 0.513789
Si Si3 0.062172 0.661257 0.575717
Si Si4 0.210190 0.659166 0.273066
Si Si5 0.654853 0.565581 0.068607
Si Si6 0.833782 0.661532 0.856793
Si Si7 0.039971 0.087534 0.791073
O O1 0.508941 0.127782 0.156355
O O2 0.654899 0.099491 0.279568
O O3 0.622279 0.000242 0.138256
O O4 0.478596 0.003038 0.264359
O O5 0.500000 0.500000 0.500000
O O6 0.725799 0.459589 0.518797
O O7 0.584767 0.368226 0.435933
O O8 0.557838 0.398321 0.608116
O O9 0.026707 0.750000 0.551879
O O10 0.057316 0.598071 0.498036
O O11 0.200200 0.663402 0.605410
O O12 0.222860 0.750000 0.256097
O O13 0.190967 0.640809 0.374000
O O14 0.086069 0.627854 0.233020
O O15 0.336088 0.617688 0.248325
O O16 0.865573 0.750000 0.830071
#
# Coordination Sequence:
#
# PCOD9463495 Si02
#       7
#     8   8   8   8   8   8   8
#     4  11  21  35  58  84 118 147 197 245 296 343
#     4  10  19  36  58  81 112 152 191 239 288 352
#     4  10  21  37  58  80 113 155 194 238 295 354
#     4  10  20  36  56  84 118 152 195 245 294 349
#     4   9  21  35  56  83 111 147 194 240 289 351
#     4  10  22  36  56  85 118 152 196 245 293 353
#     4  10  22  34  59  87 116 156 197 243 296 352
#
# _framework density 18.817381999999998
#
# number of rings (size 3 to 8) (size 9 to 14) (size 15 to 20)
#    0.000    2.000    1.429    1.714    6.000    4.000 
#    0.000    0.000    0.000    0.857    0.000    0.000 
#    0.000    0.000    0.000    0.000    0.000    0.000 
#
# Total GULP energy -311825.871203 kJ/mol
# GULP energy per Si atom -5568.319129 kJ/mol
# Density = 1.877455 g / cm^3
# Si number density = 18.817382 Si / 1000 Ang^3
#
#
#
# Elastic Constant Matrix: (Units=GPa)
#
#
# Indices 1 2 3 4 5 6 
#
# 1 55.8314 15.0031 11.3903 0.0000 0.0000 0.0000
# 2 15.0031 72.3711 28.2983 0.0000 0.0000 0.0000
# 3 11.3903 28.2983 76.2093 0.0000 0.0000 0.0000
# 4 0.0000 0.0000 0.0000 23.7021 0.0000 0.0000
# 5 0.0000 0.0000 0.0000 0.0000 28.1741 0.0000
# 6 0.0000 0.0000 0.0000 0.0000 0.0000 23.9689
#
#
#
# Elastic Compliance Matrix: (Units=1/GPa)
#
#
# Indices 1 2 3 4 5 6 
#
# 1 0.019138 -0.003333 -0.001623 0.000000 0.000000 0.000000
# 2 -0.003333 0.016745 -0.005720 0.000000 0.000000 0.000000
# 3 -0.001623 -0.005720 0.015488 0.000000 0.000000 0.000000
# 4 0.000000 0.000000 0.000000 0.042190 0.000000 0.000000
# 5 0.000000 0.000000 0.000000 0.000000 0.035494 0.000000
# 6 0.000000 0.000000 0.000000 0.000000 0.000000 0.041721
#
#
# Mechanical properties :
#
#
# Convention : Reuss Voigt Hill
#
# Bulk Modulus (GPa) = 33.31081 34.86614 34.08847
# Shear Modulus (GPa) = 24.73614 25.15033 24.94323
#
# Velocity S-wave (km/s) = 3.62959 3.65985 3.64475
# Velocity P-wave (km/s) = 5.94187 6.03558 5.98891
#
# Compressibility (1/GPa) = 0.03002029
#
# Stress axis : x y z
#
# Youngs Moduli (GPa) = 52.25272 59.71894 64.56537
#
# Poissons Ratio (x) = 0.19904 0.10478
# Poissons Ratio (y) = 0.17415 0.36930
# Poissons Ratio (z) = 0.08479 0.34158
#
# Static dielectric constant tensor:
#      x y z
#    x 1.673990 0.000000 0.000000 
#    y 0.000000 1.667150 0.000000 
#    z 0.000000 0.000000 1.959590 
# 
# From -- ./inp_files/18056.got.cif
#   From: 2010.05.17/outbox.cif.g08.bks.cpg/sg62_10_cif.got.tgz:18056.got - 2010.06.03 15:25:27.
