data_PCOD9463188
_publ_section_title
;
Structure prediction by ZEFSAII (Michael W. Deem and Ramdas Pophale) SiO2 
 PCOD9463188
Probable space group: P N M A
;
_chemical_formula_sum "Si O2"
_cell_formula_units_Z 48
_cell_length_a 10.585560
_cell_length_b 8.736450
_cell_length_c 28.981884
_cell_angle_alpha 90.000000
_cell_angle_beta 90.000000
_cell_angle_gamma 90.000000
_cell_volume 2680.250883
_symmetry_space_group_name_H-M "P N M A"
_symmetry_group_IT_number 62
_symmetry_cell_setting 'orthorhombic'
loop_
_space_group_symop_operation_xyz
x,y,z
1/2-x,-y,1/2+z
1/2+x,1/2-y,1/2-z
-x,1/2+y,-z
-x,-y,-z
1/2+x,y,1/2-z
1/2-x,1/2+y,1/2+z
x,1/2-y,z
loop_
_atom_site_type_symbol
_atom_site_label
_atom_site_fract_x
_atom_site_fract_y
_atom_site_fract_z
Si Si1 0.747462 0.063665 0.855834
Si Si2 0.502744 0.935135 0.299959
Si Si3 0.012025 0.935206 0.307887
Si Si4 0.852636 0.567918 0.052029
Si Si5 0.650904 0.933943 0.453365
Si Si6 0.737299 0.568091 0.646042
O O1 0.747587 0.250000 0.855587
O O2 0.868115 0.016650 0.825325
O O3 0.615961 0.014095 0.833548
O O4 0.770191 0.016357 0.908687
O O5 0.493979 0.750000 0.303226
O O6 0.506113 0.976653 0.246119
O O7 0.382195 0.004189 0.325473
O O8 0.018901 0.750000 0.310243
O O9 0.135236 0.002961 0.331776
O O10 0.838858 0.750000 0.056050
O O11 0.779897 0.487934 0.093544
O O12 0.002740 0.531634 0.056141
O O13 0.812805 0.511998 0.001356
O O14 0.660787 0.750000 0.458409
O O15 0.737612 0.750000 0.647778
#
# Coordination Sequence:
#
# PCOD9463188 Si02
#       6
#     8   8   8   8   8   8
#     4   9  17  33  57  85 112 142 182 235 285 329
#     4  10  19  37  62  86 109 144 195 238 275 328
#     4  10  21  37  60  84 112 150 191 231 277 332
#     4  10  19  34  57  82 110 143 189 235 278 336
#     4   9  17  32  55  83 114 139 177 237 293 336
#     4  12  24  37  55  83 120 154 186 227 281 333
#
# _framework density 17.908771999999999
#
# number of rings (size 3 to 8) (size 9 to 14) (size 15 to 20)
#    0.000    2.000    1.667    3.000    0.000    4.000 
#    0.000    2.500    0.000    0.000    0.000    0.000 
#    0.000    0.000    0.000    0.000    0.000    0.000 
#
# Total GULP energy -268043.088680 kJ/mol
# GULP energy per Si atom -5584.231014 kJ/mol
# Density = 1.786801 g / cm^3
# Si number density = 17.908772 Si / 1000 Ang^3
#
#
#
# Elastic Constant Matrix: (Units=GPa)
#
#
# Indices 1 2 3 4 5 6 
#
# 1 148.2635 35.8221 98.0173 0.0000 0.0000 0.0000
# 2 35.8221 26.1576 46.1523 0.0000 0.0000 0.0000
# 3 98.0173 46.1523 182.4275 0.0000 0.0000 0.0000
# 4 0.0000 0.0000 0.0000 24.5323 0.0000 0.0000
# 5 0.0000 0.0000 0.0000 0.0000 -1.3809 0.0000
# 6 0.0000 0.0000 0.0000 0.0000 0.0000 10.7099
#
#
#
# Elastic Compliance Matrix: (Units=1/GPa)
#
#
# Indices 1 2 3 4 5 6 
#
# 1 0.011467 -0.008730 -0.003953 0.000000 0.000000 0.000000
# 2 -0.008730 0.075700 -0.014461 0.000000 0.000000 0.000000
# 3 -0.003953 -0.014461 0.011264 0.000000 0.000000 0.000000
# 4 0.000000 0.000000 0.000000 0.040763 0.000000 0.000000
# 5 0.000000 0.000000 0.000000 0.000000 -0.724186 0.000000
# 6 0.000000 0.000000 0.000000 0.000000 0.000000 0.093371
#
#
# Mechanical properties :
#
#
# Convention : Reuss Voigt Hill
#
# Bulk Modulus (GPa) = 22.65314 79.64799 51.15056
# Shear Modulus (GPa) = -11.83093 18.56273 3.36590
#
# Velocity S-wave (km/s) = -2.57305 3.22299 1.37242
# Velocity P-wave (km/s) = 1.96195 7.64337 5.57989
#
# Compressibility (1/GPa) = 0.04414399
#
# Stress axis : x y z
#
# Youngs Moduli (GPa) = 87.20619 13.21012 88.78036
#
# Poissons Ratio (x) = 0.11532 0.35092
# Poissons Ratio (y) = 0.76130 1.28382
# Poissons Ratio (z) = 0.34469 0.19103
#
# Static dielectric constant tensor:
#      x y z
#    x 1.583450 0.000000 0.000000 
#    y 0.000000 1.600270 0.000000 
#    z 0.000000 0.000000 1.602890 
# 
# From -- ./inp_files/29246.got.cif
#   From: 2010.05.17/outbox.cif.g08.bks.cpg/sg62_15_cif.got.tgz:29246.got - 2010.06.03 15:25:27.
