data_PCOD9463405
_publ_section_title
;
Structure prediction by ZEFSAII (Michael W. Deem and Ramdas Pophale) SiO2 
 PCOD9463405
Probable space group: P N M A
;
_chemical_formula_sum "Si O2"
_cell_formula_units_Z 64
_cell_length_a 8.884861
_cell_length_b 19.101787
_cell_length_c 18.130563
_cell_angle_alpha 90.000000
_cell_angle_beta 90.000000
_cell_angle_gamma 90.000000
_cell_volume 3077.059727
_symmetry_space_group_name_H-M "P N M A"
_symmetry_group_IT_number 62
_symmetry_cell_setting 'orthorhombic'
loop_
_space_group_symop_operation_xyz
x,y,z
1/2-x,-y,1/2+z
1/2+x,1/2-y,1/2-z
-x,1/2+y,-z
-x,-y,-z
1/2+x,y,1/2-z
1/2-x,1/2+y,1/2+z
x,1/2-y,z
loop_
_atom_site_type_symbol
_atom_site_label
_atom_site_fract_x
_atom_site_fract_y
_atom_site_fract_z
Si Si1 0.325223 0.923137 0.605860
Si Si2 0.150014 0.672486 0.704097
Si Si3 0.969447 0.630316 0.236220
Si Si4 0.306449 0.326786 0.856358
Si Si5 0.764779 0.467066 0.779828
Si Si6 0.345032 0.070426 0.341407
Si Si7 0.389446 0.830263 0.916365
Si Si8 0.087853 0.925737 0.482868
O O1 0.284561 0.851927 0.649739
O O2 0.235621 0.978647 0.656062
O O3 0.499903 0.940887 0.614818
O O4 0.246263 0.926364 0.527384
O O5 0.181087 0.750000 0.732349
O O6 0.124261 0.621260 0.771973
O O7 0.002185 0.671840 0.653498
O O8 0.866159 0.662320 0.171731
O O9 0.844009 0.598150 0.289737
O O10 0.086361 0.674564 0.283863
O O11 0.068257 0.562989 0.213485
O O12 0.317398 0.250000 0.893190
O O13 0.365484 0.392942 0.903799
O O14 0.734520 0.505005 0.700879
O O15 0.237237 0.114065 0.394730
O O16 0.340915 0.750000 0.931080
O O17 0.483979 0.865163 0.981777
O O18 0.000000 0.000000 0.500000
#
# Coordination Sequence:
#
# PCOD9463405 Si02
#       8
#     8   8   8   8   8   8   8   8
#     4  10  21  35  56  89 127 168 213 262 315 380
#     4   9  18  32  52  82 121 171 218 256 299 359
#     4  10  22  38  71  93 125 159 212 276 343 384
#     4  11  24  46  70  98 127 164 217 279 340 398
#     4  10  19  35  59  98 131 165 210 270 324 369
#     4  11  20  31  56  89 131 167 212 264 308 364
#     4  10  22  38  57  85 127 175 216 253 316 390
#     4  11  25  43  68  91 128 173 216 258 328 401
#
# _framework density 20.799077
#
# number of rings (size 3 to 8) (size 9 to 14) (size 15 to 20)
#    0.000    1.750    1.250    3.375    7.000    2.500 
#    0.000    5.000    0.000    0.000    0.000    0.000 
#    0.000    0.000    0.000    0.000    0.000    0.000 
#
# Total GULP energy -356552.431703 kJ/mol
# GULP energy per Si atom -5571.131745 kJ/mol
# Density = 2.075174 g / cm^3
# Si number density = 20.799077 Si / 1000 Ang^3
#
#
#
# Elastic Constant Matrix: (Units=GPa)
#
#
# Indices 1 2 3 4 5 6 
#
# 1 104.6656 27.6943 27.3640 0.0000 0.0000 0.0000
# 2 27.6943 99.7994 30.1413 0.0000 0.0000 0.0000
# 3 27.3640 30.1413 64.2554 0.0000 0.0000 0.0000
# 4 0.0000 0.0000 0.0000 21.3450 0.0000 0.0000
# 5 0.0000 0.0000 0.0000 0.0000 -7.4464 0.0000
# 6 0.0000 0.0000 0.0000 0.0000 0.0000 11.2828
#
#
#
# Elastic Compliance Matrix: (Units=1/GPa)
#
#
# Indices 1 2 3 4 5 6 
#
# 1 0.011058 -0.001918 -0.003809 0.000000 0.000000 0.000000
# 2 -0.001918 0.012007 -0.004815 0.000000 0.000000 0.000000
# 3 -0.003809 -0.004815 0.019444 0.000000 0.000000 0.000000
# 4 0.000000 0.000000 0.000000 0.046849 0.000000 0.000000
# 5 0.000000 0.000000 0.000000 0.000000 -0.134294 0.000000
# 6 0.000000 0.000000 0.000000 0.000000 0.000000 0.088630
#
#
# Mechanical properties :
#
#
# Convention : Reuss Voigt Hill
#
# Bulk Modulus (GPa) = 46.67902 48.79107 47.73504
# Shear Modulus (GPa) = 69.52112 17.27101 43.39607
#
# Velocity S-wave (km/s) = 5.78772 2.88475 4.57271
# Velocity P-wave (km/s) = 8.19482 5.88259 7.13302
#
# Compressibility (1/GPa) = 0.02142290
#
# Stress axis : x y z
#
# Youngs Moduli (GPa) = 90.43506 83.28706 51.42984
#
# Poissons Ratio (x) = 0.15974 0.19591
# Poissons Ratio (y) = 0.17345 0.24765
# Poissons Ratio (z) = 0.34450 0.40106
#
# Static dielectric constant tensor:
#      x y z
#    x 1.798650 0.000000 0.000000 
#    y 0.000000 1.817860 0.000000 
#    z 0.000000 0.000000 1.711430 
# 
# From -- ./inp_files/22550.got.cif
#   From: 2010.05.17/outbox.cif.g08.bks.cpg/sg62_12_cif.got.tgz:22550.got - 2010.06.03 15:25:27.
