data_PCOD9463088
_publ_section_title
;
Structure prediction by ZEFSAII (Michael W. Deem and Ramdas Pophale) SiO2 
 PCOD9463088
Probable space group: P N M A
;
_chemical_formula_sum "Si O2"
_cell_formula_units_Z 64
_cell_length_a 12.602299
_cell_length_b 15.328938
_cell_length_c 17.581133
_cell_angle_alpha 90.000000
_cell_angle_beta 90.000000
_cell_angle_gamma 90.000000
_cell_volume 3396.320812
_symmetry_space_group_name_H-M "P N M A"
_symmetry_group_IT_number 62
_symmetry_cell_setting 'orthorhombic'
loop_
_space_group_symop_operation_xyz
x,y,z
1/2-x,-y,1/2+z
1/2+x,1/2-y,1/2-z
-x,1/2+y,-z
-x,-y,-z
1/2+x,y,1/2-z
1/2-x,1/2+y,1/2+z
x,1/2-y,z
loop_
_atom_site_type_symbol
_atom_site_label
_atom_site_fract_x
_atom_site_fract_y
_atom_site_fract_z
Si Si1 0.756369 0.425369 0.821781
Si Si2 0.521154 0.414615 0.052693
Si Si3 0.902487 0.152550 0.703644
Si Si4 0.258119 0.851694 0.014851
Si Si5 0.137569 0.473178 0.980084
Si Si6 0.043675 0.515737 0.714109
Si Si7 0.526785 0.479992 0.370687
Si Si8 0.329391 0.344490 0.969771
O O1 0.795114 0.369059 0.750157
O O2 0.720388 0.370299 0.895363
O O3 0.666865 0.495726 0.800953
O O4 0.864920 0.472467 0.846999
O O5 0.509081 0.440082 0.140684
O O6 0.500000 0.500000 0.000000
O O7 0.634140 0.374332 0.030558
O O8 0.424881 0.352408 0.029007
O O9 0.938133 0.250000 0.723483
O O10 0.878401 0.148260 0.614290
O O11 0.990184 0.080043 0.721276
O O12 0.228885 0.750000 0.004513
O O13 0.171143 0.924666 0.990285
O O14 0.246299 0.421019 0.980742
O O15 0.071042 0.462596 0.902749
O O16 0.065715 0.437749 0.049884
O O17 0.017173 0.563319 0.793734
O O18 0.276725 0.250000 0.976417
#
# Coordination Sequence:
#
# PCOD9463088 Si02
#       8
#     8   8   8   8   8   8   8   8
#     4  10  19  34  53  81 115 145 182 226 285 349
#     4  12  19  35  55  82 115 151 188 235 265 324
#     4  10  20  31  47  80 117 143 177 226 280 349
#     4  11  21  34  58  85 114 153 189 229 283 335
#     4  10  19  40  58  80 114 145 192 230 282 337
#     4  11  20  34  56  79 109 148 188 227 287 333
#     4   9  21  36  59  83 108 148 187 237 279 338
#     4  11  21  35  57  83 113 152 189 230 283 334
#
# _framework density 18.843920000000001
#
# number of rings (size 3 to 8) (size 9 to 14) (size 15 to 20)
#    0.000    1.500    3.750    2.250    0.000    3.000 
#    0.000    9.375    0.000    4.500    0.000    0.000 
#    0.000    0.000    0.000    0.000    0.000    0.000 
#
# Total GULP energy -356568.862479 kJ/mol
# GULP energy per Si atom -5571.388476 kJ/mol
# Density = 1.880103 g / cm^3
# Si number density = 18.843920 Si / 1000 Ang^3
#
#
#
# Elastic Constant Matrix: (Units=GPa)
#
#
# Indices 1 2 3 4 5 6 
#
# 1 99.8546 18.9428 28.7919 0.0000 0.0000 0.0000
# 2 18.9428 54.4075 -2.5191 0.0000 0.0000 0.0000
# 3 28.7919 -2.5191 107.7617 0.0000 0.0000 0.0000
# 4 0.0000 0.0000 0.0000 8.4751 0.0000 0.0000
# 5 0.0000 0.0000 0.0000 0.0000 27.0591 0.0000
# 6 0.0000 0.0000 0.0000 0.0000 0.0000 5.9732
#
#
#
# Elastic Compliance Matrix: (Units=1/GPa)
#
#
# Indices 1 2 3 4 5 6 
#
# 1 0.011753 -0.004242 -0.003239 0.000000 0.000000 0.000000
# 2 -0.004242 0.019931 0.001599 0.000000 0.000000 0.000000
# 3 -0.003239 0.001599 0.010183 0.000000 0.000000 0.000000
# 4 0.000000 0.000000 0.000000 0.117993 0.000000 0.000000
# 5 0.000000 0.000000 0.000000 0.000000 0.036956 0.000000
# 6 0.000000 0.000000 0.000000 0.000000 0.000000 0.167414
#
#
# Mechanical properties :
#
#
# Convention : Reuss Voigt Hill
#
# Bulk Modulus (GPa) = 33.21993 39.16165 36.19079
# Shear Modulus (GPa) = 12.95241 22.75536 17.85389
#
# Velocity S-wave (km/s) = 2.62458 3.47878 3.08143
# Velocity P-wave (km/s) = 5.18188 6.07973 5.64867
#
# Compressibility (1/GPa) = 0.03010242
#
# Stress axis : x y z
#
# Youngs Moduli (GPa) = 85.08206 50.17351 98.20630
#
# Poissons Ratio (x) = 0.21284 0.31813
# Poissons Ratio (y) = 0.36093 -0.15706
# Poissons Ratio (z) = 0.27562 -0.08024
#
# Static dielectric constant tensor:
#      x y z
#    x 1.672530 0.000000 0.000000 
#    y 0.000000 1.677670 0.000000 
#    z 0.000000 0.000000 1.703840 
# 
# From -- ./inp_files/23232.got.cif
#   From: 2010.05.17/outbox.cif.g08.bks.cpg/sg62_12_cif.got.tgz:23232.got - 2010.06.03 15:25:27.
