data_PCOD9463341
_publ_section_title
;
Structure prediction by ZEFSAII (Michael W. Deem and Ramdas Pophale) SiO2 
 PCOD9463341
Probable space group: P N M A
;
_chemical_formula_sum "Si O2"
_cell_formula_units_Z 48
_cell_length_a 10.501664
_cell_length_b 7.562759
_cell_length_c 29.506442
_cell_angle_alpha 90.000000
_cell_angle_beta 90.000000
_cell_angle_gamma 90.000000
_cell_volume 2343.447475
_symmetry_space_group_name_H-M "P N M A"
_symmetry_group_IT_number 62
_symmetry_cell_setting 'orthorhombic'
loop_
_space_group_symop_operation_xyz
x,y,z
1/2-x,-y,1/2+z
1/2+x,1/2-y,1/2-z
-x,1/2+y,-z
-x,-y,-z
1/2+x,y,1/2-z
1/2-x,1/2+y,1/2+z
x,1/2-y,z
loop_
_atom_site_type_symbol
_atom_site_label
_atom_site_fract_x
_atom_site_fract_y
_atom_site_fract_z
Si Si1 0.743567 0.032636 0.857671
Si Si2 0.511464 0.963574 0.299819
Si Si3 0.998799 0.955660 0.302418
Si Si4 0.861828 0.464445 0.052500
Si Si5 0.660111 0.959473 0.452172
Si Si6 0.746492 0.541332 0.646233
O O1 0.743470 0.250000 0.859029
O O2 0.615703 0.970925 0.832871
O O3 0.761569 0.970741 0.909396
O O4 0.866316 0.976604 0.828457
O O5 0.519484 0.750000 0.298890
O O6 0.511591 0.031155 0.248182
O O7 0.380987 0.011793 0.324713
O O8 0.965274 0.750000 0.295538
O O9 0.131681 0.964076 0.328670
O O10 0.858327 0.250000 0.052347
O O11 0.781937 0.527634 0.095602
O O12 0.009945 0.515301 0.057997
O O13 0.818119 0.529906 0.002975
O O14 0.684124 0.750000 0.454500
O O15 0.769382 0.750000 0.642875
#
# Coordination Sequence:
#
# PCOD9463341 Si02
#       6
#     8   8   8   8   8   8
#     4   9  17  31  53  79 100 128 173 221 262 297
#     4  10  19  35  58  79  99 131 178 223 258 299
#     4  10  21  36  54  76 105 138 175 217 257 302
#     4   9  18  31  49  75 104 134 168 212 260 308
#     4   9  16  30  53  76  99 130 174 220 258 302
#     4  11  22  35  51  77 111 141 170 207 261 320
#
# _framework density 20.482645000000002
#
# number of rings (size 3 to 8) (size 9 to 14) (size 15 to 20)
#    0.000    2.333    1.667    1.500    0.000    4.000 
#    0.000    2.500    0.000    0.000    0.000    0.000 
#    0.000    0.000    0.000    0.000    0.000    0.000 
#
# Total GULP energy -267944.273327 kJ/mol
# GULP energy per Si atom -5582.172361 kJ/mol
# Density = 2.043603 g / cm^3
# Si number density = 20.482645 Si / 1000 Ang^3
#
#
#
# Elastic Constant Matrix: (Units=GPa)
#
#
# Indices 1 2 3 4 5 6 
#
# 1 99.1414 -14.6125 60.6128 0.0000 0.0000 0.0000
# 2 -14.6125 42.9295 -1.4521 0.0000 0.0000 0.0000
# 3 60.6128 -1.4521 189.1020 0.0000 0.0000 0.0000
# 4 0.0000 0.0000 0.0000 -10.3485 0.0000 0.0000
# 5 0.0000 0.0000 0.0000 0.0000 -10.6934 0.0000
# 6 0.0000 0.0000 0.0000 0.0000 0.0000 -52.4444
#
#
#
# Elastic Compliance Matrix: (Units=1/GPa)
#
#
# Indices 1 2 3 4 5 6 
#
# 1 0.013324 0.004392 -0.004237 0.000000 0.000000 0.000000
# 2 0.004392 0.024748 -0.001218 0.000000 0.000000 0.000000
# 3 -0.004237 -0.001218 0.006637 0.000000 0.000000 0.000000
# 4 0.000000 0.000000 0.000000 -0.096632 0.000000 0.000000
# 5 0.000000 0.000000 0.000000 0.000000 -0.093516 0.000000
# 6 0.000000 0.000000 0.000000 0.000000 0.000000 -0.019068
#
#
# Mechanical properties :
#
#
# Convention : Reuss Voigt Hill
#
# Bulk Modulus (GPa) = 23.48323 46.69659 35.08991
# Shear Modulus (GPa) = -33.74126 4.41104 -14.66511
#
# Velocity S-wave (km/s) = -4.06311 1.46909 -2.67868
# Velocity P-wave (km/s) = 3.24376 5.07201 2.75711
#
# Compressibility (1/GPa) = 0.04258359
#
# Stress axis : x y z
#
# Youngs Moduli (GPa) = 75.04986 40.40761 150.67183
#
# Poissons Ratio (x) = -0.17747 0.63842
# Poissons Ratio (y) = -0.32963 0.18348
# Poissons Ratio (z) = 0.31800 0.04921
#
# Static dielectric constant tensor:
#      x y z
#    x 1.667820 0.000000 0.000000 
#    y 0.000000 1.755470 0.000000 
#    z 0.000000 0.000000 1.759800 
# 
# From -- ./inp_files/31924.got.cif
#   From: 2010.05.17/outbox.cif.g08.bks.cpg/sg62_16_cif.got.tgz:31924.got - 2010.06.03 15:25:27.
