data_PCOD9463820
_publ_section_title
;
Structure prediction by ZEFSAII (Michael W. Deem and Ramdas Pophale) SiO2 
 PCOD9463820
Probable space group: P N M A
;
_chemical_formula_sum "Si O2"
_cell_formula_units_Z 56
_cell_length_a 18.424266
_cell_length_b 7.731115
_cell_length_c 19.851017
_cell_angle_alpha 90.000000
_cell_angle_beta 90.000000
_cell_angle_gamma 90.000000
_cell_volume 2827.581228
_symmetry_space_group_name_H-M "P N M A"
_symmetry_group_IT_number 62
_symmetry_cell_setting 'orthorhombic'
loop_
_space_group_symop_operation_xyz
x,y,z
1/2-x,-y,1/2+z
1/2+x,1/2-y,1/2-z
-x,1/2+y,-z
-x,-y,-z
1/2+x,y,1/2-z
1/2-x,1/2+y,1/2+z
x,1/2-y,z
loop_
_atom_site_type_symbol
_atom_site_label
_atom_site_fract_x
_atom_site_fract_y
_atom_site_fract_z
Si Si1 0.192265 0.959574 0.108049
Si Si2 0.469001 0.044533 0.572635
Si Si3 0.165264 0.551905 0.250918
Si Si4 0.496424 0.545462 0.715257
Si Si5 0.885268 0.460557 0.610045
Si Si6 0.838819 0.456752 0.463260
Si Si7 0.449483 0.455506 0.147809
O O1 0.190179 0.750000 0.257450
O O2 0.113629 0.021596 0.082297
O O3 0.204080 0.025022 0.185068
O O4 0.257099 0.010845 0.059670
O O5 0.466675 0.250000 0.578038
O O6 0.500000 0.000000 0.500000
O O7 0.514778 0.980531 0.637191
O O8 0.116833 0.750000 0.387765
O O9 0.080332 0.548469 0.228505
O O10 0.161892 0.475053 0.325863
O O11 0.483521 0.750000 0.725788
O O12 0.550350 0.483880 0.774270
O O13 0.689911 0.750000 0.388703
O O14 0.857665 0.522618 0.537743
O O15 0.968815 0.513038 0.621442
O O16 0.850303 0.250000 0.466665
O O17 0.892177 0.529133 0.405302
O O18 0.436527 0.250000 0.150121
#
# Coordination Sequence:
#
# PCOD9463820 Si02
#       7
#     8   8   8   8   8   8   8
#     4   9  19  34  50  69  95 127 161 199 244 295
#     4  10  20  35  55  77  99 124 161 208 253 296
#     4   8  15  30  49  67  89 118 157 201 241 285
#     4   9  16  28  48  72  97 124 156 195 238 284
#     4   9  17  30  50  73  96 126 165 208 247 286
#     4  10  20  32  47  71 103 134 163 200 247 296
#     4   9  18  31  47  71 102 133 166 203 242 290
#
# _framework density 19.804912000000002
#
# number of rings (size 3 to 8) (size 9 to 14) (size 15 to 20)
#    0.000    2.857    0.000    2.143    0.000    4.571 
#    0.000    1.429    0.000    3.429    0.000    0.000 
#    0.000    0.000    0.000    0.000    0.000    0.000 
#
# Total GULP energy -311942.913228 kJ/mol
# GULP energy per Si atom -5570.409165 kJ/mol
# Density = 1.975984 g / cm^3
# Si number density = 19.804912 Si / 1000 Ang^3
#
#
#
# Elastic Constant Matrix: (Units=GPa)
#
#
# Indices 1 2 3 4 5 6 
#
# 1 46.0883 -9.9679 61.8790 0.0000 0.0000 0.0000
# 2 -9.9679 30.8510 0.9809 0.0000 0.0000 0.0000
# 3 61.8790 0.9809 214.9935 0.0000 0.0000 0.0000
# 4 0.0000 0.0000 0.0000 12.1639 0.0000 0.0000
# 5 0.0000 0.0000 0.0000 0.0000 8.2534 0.0000
# 6 0.0000 0.0000 0.0000 0.0000 0.0000 18.5077
#
#
#
# Elastic Compliance Matrix: (Units=1/GPa)
#
#
# Indices 1 2 3 4 5 6 
#
# 1 0.040205 0.013360 -0.011633 0.000000 0.000000 0.000000
# 2 0.013360 0.036858 -0.004013 0.000000 0.000000 0.000000
# 3 -0.011633 -0.004013 0.008018 0.000000 0.000000 0.000000
# 4 0.000000 0.000000 0.000000 0.082210 0.000000 0.000000
# 5 0.000000 0.000000 0.000000 0.000000 0.121162 0.000000
# 6 0.000000 0.000000 0.000000 0.000000 0.000000 0.054032
#
#
# Mechanical properties :
#
#
# Convention : Reuss Voigt Hill
#
# Bulk Modulus (GPa) = 12.42097 44.19075 28.30586
# Shear Modulus (GPa) = 13.37280 23.72106 18.54693
#
# Velocity S-wave (km/s) = 2.60133 3.46459 3.06352
# Velocity P-wave (km/s) = 3.91252 6.19403 5.18043
#
# Compressibility (1/GPa) = 0.08050904
#
# Stress axis : x y z
#
# Youngs Moduli (GPa) = 24.87228 27.13107 124.72332
#
# Poissons Ratio (x) = -0.36247 1.45088
# Poissons Ratio (y) = -0.33230 0.50057
# Poissons Ratio (z) = 0.28933 0.10889
#
# Static dielectric constant tensor:
#      x y z
#    x 1.657280 0.000000 0.000000 
#    y 0.000000 1.735220 0.000000 
#    z 0.000000 0.000000 1.770970 
# 
# From -- ./inp_files/24576.got.cif
#   From: 2010.05.17/outbox.cif.g08.bks.cpg/sg62_13_cif.got.tgz:24576.got - 2010.06.03 15:25:27.
