data_PCOD9463419
_publ_section_title
;
Structure prediction by ZEFSAII (Michael W. Deem and Ramdas Pophale) SiO2 
 PCOD9463419
Probable space group: P N M A
;
_chemical_formula_sum "Si O2"
_cell_formula_units_Z 56
_cell_length_a 21.981109
_cell_length_b 8.010656
_cell_length_c 15.032349
_cell_angle_alpha 90.000000
_cell_angle_beta 90.000000
_cell_angle_gamma 90.000000
_cell_volume 2646.942653
_symmetry_space_group_name_H-M "P N M A"
_symmetry_group_IT_number 62
_symmetry_cell_setting 'orthorhombic'
loop_
_space_group_symop_operation_xyz
x,y,z
1/2-x,-y,1/2+z
1/2+x,1/2-y,1/2-z
-x,1/2+y,-z
-x,-y,-z
1/2+x,y,1/2-z
1/2-x,1/2+y,1/2+z
x,1/2-y,z
loop_
_atom_site_type_symbol
_atom_site_label
_atom_site_fract_x
_atom_site_fract_y
_atom_site_fract_z
Si Si1 0.760737 0.950432 0.396760
Si Si2 0.962046 0.553735 0.585400
Si Si3 0.405349 0.451716 0.402919
Si Si4 0.015392 0.552087 0.223308
Si Si5 0.714919 0.951110 0.701440
Si Si6 0.378632 0.045655 0.600737
Si Si7 0.324439 0.954867 0.920624
O O1 0.758033 0.750000 0.403399
O O2 0.690983 0.011917 0.394681
O O3 0.796333 0.007879 0.484423
O O4 0.790827 0.995624 0.303279
O O5 0.954857 0.750000 0.578082
O O6 0.994746 0.515485 0.678230
O O7 0.893311 0.482532 0.588974
O O8 0.000000 0.500000 0.500000
O O9 0.405510 0.250000 0.402542
O O10 0.461534 0.511297 0.344533
O O11 0.342152 0.507743 0.357734
O O12 0.406450 0.505455 0.505615
O O13 0.020387 0.750000 0.230832
O O14 0.078327 0.486431 0.180370
O O15 0.715270 0.750000 0.698487
O O16 0.778105 0.009700 0.656876
O O17 0.378136 0.250000 0.602520
O O18 0.324660 0.750000 0.919115
#
# Coordination Sequence:
#
# PCOD9463419 Si02
#       7
#     8   8   8   8   8   8   8
#     4  10  19  35  60  86 113 148 188 233 288 345
#     4  11  24  42  62  86 117 157 200 244 292 345
#     4  10  20  37  60  85 116 153 193 240 293 347
#     4  11  23  38  58  86 118 155 197 241 289 348
#     4  10  20  36  58  86 116 149 191 237 287 346
#     4   9  18  36  61  87 116 154 195 236 290 350
#     4   9  19  38  62  84 112 151 190 231 284 345
#
# _framework density 21.156483000000001
#
# number of rings (size 3 to 8) (size 9 to 14) (size 15 to 20)
#    0.000    2.000    1.429    2.143    2.000    0.571 
#    0.000    4.286    0.000    0.000    0.000    0.000 
#    0.000    0.000    0.000    0.000    0.000    0.000 
#
# Total GULP energy -312931.008647 kJ/mol
# GULP energy per Si atom -5588.053726 kJ/mol
# Density = 2.110833 g / cm^3
# Si number density = 21.156483 Si / 1000 Ang^3
#
#
#
# Elastic Constant Matrix: (Units=GPa)
#
#
# Indices 1 2 3 4 5 6 
#
# 1 40.5571 2.7790 -14.1999 0.0000 0.0000 0.0000
# 2 2.7790 13.5391 -2.7263 0.0000 0.0000 0.0000
# 3 -14.1999 -2.7263 96.1863 0.0000 0.0000 0.0000
# 4 0.0000 0.0000 0.0000 18.5452 0.0000 0.0000
# 5 0.0000 0.0000 0.0000 0.0000 29.9100 0.0000
# 6 0.0000 0.0000 0.0000 0.0000 0.0000 15.7151
#
#
#
# Elastic Compliance Matrix: (Units=1/GPa)
#
#
# Indices 1 2 3 4 5 6 
#
# 1 0.026287 -0.004641 0.003749 0.000000 0.000000 0.000000
# 2 -0.004641 0.075103 0.001444 0.000000 0.000000 0.000000
# 3 0.003749 0.001444 0.010991 0.000000 0.000000 0.000000
# 4 0.000000 0.000000 0.000000 0.053922 0.000000 0.000000
# 5 0.000000 0.000000 0.000000 0.000000 0.033434 0.000000
# 6 0.000000 0.000000 0.000000 0.000000 0.000000 0.063633
#
#
# Mechanical properties :
#
#
# Convention : Reuss Voigt Hill
#
# Bulk Modulus (GPa) = 8.81167 13.55423 11.18295
# Shear Modulus (GPa) = 16.66140 23.79603 20.22872
#
# Velocity S-wave (km/s) = 2.80934 3.35739 3.09552
# Velocity P-wave (km/s) = 3.83370 4.63141 4.25131
#
# Compressibility (1/GPa) = 0.11348585
#
# Stress axis : x y z
#
# Youngs Moduli (GPa) = 38.04122 13.31500 90.98430
#
# Poissons Ratio (x) = 0.06179 -0.34112
# Poissons Ratio (y) = 0.17654 -0.13134
# Poissons Ratio (z) = -0.14263 -0.01922
#
# Static dielectric constant tensor:
#      x y z
#    x 1.752570 0.000000 0.000000 
#    y 0.000000 1.760430 0.000000 
#    z 0.000000 0.000000 1.685810 
# 
# From -- ./inp_files/20212.got.cif
#   From: 2010.05.17/outbox.cif.g08.bks.cpg/sg62_11_cif.got.tgz:20212.got - 2010.06.03 15:25:27.
