data_PCOD9463179
_publ_section_title
;
Structure prediction by ZEFSAII (Michael W. Deem and Ramdas Pophale) SiO2 
 PCOD9463179
Probable space group: P N M A
;
_chemical_formula_sum "Si O2"
_cell_formula_units_Z 40
_cell_length_a 12.670734
_cell_length_b 14.491340
_cell_length_c 9.322759
_cell_angle_alpha 90.000000
_cell_angle_beta 90.000000
_cell_angle_gamma 90.000000
_cell_volume 1711.806919
_symmetry_space_group_name_H-M "P N M A"
_symmetry_group_IT_number 62
_symmetry_cell_setting 'orthorhombic'
loop_
_space_group_symop_operation_xyz
x,y,z
1/2-x,-y,1/2+z
1/2+x,1/2-y,1/2-z
-x,1/2+y,-z
-x,-y,-z
1/2+x,y,1/2-z
1/2-x,1/2+y,1/2+z
x,1/2-y,z
loop_
_atom_site_type_symbol
_atom_site_label
_atom_site_fract_x
_atom_site_fract_y
_atom_site_fract_z
Si Si1 0.303769 0.033108 0.692776
Si Si2 0.990335 0.090136 0.623601
Si Si3 0.628935 0.352329 0.631428
Si Si4 0.930857 0.360930 0.044461
Si Si5 0.374165 0.417306 0.134483
O O1 0.408313 0.028147 0.786574
O O2 0.221688 0.084919 0.802194
O O3 0.340489 0.093306 0.555649
O O4 0.249916 0.937114 0.645884
O O5 0.928693 0.138091 0.493688
O O6 0.046269 0.155618 0.736475
O O7 0.083460 0.018804 0.586227
O O8 0.668015 0.250000 0.591785
O O9 0.547821 0.390524 0.510857
O O10 0.926270 0.250000 0.029369
O O11 0.911931 0.387751 0.209208
#
# Coordination Sequence:
#
# PCOD9463179 Si02
#       5
#     8   8   8   8   8
#     4  10  19  34  57  79 106 144 185 224 271 334
#     4   9  20  34  53  77 104 140 179 220 270 331
#     4   9  19  35  53  75 106 145 184 225 276 330
#     4  10  21  36  56  83 113 145 185 235 283 327
#     4  10  20  35  54  81 109 140 183 228 275 325
#
# _framework density 23.367121999999998
#
# number of rings (size 3 to 8) (size 9 to 14) (size 15 to 20)
#    0.000    2.400    0.000    1.800    0.000   10.400 
#    0.000    0.000    0.000    8.400    0.000    0.000 
#    0.000    0.000    0.000    0.000    0.000    0.000 
#
# Total GULP energy -222961.121844 kJ/mol
# GULP energy per Si atom -5574.028046 kJ/mol
# Density = 2.331394 g / cm^3
# Si number density = 23.367122 Si / 1000 Ang^3
#
#
#
# Elastic Constant Matrix: (Units=GPa)
#
#
# Indices 1 2 3 4 5 6 
#
# 1 87.7227 10.6018 14.7466 0.0000 0.0000 0.0000
# 2 10.6018 50.9991 3.0567 0.0000 0.0000 0.0000
# 3 14.7466 3.0567 132.5151 0.0000 0.0000 0.0000
# 4 0.0000 0.0000 0.0000 6.6048 0.0000 0.0000
# 5 0.0000 0.0000 0.0000 0.0000 36.1706 0.0000
# 6 0.0000 0.0000 0.0000 0.0000 0.0000 15.0609
#
#
#
# Elastic Compliance Matrix: (Units=1/GPa)
#
#
# Indices 1 2 3 4 5 6 
#
# 1 0.011903 -0.002398 -0.001269 0.000000 0.000000 0.000000
# 2 -0.002398 0.020119 -0.000197 0.000000 0.000000 0.000000
# 3 -0.001269 -0.000197 0.007692 0.000000 0.000000 0.000000
# 4 0.000000 0.000000 0.000000 0.151406 0.000000 0.000000
# 5 0.000000 0.000000 0.000000 0.000000 0.027647 0.000000
# 6 0.000000 0.000000 0.000000 0.000000 0.000000 0.066397
#
#
# Mechanical properties :
#
#
# Convention : Reuss Voigt Hill
#
# Bulk Modulus (GPa) = 31.26564 36.44968 33.85766
# Shear Modulus (GPa) = 16.47154 27.75603 22.11379
#
# Velocity S-wave (km/s) = 2.65788 3.45022 3.07964
# Velocity P-wave (km/s) = 4.77790 5.61290 5.21215
#
# Compressibility (1/GPa) = 0.03198399
#
# Stress axis : x y z
#
# Youngs Moduli (GPa) = 84.01404 49.70527 130.00351
#
# Poissons Ratio (x) = 0.11921 0.16501
# Poissons Ratio (y) = 0.20149 0.02563
# Poissons Ratio (z) = 0.10663 0.00980
#
# Static dielectric constant tensor:
#      x y z
#    x 1.931340 0.000000 0.000000 
#    y 0.000000 2.004140 0.000000 
#    z 0.000000 0.000000 2.017610 
# 
# From -- ./inp_files/5003.got.cif
#   From: 2010.05.17/outbox.cif.g08.bks.cpg/sg62_3_cif.got.tgz:5003.got - 2010.06.03 15:25:27.
