data_PCOD9463073
_publ_section_title
;
Structure prediction by ZEFSAII (Michael W. Deem and Ramdas Pophale) SiO2 
 PCOD9463073
Probable space group: P N M A
;
_chemical_formula_sum "Si O2"
_cell_formula_units_Z 48
_cell_length_a 5.093775
_cell_length_b 25.668866
_cell_length_c 23.019168
_cell_angle_alpha 90.000000
_cell_angle_beta 90.000000
_cell_angle_gamma 90.000000
_cell_volume 3009.789085
_symmetry_space_group_name_H-M "P N M A"
_symmetry_group_IT_number 62
_symmetry_cell_setting 'orthorhombic'
loop_
_space_group_symop_operation_xyz
x,y,z
1/2-x,-y,1/2+z
1/2+x,1/2-y,1/2-z
-x,1/2+y,-z
-x,-y,-z
1/2+x,y,1/2-z
1/2-x,1/2+y,1/2+z
x,1/2-y,z
loop_
_atom_site_type_symbol
_atom_site_label
_atom_site_fract_x
_atom_site_fract_y
_atom_site_fract_z
Si Si1 0.397435 0.809264 0.415683
Si Si2 0.187614 0.548517 0.513151
Si Si3 0.889860 0.875562 0.445144
Si Si4 0.914514 0.028351 0.908122
Si Si5 0.125543 0.172054 0.784319
Si Si6 0.653457 0.453669 0.714677
O O1 0.368805 0.750000 0.436426
O O2 0.631889 0.839921 0.447747
O O3 0.460481 0.808738 0.347167
O O4 0.126653 0.841301 0.420127
O O5 0.316089 0.529001 0.572916
O O6 0.405277 0.547939 0.462120
O O7 0.000000 0.500000 0.500000
O O8 0.008873 0.599247 0.504171
O O9 0.809253 0.926276 0.406011
O O10 0.072155 0.026966 0.848685
O O11 0.413379 0.188032 0.763713
O O12 0.134564 0.109181 0.788193
O O13 0.937681 0.469592 0.737424
#
# Coordination Sequence:
#
# PCOD9463073 Si02
#       6
#     8   8   8   8   8   8
#     4  12  24  35  49  65  89 127 164 211 260 297
#     4   9  19  31  57  76  92 121 155 216 255 289
#     4  11  20  36  51  68  95 117 159 214 249 300
#     4  10  19  34  52  76  97 121 164 209 251 300
#     4  10  20  32  47  60  83 120 167 213 255 286
#     4  10  21  30  47  69  96 133 160 198 251 298
#
# _framework density 15.947960999999999
#
# number of rings (size 3 to 8) (size 9 to 14) (size 15 to 20)
#    0.000    1.667    3.333    1.500    9.333    0.667 
#    0.000    0.000    0.000    0.000    0.000    0.000 
#    0.000    0.000    0.000    0.000    0.000   16.667 
#
# Total GULP energy -267667.183978 kJ/mol
# GULP energy per Si atom -5576.399666 kJ/mol
# Density = 1.591166 g / cm^3
# Si number density = 15.947961 Si / 1000 Ang^3
#
#
#
# Elastic Constant Matrix: (Units=GPa)
#
#
# Indices 1 2 3 4 5 6 
#
# 1 74.6719 23.1478 4.6813 0.0000 0.0000 0.0000
# 2 23.1478 60.1226 26.3856 0.0000 0.0000 0.0000
# 3 4.6813 26.3856 32.7250 0.0000 0.0000 0.0000
# 4 0.0000 0.0000 0.0000 12.4206 0.0000 0.0000
# 5 0.0000 0.0000 0.0000 0.0000 19.0113 0.0000
# 6 0.0000 0.0000 0.0000 0.0000 0.0000 3.0801
#
#
#
# Elastic Compliance Matrix: (Units=1/GPa)
#
#
# Indices 1 2 3 4 5 6 
#
# 1 0.015542 -0.007751 0.004026 0.000000 0.000000 0.000000
# 2 -0.007751 0.029606 -0.022762 0.000000 0.000000 0.000000
# 3 0.004026 -0.022762 0.048335 0.000000 0.000000 0.000000
# 4 0.000000 0.000000 0.000000 0.080512 0.000000 0.000000
# 5 0.000000 0.000000 0.000000 0.000000 0.052600 0.000000
# 6 0.000000 0.000000 0.000000 0.000000 0.000000 0.324664
#
#
# Mechanical properties :
#
#
# Convention : Reuss Voigt Hill
#
# Bulk Modulus (GPa) = 24.68585 30.66098 27.67341
# Shear Modulus (GPa) = 8.09407 14.45605 11.27506
#
# Velocity S-wave (km/s) = 2.25529 3.01400 2.66181
# Velocity P-wave (km/s) = 4.72169 5.60175 5.18044
#
# Compressibility (1/GPa) = 0.04050904
#
# Stress axis : x y z
#
# Youngs Moduli (GPa) = 64.34094 33.77652 20.68907
#
# Poissons Ratio (x) = 0.26179 -0.08329
# Poissons Ratio (y) = 0.49869 0.47093
# Poissons Ratio (z) = -0.25904 0.76883
#
# Static dielectric constant tensor:
#      x y z
#    x 1.625670 0.000000 0.000000 
#    y 0.000000 1.556630 0.000000 
#    z 0.000000 0.000000 1.548480 
# 
# From -- ./inp_files/28426.got.cif
#   From: 2010.05.17/outbox.cif.g08.bks.cpg/sg62_15_cif.got.tgz:28426.got - 2010.06.03 15:25:27.
