data_PCOD9463969
_publ_section_title
;
Structure prediction by ZEFSAII (Michael W. Deem and Ramdas Pophale) SiO2 
 PCOD9463969
Probable space group: P N M A
;
_chemical_formula_sum "Si O2"
_cell_formula_units_Z 64
_cell_length_a 16.471699
_cell_length_b 8.281675
_cell_length_c 21.341775
_cell_angle_alpha 90.000000
_cell_angle_beta 90.000000
_cell_angle_gamma 90.000000
_cell_volume 2911.301055
_symmetry_space_group_name_H-M "P N M A"
_symmetry_group_IT_number 62
_symmetry_cell_setting 'orthorhombic'
loop_
_space_group_symop_operation_xyz
x,y,z
1/2-x,-y,1/2+z
1/2+x,1/2-y,1/2-z
-x,1/2+y,-z
-x,-y,-z
1/2+x,y,1/2-z
1/2-x,1/2+y,1/2+z
x,1/2-y,z
loop_
_atom_site_type_symbol
_atom_site_label
_atom_site_fract_x
_atom_site_fract_y
_atom_site_fract_z
Si Si1 0.518909 0.443690 0.070646
Si Si2 0.473596 0.944621 0.568059
Si Si3 0.396475 0.566409 0.760712
Si Si4 0.346899 0.053856 0.084665
Si Si5 0.732785 0.559110 0.676581
Si Si6 0.054588 0.440997 0.802484
Si Si7 0.683343 0.435583 0.375151
Si Si8 0.192011 0.940121 0.441252
O O1 0.528667 0.250000 0.072537
O O2 0.436545 0.500123 0.104247
O O3 0.603123 0.524179 0.088127
O O4 0.500000 0.500000 0.000000
O O5 0.471958 0.750000 0.570164
O O6 0.382161 0.011281 0.578885
O O7 0.500000 0.000000 0.500000
O O8 0.526124 0.998965 0.628161
O O9 0.407137 0.750000 0.785251
O O10 0.317929 0.490216 0.795642
O O11 0.487101 0.498693 0.748609
O O12 0.360454 0.571353 0.690737
O O13 0.355449 0.250000 0.084025
O O14 0.273385 0.996347 0.127488
O O15 0.319324 0.007166 0.013780
O O16 0.734153 0.750000 0.688664
O O17 0.648195 0.495841 0.704428
O O18 0.741501 0.525403 0.602091
O O19 0.051988 0.250000 0.802750
O O20 0.695193 0.250000 0.396614
O O21 0.208547 0.750000 0.441315
#
# Coordination Sequence:
#
# PCOD9463969 Si02
#       8
#     8   8   8   8   8   8   8   8
#     4   9  16  29  48  72 106 147 187 230 281 341
#     4  10  20  34  56  86 122 158 199 244 296 358
#     4   9  20  41  64  84 112 150 198 251 300 354
#     4   8  15  28  50  79 110 143 185 230 283 348
#     4  11  23  40  62  89 119 155 202 254 304 360
#     4  11  23  40  63  88 121 161 199 246 307 366
#     4   8  15  31  54  79 106 141 186 237 286 343
#     4  10  20  33  52  80 115 152 190 237 295 357
#
# _framework density 21.983298000000001
#
# number of rings (size 3 to 8) (size 9 to 14) (size 15 to 20)
#    0.000    2.500    0.000    4.125    1.750    1.000 
#    2.250    0.000    0.000   10.500    0.000    0.000 
#    0.000    0.000    0.000    0.000    0.000    0.000 
#
# Total GULP energy -356538.372096 kJ/mol
# GULP energy per Si atom -5570.912064 kJ/mol
# Density = 2.193326 g / cm^3
# Si number density = 21.983298 Si / 1000 Ang^3
#
#
#
# Elastic Constant Matrix: (Units=GPa)
#
#
# Indices 1 2 3 4 5 6 
#
# 1 125.7163 20.2561 40.0028 0.0000 0.0000 0.0000
# 2 20.2561 51.7022 7.9536 0.0000 0.0000 0.0000
# 3 40.0028 7.9536 39.3629 0.0000 0.0000 0.0000
# 4 0.0000 0.0000 0.0000 11.0432 0.0000 0.0000
# 5 0.0000 0.0000 0.0000 0.0000 27.0913 0.0000
# 6 0.0000 0.0000 0.0000 0.0000 0.0000 22.1176
#
#
#
# Elastic Compliance Matrix: (Units=1/GPa)
#
#
# Indices 1 2 3 4 5 6 
#
# 1 0.012180 -0.002960 -0.011780 0.000000 0.000000 0.000000
# 2 -0.002960 0.020681 -0.001171 0.000000 0.000000 0.000000
# 3 -0.011780 -0.001171 0.037612 0.000000 0.000000 0.000000
# 4 0.000000 0.000000 0.000000 0.090553 0.000000 0.000000
# 5 0.000000 0.000000 0.000000 0.000000 0.036912 0.000000
# 6 0.000000 0.000000 0.000000 0.000000 0.000000 0.045213
#
#
# Mechanical properties :
#
#
# Convention : Reuss Voigt Hill
#
# Bulk Modulus (GPa) = 25.87146 39.24515 32.55831
# Shear Modulus (GPa) = 17.36980 21.95502 19.66241
#
# Velocity S-wave (km/s) = 2.81399 3.16367 2.99394
# Velocity P-wave (km/s) = 4.72782 5.58893 5.17631
#
# Compressibility (1/GPa) = 0.03865263
#
# Stress axis : x y z
#
# Youngs Moduli (GPa) = 82.10506 48.35305 26.58709
#
# Poissons Ratio (x) = 0.14311 0.31318
# Poissons Ratio (y) = 0.24300 0.03113
# Poissons Ratio (z) = 0.96716 0.05662
#
# Static dielectric constant tensor:
#      x y z
#    x 1.895200 0.000000 0.000000 
#    y 0.000000 1.782910 0.000000 
#    z 0.000000 0.000000 1.896200 
# 
# From -- ./inp_files/29936.got.cif
#   From: 2010.05.17/outbox.cif.g08.bks.cpg/sg62_15_cif.got.tgz:29936.got - 2010.06.03 15:25:27.
