data_PCOD9463666
_publ_section_title
;
Structure prediction by ZEFSAII (Michael W. Deem and Ramdas Pophale) SiO2 
 PCOD9463666
Probable space group: P N M A
;
_chemical_formula_sum "Si O2"
_cell_formula_units_Z 56
_cell_length_a 14.567061
_cell_length_b 12.877115
_cell_length_c 14.632834
_cell_angle_alpha 90.000000
_cell_angle_beta 90.000000
_cell_angle_gamma 90.000000
_cell_volume 2744.852166
_symmetry_space_group_name_H-M "P N M A"
_symmetry_group_IT_number 62
_symmetry_cell_setting 'orthorhombic'
loop_
_space_group_symop_operation_xyz
x,y,z
1/2-x,-y,1/2+z
1/2+x,1/2-y,1/2-z
-x,1/2+y,-z
-x,-y,-z
1/2+x,y,1/2-z
1/2-x,1/2+y,1/2+z
x,1/2-y,z
loop_
_atom_site_type_symbol
_atom_site_label
_atom_site_fract_x
_atom_site_fract_y
_atom_site_fract_z
Si Si1 0.703509 0.866675 0.883235
Si Si2 0.519784 0.126106 0.611358
Si Si3 0.275151 0.130680 0.407630
Si Si4 0.057131 0.637687 0.462619
Si Si5 0.916505 0.454978 0.236733
Si Si6 0.362271 0.980990 0.546810
Si Si7 0.430270 0.576557 0.867541
O O1 0.693284 0.750000 0.844877
O O2 0.650244 0.949878 0.822966
O O3 0.807171 0.901681 0.891034
O O4 0.652590 0.865327 0.980965
O O5 0.513068 0.250000 0.616186
O O6 0.424477 0.064383 0.598821
O O7 0.566531 0.069303 0.697456
O O8 0.577574 0.087772 0.522987
O O9 0.278236 0.250000 0.437470
O O10 0.361577 0.108037 0.341005
O O11 0.289841 0.049509 0.489299
O O12 0.175624 0.109161 0.362803
O O13 0.046150 0.750000 0.418847
O O14 0.058588 0.545338 0.390890
O O15 0.980061 0.625890 0.542649
O O16 0.009683 0.404143 0.276726
#
# Coordination Sequence:
#
# PCOD9463666 Si02
#       7
#     8   8   8   8   8   8   8
#     4  10  19  37  62  90 121 155 198 251 305 361
#     4  10  22  42  62  86 124 165 204 256 311 362
#     4  11  22  38  60  88 120 159 204 256 307 356
#     4   9  18  34  59  85 113 151 192 242 301 357
#     4  10  24  39  57  87 126 158 206 250 299 374
#     4  10  21  39  66  91 117 154 212 256 300 369
#     4  10  20  37  57  86 121 155 199 249 298 362
#
# _framework density 20.401828999999999
#
# number of rings (size 3 to 8) (size 9 to 14) (size 15 to 20)
#    0.000    2.000    1.429    1.714    2.000    2.286 
#    0.000    3.571    0.000    0.000    0.000    0.000 
#    0.000    0.000    0.000    0.000    0.000    0.000 
#
# Total GULP energy -312434.188009 kJ/mol
# GULP energy per Si atom -5579.181929 kJ/mol
# Density = 2.035539 g / cm^3
# Si number density = 20.401829 Si / 1000 Ang^3
#
#
#
# Elastic Constant Matrix: (Units=GPa)
#
#
# Indices 1 2 3 4 5 6 
#
# 1 95.9921 46.9350 21.2314 0.0000 0.0000 0.0000
# 2 46.9350 106.8092 17.6198 0.0000 0.0000 0.0000
# 3 21.2314 17.6198 33.0286 0.0000 0.0000 0.0000
# 4 0.0000 0.0000 0.0000 14.7040 0.0000 0.0000
# 5 0.0000 0.0000 0.0000 0.0000 22.4906 0.0000
# 6 0.0000 0.0000 0.0000 0.0000 0.0000 10.1495
#
#
#
# Elastic Compliance Matrix: (Units=1/GPa)
#
#
# Indices 1 2 3 4 5 6 
#
# 1 0.014424 -0.005273 -0.006459 0.000000 0.000000 0.000000
# 2 -0.005273 0.012193 -0.003115 0.000000 0.000000 0.000000
# 3 -0.006459 -0.003115 0.036091 0.000000 0.000000 0.000000
# 4 0.000000 0.000000 0.000000 0.068009 0.000000 0.000000
# 5 0.000000 0.000000 0.000000 0.000000 0.044463 0.000000
# 6 0.000000 0.000000 0.000000 0.000000 0.000000 0.098527
#
#
# Mechanical properties :
#
#
# Convention : Reuss Voigt Hill
#
# Bulk Modulus (GPa) = 30.29052 45.26691 37.77872
# Shear Modulus (GPa) = 15.90296 19.47174 17.68735
#
# Velocity S-wave (km/s) = 2.79496 3.09271 2.94759
# Velocity P-wave (km/s) = 5.02940 5.91515 5.49017
#
# Compressibility (1/GPa) = 0.03301363
#
# Stress axis : x y z
#
# Youngs Moduli (GPa) = 69.32722 82.01103 27.70784
#
# Poissons Ratio (x) = 0.43244 0.17897
# Poissons Ratio (y) = 0.36556 0.08632
# Poissons Ratio (z) = 0.44780 0.25549
#
# Static dielectric constant tensor:
#      x y z
#    x 1.766840 0.000000 0.000000 
#    y 0.000000 1.694890 0.000000 
#    z 0.000000 0.000000 1.771880 
# 
# From -- ./inp_files/18980.got.cif
#   From: 2010.05.17/outbox.cif.g08.bks.cpg/sg62_10_cif.got.tgz:18980.got - 2010.06.03 15:25:27.
