data_PCOD9463316
_publ_section_title
;
Structure prediction by ZEFSAII (Michael W. Deem and Ramdas Pophale) SiO2 
 PCOD9463316
Probable space group: P N M A
;
_chemical_formula_sum "Si O2"
_cell_formula_units_Z 40
_cell_length_a 12.781354
_cell_length_b 18.242326
_cell_length_c 8.838550
_cell_angle_alpha 90.000000
_cell_angle_beta 90.000000
_cell_angle_gamma 90.000000
_cell_volume 2060.810693
_symmetry_space_group_name_H-M "P N M A"
_symmetry_group_IT_number 62
_symmetry_cell_setting 'orthorhombic'
loop_
_space_group_symop_operation_xyz
x,y,z
1/2-x,-y,1/2+z
1/2+x,1/2-y,1/2-z
-x,1/2+y,-z
-x,-y,-z
1/2+x,y,1/2-z
1/2-x,1/2+y,1/2+z
x,1/2-y,z
loop_
_atom_site_type_symbol
_atom_site_label
_atom_site_fract_x
_atom_site_fract_y
_atom_site_fract_z
Si Si1 0.726321 0.561371 0.043217
Si Si2 0.606557 0.666566 0.466524
Si Si3 0.823256 0.666076 0.285083
Si Si4 0.507523 0.934093 0.215011
Si Si5 0.146841 0.560365 0.787555
O O1 0.786680 0.626961 0.129371
O O2 0.609573 0.559497 0.112496
O O3 0.787476 0.488119 0.092256
O O4 0.714663 0.568292 0.864192
O O5 0.567698 0.750000 0.458109
O O6 0.721828 0.665390 0.391810
O O7 0.539716 0.609581 0.367105
O O8 0.615532 0.635905 0.635077
O O9 0.855656 0.750000 0.263017
O O10 0.915638 0.616625 0.353440
O O11 0.455125 0.011822 0.249422
#
# Coordination Sequence:
#
# PCOD9463316 Si02
#       5
#     8   8   8   8   8
#     4  10  21  35  56  81 107 140 180 223 268 318
#     4  10  21  36  54  78 109 142 176 218 268 321
#     4   9  19  36  56  79 109 144 179 217 266 322
#     4  10  19  35  57  80 105 139 179 221 268 318
#     4  11  21  36  56  80 108 139 179 223 269 319
#
# _framework density 19.409835999999999
#
# number of rings (size 3 to 8) (size 9 to 14) (size 15 to 20)
#    0.000    2.000    0.000    5.400    0.000    3.200 
#    0.000    0.000    0.000    6.000    0.000    0.000 
#    0.000    0.000    0.000    0.000    0.000    0.000 
#
# Total GULP energy -223406.478189 kJ/mol
# GULP energy per Si atom -5585.161955 kJ/mol
# Density = 1.936566 g / cm^3
# Si number density = 19.409836 Si / 1000 Ang^3
#
#
#
# Elastic Constant Matrix: (Units=GPa)
#
#
# Indices 1 2 3 4 5 6 
#
# 1 62.1399 0.0027 -15.8369 0.0000 0.0000 0.0000
# 2 0.0027 64.1363 12.4129 0.0000 0.0000 0.0000
# 3 -15.8369 12.4129 59.3337 0.0000 0.0000 0.0000
# 4 0.0000 0.0000 0.0000 21.5720 0.0000 0.0000
# 5 0.0000 0.0000 0.0000 0.0000 9.9941 0.0000
# 6 0.0000 0.0000 0.0000 0.0000 0.0000 9.6862
#
#
#
# Elastic Compliance Matrix: (Units=1/GPa)
#
#
# Indices 1 2 3 4 5 6 
#
# 1 0.017321 -0.000933 0.004818 0.000000 0.000000 0.000000
# 2 -0.000933 0.016300 -0.003659 0.000000 0.000000 0.000000
# 3 0.004818 -0.003659 0.018905 0.000000 0.000000 0.000000
# 4 0.000000 0.000000 0.000000 0.046356 0.000000 0.000000
# 5 0.000000 0.000000 0.000000 0.000000 0.100059 0.000000
# 6 0.000000 0.000000 0.000000 0.000000 0.000000 0.103240
#
#
# Mechanical properties :
#
#
# Convention : Reuss Voigt Hill
#
# Bulk Modulus (GPa) = 18.87574 19.86305 19.36939
# Shear Modulus (GPa) = 15.65492 20.85255 18.25374
#
# Velocity S-wave (km/s) = 2.84306 3.28125 3.06998
# Velocity P-wave (km/s) = 4.53026 4.96097 4.75050
#
# Compressibility (1/GPa) = 0.05297807
#
# Stress axis : x y z
#
# Youngs Moduli (GPa) = 57.73420 61.34960 52.89491
#
# Poissons Ratio (x) = 0.05726 -0.25487
# Poissons Ratio (y) = 0.05388 0.19355
# Poissons Ratio (z) = -0.27818 0.22449
#
# Static dielectric constant tensor:
#      x y z
#    x 1.696550 0.000000 0.000000 
#    y 0.000000 1.675790 0.000000 
#    z 0.000000 0.000000 1.677170 
# 
# From -- ./inp_files/5016.got.cif
#   From: 2010.05.17/outbox.cif.g08.bks.cpg/sg62_3_cif.got.tgz:5016.got - 2010.06.03 15:25:27.
