data_PCOD9463493
_publ_section_title
;
Structure prediction by ZEFSAII (Michael W. Deem and Ramdas Pophale) SiO2 
 PCOD9463493
Probable space group: P N M A
;
_chemical_formula_sum "Si O2"
_cell_formula_units_Z 64
_cell_length_a 20.425773
_cell_length_b 7.517303
_cell_length_c 19.053839
_cell_angle_alpha 90.000000
_cell_angle_beta 90.000000
_cell_angle_gamma 90.000000
_cell_volume 2925.654570
_symmetry_space_group_name_H-M "P N M A"
_symmetry_group_IT_number 62
_symmetry_cell_setting 'orthorhombic'
loop_
_space_group_symop_operation_xyz
x,y,z
1/2-x,-y,1/2+z
1/2+x,1/2-y,1/2-z
-x,1/2+y,-z
-x,-y,-z
1/2+x,y,1/2-z
1/2-x,1/2+y,1/2+z
x,1/2-y,z
loop_
_atom_site_type_symbol
_atom_site_label
_atom_site_fract_x
_atom_site_fract_y
_atom_site_fract_z
Si Si1 0.940964 0.537032 0.947537
Si Si2 0.901509 0.031433 0.295591
Si Si3 0.358030 0.967075 0.800774
Si Si4 0.020442 0.032970 0.207101
Si Si5 0.704971 0.034767 0.464157
Si Si6 0.333137 0.957041 0.958394
Si Si7 0.946476 0.446666 0.442982
Si Si8 0.252519 0.033068 0.191015
O O1 0.934758 0.750000 0.941465
O O2 0.958235 0.470116 0.869641
O O3 0.869766 0.472874 0.972858
O O4 0.000000 0.500000 0.000000
O O5 0.899586 0.250000 0.297060
O O6 0.934333 0.963858 0.368106
O O7 0.826295 0.974182 0.293273
O O8 0.948421 0.978727 0.231943
O O9 0.356971 0.750000 0.802214
O O10 0.425924 0.021059 0.764827
O O11 0.348616 0.026090 0.880692
O O12 0.299128 0.024053 0.749850
O O13 0.021302 0.250000 0.205653
O O14 0.706240 0.250000 0.465915
O O15 0.729663 0.978614 0.386732
O O16 0.757291 0.972123 0.521233
O O17 0.352499 0.750000 0.961282
O O18 0.377102 0.050804 0.017117
O O19 0.967746 0.250000 0.422958
O O20 0.000000 0.500000 0.500000
O O21 0.251818 0.250000 0.190768
#
# Coordination Sequence:
#
# PCOD9463493 Si02
#       8
#     8   8   8   8   8   8   8   8
#     4  10  21  36  59  85 111 146 186 230 283 337
#     4   9  17  28  50  80 104 132 181 235 273 311
#     4   9  17  30  51  79 108 137 182 235 275 316
#     4   9  16  30  51  78 107 137 181 234 276 315
#     4  10  19  36  58  79 108 151 191 227 279 342
#     4  11  22  34  54  87 117 143 180 236 288 332
#     4  11  21  35  54  80 113 151 187 227 277 335
#     4   9  15  29  52  76 101 137 184 230 272 317
#
# _framework density 21.875444999999999
#
# number of rings (size 3 to 8) (size 9 to 14) (size 15 to 20)
#    0.000    2.250    2.500    1.500    0.000    3.500 
#    0.000    2.500    0.000    6.000    0.000    0.000 
#    0.000    0.000    0.000    0.000    0.000    0.000 
#
# Total GULP energy -357484.304328 kJ/mol
# GULP energy per Si atom -5585.692255 kJ/mol
# Density = 2.182566 g / cm^3
# Si number density = 21.875445 Si / 1000 Ang^3
#
#
#
# Elastic Constant Matrix: (Units=GPa)
#
#
# Indices 1 2 3 4 5 6 
#
# 1 145.1803 -8.9517 26.4767 0.0000 0.0000 0.0000
# 2 -8.9517 53.4567 -9.6049 0.0000 0.0000 0.0000
# 3 26.4767 -9.6049 84.8385 0.0000 0.0000 0.0000
# 4 0.0000 0.0000 0.0000 6.2981 0.0000 0.0000
# 5 0.0000 0.0000 0.0000 0.0000 43.6184 0.0000
# 6 0.0000 0.0000 0.0000 0.0000 0.0000 13.4462
#
#
#
# Elastic Compliance Matrix: (Units=1/GPa)
#
#
# Indices 1 2 3 4 5 6 
#
# 1 0.007340 0.000835 -0.002196 0.000000 0.000000 0.000000
# 2 0.000835 0.019190 0.001912 0.000000 0.000000 0.000000
# 3 -0.002196 0.001912 0.012689 0.000000 0.000000 0.000000
# 4 0.000000 0.000000 0.000000 0.158778 0.000000 0.000000
# 5 0.000000 0.000000 0.000000 0.000000 0.022926 0.000000
# 6 0.000000 0.000000 0.000000 0.000000 0.000000 0.074370
#
#
# Mechanical properties :
#
#
# Convention : Reuss Voigt Hill
#
# Bulk Modulus (GPa) = 24.80166 33.25731 29.02949
# Shear Modulus (GPa) = 16.25318 31.04291 23.64804
#
# Velocity S-wave (km/s) = 2.72874 3.77115 3.29147
# Velocity P-wave (km/s) = 4.61414 5.84792 5.26728
#
# Compressibility (1/GPa) = 0.04031987
#
# Stress axis : x y z
#
# Youngs Moduli (GPa) = 136.24040 52.11040 78.80860
#
# Poissons Ratio (x) = -0.04349 0.17308
# Poissons Ratio (y) = -0.11370 -0.15069
# Poissons Ratio (z) = 0.29921 -0.09964
#
# Static dielectric constant tensor:
#      x y z
#    x 1.780920 0.000000 0.000000 
#    y 0.000000 1.853780 0.000000 
#    z 0.000000 0.000000 1.765820 
# 
# From -- ./inp_files/24721.got.cif
#   From: 2010.05.17/outbox.cif.g08.bks.cpg/sg62_13_cif.got.tgz:24721.got - 2010.06.03 15:25:27.
