data_PCOD9463517
_publ_section_title
;
Structure prediction by ZEFSAII (Michael W. Deem and Ramdas Pophale) SiO2 
 PCOD9463517
Probable space group: P N M A
;
_chemical_formula_sum "Si O2"
_cell_formula_units_Z 64
_cell_length_a 28.742901
_cell_length_b 8.725535
_cell_length_c 12.929533
_cell_angle_alpha 90.000000
_cell_angle_beta 90.000000
_cell_angle_gamma 90.000000
_cell_volume 3242.690527
_symmetry_space_group_name_H-M "P N M A"
_symmetry_group_IT_number 62
_symmetry_cell_setting 'orthorhombic'
loop_
_space_group_symop_operation_xyz
x,y,z
1/2-x,-y,1/2+z
1/2+x,1/2-y,1/2-z
-x,1/2+y,-z
-x,-y,-z
1/2+x,y,1/2-z
1/2-x,1/2+y,1/2+z
x,1/2-y,z
loop_
_atom_site_type_symbol
_atom_site_label
_atom_site_fract_x
_atom_site_fract_y
_atom_site_fract_z
Si Si1 0.463392 0.067456 0.305787
Si Si2 0.935276 0.569895 0.402784
Si Si3 0.909478 0.932968 0.627469
Si Si4 0.689926 0.573459 0.081408
Si Si5 0.787521 0.433242 0.138475
Si Si6 0.381616 0.436447 0.458784
Si Si7 0.338510 0.073483 0.147510
Si Si8 0.558959 0.566657 0.345430
O O1 0.466472 0.250000 0.309840
O O2 0.415904 0.019865 0.364232
O O3 0.463891 0.014853 0.186309
O O4 0.507276 0.995865 0.363853
O O5 0.945798 0.750000 0.400117
O O6 0.936246 0.514876 0.522244
O O7 0.881932 0.537718 0.368802
O O8 0.914535 0.750000 0.633481
O O9 0.855268 0.976949 0.613749
O O10 0.926590 0.008674 0.732503
O O11 0.681907 0.750000 0.112087
O O12 0.738410 0.513150 0.123928
O O13 0.691260 0.567288 0.956776
O O14 0.781348 0.250000 0.125396
O O15 0.808363 0.459970 0.252343
O O16 0.828843 0.487017 0.061738
O O17 0.380476 0.250000 0.458492
O O18 0.405302 0.486222 0.565647
O O19 0.356724 0.250000 0.158195
O O20 0.558123 0.750000 0.346870
#
# Coordination Sequence:
#
# PCOD9463517 Si02
#       8
#     8   8   8   8   8   8   8   8
#     4  11  21  38  62  87 117 156 195 236 294 354
#     4  10  20  35  59  87 113 143 191 245 288 337
#     4  10  22  41  60  82 115 157 195 236 295 354
#     4  10  21  36  56  86 115 146 190 241 290 342
#     4  10  19  36  59  83 112 151 191 233 288 351
#     4   9  20  38  60  85 117 154 194 239 291 345
#     4   9  18  35  57  78 109 149 188 232 288 346
#     4  11  23  39  59  87 121 156 196 243 289 342
#
# _framework density 19.736698000000001
#
# number of rings (size 3 to 8) (size 9 to 14) (size 15 to 20)
#    0.000    2.000    1.250    2.250    0.000    4.000 
#    0.000    5.625    0.000    0.000    0.000    0.000 
#    0.000    0.000    0.000    0.000    0.000    0.000 
#
# Total GULP energy -357385.385998 kJ/mol
# GULP energy per Si atom -5584.146656 kJ/mol
# Density = 1.969178 g / cm^3
# Si number density = 19.736698 Si / 1000 Ang^3
#
#
#
# Elastic Constant Matrix: (Units=GPa)
#
#
# Indices 1 2 3 4 5 6 
#
# 1 45.0367 -3.0350 6.7992 0.0000 0.0000 0.0000
# 2 -3.0350 34.2023 16.2600 0.0000 0.0000 0.0000
# 3 6.7992 16.2600 81.4596 0.0000 0.0000 0.0000
# 4 0.0000 0.0000 0.0000 20.9156 0.0000 0.0000
# 5 0.0000 0.0000 0.0000 0.0000 20.3356 0.0000
# 6 0.0000 0.0000 0.0000 0.0000 0.0000 32.0671
#
#
#
# Elastic Compliance Matrix: (Units=1/GPa)
#
#
# Indices 1 2 3 4 5 6 
#
# 1 0.022807 0.003236 -0.002550 0.000000 0.000000 0.000000
# 2 0.003236 0.032762 -0.006810 0.000000 0.000000 0.000000
# 3 -0.002550 -0.006810 0.013848 0.000000 0.000000 0.000000
# 4 0.000000 0.000000 0.000000 0.047811 0.000000 0.000000
# 5 0.000000 0.000000 0.000000 0.000000 0.049175 0.000000
# 6 0.000000 0.000000 0.000000 0.000000 0.000000 0.031185
#
#
# Mechanical properties :
#
#
# Convention : Reuss Voigt Hill
#
# Bulk Modulus (GPa) = 17.49148 22.30524 19.89836
# Shear Modulus (GPa) = 21.84438 24.04196 22.94317
#
# Velocity S-wave (km/s) = 3.33045 3.49397 3.41319
# Velocity P-wave (km/s) = 4.86527 5.25386 5.06329
#
# Compressibility (1/GPa) = 0.05717070
#
# Stress axis : x y z
#
# Youngs Moduli (GPa) = 43.84607 30.52284 72.21202
#
# Poissons Ratio (x) = -0.09877 0.18411
# Poissons Ratio (y) = -0.14188 0.49174
# Poissons Ratio (z) = 0.11179 0.20785
#
# Static dielectric constant tensor:
#      x y z
#    x 1.685650 0.000000 0.000000 
#    y 0.000000 1.677890 0.000000 
#    z 0.000000 0.000000 1.704370 
# 
# From -- ./inp_files/15822.got.cif
#   From: 2010.05.17/outbox.cif.g08.bks.cpg/sg62_8_cif.got.tgz:15822.got - 2010.06.03 15:25:27.
