data_PCOD9463922
_publ_section_title
;
Structure prediction by ZEFSAII (Michael W. Deem and Ramdas Pophale) SiO2 
 PCOD9463922
Probable space group: P N M A
;
_chemical_formula_sum "Si O2"
_cell_formula_units_Z 48
_cell_length_a 8.083109
_cell_length_b 7.575827
_cell_length_c 29.106085
_cell_angle_alpha 90.000000
_cell_angle_beta 90.000000
_cell_angle_gamma 90.000000
_cell_volume 1782.347073
_symmetry_space_group_name_H-M "P N M A"
_symmetry_group_IT_number 62
_symmetry_cell_setting 'orthorhombic'
loop_
_space_group_symop_operation_xyz
x,y,z
1/2-x,-y,1/2+z
1/2+x,1/2-y,1/2-z
-x,1/2+y,-z
-x,-y,-z
1/2+x,y,1/2-z
1/2-x,1/2+y,1/2+z
x,1/2-y,z
loop_
_atom_site_type_symbol
_atom_site_label
_atom_site_fract_x
_atom_site_fract_y
_atom_site_fract_z
Si Si1 0.550367 0.960629 0.095164
Si Si2 0.139571 0.963336 0.679842
Si Si3 0.780158 0.455276 0.508448
Si Si4 0.549859 0.037029 0.433144
Si Si5 0.557218 0.045530 0.262233
Si Si6 0.639734 0.458292 0.654313
O O1 0.569407 0.750000 0.091474
O O2 0.580266 0.030032 0.043316
O O3 0.702096 0.030929 0.126706
O O4 0.393413 0.994682 0.127050
O O5 0.146279 0.750000 0.681603
O O6 0.990836 0.029761 0.712894
O O7 0.299142 0.034790 0.706605
O O8 0.815128 0.250000 0.500799
O O9 0.612300 0.467203 0.539718
O O10 0.711498 0.532948 0.460547
O O11 0.551561 0.250000 0.436465
O O12 0.513583 0.990667 0.380594
O O13 0.596920 0.250000 0.254619
O O14 0.399148 0.038412 0.296301
O O15 0.659744 0.250000 0.660166
#
# Coordination Sequence:
#
# PCOD9463922 Si02
#       6
#     8   8   8   8   8   8
#     4   9  18  32  50  74 105 136 166 202 245 294
#     4  10  21  36  55  77 100 128 165 207 250 301
#     4   8  15  27  43  69 103 135 169 208 248 292
#     4   9  15  25  45  71 100 134 169 208 251 291
#     4  10  21  37  55  75  99 128 164 206 252 301
#     4  10  20  33  50  75 105 135 169 208 250 298
#
# _framework density 26.930779999999999
#
# number of rings (size 3 to 8) (size 9 to 14) (size 15 to 20)
#    0.000    2.667    0.000    3.000    0.000    6.667 
#    0.000    0.000    0.000    1.000    0.000    0.000 
#    0.000    0.000    0.000    0.000    0.000    0.000 
#
# Total GULP energy -268396.326759 kJ/mol
# GULP energy per Si atom -5591.590141 kJ/mol
# Density = 2.686948 g / cm^3
# Si number density = 26.930780 Si / 1000 Ang^3
#
#
#
# Elastic Constant Matrix: (Units=GPa)
#
#
# Indices 1 2 3 4 5 6 
#
# 1 84.9501 6.5093 32.5252 0.0000 0.0000 0.0000
# 2 6.5093 95.7625 4.2779 0.0000 0.0000 0.0000
# 3 32.5252 4.2779 203.0742 0.0000 0.0000 0.0000
# 4 0.0000 0.0000 0.0000 25.3221 0.0000 0.0000
# 5 0.0000 0.0000 0.0000 0.0000 54.4717 0.0000
# 6 0.0000 0.0000 0.0000 0.0000 0.0000 6.9062
#
#
#
# Elastic Compliance Matrix: (Units=1/GPa)
#
#
# Indices 1 2 3 4 5 6 
#
# 1 0.012597 -0.000767 -0.002001 0.000000 0.000000 0.000000
# 2 -0.000767 0.010499 -0.000098 0.000000 0.000000 0.000000
# 3 -0.002001 -0.000098 0.005247 0.000000 0.000000 0.000000
# 4 0.000000 0.000000 0.000000 0.039491 0.000000 0.000000
# 5 0.000000 0.000000 0.000000 0.000000 0.018358 0.000000
# 6 0.000000 0.000000 0.000000 0.000000 0.000000 0.144797
#
#
# Mechanical properties :
#
#
# Convention : Reuss Voigt Hill
#
# Bulk Modulus (GPa) = 44.22924 52.26795 48.24860
# Shear Modulus (GPa) = 20.47013 40.03829 30.25421
#
# Velocity S-wave (km/s) = 2.75999 3.85997 3.35536
# Velocity P-wave (km/s) = 5.15904 6.27027 5.74160
#
# Compressibility (1/GPa) = 0.02260948
#
# Stress axis : x y z
#
# Youngs Moduli (GPa) = 79.38621 95.24696 190.58771
#
# Poissons Ratio (x) = 0.07304 0.38144
# Poissons Ratio (y) = 0.06088 0.01874
# Poissons Ratio (z) = 0.15888 0.00937
#
# Static dielectric constant tensor:
#      x y z
#    x 2.255790 0.000000 0.000000 
#    y 0.000000 1.961020 0.000000 
#    z 0.000000 0.000000 2.092000 
# 
# From -- ./inp_files/31992.got.cif
#   From: 2010.05.17/outbox.cif.g08.bks.cpg/sg62_16_cif.got.tgz:31992.got - 2010.06.03 15:25:27.
