data_PCOD9463244
_publ_section_title
;
Structure prediction by ZEFSAII (Michael W. Deem and Ramdas Pophale) SiO2 
 PCOD9463244
Probable space group: P N M A
;
_chemical_formula_sum "Si O2"
_cell_formula_units_Z 48
_cell_length_a 12.732652
_cell_length_b 17.960717
_cell_length_c 8.652004
_cell_angle_alpha 90.000000
_cell_angle_beta 90.000000
_cell_angle_gamma 90.000000
_cell_volume 1978.605677
_symmetry_space_group_name_H-M "P N M A"
_symmetry_group_IT_number 62
_symmetry_cell_setting 'orthorhombic'
loop_
_space_group_symop_operation_xyz
x,y,z
1/2-x,-y,1/2+z
1/2+x,1/2-y,1/2-z
-x,1/2+y,-z
-x,-y,-z
1/2+x,y,1/2-z
1/2-x,1/2+y,1/2+z
x,1/2-y,z
loop_
_atom_site_type_symbol
_atom_site_label
_atom_site_fract_x
_atom_site_fract_y
_atom_site_fract_z
Si Si1 0.897724 0.836268 0.761943
Si Si2 0.354549 0.524475 0.330010
Si Si3 0.057545 0.593842 0.013082
Si Si4 0.258935 0.333402 0.970284
Si Si5 0.034161 0.832157 0.312358
Si Si6 0.901300 0.554274 0.476929
O O1 0.918398 0.750000 0.709225
O O2 0.791157 0.834176 0.861295
O O3 0.988387 0.862944 0.883882
O O4 0.884237 0.900788 0.634103
O O5 0.347363 0.449049 0.431073
O O6 0.475318 0.542871 0.385901
O O7 0.286159 0.593651 0.386686
O O8 0.331836 0.509400 0.149343
O O9 0.092980 0.646156 0.153967
O O10 0.231004 0.250000 0.906182
O O11 0.383465 0.337955 0.951955
O O12 0.995872 0.750000 0.290868
O O13 0.936254 0.880774 0.359974
O O14 0.000000 0.500000 0.500000
#
# Coordination Sequence:
#
# PCOD9463244 Si02
#       6
#     8   8   8   8   8   8
#     4  10  19  34  59  87 117 159 204 243 292 355
#     4   9  18  34  56  81 114 149 191 243 292 349
#     4   9  17  33  58  83 109 149 197 246 289 344
#     4   9  20  38  58  83 116 155 198 248 303 357
#     4  10  21  38  59  84 118 156 198 250 303 354
#     4  11  21  36  56  86 119 155 199 249 291 354
#
# _framework density 24.259506999999999
#
# number of rings (size 3 to 8) (size 9 to 14) (size 15 to 20)
#    0.000    2.333    1.667    1.000    2.333    4.667 
#    3.000    1.667    0.000    4.000    0.000    0.000 
#    0.000    0.000    0.000    0.000    0.000    0.000 
#
# Total GULP energy -267361.355453 kJ/mol
# GULP energy per Si atom -5570.028239 kJ/mol
# Density = 2.420429 g / cm^3
# Si number density = 24.259507 Si / 1000 Ang^3
#
#
#
# Elastic Constant Matrix: (Units=GPa)
#
#
# Indices 1 2 3 4 5 6 
#
# 1 27.8278 -3.6075 10.7287 0.0000 0.0000 0.0000
# 2 -3.6075 58.4327 12.4845 0.0000 0.0000 0.0000
# 3 10.7287 12.4845 98.2157 0.0000 0.0000 0.0000
# 4 0.0000 0.0000 0.0000 37.4200 0.0000 0.0000
# 5 0.0000 0.0000 0.0000 0.0000 15.8549 0.0000
# 6 0.0000 0.0000 0.0000 0.0000 0.0000 18.2270
#
#
#
# Elastic Compliance Matrix: (Units=1/GPa)
#
#
# Indices 1 2 3 4 5 6 
#
# 1 0.038137 0.003335 -0.004590 0.000000 0.000000 0.000000
# 2 0.003335 0.017883 -0.002637 0.000000 0.000000 0.000000
# 3 -0.004590 -0.002637 0.011018 0.000000 0.000000 0.000000
# 4 0.000000 0.000000 0.000000 0.026724 0.000000 0.000000
# 5 0.000000 0.000000 0.000000 0.000000 0.063072 0.000000
# 6 0.000000 0.000000 0.000000 0.000000 0.000000 0.054864
#
#
# Mechanical properties :
#
#
# Convention : Reuss Voigt Hill
#
# Bulk Modulus (GPa) = 16.87642 24.85416 20.86529
# Shear Modulus (GPa) = 20.90004 25.29175 23.09590
#
# Velocity S-wave (km/s) = 2.93835 3.23236 3.08885
# Velocity P-wave (km/s) = 4.29925 4.91917 4.61962
#
# Compressibility (1/GPa) = 0.05925429
#
# Stress axis : x y z
#
# Youngs Moduli (GPa) = 26.22104 55.91867 90.75796
#
# Poissons Ratio (x) = -0.18650 0.41657
# Poissons Ratio (y) = -0.08745 0.23937
# Poissons Ratio (z) = 0.12035 0.14749
#
# Static dielectric constant tensor:
#      x y z
#    x 2.015800 0.000000 0.000000 
#    y 0.000000 4.844140 0.000000 
#    z 0.000000 0.000000 2.207310 
# 
# From -- ./inp_files/7821.got.cif
#   From: 2010.05.17/outbox.cif.g08.bks.cpg/sg62_4_cif.got.tgz:7821.got - 2010.06.03 15:25:27.
