data_PCOD9463235
_publ_section_title
;
Structure prediction by ZEFSAII (Michael W. Deem and Ramdas Pophale) SiO2 
 PCOD9463235
Probable space group: P N M A
;
_chemical_formula_sum "Si O2"
_cell_formula_units_Z 40
_cell_length_a 5.199983
_cell_length_b 23.390578
_cell_length_c 16.012979
_cell_angle_alpha 90.000000
_cell_angle_beta 90.000000
_cell_angle_gamma 90.000000
_cell_volume 1947.668371
_symmetry_space_group_name_H-M "P N M A"
_symmetry_group_IT_number 62
_symmetry_cell_setting 'orthorhombic'
loop_
_space_group_symop_operation_xyz
x,y,z
1/2-x,-y,1/2+z
1/2+x,1/2-y,1/2-z
-x,1/2+y,-z
-x,-y,-z
1/2+x,y,1/2-z
1/2-x,1/2+y,1/2+z
x,1/2-y,z
loop_
_atom_site_type_symbol
_atom_site_label
_atom_site_fract_x
_atom_site_fract_y
_atom_site_fract_z
Si Si1 0.765350 0.508980 0.195230
Si Si2 0.864426 0.122895 0.615179
Si Si3 0.640751 0.814325 0.359646
Si Si4 0.246624 0.623265 0.805337
Si Si5 0.905947 0.685808 0.529135
O O1 0.549783 0.516760 0.267272
O O2 0.702974 0.557120 0.127486
O O3 0.739355 0.443326 0.166992
O O4 0.638238 0.160717 0.654283
O O5 0.128414 0.142044 0.660617
O O6 0.903433 0.142465 0.519164
O O7 0.678459 0.750000 0.326890
O O8 0.678476 0.810949 0.460551
O O9 0.468588 0.632375 0.736064
O O10 0.308083 0.662901 0.883545
O O11 0.015324 0.750000 0.535630
#
# Coordination Sequence:
#
# PCOD9463235 Si02
#       5
#     8   8   8   8   8
#     4  10  21  39  58  80 114 150 185 230 279 329
#     4  10  19  34  59  83 108 149 187 228 277 329
#     4   9  18  33  54  81 110 140 178 225 273 321
#     4  10  23  39  56  82 115 149 187 229 276 332
#     4   9  21  37  59  84 113 147 186 231 278 328
#
# _framework density 20.537378
#
# number of rings (size 3 to 8) (size 9 to 14) (size 15 to 20)
#    1.200    1.200    0.000    2.400    2.800    1.600 
#    0.000    1.000    0.000   20.400    0.000    0.000 
#    0.000    0.000    0.000    0.000    0.000    0.000 
#
# Total GULP energy -222974.529202 kJ/mol
# GULP energy per Si atom -5574.363230 kJ/mol
# Density = 2.049063 g / cm^3
# Si number density = 20.537378 Si / 1000 Ang^3
#
#
#
# Elastic Constant Matrix: (Units=GPa)
#
#
# Indices 1 2 3 4 5 6 
#
# 1 69.0346 -19.1461 -25.2706 0.0000 0.0000 0.0000
# 2 -19.1461 48.7250 29.7259 0.0000 0.0000 0.0000
# 3 -25.2706 29.7259 47.7891 0.0000 0.0000 0.0000
# 4 0.0000 0.0000 0.0000 58.1073 0.0000 0.0000
# 5 0.0000 0.0000 0.0000 0.0000 -7.7720 0.0000
# 6 0.0000 0.0000 0.0000 0.0000 0.0000 22.8989
#
#
#
# Elastic Compliance Matrix: (Units=1/GPa)
#
#
# Indices 1 2 3 4 5 6 
#
# 1 0.018089 0.002050 0.008290 0.000000 0.000000 0.000000
# 2 0.002050 0.033307 -0.019633 0.000000 0.000000 0.000000
# 3 0.008290 -0.019633 0.037521 0.000000 0.000000 0.000000
# 4 0.000000 0.000000 0.000000 0.017210 0.000000 0.000000
# 5 0.000000 0.000000 0.000000 0.000000 -0.128668 0.000000
# 6 0.000000 0.000000 0.000000 0.000000 0.000000 0.043670
#
#
# Mechanical properties :
#
#
# Convention : Reuss Voigt Hill
#
# Bulk Modulus (GPa) = 14.21859 15.12968 14.67414
# Shear Modulus (GPa) = 79.16539 26.66282 52.91410
#
# Velocity S-wave (km/s) = 6.21536 3.60704 5.08141
# Velocity P-wave (km/s) = 7.64499 4.97298 6.44889
#
# Compressibility (1/GPa) = 0.07033045
#
# Stress axis : x y z
#
# Youngs Moduli (GPa) = 55.28318 30.02378 26.65151
#
# Poissons Ratio (x) = -0.06156 -0.22094
# Poissons Ratio (y) = -0.11335 0.52326
# Poissons Ratio (z) = -0.45829 0.58947
#
# Static dielectric constant tensor:
#      x y z
#    x 1.733900 0.000000 0.000000 
#    y 0.000000 1.730380 0.000000 
#    z 0.000000 0.000000 1.730080 
# 
# From -- ./inp_files/21497.got.cif
#   From: 2010.05.17/outbox.cif.g08.bks.cpg/sg62_11_cif.got.tgz:21497.got - 2010.06.03 15:25:27.
