data_PCOD9463677
_publ_section_title
;
Structure prediction by ZEFSAII (Michael W. Deem and Ramdas Pophale) SiO2 
 PCOD9463677
Probable space group: P N M A
;
_chemical_formula_sum "Si O2"
_cell_formula_units_Z 48
_cell_length_a 14.078778
_cell_length_b 18.275842
_cell_length_c 10.010169
_cell_angle_alpha 90.000000
_cell_angle_beta 90.000000
_cell_angle_gamma 90.000000
_cell_volume 2575.631722
_symmetry_space_group_name_H-M "P N M A"
_symmetry_group_IT_number 62
_symmetry_cell_setting 'orthorhombic'
loop_
_space_group_symop_operation_xyz
x,y,z
1/2-x,-y,1/2+z
1/2+x,1/2-y,1/2-z
-x,1/2+y,-z
-x,-y,-z
1/2+x,y,1/2-z
1/2-x,1/2+y,1/2+z
x,1/2-y,z
loop_
_atom_site_type_symbol
_atom_site_label
_atom_site_fract_x
_atom_site_fract_y
_atom_site_fract_z
Si Si1 0.030356 0.250000 0.219934
Si Si2 0.808518 0.099624 0.875953
Si Si3 0.490233 0.250000 0.962338
Si Si4 0.613994 0.625852 0.672287
Si Si5 0.625831 0.001960 0.880273
Si Si6 0.743007 0.250000 0.221028
Si Si7 0.294612 0.750000 0.098712
Si Si8 0.062611 0.907144 0.375780
O O1 0.010522 0.250000 0.379305
O O2 0.978431 0.322076 0.163362
O O3 0.143441 0.250000 0.203060
O O4 0.728768 0.037316 0.865089
O O5 0.755924 0.177080 0.848604
O O6 0.890659 0.087231 0.768765
O O7 0.849867 0.104360 0.025642
O O8 0.591952 0.250000 0.886096
O O9 0.436117 0.176320 0.924420
O O10 0.600737 0.555492 0.764150
O O11 0.693281 0.678131 0.741718
O O12 0.545906 0.064885 0.879263
O O13 0.617242 0.958892 0.019797
O O14 0.721824 0.250000 0.061909
#
# Coordination Sequence:
#
# PCOD9463677 Si02
#       8
#     4   8   4   8   8   4   4   8
#     4  10  19  37  64  89 114 151 207 247 287 357
#     4  11  22  40  60  88 124 154 197 253 304 348
#     4  11  18  39  65  85 114 155 209 246 279 352
#     4  10  21  38  62  87 120 151 198 250 295 355
#     4  11  23  40  60  91 119 161 205 235 298 370
#     4   8  19  34  63  87 106 156 193 241 299 342
#     4   9  18  36  62  85 110 154 199 244 293 345
#     4  11  24  38  65  87 118 164 200 246 297 356
#
# _framework density 18.636206000000001
#
# number of rings (size 3 to 8) (size 9 to 14) (size 15 to 20)
#    0.000    1.667    3.333    2.000    0.000    2.000 
#    0.000    1.667    3.667    0.000    0.000    0.000 
#    0.000    0.000    0.000    0.000    0.000    0.000 
#
# Total GULP energy -268056.925224 kJ/mol
# GULP energy per Si atom -5584.519275 kJ/mol
# Density = 1.859379 g / cm^3
# Si number density = 18.636206 Si / 1000 Ang^3
#
#
#
# Elastic Constant Matrix: (Units=GPa)
#
#
# Indices 1 2 3 4 5 6 
#
# 1 51.4044 5.9085 -1.5621 0.0000 0.0000 0.0000
# 2 5.9085 89.2571 13.3002 0.0000 0.0000 0.0000
# 3 -1.5621 13.3002 55.6546 0.0000 0.0000 0.0000
# 4 0.0000 0.0000 0.0000 4.8135 0.0000 0.0000
# 5 0.0000 0.0000 0.0000 0.0000 18.6914 0.0000
# 6 0.0000 0.0000 0.0000 0.0000 0.0000 10.0679
#
#
#
# Elastic Compliance Matrix: (Units=1/GPa)
#
#
# Indices 1 2 3 4 5 6 
#
# 1 0.019646 -0.001434 0.000894 0.000000 0.000000 0.000000
# 2 -0.001434 0.011722 -0.002842 0.000000 0.000000 0.000000
# 3 0.000894 -0.002842 0.018672 0.000000 0.000000 0.000000
# 4 0.000000 0.000000 0.000000 0.207748 0.000000 0.000000
# 5 0.000000 0.000000 0.000000 0.000000 0.053500 0.000000
# 6 0.000000 0.000000 0.000000 0.000000 0.000000 0.099326
#
#
# Mechanical properties :
#
#
# Convention : Reuss Voigt Hill
#
# Bulk Modulus (GPa) = 23.10685 25.73437 24.42061
# Shear Modulus (GPa) = 11.57937 18.62586 15.10261
#
# Velocity S-wave (km/s) = 2.49537 3.16483 2.84983
# Velocity P-wave (km/s) = 4.55283 5.21475 4.89499
#
# Compressibility (1/GPa) = 0.04327722
#
# Stress axis : x y z
#
# Youngs Moduli (GPa) = 50.90209 85.31033 53.55583
#
# Poissons Ratio (x) = 0.12231 -0.04788
# Poissons Ratio (y) = 0.07298 0.15218
# Poissons Ratio (z) = -0.04551 0.24241
#
# Static dielectric constant tensor:
#      x y z
#    x 1.637100 0.000000 0.000000 
#    y 0.000000 1.638460 0.000000 
#    z 0.000000 0.000000 1.603670 
# 
# From -- ./inp_files/6536.got.cif
#   From: 2010.05.17/outbox.cif.g08.bks.cpg/sg62_4_cif.got.tgz:6536.got - 2010.06.03 15:25:27.
