data_PCOD9463942
_publ_section_title
;
Structure prediction by ZEFSAII (Michael W. Deem and Ramdas Pophale) SiO2 
 PCOD9463942
Probable space group: P N M A
;
_chemical_formula_sum "Si O2"
_cell_formula_units_Z 64
_cell_length_a 14.596718
_cell_length_b 8.616802
_cell_length_c 30.824844
_cell_angle_alpha 90.000000
_cell_angle_beta 90.000000
_cell_angle_gamma 90.000000
_cell_volume 3877.057293
_symmetry_space_group_name_H-M "P N M A"
_symmetry_group_IT_number 62
_symmetry_cell_setting 'orthorhombic'
loop_
_space_group_symop_operation_xyz
x,y,z
1/2-x,-y,1/2+z
1/2+x,1/2-y,1/2-z
-x,1/2+y,-z
-x,-y,-z
1/2+x,y,1/2-z
1/2-x,1/2+y,1/2+z
x,1/2-y,z
loop_
_atom_site_type_symbol
_atom_site_label
_atom_site_fract_x
_atom_site_fract_y
_atom_site_fract_z
Si Si1 0.703750 0.432059 0.369118
Si Si2 0.344874 0.566087 0.196438
Si Si3 0.608086 0.936117 0.453914
Si Si4 0.107597 0.064223 0.952087
Si Si5 0.762762 0.564770 0.719764
Si Si6 0.643515 0.565003 0.635744
Si Si7 0.024357 0.065848 0.269485
Si Si8 0.534345 0.929771 0.323049
O O1 0.720552 0.250000 0.373149
O O2 0.788843 0.514165 0.345930
O O3 0.669714 0.501261 0.414737
O O4 0.618883 0.463710 0.336658
O O5 0.355914 0.750000 0.197208
O O6 0.286794 0.516052 0.239429
O O7 0.443582 0.483758 0.198543
O O8 0.612218 0.750000 0.454976
O O9 0.500642 0.980029 0.447130
O O10 0.635550 0.005479 0.500390
O O11 0.113900 0.250000 0.949640
O O12 0.164302 0.986317 0.913216
O O13 0.752130 0.750000 0.726828
O O14 0.715441 0.527218 0.673799
O O15 0.871010 0.531030 0.717535
O O16 0.626772 0.750000 0.637208
O O17 0.551951 0.471922 0.647794
O O18 0.017287 0.250000 0.260707
O O19 0.007028 0.970176 0.225690
O O20 0.560120 0.750000 0.328154
#
# Coordination Sequence:
#
# PCOD9463942 Si02
#       8
#     8   8   8   8   8   8   8   8
#     4  12  23  36  54  76 106 145 183 219 266 321
#     4  12  24  36  54  78 107 140 181 226 268 314
#     4  10  20  34  52  76 108 139 176 220 265 317
#     4  10  20  33  51  76 108 142 177 216 265 317
#     4  10  22  37  55  76 104 142 183 221 265 319
#     4  11  21  34  53  77 106 144 183 218 265 317
#     4  11  22  38  55  74 105 143 183 224 267 314
#     4  12  22  32  49  77 108 141 181 223 265 311
#
# _framework density 16.507365
#
# number of rings (size 3 to 8) (size 9 to 14) (size 15 to 20)
#    0.000    1.000    3.750    4.875    0.000    2.000 
#    0.000    0.000    0.000    0.000    0.000    0.875 
#    0.000    0.000    0.000    0.000    0.000    0.000 
#
# Total GULP energy -357520.313751 kJ/mol
# GULP energy per Si atom -5586.254902 kJ/mol
# Density = 1.646979 g / cm^3
# Si number density = 16.507365 Si / 1000 Ang^3
#
#
#
# Elastic Constant Matrix: (Units=GPa)
#
#
# Indices 1 2 3 4 5 6 
#
# 1 42.5768 13.8623 1.3367 0.0000 0.0000 0.0000
# 2 13.8623 60.1970 20.6141 0.0000 0.0000 0.0000
# 3 1.3367 20.6141 80.2632 0.0000 0.0000 0.0000
# 4 0.0000 0.0000 0.0000 25.6384 0.0000 0.0000
# 5 0.0000 0.0000 0.0000 0.0000 21.8451 0.0000
# 6 0.0000 0.0000 0.0000 0.0000 0.0000 -10.4410
#
#
#
# Elastic Compliance Matrix: (Units=1/GPa)
#
#
# Indices 1 2 3 4 5 6 
#
# 1 0.025494 -0.006277 0.001188 0.000000 0.000000 0.000000
# 2 -0.006277 0.019760 -0.004970 0.000000 0.000000 0.000000
# 3 0.001188 -0.004970 0.013716 0.000000 0.000000 0.000000
# 4 0.000000 0.000000 0.000000 0.039004 0.000000 0.000000
# 5 0.000000 0.000000 0.000000 0.000000 0.045777 0.000000
# 6 0.000000 0.000000 0.000000 0.000000 0.000000 -0.095776
#
#
# Mechanical properties :
#
#
# Convention : Reuss Voigt Hill
#
# Bulk Modulus (GPa) = 25.74079 28.29589 27.01834
# Shear Modulus (GPa) = 61.69537 17.22343 39.45940
#
# Velocity S-wave (km/s) = 6.12010 3.23364 4.89449
# Velocity P-wave (km/s) = 8.09742 5.57858 6.95301
#
# Compressibility (1/GPa) = 0.03884885
#
# Stress axis : x y z
#
# Youngs Moduli (GPa) = 39.22565 50.60783 72.90866
#
# Poissons Ratio (x) = 0.31769 -0.08659
# Poissons Ratio (y) = 0.24624 0.36239
# Poissons Ratio (z) = -0.04659 0.25154
#
# Static dielectric constant tensor:
#      x y z
#    x 1.549330 0.000000 0.000000 
#    y 0.000000 1.548790 0.000000 
#    z 0.000000 0.000000 1.579040 
# 
# From -- ./inp_files/32728.got.cif
#   From: 2010.05.17/outbox.cif.g08.bks.cpg/sg62_17_cif.got.tgz:32728.got - 2010.06.03 15:25:27.
