data_PCOD9463766
_publ_section_title
;
Structure prediction by ZEFSAII (Michael W. Deem and Ramdas Pophale) SiO2 
 PCOD9463766
Probable space group: P N M A
;
_chemical_formula_sum "Si O2"
_cell_formula_units_Z 40
_cell_length_a 14.228053
_cell_length_b 14.216569
_cell_length_c 9.499378
_cell_angle_alpha 90.000000
_cell_angle_beta 90.000000
_cell_angle_gamma 90.000000
_cell_volume 1921.478109
_symmetry_space_group_name_H-M "P N M A"
_symmetry_group_IT_number 62
_symmetry_cell_setting 'orthorhombic'
loop_
_space_group_symop_operation_xyz
x,y,z
1/2-x,-y,1/2+z
1/2+x,1/2-y,1/2-z
-x,1/2+y,-z
-x,-y,-z
1/2+x,y,1/2-z
1/2-x,1/2+y,1/2+z
x,1/2-y,z
loop_
_atom_site_type_symbol
_atom_site_label
_atom_site_fract_x
_atom_site_fract_y
_atom_site_fract_z
Si Si1 0.549118 0.426236 0.327946
Si Si2 0.196181 0.750000 0.062549
Si Si3 0.889586 0.250000 0.518114
Si Si4 0.410847 0.750000 0.147513
Si Si5 0.389969 0.919004 0.365545
Si Si6 0.678810 0.584287 0.214508
Si Si7 0.427055 0.250000 0.277900
O O1 0.601412 0.391779 0.470338
O O2 0.462436 0.496332 0.356889
O O3 0.618717 0.490722 0.236837
O O4 0.496462 0.337964 0.264833
O O5 0.310552 0.750000 0.066882
O O6 0.171460 0.845887 0.149256
O O7 0.135294 0.750000 0.920163
O O8 0.852602 0.344265 0.592510
O O9 0.860802 0.250000 0.356994
O O10 0.001368 0.250000 0.544380
O O11 0.417375 0.838077 0.254729
O O12 0.284911 0.944533 0.320673
#
# Coordination Sequence:
#
# PCOD9463766 Si02
#       7
#     8   4   4   4   8   8   4
#     4  11  23  42  68  97 138 171 223 281 329 395
#     4   9  20  41  69  96 131 174 225 268 326 410
#     4  11  24  44  64  96 139 174 219 284 335 396
#     4  10  19  42  70  96 137 174 219 269 339 394
#     4  10  21  40  72 102 124 176 224 272 330 405
#     4  10  22  43  71  97 129 179 222 270 341 404
#     4  12  27  43  61 100 135 178 225 281 330 386
#
# _framework density 20.817309000000002
#
# number of rings (size 3 to 8) (size 9 to 14) (size 15 to 20)
#    0.000    1.600    2.000    3.600    2.800    2.400 
#   14.400    0.000    0.000    0.000    0.000    0.000 
#    0.000    0.000    0.000    0.000    0.000    0.000 
#
# Total GULP energy -223305.371849 kJ/mol
# GULP energy per Si atom -5582.634296 kJ/mol
# Density = 2.076993 g / cm^3
# Si number density = 20.817309 Si / 1000 Ang^3
#
#
#
# Elastic Constant Matrix: (Units=GPa)
#
#
# Indices 1 2 3 4 5 6 
#
# 1 105.2315 44.7859 48.9893 0.0000 0.0000 0.0000
# 2 44.7859 74.7811 27.7868 0.0000 0.0000 0.0000
# 3 48.9893 27.7868 116.5527 0.0000 0.0000 0.0000
# 4 0.0000 0.0000 0.0000 9.0564 0.0000 0.0000
# 5 0.0000 0.0000 0.0000 0.0000 -785.9173 0.0000
# 6 0.0000 0.0000 0.0000 0.0000 0.0000 -22.2943
#
#
#
# Elastic Compliance Matrix: (Units=1/GPa)
#
#
# Indices 1 2 3 4 5 6 
#
# 1 0.014586 -0.007085 -0.004442 0.000000 0.000000 0.000000
# 2 -0.007085 0.018114 -0.001340 0.000000 0.000000 0.000000
# 3 -0.004442 -0.001340 0.010766 0.000000 0.000000 0.000000
# 4 0.000000 0.000000 0.000000 0.110420 0.000000 0.000000
# 5 0.000000 0.000000 0.000000 0.000000 -0.001272 0.000000
# 6 0.000000 0.000000 0.000000 0.000000 0.000000 -0.044854
#
#
# Mechanical properties :
#
#
# Convention : Reuss Voigt Hill
#
# Bulk Modulus (GPa) = 56.39626 59.96548 58.18087
# Shear Modulus (GPa) = 35.86715 -148.16417 -56.14851
#
# Velocity S-wave (km/s) = 4.15534 -8.44559 -5.19909
# Velocity P-wave (km/s) = 7.08325 8.13855 2.83404
#
# Compressibility (1/GPa) = 0.01773167
#
# Stress axis : x y z
#
# Youngs Moduli (GPa) = 68.55904 55.20710 92.88256
#
# Poissons Ratio (x) = 0.39114 0.41255
# Poissons Ratio (y) = 0.48574 0.12450
# Poissons Ratio (z) = 0.30452 0.07400
#
# Static dielectric constant tensor:
#      x y z
#    x 1.737380 0.000000 0.000000 
#    y 0.000000 1.621230 0.000000 
#    z 0.000000 0.000000 1.890070 
# 
# From -- ./inp_files/6169.got.cif
#   From: 2010.05.17/outbox.cif.g08.bks.cpg/sg62_4_cif.got.tgz:6169.got - 2010.06.03 15:25:27.
