data_PCOD9463252
_publ_section_title
;
Structure prediction by ZEFSAII (Michael W. Deem and Ramdas Pophale) SiO2 
 PCOD9463252
Probable space group: P N M A
;
_chemical_formula_sum "Si O2"
_cell_formula_units_Z 64
_cell_length_a 14.421498
_cell_length_b 21.328115
_cell_length_c 8.583312
_cell_angle_alpha 90.000000
_cell_angle_beta 90.000000
_cell_angle_gamma 90.000000
_cell_volume 2640.084012
_symmetry_space_group_name_H-M "P N M A"
_symmetry_group_IT_number 62
_symmetry_cell_setting 'orthorhombic'
loop_
_space_group_symop_operation_xyz
x,y,z
1/2-x,-y,1/2+z
1/2+x,1/2-y,1/2-z
-x,1/2+y,-z
-x,-y,-z
1/2+x,y,1/2-z
1/2-x,1/2+y,1/2+z
x,1/2-y,z
loop_
_atom_site_type_symbol
_atom_site_label
_atom_site_fract_x
_atom_site_fract_y
_atom_site_fract_z
Si Si1 0.600912 0.414522 0.398535
Si Si2 0.481000 0.319994 0.982948
Si Si3 0.899528 0.676053 0.178275
Si Si4 0.221572 0.988818 0.910800
Si Si5 0.267398 0.407736 0.692097
Si Si6 0.170893 0.183118 0.319253
Si Si7 0.080799 0.904560 0.728325
Si Si8 0.137817 0.818837 0.995705
O O1 0.570095 0.363195 0.527395
O O2 0.647446 0.471652 0.487711
O O3 0.673790 0.375613 0.294481
O O4 0.516443 0.433739 0.286560
O O5 0.437603 0.250000 0.991457
O O6 0.572798 0.319139 0.093154
O O7 0.420890 0.376312 0.055337
O O8 0.524187 0.329209 0.813581
O O9 0.882762 0.750000 0.151518
O O10 0.806730 0.640737 0.237841
O O11 0.283593 0.038511 0.819505
O O12 0.161504 0.950613 0.783877
O O13 0.269584 0.943484 0.036042
O O14 0.356446 0.370186 0.630805
O O15 0.175976 0.250000 0.232486
O O16 0.254099 0.184634 0.441885
O O17 0.090982 0.843286 0.839021
O O18 0.105485 0.750000 0.042895
#
# Coordination Sequence:
#
# PCOD9463252 Si02
#       8
#     8   8   8   8   8   8   8   8
#     4  10  21  36  57  83 117 152 191 235 281 345
#     4   9  17  32  56  81 109 144 182 229 282 342
#     4  10  19  35  60  87 114 143 189 241 294 344
#     4  10  23  37  57  79 115 153 201 234 285 335
#     4  10  21  37  56  85 110 152 188 244 285 335
#     4   9  17  31  57  85 107 142 187 231 283 344
#     4  10  21  36  55  82 117 152 194 232 282 342
#     4  10  19  34  60  87 113 143 189 243 299 347
#
# _framework density 24.241651999999998
#
# number of rings (size 3 to 8) (size 9 to 14) (size 15 to 20)
#    0.000    2.250    1.250    1.500    3.500    1.500 
#    0.000    5.000    0.000    0.000    0.000    0.000 
#    0.000    0.000    0.000    0.000    0.000    0.000 
#
# Total GULP energy -357796.344343 kJ/mol
# GULP energy per Si atom -5590.567880 kJ/mol
# Density = 2.418648 g / cm^3
# Si number density = 24.241652 Si / 1000 Ang^3
#
#
#
# Elastic Constant Matrix: (Units=GPa)
#
#
# Indices 1 2 3 4 5 6 
#
# 1 37.7763 21.6016 7.8659 0.0000 0.0000 0.0000
# 2 21.6016 111.2850 40.3004 0.0000 0.0000 0.0000
# 3 7.8659 40.3004 54.6479 0.0000 0.0000 0.0000
# 4 0.0000 0.0000 0.0000 34.0769 0.0000 0.0000
# 5 0.0000 0.0000 0.0000 0.0000 34.8018 0.0000
# 6 0.0000 0.0000 0.0000 0.0000 0.0000 11.8630
#
#
#
# Elastic Compliance Matrix: (Units=1/GPa)
#
#
# Indices 1 2 3 4 5 6 
#
# 1 0.029777 -0.005768 -0.000032 0.000000 0.000000 0.000000
# 2 -0.005768 0.013378 -0.009035 0.000000 0.000000 0.000000
# 3 -0.000032 -0.009035 0.024967 0.000000 0.000000 0.000000
# 4 0.000000 0.000000 0.000000 0.029345 0.000000 0.000000
# 5 0.000000 0.000000 0.000000 0.000000 0.028734 0.000000
# 6 0.000000 0.000000 0.000000 0.000000 0.000000 0.084295
#
#
# Mechanical properties :
#
#
# Convention : Reuss Voigt Hill
#
# Bulk Modulus (GPa) = 26.00790 38.13833 32.07311
# Shear Modulus (GPa) = 19.76413 25.07778 22.42095
#
# Velocity S-wave (km/s) = 2.85844 3.21984 3.04451
# Velocity P-wave (km/s) = 4.65254 5.43966 5.06142
#
# Compressibility (1/GPa) = 0.03844985
#
# Stress axis : x y z
#
# Youngs Moduli (GPa) = 33.58314 74.75206 40.05362
#
# Poissons Ratio (x) = 0.43120 0.00129
# Poissons Ratio (y) = 0.19372 0.36189
# Poissons Ratio (z) = 0.00108 0.67539
#
# Static dielectric constant tensor:
#      x y z
#    x 1.924570 0.000000 0.000000 
#    y 0.000000 1.969670 0.000000 
#    z 0.000000 0.000000 1.964160 
# 
# From -- ./inp_files/8108.got.cif
#   From: 2010.05.17/outbox.cif.g08.bks.cpg/sg62_5_cif.got.tgz:8108.got - 2010.06.03 15:25:27.
