data_PCOD9463506
_publ_section_title
;
Structure prediction by ZEFSAII (Michael W. Deem and Ramdas Pophale) SiO2 
 PCOD9463506
Probable space group: P N M A
;
_chemical_formula_sum "Si O2"
_cell_formula_units_Z 56
_cell_length_a 15.264726
_cell_length_b 14.356047
_cell_length_c 13.599138
_cell_angle_alpha 90.000000
_cell_angle_beta 90.000000
_cell_angle_gamma 90.000000
_cell_volume 2980.130385
_symmetry_space_group_name_H-M "P N M A"
_symmetry_group_IT_number 62
_symmetry_cell_setting 'orthorhombic'
loop_
_space_group_symop_operation_xyz
x,y,z
1/2-x,-y,1/2+z
1/2+x,1/2-y,1/2-z
-x,1/2+y,-z
-x,-y,-z
1/2+x,y,1/2-z
1/2-x,1/2+y,1/2+z
x,1/2-y,z
loop_
_atom_site_type_symbol
_atom_site_label
_atom_site_fract_x
_atom_site_fract_y
_atom_site_fract_z
Si Si1 0.256630 0.640564 0.465690
Si Si2 0.181689 0.646628 0.844443
Si Si3 0.460446 0.647448 0.008166
Si Si4 0.124730 0.609011 0.633227
Si Si5 0.924555 0.971480 0.074848
Si Si6 0.481096 0.555760 0.208781
Si Si7 0.652093 0.025356 0.131564
O O1 0.250506 0.750000 0.440093
O O2 0.211662 0.623972 0.570918
O O3 0.355112 0.602569 0.466474
O O4 0.202718 0.570329 0.394139
O O5 0.185825 0.750000 0.889494
O O6 0.136231 0.655380 0.738516
O O7 0.127481 0.567770 0.902251
O O8 0.277973 0.601015 0.832227
O O9 0.420999 0.750000 0.997887
O O10 0.488166 0.631557 0.121545
O O11 0.545985 0.641638 0.938070
O O12 0.395337 0.569188 0.964874
O O13 0.099204 0.505466 0.666835
O O14 0.960352 0.928143 0.177575
O O15 0.000000 0.000000 0.000000
O O16 0.571358 0.497336 0.202921
#
# Coordination Sequence:
#
# PCOD9463506 Si02
#       7
#     8   8   8   8   8   8   8
#     4  11  21  37  60  85 115 153 197 241 291 351
#     4  10  21  37  59  88 119 150 194 250 300 351
#     4  11  19  33  61  90 121 154 192 240 296 354
#     4  10  19  36  58  88 119 149 192 248 298 352
#     4  10  25  42  58  82 117 162 200 245 292 359
#     4  10  20  38  58  83 121 155 193 243 299 353
#     4  10  20  36  58  90 120 152 192 243 298 356
#
# _framework density 18.791122999999999
#
# number of rings (size 3 to 8) (size 9 to 14) (size 15 to 20)
#    0.000    1.714    2.857    2.571    2.000    1.143 
#    0.000    0.714    0.000    1.714    0.000    0.000 
#    0.000    0.000    0.000    0.000    0.000    0.000 
#
# Total GULP energy -311940.893459 kJ/mol
# GULP energy per Si atom -5570.373097 kJ/mol
# Density = 1.874835 g / cm^3
# Si number density = 18.791123 Si / 1000 Ang^3
#
#
#
# Elastic Constant Matrix: (Units=GPa)
#
#
# Indices 1 2 3 4 5 6 
#
# 1 99.4858 41.9443 33.4296 0.0000 0.0000 0.0000
# 2 41.9443 92.6634 39.7232 0.0000 0.0000 0.0000
# 3 33.4296 39.7232 54.4476 0.0000 0.0000 0.0000
# 4 0.0000 0.0000 0.0000 4.4760 0.0000 0.0000
# 5 0.0000 0.0000 0.0000 0.0000 27.4694 0.0000
# 6 0.0000 0.0000 0.0000 0.0000 0.0000 -6.4499
#
#
#
# Elastic Compliance Matrix: (Units=1/GPa)
#
#
# Indices 1 2 3 4 5 6 
#
# 1 0.013491 -0.003719 -0.005570 0.000000 0.000000 0.000000
# 2 -0.003719 0.016728 -0.009921 0.000000 0.000000 0.000000
# 3 -0.005570 -0.009921 0.029024 0.000000 0.000000 0.000000
# 4 0.000000 0.000000 0.000000 0.223416 0.000000 0.000000
# 5 0.000000 0.000000 0.000000 0.000000 0.036404 0.000000
# 6 0.000000 0.000000 0.000000 0.000000 0.000000 -0.155040
#
#
# Mechanical properties :
#
#
# Convention : Reuss Voigt Hill
#
# Bulk Modulus (GPa) = 48.02248 52.97674 50.49961
# Shear Modulus (GPa) = 23.87954 13.86574 18.87264
#
# Velocity S-wave (km/s) = 3.56868 2.71936 3.17257
# Velocity P-wave (km/s) = 6.52626 6.17361 6.35238
#
# Compressibility (1/GPa) = 0.02082358
#
# Stress axis : x y z
#
# Youngs Moduli (GPa) = 74.12141 59.77973 34.45416
#
# Poissons Ratio (x) = 0.22233 0.19191
# Poissons Ratio (y) = 0.27567 0.34181
# Poissons Ratio (z) = 0.41286 0.59306
#
# Static dielectric constant tensor:
#      x y z
#    x 1.660200 0.000000 0.000000 
#    y 0.000000 1.710530 0.000000 
#    z 0.000000 0.000000 1.660970 
# 
# From -- ./inp_files/13406.got.cif
#   From: 2010.05.17/outbox.cif.g08.bks.cpg/sg62_7_cif.got.tgz:13406.got - 2010.06.03 15:25:27.
