data_PCOD9463709
_publ_section_title
;
Structure prediction by ZEFSAII (Michael W. Deem and Ramdas Pophale) SiO2 
 PCOD9463709
Probable space group: P N M A
;
_chemical_formula_sum "Si O2"
_cell_formula_units_Z 48
_cell_length_a 5.224012
_cell_length_b 32.183661
_cell_length_c 14.396343
_cell_angle_alpha 90.000000
_cell_angle_beta 90.000000
_cell_angle_gamma 90.000000
_cell_volume 2420.425927
_symmetry_space_group_name_H-M "P N M A"
_symmetry_group_IT_number 62
_symmetry_cell_setting 'orthorhombic'
loop_
_space_group_symop_operation_xyz
x,y,z
1/2-x,-y,1/2+z
1/2+x,1/2-y,1/2-z
-x,1/2+y,-z
-x,-y,-z
1/2+x,y,1/2-z
1/2-x,1/2+y,1/2+z
x,1/2-y,z
loop_
_atom_site_type_symbol
_atom_site_label
_atom_site_fract_x
_atom_site_fract_y
_atom_site_fract_z
Si Si1 0.657203 0.000682 0.200106
Si Si2 0.600280 0.702600 0.340042
Si Si3 0.913101 0.955231 0.036624
Si Si4 0.070837 0.404767 0.507139
Si Si5 0.100727 0.831219 0.366531
Si Si6 0.289965 0.598603 0.809820
O O1 0.353201 0.996154 0.213030
O O2 0.770690 0.966507 0.132055
O O3 0.709029 0.048405 0.170913
O O4 0.535135 0.750000 0.314683
O O5 0.628470 0.675233 0.245476
O O6 0.376618 0.683048 0.400671
O O7 0.870480 0.699676 0.389873
O O8 0.679748 0.932908 0.982339
O O9 0.171174 0.928298 0.039826
O O10 0.000000 0.000000 0.000000
O O11 0.152515 0.382580 0.410849
O O12 0.977676 0.374680 0.589637
O O13 0.518884 0.607669 0.737896
#
# Coordination Sequence:
#
# PCOD9463709 Si02
#       6
#     8   8   8   8   8   8
#     4  10  21  37  52  73  93 132 196 245 273 346
#     4  10  19  38  64  87 121 160 187 212 260 356
#     4  12  24  39  55  74 104 151 197 242 299 357
#     4  12  24  38  56  81 114 146 182 253 307 335
#     4  10  20  35  54  86 118 146 183 226 276 321
#     4  10  21  36  58  74  97 134 191 248 294 326
#
# _framework density 19.831222
#
# number of rings (size 3 to 8) (size 9 to 14) (size 15 to 20)
#    0.000    1.333    1.667    6.000    4.667    0.000 
#   18.000    0.000    0.000    0.000    0.000    0.000 
#    0.000   22.667    0.000    0.000    0.000    0.000 
#
# Total GULP energy -267449.109012 kJ/mol
# GULP energy per Si atom -5571.856438 kJ/mol
# Density = 1.978609 g / cm^3
# Si number density = 19.831222 Si / 1000 Ang^3
#
#
#
# Elastic Constant Matrix: (Units=GPa)
#
#
# Indices 1 2 3 4 5 6 
#
# 1 110.8609 10.5112 -13.5770 0.0000 0.0000 0.0000
# 2 10.5112 46.7159 17.6262 0.0000 0.0000 0.0000
# 3 -13.5770 17.6262 34.1795 0.0000 0.0000 0.0000
# 4 0.0000 0.0000 0.0000 27.8282 0.0000 0.0000
# 5 0.0000 0.0000 0.0000 0.0000 25.8339 0.0000
# 6 0.0000 0.0000 0.0000 0.0000 0.0000 26.8208
#
#
#
# Elastic Compliance Matrix: (Units=1/GPa)
#
#
# Indices 1 2 3 4 5 6 
#
# 1 0.010276 -0.004783 0.006548 0.000000 0.000000 0.000000
# 2 -0.004783 0.028803 -0.016754 0.000000 0.000000 0.000000
# 3 0.006548 -0.016754 0.040498 0.000000 0.000000 0.000000
# 4 0.000000 0.000000 0.000000 0.035935 0.000000 0.000000
# 5 0.000000 0.000000 0.000000 0.000000 0.038709 0.000000
# 6 0.000000 0.000000 0.000000 0.000000 0.000000 0.037285
#
#
# Mechanical properties :
#
#
# Convention : Reuss Voigt Hill
#
# Bulk Modulus (GPa) = 20.16086 24.54189 22.35138
# Shear Modulus (GPa) = 21.00707 27.90965 24.45836
#
# Velocity S-wave (km/s) = 3.25821 3.75555 3.51568
# Velocity P-wave (km/s) = 4.93385 5.58639 5.27023
#
# Compressibility (1/GPa) = 0.04960106
#
# Stress axis : x y z
#
# Youngs Moduli (GPa) = 97.31661 34.71822 24.69250
#
# Poissons Ratio (x) = 0.16605 -0.16169
# Poissons Ratio (y) = 0.46544 0.41369
# Poissons Ratio (z) = -0.63725 0.58165
#
# Static dielectric constant tensor:
#      x y z
#    x 1.796820 0.000000 0.000000 
#    y 0.000000 1.718160 0.000000 
#    z 0.000000 0.000000 1.793940 
# 
# From -- ./inp_files/16219.got.cif
#   From: 2010.05.17/outbox.cif.g08.bks.cpg/sg62_9_cif.got.tgz:16219.got - 2010.06.03 15:25:27.
