data_PCOD9463427
_publ_section_title
;
Structure prediction by ZEFSAII (Michael W. Deem and Ramdas Pophale) SiO2 
 PCOD9463427
Probable space group: P N M A
;
_chemical_formula_sum "Si O2"
_cell_formula_units_Z 64
_cell_length_a 33.765103
_cell_length_b 8.297039
_cell_length_c 10.954905
_cell_angle_alpha 90.000000
_cell_angle_beta 90.000000
_cell_angle_gamma 90.000000
_cell_volume 3069.020760
_symmetry_space_group_name_H-M "P N M A"
_symmetry_group_IT_number 62
_symmetry_cell_setting 'orthorhombic'
loop_
_space_group_symop_operation_xyz
x,y,z
1/2-x,-y,1/2+z
1/2+x,1/2-y,1/2-z
-x,1/2+y,-z
-x,-y,-z
1/2+x,y,1/2-z
1/2-x,1/2+y,1/2+z
x,1/2-y,z
loop_
_atom_site_type_symbol
_atom_site_label
_atom_site_fract_x
_atom_site_fract_y
_atom_site_fract_z
Si Si1 0.778857 0.444353 0.592611
Si Si2 0.138982 0.935592 0.770084
Si Si3 0.987942 0.058793 0.310773
Si Si4 0.368739 0.443254 0.850218
Si Si5 0.722958 0.440030 0.814087
Si Si6 0.567227 0.946588 0.582809
Si Si7 0.416766 0.933343 0.072063
Si Si8 0.936411 0.057419 0.813897
O O1 0.777189 0.250000 0.593625
O O2 0.823581 0.492912 0.629609
O O3 0.750037 0.503673 0.701620
O O4 0.770547 0.494070 0.451909
O O5 0.150187 0.750000 0.791242
O O6 0.111994 0.997468 0.881670
O O7 0.177817 0.027895 0.727515
O O8 0.107160 0.947258 0.660892
O O9 0.984589 0.250000 0.326681
O O10 0.963661 0.007061 0.187793
O O11 0.963074 0.972741 0.417013
O O12 0.032741 0.013298 0.282481
O O13 0.370863 0.250000 0.874194
O O14 0.390653 0.471142 0.722006
O O15 0.396357 0.536942 0.944188
O O16 0.730018 0.250000 0.822585
O O17 0.567969 0.750000 0.581556
O O18 0.555456 0.005424 0.449536
O O19 0.410217 0.750000 0.112344
O O20 0.942339 0.250000 0.812645
#
# Coordination Sequence:
#
# PCOD9463427 Si02
#       8
#     8   8   8   8   8   8   8   8
#     4  10  23  42  63  89 125 164 203 251 310 369
#     4  10  19  35  60  87 116 152 191 233 292 353
#     4  10  20  35  55  81 114 152 192 238 297 355
#     4  10  21  38  59  80 111 154 191 236 296 353
#     4  11  23  39  63  96 125 158 207 254 303 368
#     4   8  17  33  55  82 112 150 194 235 284 351
#     4  11  21  35  58  84 110 145 194 243 283 340
#     4  10  20  35  55  81 112 148 196 245 290 345
#
# _framework density 20.853556999999999
#
# number of rings (size 3 to 8) (size 9 to 14) (size 15 to 20)
#    0.000    2.000    1.250    3.375    0.000    3.000 
#    0.000    5.625    0.000    0.000    0.000    0.000 
#    0.000    0.000    0.000    0.000    0.000    0.000 
#
# Total GULP energy -357019.494234 kJ/mol
# GULP energy per Si atom -5578.429597 kJ/mol
# Density = 2.080609 g / cm^3
# Si number density = 20.853557 Si / 1000 Ang^3
#
#
#
# Elastic Constant Matrix: (Units=GPa)
#
#
# Indices 1 2 3 4 5 6 
#
# 1 121.7594 10.6557 54.8200 0.0000 0.0000 0.0000
# 2 10.6557 24.6765 9.1127 0.0000 0.0000 0.0000
# 3 54.8200 9.1127 55.3548 0.0000 0.0000 0.0000
# 4 0.0000 0.0000 0.0000 17.6925 0.0000 0.0000
# 5 0.0000 0.0000 0.0000 0.0000 29.1955 0.0000
# 6 0.0000 0.0000 0.0000 0.0000 0.0000 17.9883
#
#
#
# Elastic Compliance Matrix: (Units=1/GPa)
#
#
# Indices 1 2 3 4 5 6 
#
# 1 0.014847 -0.001045 -0.014531 0.000000 0.000000 0.000000
# 2 -0.001045 0.043221 -0.006080 0.000000 0.000000 0.000000
# 3 -0.014531 -0.006080 0.033457 0.000000 0.000000 0.000000
# 4 0.000000 0.000000 0.000000 0.056521 0.000000 0.000000
# 5 0.000000 0.000000 0.000000 0.000000 0.034252 0.000000
# 6 0.000000 0.000000 0.000000 0.000000 0.000000 0.055592
#
#
# Mechanical properties :
#
#
# Convention : Reuss Voigt Hill
#
# Bulk Modulus (GPa) = 20.74186 38.99639 29.86913
# Shear Modulus (GPa) = 16.81952 21.45542 19.13747
#
# Velocity S-wave (km/s) = 2.84307 3.21107 3.03266
# Velocity P-wave (km/s) = 4.55472 5.69988 5.15917
#
# Compressibility (1/GPa) = 0.04821168
#
# Stress axis : x y z
#
# Youngs Moduli (GPa) = 67.35438 23.13694 29.88891
#
# Poissons Ratio (x) = 0.02417 0.43433
# Poissons Ratio (y) = 0.07037 0.18174
# Poissons Ratio (z) = 0.97875 0.14068
#
# Static dielectric constant tensor:
#      x y z
#    x 1.747000 0.000000 0.000000 
#    y 0.000000 1.774700 0.000000 
#    z 0.000000 0.000000 1.791140 
# 
# From -- ./inp_files/15819.got.cif
#   From: 2010.05.17/outbox.cif.g08.bks.cpg/sg62_8_cif.got.tgz:15819.got - 2010.06.03 15:25:27.
