data_PCOD9463778
_publ_section_title
;
Structure prediction by ZEFSAII (Michael W. Deem and Ramdas Pophale) SiO2 
 PCOD9463778
Probable space group: P N M A
;
_chemical_formula_sum "Si O2"
_cell_formula_units_Z 52
_cell_length_a 13.391803
_cell_length_b 19.275826
_cell_length_c 12.047819
_cell_angle_alpha 90.000000
_cell_angle_beta 90.000000
_cell_angle_gamma 90.000000
_cell_volume 3110.000678
_symmetry_space_group_name_H-M "P N M A"
_symmetry_group_IT_number 62
_symmetry_cell_setting 'orthorhombic'
loop_
_space_group_symop_operation_xyz
x,y,z
1/2-x,-y,1/2+z
1/2+x,1/2-y,1/2-z
-x,1/2+y,-z
-x,-y,-z
1/2+x,y,1/2-z
1/2-x,1/2+y,1/2+z
x,1/2-y,z
loop_
_atom_site_type_symbol
_atom_site_label
_atom_site_fract_x
_atom_site_fract_y
_atom_site_fract_z
Si Si1 0.756347 0.250000 0.187446
Si Si2 0.053787 0.405240 0.182928
Si Si3 0.687239 0.099914 0.121095
Si Si4 0.202355 0.250000 0.047439
Si Si5 0.870696 0.002520 0.182790
Si Si6 0.990843 0.250000 0.146087
Si Si7 0.279922 0.901405 0.492913
Si Si8 0.608824 0.008209 0.945031
O O1 0.704828 0.180651 0.142137
O O2 0.741670 0.250000 0.322955
O O3 0.870442 0.250000 0.142869
O O4 0.096184 0.425166 0.302243
O O5 0.145813 0.407155 0.098211
O O6 0.970333 0.458461 0.142438
O O7 0.013382 0.326402 0.196113
O O8 0.783596 0.058942 0.164990
O O9 0.661769 0.075920 0.997849
O O10 0.238169 0.180610 0.986906
O O11 0.079763 0.250000 0.052279
O O12 0.887780 0.987698 0.312348
O O13 0.836386 0.936485 0.110971
O O14 0.179532 0.944125 0.517416
O O15 0.500000 0.000000 0.000000
#
# Coordination Sequence:
#
# PCOD9463778 Si02
#       8
#     4   8   8   4   8   4   8   8
#     4  12  18  34  53  81 112 143 179 241 285 319
#     4  11  18  35  54  85 111 147 185 232 281 336
#     4  11  21  33  56  83 116 139 185 232 283 333
#     4  10  20  38  57  82 115 145 197 230 278 349
#     4  11  21  36  56  82 116 150 184 228 281 341
#     4  10  20  28  56  81 113 142 182 231 287 320
#     4  10  22  37  57  86 110 150 188 236 283 335
#     4  11  22  37  56  84 114 147 186 232 286 340
#
# _framework density 16.720254000000001
#
# number of rings (size 3 to 8) (size 9 to 14) (size 15 to 20)
#    0.000    1.231    7.692    0.462    0.000    0.000 
#    0.000    0.769    0.000    0.000    0.000    0.000 
#    0.000    0.000    0.000    0.000    0.000    0.000 
#
# Total GULP energy -289580.205124 kJ/mol
# GULP energy per Si atom -5568.850099 kJ/mol
# Density = 1.668220 g / cm^3
# Si number density = 16.720254 Si / 1000 Ang^3
#
#
#
# Elastic Constant Matrix: (Units=GPa)
#
#
# Indices 1 2 3 4 5 6 
#
# 1 86.7186 46.8638 26.4829 0.0000 0.0000 0.0000
# 2 46.8638 119.6913 32.6207 0.0000 0.0000 0.0000
# 3 26.4829 32.6207 69.0172 0.0000 0.0000 0.0000
# 4 0.0000 0.0000 0.0000 15.7930 0.0000 0.0000
# 5 0.0000 0.0000 0.0000 0.0000 19.7145 0.0000
# 6 0.0000 0.0000 0.0000 0.0000 0.0000 17.0324
#
#
#
# Elastic Compliance Matrix: (Units=1/GPa)
#
#
# Indices 1 2 3 4 5 6 
#
# 1 0.015327 -0.005049 -0.003495 0.000000 0.000000 0.000000
# 2 -0.005049 0.011253 -0.003382 0.000000 0.000000 0.000000
# 3 -0.003495 -0.003382 0.017429 0.000000 0.000000 0.000000
# 4 0.000000 0.000000 0.000000 0.063319 0.000000 0.000000
# 5 0.000000 0.000000 0.000000 0.000000 0.050724 0.000000
# 6 0.000000 0.000000 0.000000 0.000000 0.000000 0.058712
#
#
# Mechanical properties :
#
#
# Convention : Reuss Voigt Hill
#
# Bulk Modulus (GPa) = 49.60699 54.15133 51.87916
# Shear Modulus (GPa) = 20.21557 21.80528 21.01043
#
# Velocity S-wave (km/s) = 3.48091 3.61518 3.54868
# Velocity P-wave (km/s) = 6.77413 7.06279 6.91997
#
# Compressibility (1/GPa) = 0.02015845
#
# Stress axis : x y z
#
# Youngs Moduli (GPa) = 65.24317 88.86375 57.37724
#
# Poissons Ratio (x) = 0.44864 0.20054
# Poissons Ratio (y) = 0.32939 0.19402
# Poissons Ratio (z) = 0.22803 0.30050
#
# Static dielectric constant tensor:
#      x y z
#    x 1.584210 0.000000 0.000000 
#    y 0.000000 1.570170 0.000000 
#    z 0.000000 0.000000 1.549140 
# 
# From -- ./inp_files/13526.got.cif
#   From: 2010.05.17/outbox.cif.g08.bks.cpg/sg62_7_cif.got.tgz:13526.got - 2010.06.03 15:25:27.
