data_PCOD9463494
_publ_section_title
;
Structure prediction by ZEFSAII (Michael W. Deem and Ramdas Pophale) SiO2 
 PCOD9463494
Probable space group: P N M A
;
_chemical_formula_sum "Si O2"
_cell_formula_units_Z 56
_cell_length_a 17.618598
_cell_length_b 7.476807
_cell_length_c 17.746801
_cell_angle_alpha 90.000000
_cell_angle_beta 90.000000
_cell_angle_gamma 90.000000
_cell_volume 2337.801302
_symmetry_space_group_name_H-M "P N M A"
_symmetry_group_IT_number 62
_symmetry_cell_setting 'orthorhombic'
loop_
_space_group_symop_operation_xyz
x,y,z
1/2-x,-y,1/2+z
1/2+x,1/2-y,1/2-z
-x,1/2+y,-z
-x,-y,-z
1/2+x,y,1/2-z
1/2-x,1/2+y,1/2+z
x,1/2-y,z
loop_
_atom_site_type_symbol
_atom_site_label
_atom_site_fract_x
_atom_site_fract_y
_atom_site_fract_z
Si Si1 0.411091 0.462081 0.501938
Si Si2 0.136970 0.544231 0.596396
Si Si3 0.693695 0.451888 0.633703
Si Si4 0.853627 0.468745 0.571554
Si Si5 0.414051 0.031426 0.772132
Si Si6 0.692346 0.534037 0.357915
Si Si7 0.076585 0.045333 0.753109
O O1 0.500000 0.500000 0.500000
O O2 0.400017 0.250000 0.493408
O O3 0.367190 0.551964 0.433294
O O4 0.370363 0.514874 0.579605
O O5 0.112134 0.750000 0.596710
O O6 0.126935 0.468890 0.512300
O O7 0.226371 0.537120 0.616880
O O8 0.093864 0.451899 0.664688
O O9 0.716177 0.250000 0.658043
O O10 0.769925 0.530101 0.598003
O O11 0.647911 0.537617 0.702989
O O12 0.851965 0.250000 0.566600
O O13 0.907172 0.520566 0.640734
O O14 0.415957 0.250000 0.770399
O O15 0.341414 0.977154 0.722710
O O16 0.493009 0.966861 0.736402
O O17 0.699568 0.750000 0.356364
O O18 0.072634 0.250000 0.781210
#
# Coordination Sequence:
#
# PCOD9463494 Si02
#       7
#     8   8   8   8   8   8   8
#     4  11  22  34  54  85 119 152 186 233 286 343
#     4  11  22  36  56  83 115 151 187 230 287 344
#     4  10  19  36  58  80 110 150 193 235 287 343
#     4   9  18  33  55  80 110 148 186 229 283 339
#     4   9  18  35  58  83 109 144 192 236 278 330
#     4  10  20  37  60  84 110 144 192 239 279 334
#     4  10  21  37  60  85 111 148 193 239 282 336
#
# _framework density 23.954132000000001
#
# number of rings (size 3 to 8) (size 9 to 14) (size 15 to 20)
#    0.000    2.000    1.429    2.571    0.000    6.286 
#    0.000    0.714    0.000    2.571    0.000    0.000 
#    0.000    0.000    0.000    0.000    0.000    0.000 
#
# Total GULP energy -313063.774886 kJ/mol
# GULP energy per Si atom -5590.424552 kJ/mol
# Density = 2.389961 g / cm^3
# Si number density = 23.954132 Si / 1000 Ang^3
#
#
#
# Elastic Constant Matrix: (Units=GPa)
#
#
# Indices 1 2 3 4 5 6 
#
# 1 31.1233 -4.7585 -19.5068 0.0000 0.0000 0.0000
# 2 -4.7585 71.5478 3.5896 0.0000 0.0000 0.0000
# 3 -19.5068 3.5896 117.3278 0.0000 0.0000 0.0000
# 4 0.0000 0.0000 0.0000 28.7530 0.0000 0.0000
# 5 0.0000 0.0000 0.0000 0.0000 39.0224 0.0000
# 6 0.0000 0.0000 0.0000 0.0000 0.0000 -39.2368
#
#
#
# Elastic Compliance Matrix: (Units=1/GPa)
#
#
# Indices 1 2 3 4 5 6 
#
# 1 0.036183 0.002108 0.005951 0.000000 0.000000 0.000000
# 2 0.002108 0.014121 -0.000082 0.000000 0.000000 0.000000
# 3 0.005951 -0.000082 0.009515 0.000000 0.000000 0.000000
# 4 0.000000 0.000000 0.000000 0.034779 0.000000 0.000000
# 5 0.000000 0.000000 0.000000 0.000000 0.025626 0.000000
# 6 0.000000 0.000000 0.000000 0.000000 0.000000 -0.025486
#
#
# Mechanical properties :
#
#
# Convention : Reuss Voigt Hill
#
# Bulk Modulus (GPa) = 13.19724 19.84973 16.52348
# Shear Modulus (GPa) = 48.05817 21.75267 34.90542
#
# Velocity S-wave (km/s) = 4.48399 3.01673 3.82144
# Velocity P-wave (km/s) = 5.68591 4.52093 5.13655
#
# Compressibility (1/GPa) = 0.07577344
#
# Stress axis : x y z
#
# Youngs Moduli (GPa) = 27.63764 70.81676 105.09652
#
# Poissons Ratio (x) = -0.14927 -0.62545
# Poissons Ratio (y) = -0.05826 0.00857
# Poissons Ratio (z) = -0.16448 0.00578
#
# Static dielectric constant tensor:
#      x y z
#    x 1.883490 0.000000 0.000000 
#    y 0.000000 1.945010 0.000000 
#    z 0.000000 0.000000 1.904370 
# 
# From -- ./inp_files/20372.got.cif
#   From: 2010.05.17/outbox.cif.g08.bks.cpg/sg62_11_cif.got.tgz:20372.got - 2010.06.03 15:25:27.
