data_PCOD9463198
_publ_section_title
;
Structure prediction by ZEFSAII (Michael W. Deem and Ramdas Pophale) SiO2 
 PCOD9463198
Probable space group: P N M A
;
_chemical_formula_sum "Si O2"
_cell_formula_units_Z 64
_cell_length_a 8.403124
_cell_length_b 17.302096
_cell_length_c 19.389432
_cell_angle_alpha 90.000000
_cell_angle_beta 90.000000
_cell_angle_gamma 90.000000
_cell_volume 2819.061669
_symmetry_space_group_name_H-M "P N M A"
_symmetry_group_IT_number 62
_symmetry_cell_setting 'orthorhombic'
loop_
_space_group_symop_operation_xyz
x,y,z
1/2-x,-y,1/2+z
1/2+x,1/2-y,1/2-z
-x,1/2+y,-z
-x,-y,-z
1/2+x,y,1/2-z
1/2-x,1/2+y,1/2+z
x,1/2-y,z
loop_
_atom_site_type_symbol
_atom_site_label
_atom_site_fract_x
_atom_site_fract_y
_atom_site_fract_z
Si Si1 0.782335 0.159121 0.029598
Si Si2 0.727473 0.906703 0.273914
Si Si3 0.324154 0.415539 0.958003
Si Si4 0.219542 0.913684 0.719575
Si Si5 0.536237 0.905890 0.650235
Si Si6 0.417800 0.908160 0.352855
Si Si7 0.883535 0.839598 0.396200
Si Si8 0.496842 0.929300 0.906525
O O1 0.804712 0.250000 0.024256
O O2 0.921007 0.122354 0.074422
O O3 0.621668 0.138839 0.071828
O O4 0.745085 0.129222 0.952412
O O5 0.574929 0.875272 0.315319
O O6 0.775112 0.880443 0.197894
O O7 0.870671 0.886941 0.326150
O O8 0.721946 0.998841 0.266795
O O9 0.150262 0.395092 0.929402
O O10 0.448438 0.350929 0.933277
O O11 0.392015 0.493547 0.920460
O O12 0.356789 0.430376 0.038632
O O13 0.365941 0.877894 0.677934
O O14 0.164314 0.879084 0.792048
O O15 0.067990 0.920641 0.669001
O O16 0.551232 0.999285 0.649611
O O17 0.853644 0.750000 0.382119
#
# Coordination Sequence:
#
# PCOD9463198 Si02
#       8
#     8   8   8   8   8   8   8   8
#     4  10  21  38  58  81 115 155 189 229 286 343
#     4  10  20  34  54  83 112 146 186 231 283 337
#     4  10  19  34  57  85 114 147 190 235 279 332
#     4  10  20  33  56  83 112 143 185 237 283 327
#     4  10  20  34  54  83 112 146 186 231 283 337
#     4  10  20  33  56  83 112 143 185 237 283 327
#     4  10  21  38  58  81 115 155 189 229 286 343
#     4  10  19  34  57  85 114 147 190 235 279 332
#
# _framework density 22.702589
#
# number of rings (size 3 to 8) (size 9 to 14) (size 15 to 20)
#    0.000    2.000    2.500    1.500    3.500    1.000 
#    0.000    8.750    0.000    3.000    0.000    0.000 
#    0.000    0.000    0.000    0.000    0.000    0.000 
#
# Total GULP energy -357083.952317 kJ/mol
# GULP energy per Si atom -5579.436755 kJ/mol
# Density = 2.265092 g / cm^3
# Si number density = 22.702589 Si / 1000 Ang^3
#
#
#
# Elastic Constant Matrix: (Units=GPa)
#
#
# Indices 1 2 3 4 5 6 
#
# 1 48.7904 -8.7137 -1.7036 0.0000 0.0000 0.0000
# 2 -8.7137 20.0783 1.9724 0.0000 0.0000 0.0000
# 3 -1.7036 1.9724 89.5496 0.0000 0.0000 0.0000
# 4 0.0000 0.0000 0.0000 8.9422 0.0000 0.0000
# 5 0.0000 0.0000 0.0000 0.0000 30.0537 0.0000
# 6 0.0000 0.0000 0.0000 0.0000 0.0000 10.0669
#
#
#
# Elastic Compliance Matrix: (Units=1/GPa)
#
#
# Indices 1 2 3 4 5 6 
#
# 1 0.022222 0.009623 0.000211 0.000000 0.000000 0.000000
# 2 0.009623 0.054080 -0.001008 0.000000 0.000000 0.000000
# 3 0.000211 -0.001008 0.011193 0.000000 0.000000 0.000000
# 4 0.000000 0.000000 0.000000 0.111829 0.000000 0.000000
# 5 0.000000 0.000000 0.000000 0.000000 0.033274 0.000000
# 6 0.000000 0.000000 0.000000 0.000000 0.000000 0.099335
#
#
# Mechanical properties :
#
#
# Convention : Reuss Voigt Hill
#
# Bulk Modulus (GPa) = 9.51045 15.72537 12.61791
# Shear Modulus (GPa) = 14.31309 20.93678 17.62494
#
# Velocity S-wave (km/s) = 2.51362 3.04010 2.78931
# Velocity P-wave (km/s) = 3.55284 4.38916 3.99295
#
# Compressibility (1/GPa) = 0.10514744
#
# Stress axis : x y z
#
# Youngs Moduli (GPa) = 45.00074 18.49100 89.33985
#
# Poissons Ratio (x) = -0.17794 -0.01883
# Poissons Ratio (y) = -0.43305 0.09006
# Poissons Ratio (z) = -0.00949 0.01864
#
# Static dielectric constant tensor:
#      x y z
#    x 1.941630 0.000000 0.000000 
#    y 0.000000 1.810640 0.000000 
#    z 0.000000 0.000000 1.918960 
# 
# From -- ./inp_files/26193.got.cif
#   From: 2010.05.17/outbox.cif.g08.bks.cpg/sg62_14_cif.got.tgz:26193.got - 2010.06.03 15:25:27.
