data_PCOD9463170
_publ_section_title
;
Structure prediction by ZEFSAII (Michael W. Deem and Ramdas Pophale) SiO2 
 PCOD9463170
Probable space group: P N M A
;
_chemical_formula_sum "Si O2"
_cell_formula_units_Z 48
_cell_length_a 10.032194
_cell_length_b 8.417901
_cell_length_c 28.389607
_cell_angle_alpha 90.000000
_cell_angle_beta 90.000000
_cell_angle_gamma 90.000000
_cell_volume 2397.502763
_symmetry_space_group_name_H-M "P N M A"
_symmetry_group_IT_number 62
_symmetry_cell_setting 'orthorhombic'
loop_
_space_group_symop_operation_xyz
x,y,z
1/2-x,-y,1/2+z
1/2+x,1/2-y,1/2-z
-x,1/2+y,-z
-x,-y,-z
1/2+x,y,1/2-z
1/2-x,1/2+y,1/2+z
x,1/2-y,z
loop_
_atom_site_type_symbol
_atom_site_label
_atom_site_fract_x
_atom_site_fract_y
_atom_site_fract_z
Si Si1 0.548520 0.940530 0.450300
Si Si2 0.456576 0.442012 0.948326
Si Si3 0.298893 0.943470 0.391879
Si Si4 0.209952 0.057867 0.608602
Si Si5 0.643175 0.058972 0.712266
Si Si6 0.838078 0.561518 0.794212
O O1 0.548438 0.750000 0.451245
O O2 0.442216 0.992877 0.411364
O O3 0.693540 0.992873 0.434143
O O4 0.500000 0.000000 0.500000
O O5 0.455385 0.250000 0.950575
O O6 0.314160 0.497791 0.928371
O O7 0.563338 0.489126 0.908106
O O8 0.500000 0.500000 0.000000
O O9 0.293864 0.750000 0.391920
O O10 0.292019 0.993204 0.337662
O O11 0.212924 0.250000 0.612549
O O12 0.271591 0.991692 0.656454
O O13 0.647112 0.250000 0.714610
O O14 0.486885 0.010038 0.712852
O O15 0.734119 0.991865 0.753961
O O16 0.851872 0.750000 0.793629
#
# Coordination Sequence:
#
# PCOD9463170 Si02
#       6
#     8   8   8   8   8   8
#     4  10  19  34  56  84 116 153 202 255 305 365
#     4  10  21  37  59  89 123 161 207 256 307 369
#     4   9  19  37  60  86 117 155 206 254 292 359
#     4  10  21  39  61  86 121 166 212 250 300 385
#     4  11  23  44  70  93 122 170 217 255 313 392
#     4  12  26  43  64  98 133 160 203 271 330 373
#
# _framework density 20.020831999999999
#
# number of rings (size 3 to 8) (size 9 to 14) (size 15 to 20)
#    0.000    1.667    1.667    3.000    2.333    1.333 
#    0.000    1.667    0.000    0.000    0.000    0.000 
#    0.000    0.000    0.000    0.000    0.000    0.000 
#
# Total GULP energy -267993.725236 kJ/mol
# GULP energy per Si atom -5583.202609 kJ/mol
# Density = 1.997526 g / cm^3
# Si number density = 20.020832 Si / 1000 Ang^3
#
#
#
# Elastic Constant Matrix: (Units=GPa)
#
#
# Indices 1 2 3 4 5 6 
#
# 1 67.1603 7.9777 -3.6383 0.0000 0.0000 0.0000
# 2 7.9777 30.1670 4.9342 0.0000 0.0000 0.0000
# 3 -3.6383 4.9342 87.4165 0.0000 0.0000 0.0000
# 4 0.0000 0.0000 0.0000 30.7241 0.0000 0.0000
# 5 0.0000 0.0000 0.0000 0.0000 39.1920 0.0000
# 6 0.0000 0.0000 0.0000 0.0000 0.0000 20.8356
#
#
#
# Elastic Compliance Matrix: (Units=1/GPa)
#
#
# Indices 1 2 3 4 5 6 
#
# 1 0.015440 -0.004227 0.000881 0.000000 0.000000 0.000000
# 2 -0.004227 0.034615 -0.002130 0.000000 0.000000 0.000000
# 3 0.000881 -0.002130 0.011596 0.000000 0.000000 0.000000
# 4 0.000000 0.000000 0.000000 0.032548 0.000000 0.000000
# 5 0.000000 0.000000 0.000000 0.000000 0.025515 0.000000
# 6 0.000000 0.000000 0.000000 0.000000 0.000000 0.047995
#
#
# Mechanical properties :
#
#
# Convention : Reuss Voigt Hill
#
# Bulk Modulus (GPa) = 19.72403 22.58789 21.15596
# Shear Modulus (GPa) = 25.56753 29.84833 27.70793
#
# Velocity S-wave (km/s) = 3.57746 3.86536 3.72419
# Velocity P-wave (km/s) = 5.19012 5.58820 5.39284
#
# Compressibility (1/GPa) = 0.05069958
#
# Stress axis : x y z
#
# Youngs Moduli (GPa) = 64.76839 28.88914 86.23380
#
# Poissons Ratio (x) = 0.12212 -0.07599
# Poissons Ratio (y) = 0.27379 0.18366
# Poissons Ratio (z) = -0.05707 0.06153
#
# Static dielectric constant tensor:
#      x y z
#    x 1.716400 0.000000 0.000000 
#    y 0.000000 1.697140 0.000000 
#    z 0.000000 0.000000 1.705930 
# 
# From -- ./inp_files/31913.got.cif
#   From: 2010.05.17/outbox.cif.g08.bks.cpg/sg62_16_cif.got.tgz:31913.got - 2010.06.03 15:25:27.
