data_PCOD9463619
_publ_section_title
;
Structure prediction by ZEFSAII (Michael W. Deem and Ramdas Pophale) SiO2 
 PCOD9463619
Probable space group: P N M A
;
_chemical_formula_sum "Si O2"
_cell_formula_units_Z 64
_cell_length_a 12.399994
_cell_length_b 7.583231
_cell_length_c 31.668340
_cell_angle_alpha 90.000000
_cell_angle_beta 90.000000
_cell_angle_gamma 90.000000
_cell_volume 2977.837945
_symmetry_space_group_name_H-M "P N M A"
_symmetry_group_IT_number 62
_symmetry_cell_setting 'orthorhombic'
loop_
_space_group_symop_operation_xyz
x,y,z
1/2-x,-y,1/2+z
1/2+x,1/2-y,1/2-z
-x,1/2+y,-z
-x,-y,-z
1/2+x,y,1/2-z
1/2-x,1/2+y,1/2+z
x,1/2-y,z
loop_
_atom_site_type_symbol
_atom_site_label
_atom_site_fract_x
_atom_site_fract_y
_atom_site_fract_z
Si Si1 0.233432 0.461681 0.453570
Si Si2 0.499057 0.545507 0.160490
Si Si3 0.998209 0.048806 0.435083
Si Si4 0.224288 0.462086 0.296350
Si Si5 0.120167 0.034006 0.125922
Si Si6 0.771255 0.037556 0.297732
Si Si7 0.372220 0.033964 0.373543
Si Si8 0.762092 0.461319 0.453047
O O1 0.226779 0.250000 0.448752
O O2 0.110952 0.532888 0.449998
O O3 0.306988 0.525016 0.415025
O O4 0.277768 0.501239 0.499900
O O5 0.263064 0.250000 0.203424
O O6 0.500690 0.446718 0.115809
O O7 0.604318 0.503203 0.187790
O O8 0.390544 0.505832 0.186016
O O9 0.997393 0.250000 0.451281
O O10 0.884174 0.966783 0.448319
O O11 0.234015 0.250000 0.295043
O O12 0.248144 0.529190 0.249361
O O13 0.308495 0.524678 0.331773
O O14 0.120180 0.250000 0.125862
O O15 0.185084 0.974654 0.084373
O O16 0.996213 0.977593 0.125988
O O17 0.185215 0.975995 0.167432
O O18 0.000765 0.750000 0.350731
O O19 0.371785 0.250000 0.373566
O O20 0.768811 0.250000 0.447560
#
# Coordination Sequence:
#
# PCOD9463619 Si02
#       8
#     8   8   8   8   8   8   8   8
#     4  10  20  34  55  81 114 148 187 240 289 346
#     4  12  24  37  59  88 125 158 185 235 296 353
#     4  10  19  37  59  82 112 150 196 243 287 335
#     4  10  21  38  64  90 114 149 198 243 281 341
#     4   9  18  34  56  84 114 145 186 241 291 330
#     4  10  21  38  64  90 114 149 198 243 281 341
#     4   9  18  34  56  84 114 145 186 241 291 330
#     4  10  20  34  55  81 114 148 187 240 289 346
#
# _framework density 21.492101999999999
#
# number of rings (size 3 to 8) (size 9 to 14) (size 15 to 20)
#    0.000    2.000    2.500    1.500    1.750    2.000 
#    0.000    0.000    0.000    1.500    0.000    0.000 
#    0.000    0.000    0.000    0.000    0.000    0.000 
#
# Total GULP energy -357680.423043 kJ/mol
# GULP energy per Si atom -5588.756610 kJ/mol
# Density = 2.144319 g / cm^3
# Si number density = 21.492102 Si / 1000 Ang^3
#
#
#
# Elastic Constant Matrix: (Units=GPa)
#
#
# Indices 1 2 3 4 5 6 
#
# 1 118.5265 1.7240 35.3797 0.0000 0.0000 0.0000
# 2 1.7240 50.6746 5.5561 0.0000 0.0000 0.0000
# 3 35.3797 5.5561 114.5325 0.0000 0.0000 0.0000
# 4 0.0000 0.0000 0.0000 11.3991 0.0000 0.0000
# 5 0.0000 0.0000 0.0000 0.0000 44.4473 0.0000
# 6 0.0000 0.0000 0.0000 0.0000 0.0000 -6.5083
#
#
#
# Elastic Compliance Matrix: (Units=1/GPa)
#
#
# Indices 1 2 3 4 5 6 
#
# 1 0.009294 -0.000001 -0.002871 0.000000 0.000000 0.000000
# 2 -0.000001 0.019839 -0.000962 0.000000 0.000000 0.000000
# 3 -0.002871 -0.000962 0.009665 0.000000 0.000000 0.000000
# 4 0.000000 0.000000 0.000000 0.087726 0.000000 0.000000
# 5 0.000000 0.000000 0.000000 0.000000 0.022499 0.000000
# 6 0.000000 0.000000 0.000000 0.000000 0.000000 -0.153650
#
#
# Mechanical properties :
#
#
# Convention : Reuss Voigt Hill
#
# Bulk Modulus (GPa) = 32.12410 41.00590 36.56500
# Shear Modulus (GPa) = 372.65289 25.93922 199.29606
#
# Velocity S-wave (km/s) = 13.18207 3.47784 9.64008
# Velocity P-wave (km/s) = 15.70569 5.93701 11.87259
#
# Compressibility (1/GPa) = 0.03112928
#
# Stress axis : x y z
#
# Youngs Moduli (GPa) = 107.59749 50.40508 103.47002
#
# Poissons Ratio (x) = 0.00007 0.29705
# Poissons Ratio (y) = 0.00015 0.09954
# Poissons Ratio (z) = 0.30890 0.04849
#
# Static dielectric constant tensor:
#      x y z
#    x 1.742890 0.000000 0.000000 
#    y 0.000000 1.811900 0.000000 
#    z 0.000000 0.000000 1.755310 
# 
# From -- ./inp_files/32463.got.cif
#   From: 2010.05.17/outbox.cif.g08.bks.cpg/sg62_17_cif.got.tgz:32463.got - 2010.06.03 15:25:27.
