data_PCOD9463831
_publ_section_title
;
Structure prediction by ZEFSAII (Michael W. Deem and Ramdas Pophale) SiO2 
 PCOD9463831
Probable space group: P N M A
;
_chemical_formula_sum "Si O2"
_cell_formula_units_Z 56
_cell_length_a 19.958976
_cell_length_b 8.674813
_cell_length_c 19.579868
_cell_angle_alpha 90.000000
_cell_angle_beta 90.000000
_cell_angle_gamma 90.000000
_cell_volume 3390.065873
_symmetry_space_group_name_H-M "P N M A"
_symmetry_group_IT_number 62
_symmetry_cell_setting 'orthorhombic'
loop_
_space_group_symop_operation_xyz
x,y,z
1/2-x,-y,1/2+z
1/2+x,1/2-y,1/2-z
-x,1/2+y,-z
-x,-y,-z
1/2+x,y,1/2-z
1/2-x,1/2+y,1/2+z
x,1/2-y,z
loop_
_atom_site_type_symbol
_atom_site_label
_atom_site_fract_x
_atom_site_fract_y
_atom_site_fract_z
Si Si1 0.520949 0.937759 0.210571
Si Si2 0.769984 0.564785 0.371000
Si Si3 0.163186 0.563702 0.238586
Si Si4 0.203623 0.565838 0.480345
Si Si5 0.948391 0.436277 0.555369
Si Si6 0.873310 0.563975 0.250605
Si Si7 0.266451 0.066871 0.348724
O O1 0.519613 0.750000 0.210382
O O2 0.586335 0.985015 0.253388
O O3 0.531690 0.985864 0.131918
O O4 0.449531 0.988744 0.239565
O O5 0.770605 0.750000 0.380256
O O6 0.701984 0.521307 0.330709
O O7 0.779115 0.485390 0.443312
O O8 0.830215 0.525692 0.318546
O O9 0.166095 0.750000 0.244002
O O10 0.206513 0.498023 0.301126
O O11 0.206134 0.750000 0.474440
O O12 0.127500 0.515766 0.462244
O O13 0.253066 0.493778 0.424541
O O14 0.950540 0.250000 0.553776
O O15 0.000000 0.500000 0.500000
O O16 0.871793 0.750000 0.244323
O O17 0.834201 0.493723 0.186593
O O18 0.265311 0.250000 0.347472
#
# Coordination Sequence:
#
# PCOD9463831 Si02
#       7
#     8   8   8   8   8   8   8
#     4   9  16  31  54  75  98 133 172 206 247 304
#     4   9  18  31  50  75 104 134 166 210 257 304
#     4   9  17  34  55  74 101 135 174 212 253 307
#     4  11  21  34  52  72 101 138 174 213 253 303
#     4  10  20  32  48  72 104 137 167 200 246 305
#     4   9  18  33  54  76 102 135 169 208 254 308
#     4  11  21  33  51  74 102 134 173 217 255 301
#
# _framework density 16.518851999999999
#
# number of rings (size 3 to 8) (size 9 to 14) (size 15 to 20)
#    0.000    2.286    1.429    3.429    0.000    4.571 
#    0.000    1.429    0.000    0.857    0.000    0.000 
#    0.000    0.000    0.000    0.000    0.000    0.000 
#
# Total GULP energy -312426.027530 kJ/mol
# GULP energy per Si atom -5579.036206 kJ/mol
# Density = 1.648125 g / cm^3
# Si number density = 16.518852 Si / 1000 Ang^3
#
#
#
# Elastic Constant Matrix: (Units=GPa)
#
#
# Indices 1 2 3 4 5 6 
#
# 1 157.5793 30.0342 71.0270 0.0000 0.0000 0.0000
# 2 30.0342 22.1290 28.6098 0.0000 0.0000 0.0000
# 3 71.0270 28.6098 73.9663 0.0000 0.0000 0.0000
# 4 0.0000 0.0000 0.0000 29.4890 0.0000 0.0000
# 5 0.0000 0.0000 0.0000 0.0000 23.1640 0.0000
# 6 0.0000 0.0000 0.0000 0.0000 0.0000 13.1969
#
#
#
# Elastic Compliance Matrix: (Units=1/GPa)
#
#
# Indices 1 2 3 4 5 6 
#
# 1 0.011264 -0.002608 -0.009807 0.000000 0.000000 0.000000
# 2 -0.002608 0.090996 -0.032693 0.000000 0.000000 0.000000
# 3 -0.009807 -0.032693 0.035583 0.000000 0.000000 0.000000
# 4 0.000000 0.000000 0.000000 0.033911 0.000000 0.000000
# 5 0.000000 0.000000 0.000000 0.000000 0.043170 0.000000
# 6 0.000000 0.000000 0.000000 0.000000 0.000000 0.075775
#
#
# Mechanical properties :
#
#
# Convention : Reuss Voigt Hill
#
# Bulk Modulus (GPa) = 20.99661 57.00185 38.99923
# Shear Modulus (GPa) = 12.60114 21.43689 17.01901
#
# Velocity S-wave (km/s) = 2.76494 3.60630 3.21328
# Velocity P-wave (km/s) = 4.78868 7.20573 6.11776
#
# Compressibility (1/GPa) = 0.04762673
#
# Stress axis : x y z
#
# Youngs Moduli (GPa) = 88.78177 10.98950 28.10365
#
# Poissons Ratio (x) = 0.02866 0.27562
# Poissons Ratio (y) = 0.23152 0.91878
# Poissons Ratio (z) = 0.87071 0.35928
#
# Static dielectric constant tensor:
#      x y z
#    x 1.562090 0.000000 0.000000 
#    y 0.000000 1.557320 0.000000 
#    z 0.000000 0.000000 1.529640 
# 
# From -- ./inp_files/24605.got.cif
#   From: 2010.05.17/outbox.cif.g08.bks.cpg/sg62_13_cif.got.tgz:24605.got - 2010.06.03 15:25:27.
