data_PCOD9463214
_publ_section_title
;
Structure prediction by ZEFSAII (Michael W. Deem and Ramdas Pophale) SiO2 
 PCOD9463214
Probable space group: P N M A
;
_chemical_formula_sum "Si O2"
_cell_formula_units_Z 64
_cell_length_a 11.809436
_cell_length_b 8.743756
_cell_length_c 33.602382
_cell_angle_alpha 90.000000
_cell_angle_beta 90.000000
_cell_angle_gamma 90.000000
_cell_volume 3469.742546
_symmetry_space_group_name_H-M "P N M A"
_symmetry_group_IT_number 62
_symmetry_cell_setting 'orthorhombic'
loop_
_space_group_symop_operation_xyz
x,y,z
1/2-x,-y,1/2+z
1/2+x,1/2-y,1/2-z
-x,1/2+y,-z
-x,-y,-z
1/2+x,y,1/2-z
1/2-x,1/2+y,1/2+z
x,1/2-y,z
loop_
_atom_site_type_symbol
_atom_site_label
_atom_site_fract_x
_atom_site_fract_y
_atom_site_fract_z
Si Si1 0.086007 0.934518 0.710155
Si Si2 0.811824 0.564981 0.833762
Si Si3 0.293921 0.566890 0.367655
Si Si4 0.429508 0.432724 0.441591
Si Si5 0.966872 0.066886 0.633381
Si Si6 0.663312 0.932308 0.472351
Si Si7 0.946463 0.435293 0.198460
Si Si8 0.675677 0.933395 0.911722
O O1 0.075565 0.750000 0.706561
O O2 0.215212 0.974989 0.698345
O O3 0.057713 0.978008 0.755159
O O4 0.007352 0.009545 0.676737
O O5 0.817677 0.750000 0.834961
O O6 0.762681 0.516037 0.876456
O O7 0.935905 0.511070 0.821634
O O8 0.300312 0.750000 0.367708
O O9 0.370805 0.500704 0.402922
O O10 0.343279 0.502991 0.326462
O O11 0.163080 0.521626 0.373390
O O12 0.439413 0.250000 0.437657
O O13 0.356072 0.468422 0.481141
O O14 0.553655 0.500281 0.449787
O O15 0.975559 0.250000 0.631705
O O16 0.053929 0.995080 0.601741
O O17 0.664433 0.750000 0.468033
O O18 0.774506 0.002910 0.452577
O O19 0.941824 0.250000 0.196356
O O20 0.673422 0.750000 0.912301
#
# Coordination Sequence:
#
# PCOD9463214 Si02
#       8
#     8   8   8   8   8   8   8   8
#     4   9  19  34  55  80 106 140 183 230 279 337
#     4   8  16  31  48  76 108 132 172 223 268 319
#     4  11  24  39  55  79 113 150 189 235 288 342
#     4  10  21  37  58  86 118 153 190 230 276 334
#     4  10  22  39  56  76 110 151 188 235 289 340
#     4  10  20  35  59  89 120 149 182 229 285 336
#     4  10  20  33  56  81 106 142 181 229 282 339
#     4  10  19  34  58  83 110 146 190 234 276 335
#
# _framework density 18.445173
#
# number of rings (size 3 to 8) (size 9 to 14) (size 15 to 20)
#    0.000    2.250    0.000    3.375    1.750    5.000 
#    0.000    3.125    0.000    0.000    0.000    0.000 
#    0.000    0.000    0.000    0.000    0.000    0.000 
#
# Total GULP energy -357312.744558 kJ/mol
# GULP energy per Si atom -5583.011634 kJ/mol
# Density = 1.840319 g / cm^3
# Si number density = 18.445173 Si / 1000 Ang^3
#
#
#
# Elastic Constant Matrix: (Units=GPa)
#
#
# Indices 1 2 3 4 5 6 
#
# 1 37.0758 10.6370 7.0469 0.0000 0.0000 0.0000
# 2 10.6370 28.2784 17.7226 0.0000 0.0000 0.0000
# 3 7.0469 17.7226 51.2461 0.0000 0.0000 0.0000
# 4 0.0000 0.0000 0.0000 26.3018 0.0000 0.0000
# 5 0.0000 0.0000 0.0000 0.0000 15.0797 0.0000
# 6 0.0000 0.0000 0.0000 0.0000 0.0000 25.0844
#
#
#
# Elastic Compliance Matrix: (Units=1/GPa)
#
#
# Indices 1 2 3 4 5 6 
#
# 1 0.030238 -0.011194 -0.000287 0.000000 0.000000 0.000000
# 2 -0.011194 0.049292 -0.015508 0.000000 0.000000 0.000000
# 3 -0.000287 -0.015508 0.024916 0.000000 0.000000 0.000000
# 4 0.000000 0.000000 0.000000 0.038020 0.000000 0.000000
# 5 0.000000 0.000000 0.000000 0.000000 0.066314 0.000000
# 6 0.000000 0.000000 0.000000 0.000000 0.000000 0.039865
#
#
# Mechanical properties :
#
#
# Convention : Reuss Voigt Hill
#
# Bulk Modulus (GPa) = 19.81409 20.82370 20.31889
# Shear Modulus (GPa) = 15.65207 18.70611 17.17909
#
# Velocity S-wave (km/s) = 2.91619 3.18802 3.05513
# Velocity P-wave (km/s) = 4.70153 4.98651 4.84612
#
# Compressibility (1/GPa) = 0.05046914
#
# Stress axis : x y z
#
# Youngs Moduli (GPa) = 33.07106 20.28712 40.13469
#
# Poissons Ratio (x) = 0.22710 0.01150
# Poissons Ratio (y) = 0.37021 0.62239
# Poissons Ratio (z) = 0.00948 0.31460
#
# Static dielectric constant tensor:
#      x y z
#    x 1.624660 0.000000 0.000000 
#    y 0.000000 1.618740 0.000000 
#    z 0.000000 0.000000 1.626280 
# 
# From -- ./inp_files/32572.got.cif
#   From: 2010.05.17/outbox.cif.g08.bks.cpg/sg62_17_cif.got.tgz:32572.got - 2010.06.03 15:25:27.
