data_PCOD9463370
_publ_section_title
;
Structure prediction by ZEFSAII (Michael W. Deem and Ramdas Pophale) SiO2 
 PCOD9463370
Probable space group: P N M A
;
_chemical_formula_sum "Si O2"
_cell_formula_units_Z 64
_cell_length_a 12.901753
_cell_length_b 8.527699
_cell_length_c 29.413343
_cell_angle_alpha 90.000000
_cell_angle_beta 90.000000
_cell_angle_gamma 90.000000
_cell_volume 3236.122652
_symmetry_space_group_name_H-M "P N M A"
_symmetry_group_IT_number 62
_symmetry_cell_setting 'orthorhombic'
loop_
_space_group_symop_operation_xyz
x,y,z
1/2-x,-y,1/2+z
1/2+x,1/2-y,1/2-z
-x,1/2+y,-z
-x,-y,-z
1/2+x,y,1/2-z
1/2-x,1/2+y,1/2+z
x,1/2-y,z
loop_
_atom_site_type_symbol
_atom_site_label
_atom_site_fract_x
_atom_site_fract_y
_atom_site_fract_z
Si Si1 0.564033 0.441480 0.297452
Si Si2 0.016587 0.062110 0.050130
Si Si3 0.284401 0.441056 0.162340
Si Si4 0.608617 0.436128 0.019269
Si Si5 0.618677 0.940248 0.634120
Si Si6 0.745749 0.561123 0.938383
Si Si7 0.845730 0.063723 0.620137
Si Si8 0.497128 0.939726 0.802735
O O1 0.565996 0.250000 0.298370
O O2 0.673008 0.494839 0.319009
O O3 0.464022 0.487155 0.327267
O O4 0.549861 0.491398 0.245409
O O5 0.010389 0.250000 0.049433
O O6 0.931921 0.007181 0.086317
O O7 0.132824 0.022060 0.065206
O O8 0.000000 0.000000 0.000000
O O9 0.280301 0.250000 0.162301
O O10 0.302636 0.487452 0.109873
O O11 0.382976 0.488679 0.192015
O O12 0.602844 0.250000 0.022896
O O13 0.634440 0.502656 0.069012
O O14 0.500000 0.500000 0.000000
O O15 0.694563 0.483973 0.982158
O O16 0.624969 0.750000 0.634522
O O17 0.733461 0.006523 0.637466
O O18 0.735690 0.750000 0.943006
O O19 0.848750 0.250000 0.619395
O O20 0.931725 0.999911 0.654756
O O21 0.494554 0.750000 0.803539
#
# Coordination Sequence:
#
# PCOD9463370 Si02
#       8
#     8   8   8   8   8   8   8   8
#     4   9  18  34  61  95 123 154 202 259 312 367
#     4  10  20  33  53  82 116 156 198 249 303 357
#     4   9  17  33  58  91 124 153 195 251 308 367
#     4  12  25  42  64  91 123 162 209 259 313 372
#     4  10  20  38  62  90 124 161 205 256 307 367
#     4  10  19  35  58  85 121 161 201 248 309 369
#     4  12  26  43  61  88 128 170 211 257 311 373
#     4  10  21  36  63  94 120 158 208 260 315 374
#
# _framework density 19.776751999999998
#
# number of rings (size 3 to 8) (size 9 to 14) (size 15 to 20)
#    0.000    1.750    1.250    3.750    1.750    4.000 
#    0.000    0.625    0.000    1.500    0.000    0.000 
#    0.000    0.000    0.000    0.000    0.000    0.000 
#
# Total GULP energy -357571.612500 kJ/mol
# GULP energy per Si atom -5587.056445 kJ/mol
# Density = 1.973174 g / cm^3
# Si number density = 19.776752 Si / 1000 Ang^3
#
#
#
# Elastic Constant Matrix: (Units=GPa)
#
#
# Indices 1 2 3 4 5 6 
#
# 1 125.9335 28.3305 56.9634 0.0000 0.0000 0.0000
# 2 28.3305 32.8609 23.1962 0.0000 0.0000 0.0000
# 3 56.9634 23.1962 142.8062 0.0000 0.0000 0.0000
# 4 0.0000 0.0000 0.0000 20.9305 0.0000 0.0000
# 5 0.0000 0.0000 0.0000 0.0000 35.2600 0.0000
# 6 0.0000 0.0000 0.0000 0.0000 0.0000 19.6322
#
#
#
# Elastic Compliance Matrix: (Units=1/GPa)
#
#
# Indices 1 2 3 4 5 6 
#
# 1 0.011025 -0.007230 -0.003223 0.000000 0.000000 0.000000
# 2 -0.007230 0.039113 -0.003469 0.000000 0.000000 0.000000
# 3 -0.003223 -0.003469 0.008852 0.000000 0.000000 0.000000
# 4 0.000000 0.000000 0.000000 0.047777 0.000000 0.000000
# 5 0.000000 0.000000 0.000000 0.000000 0.028361 0.000000
# 6 0.000000 0.000000 0.000000 0.000000 0.000000 0.050937
#
#
# Mechanical properties :
#
#
# Convention : Reuss Voigt Hill
#
# Bulk Modulus (GPa) = 32.10771 57.62008 44.86390
# Shear Modulus (GPa) = 22.29239 28.03859 25.16549
#
# Velocity S-wave (km/s) = 3.36102 3.76939 3.57105
# Velocity P-wave (km/s) = 5.59753 6.93851 6.30378
#
# Compressibility (1/GPa) = 0.03114516
#
# Stress axis : x y z
#
# Youngs Moduli (GPa) = 90.70128 25.56670 112.97109
#
# Poissons Ratio (x) = 0.18484 0.36416
# Poissons Ratio (y) = 0.65575 0.39194
# Poissons Ratio (z) = 0.29237 0.08870
#
# Static dielectric constant tensor:
#      x y z
#    x 1.698440 0.000000 0.000000 
#    y 0.000000 1.681110 0.000000 
#    z 0.000000 0.000000 1.699480 
# 
# From -- ./inp_files/32444.got.cif
#   From: 2010.05.17/outbox.cif.g08.bks.cpg/sg62_17_cif.got.tgz:32444.got - 2010.06.03 15:25:27.
