data_PCOD9463874
_publ_section_title
;
Structure prediction by ZEFSAII (Michael W. Deem and Ramdas Pophale) SiO2 
 PCOD9463874
Probable space group: P N M A
;
_chemical_formula_sum "Si O2"
_cell_formula_units_Z 48
_cell_length_a 15.878021
_cell_length_b 17.999092
_cell_length_c 7.754347
_cell_angle_alpha 90.000000
_cell_angle_beta 90.000000
_cell_angle_gamma 90.000000
_cell_volume 2216.114525
_symmetry_space_group_name_H-M "P N M A"
_symmetry_group_IT_number 62
_symmetry_cell_setting 'orthorhombic'
loop_
_space_group_symop_operation_xyz
x,y,z
1/2-x,-y,1/2+z
1/2+x,1/2-y,1/2-z
-x,1/2+y,-z
-x,-y,-z
1/2+x,y,1/2-z
1/2-x,1/2+y,1/2+z
x,1/2-y,z
loop_
_atom_site_type_symbol
_atom_site_label
_atom_site_fract_x
_atom_site_fract_y
_atom_site_fract_z
Si Si1 0.382262 0.014818 0.399314
Si Si2 0.010889 0.573438 0.294950
Si Si3 0.150359 0.666735 0.449968
Si Si4 0.405640 0.586897 0.879649
Si Si5 0.258736 0.943483 0.656115
Si Si6 0.455558 0.332159 0.308248
O O1 0.322797 0.014958 0.229150
O O2 0.415001 0.099110 0.408593
O O3 0.455305 0.954634 0.365715
O O4 0.326299 0.994273 0.561231
O O5 0.940962 0.604216 0.430707
O O6 0.088247 0.630683 0.308707
O O7 0.054664 0.495533 0.352751
O O8 0.176028 0.750000 0.403360
O O9 0.227142 0.614941 0.512433
O O10 0.095335 0.669878 0.626873
O O11 0.308330 0.587304 0.824463
O O12 0.451450 0.642645 0.747180
O O13 0.452587 0.250000 0.386357
#
# Coordination Sequence:
#
# PCOD9463874 Si02
#       6
#     8   8   8   8   8   8
#     4  10  20  32  54  78 103 138 175 219 263 314
#     4   9  17  34  53  74 102 136 178 214 260 322
#     4   9  18  33  52  72 101 140 174 212 264 317
#     4   9  17  30  53  76  99 133 169 213 259 312
#     4  11  20  32  52  80 107 133 175 220 266 314
#     4   8  16  31  50  74 100 130 171 212 254 306
#
# _framework density 21.659528999999999
#
# number of rings (size 3 to 8) (size 9 to 14) (size 15 to 20)
#    0.000    2.667    0.000    5.000    0.000    3.333 
#    0.000    0.833    0.000   11.000    0.000    0.000 
#    0.000    0.000    0.000    0.000    0.000    0.000 
#
# Total GULP energy -267575.274870 kJ/mol
# GULP energy per Si atom -5574.484893 kJ/mol
# Density = 2.161023 g / cm^3
# Si number density = 21.659529 Si / 1000 Ang^3
#
#
#
# Elastic Constant Matrix: (Units=GPa)
#
#
# Indices 1 2 3 4 5 6 
#
# 1 88.3152 42.2645 33.5836 0.0000 0.0000 0.0000
# 2 42.2645 104.8139 40.7376 0.0000 0.0000 0.0000
# 3 33.5836 40.7376 71.9133 0.0000 0.0000 0.0000
# 4 0.0000 0.0000 0.0000 15.3814 0.0000 0.0000
# 5 0.0000 0.0000 0.0000 0.0000 47.0841 0.0000
# 6 0.0000 0.0000 0.0000 0.0000 0.0000 16.5918
#
#
#
# Elastic Compliance Matrix: (Units=1/GPa)
#
#
# Indices 1 2 3 4 5 6 
#
# 1 0.015146 -0.004306 -0.004634 0.000000 0.000000 0.000000
# 2 -0.004306 0.013459 -0.005613 0.000000 0.000000 0.000000
# 3 -0.004634 -0.005613 0.019249 0.000000 0.000000 0.000000
# 4 0.000000 0.000000 0.000000 0.065014 0.000000 0.000000
# 5 0.000000 0.000000 0.000000 0.000000 0.021239 0.000000
# 6 0.000000 0.000000 0.000000 0.000000 0.000000 0.060271
#
#
# Mechanical properties :
#
#
# Convention : Reuss Voigt Hill
#
# Bulk Modulus (GPa) = 53.33978 55.35709 54.34843
# Shear Modulus (GPa) = 21.76442 25.70857 23.73649
#
# Velocity S-wave (km/s) = 3.17336 3.44894 3.31402
# Velocity P-wave (km/s) = 6.17308 6.44000 6.30795
#
# Compressibility (1/GPa) = 0.01874773
#
# Stress axis : x y z
#
# Youngs Moduli (GPa) = 66.02391 74.30072 51.94995
#
# Poissons Ratio (x) = 0.31997 0.24072
# Poissons Ratio (y) = 0.28433 0.29160
# Poissons Ratio (z) = 0.30594 0.41706
#
# Static dielectric constant tensor:
#      x y z
#    x 1.807950 0.000000 0.000000 
#    y 0.000000 1.784280 0.000000 
#    z 0.000000 0.000000 1.908410 
# 
# From -- ./inp_files/6511.got.cif
#   From: 2010.05.17/outbox.cif.g08.bks.cpg/sg62_4_cif.got.tgz:6511.got - 2010.06.03 15:25:27.
