data_PCOD9463548
_publ_section_title
;
Structure prediction by ZEFSAII (Michael W. Deem and Ramdas Pophale) SiO2 
 PCOD9463548
Probable space group: P N M A
;
_chemical_formula_sum "Si O2"
_cell_formula_units_Z 48
_cell_length_a 16.472373
_cell_length_b 18.004638
_cell_length_c 8.844931
_cell_angle_alpha 90.000000
_cell_angle_beta 90.000000
_cell_angle_gamma 90.000000
_cell_volume 2623.221789
_symmetry_space_group_name_H-M "P N M A"
_symmetry_group_IT_number 62
_symmetry_cell_setting 'orthorhombic'
loop_
_space_group_symop_operation_xyz
x,y,z
1/2-x,-y,1/2+z
1/2+x,1/2-y,1/2-z
-x,1/2+y,-z
-x,-y,-z
1/2+x,y,1/2-z
1/2-x,1/2+y,1/2+z
x,1/2-y,z
loop_
_atom_site_type_symbol
_atom_site_label
_atom_site_fract_x
_atom_site_fract_y
_atom_site_fract_z
Si Si1 0.054675 0.456156 0.681047
Si Si2 0.392670 0.436494 0.621632
Si Si3 0.503660 0.664823 0.597098
Si Si4 0.346312 0.913583 0.467695
Si Si5 0.962828 0.118663 0.432434
Si Si6 0.185832 0.664834 0.371907
O O1 0.122572 0.431449 0.798215
O O2 0.070312 0.536201 0.608597
O O3 0.970459 0.461923 0.777366
O O4 0.036253 0.397444 0.548623
O O5 0.431780 0.388924 0.485525
O O6 0.347725 0.508768 0.558173
O O7 0.337694 0.384441 0.726265
O O8 0.517353 0.750000 0.552080
O O9 0.415462 0.637748 0.542553
O O10 0.511489 0.655778 0.776633
O O11 0.261008 0.872923 0.457040
O O12 0.892839 0.161648 0.520274
O O13 0.203987 0.750000 0.332054
#
# Coordination Sequence:
#
# PCOD9463548 Si02
#       6
#     8   8   8   8   8   8
#     4   9  18  36  60  86 108 142 194 242 278 340
#     4  10  20  38  60  83 112 154 199 236 284 352
#     4  11  20  36  62  88 117 151 196 245 289 338
#     4  11  21  38  60  87 114 153 201 242 286 344
#     4  10  19  36  60  85 116 145 191 238 290 340
#     4  11  25  39  54  84 125 158 187 237 306 351
#
# _framework density 18.298110000000001
#
# number of rings (size 3 to 8) (size 9 to 14) (size 15 to 20)
#    0.000    1.667    3.333    2.500    2.333    0.000 
#    0.000    4.167    0.000    0.000    0.000    0.000 
#    0.000    0.000    0.000    0.000    0.000    0.000 
#
# Total GULP energy -268052.889122 kJ/mol
# GULP energy per Si atom -5584.435190 kJ/mol
# Density = 1.825646 g / cm^3
# Si number density = 18.298110 Si / 1000 Ang^3
#
#
#
# Elastic Constant Matrix: (Units=GPa)
#
#
# Indices 1 2 3 4 5 6 
#
# 1 38.9698 30.4530 7.4796 0.0000 0.0000 0.0000
# 2 30.4530 103.8591 11.8925 0.0000 0.0000 0.0000
# 3 7.4796 11.8925 78.9095 0.0000 0.0000 0.0000
# 4 0.0000 0.0000 0.0000 13.1593 0.0000 0.0000
# 5 0.0000 0.0000 0.0000 0.0000 15.9377 0.0000
# 6 0.0000 0.0000 0.0000 0.0000 0.0000 19.1365
#
#
#
# Elastic Compliance Matrix: (Units=1/GPa)
#
#
# Indices 1 2 3 4 5 6 
#
# 1 0.033518 -0.009630 -0.001726 0.000000 0.000000 0.000000
# 2 -0.009630 0.012564 -0.000981 0.000000 0.000000 0.000000
# 3 -0.001726 -0.000981 0.012984 0.000000 0.000000 0.000000
# 4 0.000000 0.000000 0.000000 0.075992 0.000000 0.000000
# 5 0.000000 0.000000 0.000000 0.000000 0.062744 0.000000
# 6 0.000000 0.000000 0.000000 0.000000 0.000000 0.052256
#
#
# Mechanical properties :
#
#
# Convention : Reuss Voigt Hill
#
# Bulk Modulus (GPa) = 29.07578 35.70983 32.39280
# Shear Modulus (GPa) = 17.47053 21.10760 19.28906
#
# Velocity S-wave (km/s) = 3.09329 3.40006 3.25030
# Velocity P-wave (km/s) = 5.35560 5.91370 5.64156
#
# Compressibility (1/GPa) = 0.03439289
#
# Stress axis : x y z
#
# Youngs Moduli (GPa) = 29.83502 79.58952 77.01710
#
# Poissons Ratio (x) = 0.76647 0.13290
# Poissons Ratio (y) = 0.28732 0.07554
# Poissons Ratio (z) = 0.05148 0.07806
#
# Static dielectric constant tensor:
#      x y z
#    x 1.595310 0.000000 0.000000 
#    y 0.000000 1.623250 0.000000 
#    z 0.000000 0.000000 1.634140 
# 
# From -- ./inp_files/6463.got.cif
#   From: 2010.05.17/outbox.cif.g08.bks.cpg/sg62_4_cif.got.tgz:6463.got - 2010.06.03 15:25:27.
