data_PCOD9463234
_publ_section_title
;
Structure prediction by ZEFSAII (Michael W. Deem and Ramdas Pophale) SiO2 
 PCOD9463234
Probable space group: P N M A
;
_chemical_formula_sum "Si O2"
_cell_formula_units_Z 56
_cell_length_a 15.316915
_cell_length_b 7.622886
_cell_length_c 22.020592
_cell_angle_alpha 90.000000
_cell_angle_beta 90.000000
_cell_angle_gamma 90.000000
_cell_volume 2571.104435
_symmetry_space_group_name_H-M "P N M A"
_symmetry_group_IT_number 62
_symmetry_cell_setting 'orthorhombic'
loop_
_space_group_symop_operation_xyz
x,y,z
1/2-x,-y,1/2+z
1/2+x,1/2-y,1/2-z
-x,1/2+y,-z
-x,-y,-z
1/2+x,y,1/2-z
1/2-x,1/2+y,1/2+z
x,1/2-y,z
loop_
_atom_site_type_symbol
_atom_site_label
_atom_site_fract_x
_atom_site_fract_y
_atom_site_fract_z
Si Si1 0.649052 0.047772 0.510111
Si Si2 0.446052 0.535997 0.724142
Si Si3 0.480610 0.964339 0.587891
Si Si4 0.406989 0.464588 0.180808
Si Si5 0.756161 0.541442 0.741504
Si Si6 0.984705 0.958358 0.570333
Si Si7 0.214181 0.956819 0.396364
O O1 0.671776 0.250000 0.496199
O O2 0.606169 0.975504 0.448403
O O3 0.730250 0.968093 0.546778
O O4 0.566374 0.038215 0.555618
O O5 0.443987 0.750000 0.724656
O O6 0.476371 0.483931 0.657535
O O7 0.513508 0.484094 0.775507
O O8 0.349970 0.469952 0.739113
O O9 0.484911 0.750000 0.583608
O O10 0.401909 0.250000 0.179492
O O11 0.320283 0.528093 0.215124
O O12 0.436859 0.524124 0.113925
O O13 0.757527 0.750000 0.751853
O O14 0.750097 0.520274 0.668733
O O15 0.984361 0.750000 0.576403
O O16 0.889016 0.015268 0.593942
O O17 0.000000 0.000000 0.500000
O O18 0.230076 0.750000 0.396214
#
# Coordination Sequence:
#
# PCOD9463234 Si02
#       7
#     8   8   8   8   8   8   8
#     4   9  19  33  50  77 112 144 179 226 279 338
#     4   9  16  29  51  80 105 130 175 228 274 327
#     4   9  17  31  53  78 106 141 183 229 277 333
#     4   9  18  33  56  85 111 141 187 242 291 343
#     4  10  19  34  59  83 107 143 189 240 290 340
#     4  11  23  41  62  85 116 154 200 249 298 356
#     4  11  22  37  56  82 117 156 194 233 289 354
#
# _framework density 21.780525000000001
#
# number of rings (size 3 to 8) (size 9 to 14) (size 15 to 20)
#    0.000    2.286    1.429    1.714    0.000    3.429 
#    0.000    6.429    0.000    0.000    0.000    0.000 
#    0.000    0.000    0.000    0.000    0.000    0.000 
#
# Total GULP energy -312500.573284 kJ/mol
# GULP energy per Si atom -5580.367380 kJ/mol
# Density = 2.173095 g / cm^3
# Si number density = 21.780525 Si / 1000 Ang^3
#
#
#
# Elastic Constant Matrix: (Units=GPa)
#
#
# Indices 1 2 3 4 5 6 
#
# 1 51.7119 -7.0458 -5.3438 0.0000 0.0000 0.0000
# 2 -7.0458 38.4870 -12.9007 0.0000 0.0000 0.0000
# 3 -5.3438 -12.9007 101.2351 0.0000 0.0000 0.0000
# 4 0.0000 0.0000 0.0000 26.5225 0.0000 0.0000
# 5 0.0000 0.0000 0.0000 0.0000 45.9731 0.0000
# 6 0.0000 0.0000 0.0000 0.0000 0.0000 9.9095
#
#
#
# Elastic Compliance Matrix: (Units=1/GPa)
#
#
# Indices 1 2 3 4 5 6 
#
# 1 0.020077 0.004210 0.001596 0.000000 0.000000 0.000000
# 2 0.004210 0.028025 0.003794 0.000000 0.000000 0.000000
# 3 0.001596 0.003794 0.010446 0.000000 0.000000 0.000000
# 4 0.000000 0.000000 0.000000 0.037704 0.000000 0.000000
# 5 0.000000 0.000000 0.000000 0.000000 0.021752 0.000000
# 6 0.000000 0.000000 0.000000 0.000000 0.000000 0.100913
#
#
# Mechanical properties :
#
#
# Convention : Reuss Voigt Hill
#
# Bulk Modulus (GPa) = 12.86203 15.65038 14.25621
# Shear Modulus (GPa) = 22.15999 30.92930 26.54464
#
# Velocity S-wave (km/s) = 3.19317 3.77243 3.49482
# Velocity P-wave (km/s) = 4.41737 5.11626 4.77961
#
# Compressibility (1/GPa) = 0.07774821
#
# Stress axis : x y z
#
# Youngs Moduli (GPa) = 49.80939 35.68214 95.73324
#
# Poissons Ratio (x) = -0.15024 -0.15282
# Poissons Ratio (y) = -0.20972 -0.36317
# Poissons Ratio (z) = -0.07951 -0.13536
#
# Static dielectric constant tensor:
#      x y z
#    x 1.789420 0.000000 0.000000 
#    y 0.000000 1.834950 0.000000 
#    z 0.000000 0.000000 1.791130 
# 
# From -- ./inp_files/27166.got.cif
#   From: 2010.05.17/outbox.cif.g08.bks.cpg/sg62_14_cif.got.tgz:27166.got - 2010.06.03 15:25:27.
