data_PCOD9463491
_publ_section_title
;
Structure prediction by ZEFSAII (Michael W. Deem and Ramdas Pophale) SiO2 
 PCOD9463491
Probable space group: P N M A
;
_chemical_formula_sum "Si O2"
_cell_formula_units_Z 64
_cell_length_a 28.694060
_cell_length_b 7.597937
_cell_length_c 13.128731
_cell_angle_alpha 90.000000
_cell_angle_beta 90.000000
_cell_angle_gamma 90.000000
_cell_volume 2862.268956
_symmetry_space_group_name_H-M "P N M A"
_symmetry_group_IT_number 62
_symmetry_cell_setting 'orthorhombic'
loop_
_space_group_symop_operation_xyz
x,y,z
1/2-x,-y,1/2+z
1/2+x,1/2-y,1/2-z
-x,1/2+y,-z
-x,-y,-z
1/2+x,y,1/2-z
1/2-x,1/2+y,1/2+z
x,1/2-y,z
loop_
_atom_site_type_symbol
_atom_site_label
_atom_site_fract_x
_atom_site_fract_y
_atom_site_fract_z
Si Si1 0.561742 0.038177 0.083140
Si Si2 0.192691 0.536663 0.568126
Si Si3 0.960817 0.537517 0.802593
Si Si4 0.711246 0.043995 0.345761
Si Si5 0.335855 0.957604 0.854007
Si Si6 0.409875 0.040251 0.133253
Si Si7 0.559431 0.965747 0.642901
Si Si8 0.120857 0.543174 0.045543
O O1 0.559837 0.250000 0.082493
O O2 0.534100 0.979984 0.184303
O O3 0.613886 0.972158 0.112189
O O4 0.556357 0.988815 0.964522
O O5 0.191701 0.750000 0.572095
O O6 0.238337 0.470901 0.626202
O O7 0.196731 0.481793 0.450928
O O8 0.142187 0.472318 0.607077
O O9 0.960445 0.750000 0.800929
O O10 0.913150 0.483459 0.857284
O O11 0.005598 0.478379 0.866697
O O12 0.719416 0.250000 0.323967
O O13 0.687206 0.964076 0.245946
O O14 0.671723 0.033294 0.432294
O O15 0.344167 0.750000 0.835322
O O16 0.406703 0.250000 0.142692
O O17 0.425199 0.976352 0.244100
O O18 0.560040 0.750000 0.640445
O O19 0.593041 0.027378 0.552702
O O20 0.127535 0.750000 0.030807
#
# Coordination Sequence:
#
# PCOD9463491 Si02
#       8
#     8   8   8   8   8   8   8   8
#     4   9  17  31  53  78 102 136 178 218 261 316
#     4   9  19  33  53  78 104 136 177 221 267 320
#     4  10  19  36  58  78 107 146 180 217 271 332
#     4  10  20  36  55  77 104 144 184 216 271 334
#     4   9  17  32  52  73 101 137 174 213 262 317
#     4   9  18  35  54  76 108 144 178 221 271 320
#     4   9  20  36  55  79 110 146 179 216 273 330
#     4  11  22  35  54  82 110 138 183 234 270 314
#
# _framework density 22.359883
#
# number of rings (size 3 to 8) (size 9 to 14) (size 15 to 20)
#    0.000    2.500    1.250    0.750    0.000    3.000 
#    0.000    5.000    0.000    3.000    0.000    0.000 
#    0.000    0.000    0.000    0.000    0.000    0.000 
#
# Total GULP energy -357111.445764 kJ/mol
# GULP energy per Si atom -5579.866340 kJ/mol
# Density = 2.230899 g / cm^3
# Si number density = 22.359883 Si / 1000 Ang^3
#
#
#
# Elastic Constant Matrix: (Units=GPa)
#
#
# Indices 1 2 3 4 5 6 
#
# 1 53.6687 -9.8591 11.8648 0.0000 0.0000 0.0000
# 2 -9.8591 40.9655 -11.0109 0.0000 0.0000 0.0000
# 3 11.8648 -11.0109 96.7038 0.0000 0.0000 0.0000
# 4 0.0000 0.0000 0.0000 3.1935 0.0000 0.0000
# 5 0.0000 0.0000 0.0000 0.0000 30.6715 0.0000
# 6 0.0000 0.0000 0.0000 0.0000 0.0000 20.7027
#
#
#
# Elastic Compliance Matrix: (Units=1/GPa)
#
#
# Indices 1 2 3 4 5 6 
#
# 1 0.019845 0.004252 -0.001951 0.000000 0.000000 0.000000
# 2 0.004252 0.026092 0.002449 0.000000 0.000000 0.000000
# 3 -0.001951 0.002449 0.010859 0.000000 0.000000 0.000000
# 4 0.000000 0.000000 0.000000 0.313135 0.000000 0.000000
# 5 0.000000 0.000000 0.000000 0.000000 0.032604 0.000000
# 6 0.000000 0.000000 0.000000 0.000000 0.000000 0.048303
#
#
# Mechanical properties :
#
#
# Convention : Reuss Voigt Hill
#
# Bulk Modulus (GPa) = 15.08358 19.25863 17.17110
# Shear Modulus (GPa) = 10.78896 24.26976 17.52936
#
# Velocity S-wave (km/s) = 2.19900 3.29814 2.80297
# Velocity P-wave (km/s) = 3.63427 4.80992 4.26282
#
# Compressibility (1/GPa) = 0.06629727
#
# Stress axis : x y z
#
# Youngs Moduli (GPa) = 50.39010 38.32537 92.08891
#
# Poissons Ratio (x) = -0.16295 0.17964
# Poissons Ratio (y) = -0.21425 -0.22555
# Poissons Ratio (z) = 0.09830 -0.09387
#
# Static dielectric constant tensor:
#      x y z
#    x 1.830860 0.000000 0.000000 
#    y 0.000000 1.824270 0.000000 
#    z 0.000000 0.000000 1.846100 
# 
# From -- ./inp_files/15810.got.cif
#   From: 2010.05.17/outbox.cif.g08.bks.cpg/sg62_8_cif.got.tgz:15810.got - 2010.06.03 15:25:27.
