data_PCOD9463347
_publ_section_title
;
Structure prediction by ZEFSAII (Michael W. Deem and Ramdas Pophale) SiO2 
 PCOD9463347
Probable space group: P N M A
;
_chemical_formula_sum "Si O2"
_cell_formula_units_Z 40
_cell_length_a 8.529753
_cell_length_b 7.533961
_cell_length_c 25.268955
_cell_angle_alpha 90.000000
_cell_angle_beta 90.000000
_cell_angle_gamma 90.000000
_cell_volume 1623.854470
_symmetry_space_group_name_H-M "P N M A"
_symmetry_group_IT_number 62
_symmetry_cell_setting 'orthorhombic'
loop_
_space_group_symop_operation_xyz
x,y,z
1/2-x,-y,1/2+z
1/2+x,1/2-y,1/2-z
-x,1/2+y,-z
-x,-y,-z
1/2+x,y,1/2-z
1/2-x,1/2+y,1/2+z
x,1/2-y,z
loop_
_atom_site_type_symbol
_atom_site_label
_atom_site_fract_x
_atom_site_fract_y
_atom_site_fract_z
Si Si1 0.662183 0.953461 0.273157
Si Si2 0.157671 0.964516 0.424498
Si Si3 0.174863 0.957251 0.627380
Si Si4 0.653630 0.032268 0.674472
Si Si5 0.831463 0.962676 0.974920
O O1 0.621050 0.750000 0.261600
O O2 0.718959 0.029805 0.217745
O O3 0.513392 0.031011 0.303838
O O4 0.803443 0.955890 0.315578
O O5 0.156645 0.750000 0.425755
O O6 0.293482 0.022907 0.383659
O O7 0.201653 0.028381 0.483036
O O8 0.993332 0.021825 0.399986
O O9 0.203322 0.750000 0.636394
O O10 0.298012 0.031490 0.583947
O O11 0.651931 0.250000 0.673948
O O12 0.814901 0.750000 0.971326
O O13 0.000000 0.000000 0.000000
#
# Coordination Sequence:
#
# PCOD9463347 Si02
#       5
#     8   8   8   8   8
#     4  10  19  35  58  82 108 142 181 225 271 319
#     4  10  20  37  59  82 107 143 187 227 267 318
#     4  11  23  37  53  81 115 145 178 221 271 326
#     4   9  18  33  58  86 107 134 184 235 269 309
#     4  10  22  38  58  83 111 142 181 224 271 324
#
# _framework density 24.632746999999998
#
# number of rings (size 3 to 8) (size 9 to 14) (size 15 to 20)
#    0.000    2.000    0.000    3.600    0.000    7.200 
#    0.000    5.000    0.000    0.000    0.000    0.000 
#    0.000    0.000    0.000    0.000    0.000    0.000 
#
# Total GULP energy -223755.493932 kJ/mol
# GULP energy per Si atom -5593.887348 kJ/mol
# Density = 2.457668 g / cm^3
# Si number density = 24.632747 Si / 1000 Ang^3
#
#
#
# Elastic Constant Matrix: (Units=GPa)
#
#
# Indices 1 2 3 4 5 6 
#
# 1 59.5837 -9.2710 -20.9915 0.0000 0.0000 0.0000
# 2 -9.2710 72.6382 4.5350 0.0000 0.0000 0.0000
# 3 -20.9915 4.5350 93.8129 0.0000 0.0000 0.0000
# 4 0.0000 0.0000 0.0000 4.5491 0.0000 0.0000
# 5 0.0000 0.0000 0.0000 0.0000 44.8593 0.0000
# 6 0.0000 0.0000 0.0000 0.0000 0.0000 18.0574
#
#
#
# Elastic Compliance Matrix: (Units=1/GPa)
#
#
# Indices 1 2 3 4 5 6 
#
# 1 0.018537 0.002113 0.004046 0.000000 0.000000 0.000000
# 2 0.002113 0.014049 -0.000206 0.000000 0.000000 0.000000
# 3 0.004046 -0.000206 0.011575 0.000000 0.000000 0.000000
# 4 0.000000 0.000000 0.000000 0.219822 0.000000 0.000000
# 5 0.000000 0.000000 0.000000 0.000000 0.022292 0.000000
# 6 0.000000 0.000000 0.000000 0.000000 0.000000 0.055379
#
#
# Mechanical properties :
#
#
# Convention : Reuss Voigt Hill
#
# Bulk Modulus (GPa) = 17.83578 19.39777 18.61678
# Shear Modulus (GPa) = 14.34978 30.27733 22.31356
#
# Velocity S-wave (km/s) = 2.41622 3.50973 3.01300
# Velocity P-wave (km/s) = 3.87822 4.93114 4.43603
#
# Compressibility (1/GPa) = 0.05606708
#
# Stress axis : x y z
#
# Youngs Moduli (GPa) = 53.94544 71.17707 86.39494
#
# Poissons Ratio (x) = -0.15042 -0.34953
# Poissons Ratio (y) = -0.11401 0.01782
# Poissons Ratio (z) = -0.21825 0.01468
#
# Static dielectric constant tensor:
#      x y z
#    x 1.980190 0.000000 0.000000 
#    y 0.000000 1.908120 0.000000 
#    z 0.000000 0.000000 1.948590 
# 
# From -- ./inp_files/28559.got.cif
#   From: 2010.05.17/outbox.cif.g08.bks.cpg/sg62_15_cif.got.tgz:28559.got - 2010.06.03 15:25:27.
