data_PCOD9463991
_publ_section_title
;
Structure prediction by ZEFSAII (Michael W. Deem and Ramdas Pophale) SiO2 
 PCOD9463991
Probable space group: P N M A
;
_chemical_formula_sum "Si O2"
_cell_formula_units_Z 48
_cell_length_a 14.741968
_cell_length_b 8.715615
_cell_length_c 20.787376
_cell_angle_alpha 90.000000
_cell_angle_beta 90.000000
_cell_angle_gamma 90.000000
_cell_volume 2670.872604
_symmetry_space_group_name_H-M "P N M A"
_symmetry_group_IT_number 62
_symmetry_cell_setting 'orthorhombic'
loop_
_space_group_symop_operation_xyz
x,y,z
1/2-x,-y,1/2+z
1/2+x,1/2-y,1/2-z
-x,1/2+y,-z
-x,-y,-z
1/2+x,y,1/2-z
1/2-x,1/2+y,1/2+z
x,1/2-y,z
loop_
_atom_site_type_symbol
_atom_site_label
_atom_site_fract_x
_atom_site_fract_y
_atom_site_fract_z
Si Si1 0.484226 0.934655 0.123105
Si Si2 0.830486 0.934930 0.575992
Si Si3 0.211853 0.064696 0.566875
Si Si4 0.662837 0.066340 0.325027
Si Si5 0.520219 0.433899 0.727434
Si Si6 0.216949 0.564598 0.798842
O O1 0.489140 0.750000 0.120148
O O2 0.386263 0.980778 0.095822
O O3 0.491911 0.982198 0.197790
O O4 0.567940 0.003008 0.084012
O O5 0.834886 0.750000 0.576744
O O6 0.787814 0.981169 0.507851
O O7 0.771422 0.984380 0.637450
O O8 0.218330 0.250000 0.570828
O O9 0.289758 0.992621 0.610424
O O10 0.658047 0.250000 0.325125
O O11 0.726403 0.018347 0.264583
O O12 0.563551 0.998683 0.312903
O O13 0.519937 0.250000 0.725379
O O14 0.616919 0.495640 0.704186
O O15 0.210858 0.750000 0.799059
#
# Coordination Sequence:
#
# PCOD9463991 Si02
#       6
#     8   8   8   8   8   8
#     4  10  20  33  54  85 118 147 182 230 282 341
#     4  10  21  37  58  83 116 153 187 231 284 338
#     4  10  21  38  57  83 118 152 189 231 281 340
#     4  11  22  37  59  84 114 150 189 235 279 331
#     4  11  22  36  58  86 114 147 187 234 282 332
#     4  10  21  37  57  83 112 147 189 231 279 331
#
# _framework density 17.971654999999998
#
# number of rings (size 3 to 8) (size 9 to 14) (size 15 to 20)
#    0.000    1.667    3.333    1.500    0.000    3.333 
#    0.000    0.833    0.000    0.000    0.000    0.000 
#    0.000    0.000    0.000    0.000    0.000    0.000 
#
# Total GULP energy -268165.446118 kJ/mol
# GULP energy per Si atom -5586.780127 kJ/mol
# Density = 1.793075 g / cm^3
# Si number density = 17.971655 Si / 1000 Ang^3
#
#
#
# Elastic Constant Matrix: (Units=GPa)
#
#
# Indices 1 2 3 4 5 6 
#
# 1 80.6347 12.6609 -6.5757 0.0000 0.0000 0.0000
# 2 12.6609 11.6192 6.1091 0.0000 0.0000 0.0000
# 3 -6.5757 6.1091 48.9893 0.0000 0.0000 0.0000
# 4 0.0000 0.0000 0.0000 18.5118 0.0000 0.0000
# 5 0.0000 0.0000 0.0000 0.0000 27.2813 0.0000
# 6 0.0000 0.0000 0.0000 0.0000 0.0000 22.9142
#
#
#
# Elastic Compliance Matrix: (Units=1/GPa)
#
#
# Indices 1 2 3 4 5 6 
#
# 1 0.015870 -0.019704 0.004587 0.000000 0.000000 0.000000
# 2 -0.019704 0.116568 -0.017181 0.000000 0.000000 0.000000
# 3 0.004587 -0.017181 0.023171 0.000000 0.000000 0.000000
# 4 0.000000 0.000000 0.000000 0.054020 0.000000 0.000000
# 5 0.000000 0.000000 0.000000 0.000000 0.036655 0.000000
# 6 0.000000 0.000000 0.000000 0.000000 0.000000 0.043641
#
#
# Mechanical properties :
#
#
# Convention : Reuss Voigt Hill
#
# Bulk Modulus (GPa) = 10.98750 18.40353 14.69551
# Shear Modulus (GPa) = 12.99181 22.34473 17.66827
#
# Velocity S-wave (km/s) = 2.69161 3.52992 3.13887
# Velocity P-wave (km/s) = 3.97325 5.18423 4.61860
#
# Compressibility (1/GPa) = 0.09101251
#
# Stress axis : x y z
#
# Youngs Moduli (GPa) = 63.01378 8.57867 43.15752
#
# Poissons Ratio (x) = 0.16904 -0.19798
# Poissons Ratio (y) = 1.24163 0.74150
# Poissons Ratio (z) = -0.28906 0.14739
#
# Static dielectric constant tensor:
#      x y z
#    x 1.573340 0.000000 0.000000 
#    y 0.000000 1.603630 0.000000 
#    z 0.000000 0.000000 1.616560 
# 
# From -- ./inp_files/23636.got.cif
#   From: 2010.05.17/outbox.cif.g08.bks.cpg/sg62_12_cif.got.tgz:23636.got - 2010.06.03 15:25:27.
