data_PCOD9463284
_publ_section_title
;
Structure prediction by ZEFSAII (Michael W. Deem and Ramdas Pophale) SiO2 
 PCOD9463284
Probable space group: P N M A
;
_chemical_formula_sum "Si O2"
_cell_formula_units_Z 48
_cell_length_a 10.166293
_cell_length_b 22.297017
_cell_length_c 12.720532
_cell_angle_alpha 90.000000
_cell_angle_beta 90.000000
_cell_angle_gamma 90.000000
_cell_volume 2883.464853
_symmetry_space_group_name_H-M "P N M A"
_symmetry_group_IT_number 62
_symmetry_cell_setting 'orthorhombic'
loop_
_space_group_symop_operation_xyz
x,y,z
1/2-x,-y,1/2+z
1/2+x,1/2-y,1/2-z
-x,1/2+y,-z
-x,-y,-z
1/2+x,y,1/2-z
1/2-x,1/2+y,1/2+z
x,1/2-y,z
loop_
_atom_site_type_symbol
_atom_site_label
_atom_site_fract_x
_atom_site_fract_y
_atom_site_fract_z
Si Si1 0.484018 0.178874 0.644937
Si Si2 0.124699 0.918348 0.995546
Si Si3 0.621255 0.453390 0.117190
Si Si4 0.643514 0.920949 0.995115
Si Si5 0.291160 0.178610 0.840935
Si Si6 0.616475 0.033241 0.366251
O O1 0.480469 0.250000 0.624686
O O2 0.435685 0.141378 0.544864
O O3 0.382023 0.166408 0.739542
O O4 0.635820 0.163324 0.673848
O O5 0.137647 0.965329 0.092552
O O6 0.262938 0.914839 0.936196
O O7 0.023724 0.946815 0.912081
O O8 0.637371 0.520794 0.071223
O O9 0.626490 0.458488 0.242311
O O10 0.483864 0.426514 0.077836
O O11 0.654174 0.861604 0.064542
O O12 0.772692 0.928105 0.924562
O O13 0.299091 0.250000 0.862068
#
# Coordination Sequence:
#
# PCOD9463284 Si02
#       6
#     8   8   8   8   8   8
#     4  10  21  37  57  81 108 140 179 223 271 321
#     4  10  20  34  55  80 107 143 176 218 269 316
#     4  10  21  33  54  81 109 143 176 220 266 322
#     4  10  20  36  53  80 110 139 179 220 269 317
#     4  10  21  37  58  81 108 141 177 223 272 319
#     4  10  19  35  54  77 111 141 177 217 265 321
#
# _framework density 16.646639
#
# number of rings (size 3 to 8) (size 9 to 14) (size 15 to 20)
#    0.000    2.000    1.667    2.000    2.333    0.000 
#    6.000    0.000    0.000    6.000    0.000    0.000 
#    0.000    0.000    0.000    0.000    0.000    0.000 
#
# Total GULP energy -267777.226295 kJ/mol
# GULP energy per Si atom -5578.692214 kJ/mol
# Density = 1.660875 g / cm^3
# Si number density = 16.646639 Si / 1000 Ang^3
#
#
#
# Elastic Constant Matrix: (Units=GPa)
#
#
# Indices 1 2 3 4 5 6 
#
# 1 52.9835 11.6775 9.7187 0.0000 0.0000 0.0000
# 2 11.6775 32.7818 30.2196 0.0000 0.0000 0.0000
# 3 9.7187 30.2196 93.9705 0.0000 0.0000 0.0000
# 4 0.0000 0.0000 0.0000 20.9356 0.0000 0.0000
# 5 0.0000 0.0000 0.0000 0.0000 16.2897 0.0000
# 6 0.0000 0.0000 0.0000 0.0000 0.0000 21.0930
#
#
#
# Elastic Compliance Matrix: (Units=1/GPa)
#
#
# Indices 1 2 3 4 5 6 
#
# 1 0.020489 -0.007597 0.000324 0.000000 0.000000 0.000000
# 2 -0.007597 0.046175 -0.014064 0.000000 0.000000 0.000000
# 3 0.000324 -0.014064 0.015131 0.000000 0.000000 0.000000
# 4 0.000000 0.000000 0.000000 0.047765 0.000000 0.000000
# 5 0.000000 0.000000 0.000000 0.000000 0.061389 0.000000
# 6 0.000000 0.000000 0.000000 0.000000 0.000000 0.047409
#
#
# Mechanical properties :
#
#
# Convention : Reuss Voigt Hill
#
# Bulk Modulus (GPa) = 25.56142 31.44082 28.50112
# Shear Modulus (GPa) = 17.00264 20.20499 18.60382
#
# Velocity S-wave (km/s) = 3.19938 3.48768 3.34664
# Velocity P-wave (km/s) = 5.38857 5.92847 5.66496
#
# Compressibility (1/GPa) = 0.03912146
#
# Stress axis : x y z
#
# Youngs Moduli (GPa) = 48.80722 21.65658 66.09055
#
# Poissons Ratio (x) = 0.16453 -0.02142
# Poissons Ratio (y) = 0.37080 0.92947
# Poissons Ratio (z) = -0.01582 0.30457
#
# Static dielectric constant tensor:
#      x y z
#    x 1.568920 0.000000 0.000000 
#    y 0.000000 1.550000 0.000000 
#    z 0.000000 0.000000 1.524850 
# 
# From -- ./inp_files/11299.got.cif
#   From: 2010.05.17/outbox.cif.g08.bks.cpg/sg62_6_cif.got.tgz:11299.got - 2010.06.03 15:25:27.
