data_PCOD9463101
_publ_section_title
;
Structure prediction by ZEFSAII (Michael W. Deem and Ramdas Pophale) SiO2 
 PCOD9463101
Probable space group: P N M A
;
_chemical_formula_sum "Si O2"
_cell_formula_units_Z 64
_cell_length_a 16.949917
_cell_length_b 11.179110
_cell_length_c 17.405296
_cell_angle_alpha 90.000000
_cell_angle_beta 90.000000
_cell_angle_gamma 90.000000
_cell_volume 3298.042280
_symmetry_space_group_name_H-M "P N M A"
_symmetry_group_IT_number 62
_symmetry_cell_setting 'orthorhombic'
loop_
_space_group_symop_operation_xyz
x,y,z
1/2-x,-y,1/2+z
1/2+x,1/2-y,1/2-z
-x,1/2+y,-z
-x,-y,-z
1/2+x,y,1/2-z
1/2-x,1/2+y,1/2+z
x,1/2-y,z
loop_
_atom_site_type_symbol
_atom_site_label
_atom_site_fract_x
_atom_site_fract_y
_atom_site_fract_z
Si Si1 0.733719 0.115080 0.530574
Si Si2 0.239023 0.882033 0.285479
Si Si3 0.507687 0.378010 0.907794
Si Si4 0.873027 0.554271 0.533401
Si Si5 0.444159 0.611313 0.523822
Si Si6 0.082684 0.384092 0.759049
Si Si7 0.501388 0.881884 0.693035
Si Si8 0.147086 0.378866 0.296388
O O1 0.751837 0.250000 0.503814
O O2 0.741840 0.114653 0.623242
O O3 0.644221 0.088621 0.506361
O O4 0.798806 0.021102 0.503149
O O5 0.203271 0.750000 0.269101
O O6 0.323869 0.889668 0.245573
O O7 0.188130 0.999195 0.268472
O O8 0.467414 0.250000 0.915000
O O9 0.442264 0.470502 0.933053
O O10 0.537525 0.391765 0.821510
O O11 0.583006 0.381576 0.963882
O O12 0.847865 0.621763 0.610942
O O13 0.500000 0.500000 0.500000
O O14 0.466008 0.750000 0.499592
O O15 0.448853 0.613227 0.616278
O O16 0.067041 0.250000 0.792775
O O17 0.056037 0.500839 0.806062
O O18 0.541761 0.750000 0.693171
O O19 0.442378 0.884499 0.765442
O O20 0.179489 0.250000 0.268415
#
# Coordination Sequence:
#
# PCOD9463101 Si02
#       8
#     8   8   8   8   8   8   8   8
#     4   9  18  34  55  78 105 144 189 230 277 338
#     4   9  19  34  54  77 106 141 182 226 273 326
#     4  10  20  33  53  81 112 146 189 236 278 328
#     4  10  19  34  54  79 110 150 186 231 281 335
#     4  10  21  38  59  82 111 143 184 234 282 335
#     4  10  20  36  56  81 110 144 184 231 276 326
#     4  10  21  36  54  79 109 142 179 224 273 329
#     4  10  20  35  54  77 109 146 184 224 275 328
#
# _framework density 19.405450999999999
#
# number of rings (size 3 to 8) (size 9 to 14) (size 15 to 20)
#    0.000    2.250    1.250    1.500    0.000    4.000 
#    0.000    5.000    0.000    0.000    0.000    0.000 
#    0.000    0.000    0.000    0.000    0.000    0.000 
#
# Total GULP energy -356453.189319 kJ/mol
# GULP energy per Si atom -5569.581083 kJ/mol
# Density = 1.936128 g / cm^3
# Si number density = 19.405451 Si / 1000 Ang^3
#
#
#
# Elastic Constant Matrix: (Units=GPa)
#
#
# Indices 1 2 3 4 5 6 
#
# 1 57.5321 59.0891 -6.9297 0.0000 0.0000 0.0000
# 2 59.0891 170.2651 11.6591 0.0000 0.0000 0.0000
# 3 -6.9297 11.6591 18.7687 0.0000 0.0000 0.0000
# 4 0.0000 0.0000 0.0000 9.6927 0.0000 0.0000
# 5 0.0000 0.0000 0.0000 0.0000 19.7477 0.0000
# 6 0.0000 0.0000 0.0000 0.0000 0.0000 13.7583
#
#
#
# Elastic Compliance Matrix: (Units=1/GPa)
#
#
# Indices 1 2 3 4 5 6 
#
# 1 0.032980 -0.012825 0.020143 0.000000 0.000000 0.000000
# 2 -0.012825 0.011121 -0.011644 0.000000 0.000000 0.000000
# 3 0.020143 -0.011644 0.067950 0.000000 0.000000 0.000000
# 4 0.000000 0.000000 0.000000 0.103170 0.000000 0.000000
# 5 0.000000 0.000000 0.000000 0.000000 0.050639 0.000000
# 6 0.000000 0.000000 0.000000 0.000000 0.000000 0.072684
#
#
# Mechanical properties :
#
#
# Convention : Reuss Voigt Hill
#
# Bulk Modulus (GPa) = 9.67106 41.57810 25.62458
# Shear Modulus (GPa) = 13.10064 20.82289 16.96177
#
# Velocity S-wave (km/s) = 2.60109 3.27929 2.95968
# Velocity P-wave (km/s) = 3.74371 5.98421 4.99130
#
# Compressibility (1/GPa) = 0.10340125
#
# Stress axis : x y z
#
# Youngs Moduli (GPa) = 30.32185 89.91862 14.71661
#
# Poissons Ratio (x) = 1.15317 -0.29644
# Poissons Ratio (y) = 0.38887 0.17135
# Poissons Ratio (z) = -0.61078 1.04697
#
# Static dielectric constant tensor:
#      x y z
#    x 1.664180 0.000000 0.000000 
#    y 0.000000 1.741520 0.000000 
#    z 0.000000 0.000000 1.689370 
# 
# From -- ./inp_files/24021.got.cif
#   From: 2010.05.17/outbox.cif.g08.bks.cpg/sg62_13_cif.got.tgz:24021.got - 2010.06.03 15:25:27.
