data_PCOD9463878
_publ_section_title
;
Structure prediction by ZEFSAII (Michael W. Deem and Ramdas Pophale) SiO2 
 PCOD9463878
Probable space group: P N M A
;
_chemical_formula_sum "Si O2"
_cell_formula_units_Z 64
_cell_length_a 11.679935
_cell_length_b 9.727934
_cell_length_c 28.465176
_cell_angle_alpha 90.000000
_cell_angle_beta 90.000000
_cell_angle_gamma 90.000000
_cell_volume 3234.259889
_symmetry_space_group_name_H-M "P N M A"
_symmetry_group_IT_number 62
_symmetry_cell_setting 'orthorhombic'
loop_
_space_group_symop_operation_xyz
x,y,z
1/2-x,-y,1/2+z
1/2+x,1/2-y,1/2-z
-x,1/2+y,-z
-x,-y,-z
1/2+x,y,1/2-z
1/2-x,1/2+y,1/2+z
x,1/2-y,z
loop_
_atom_site_type_symbol
_atom_site_label
_atom_site_fract_x
_atom_site_fract_y
_atom_site_fract_z
Si Si1 0.513735 0.589994 0.277182
Si Si2 0.942910 0.094052 0.068450
Si Si3 0.203275 0.411003 0.171472
Si Si4 0.699398 0.408845 0.015184
Si Si5 0.659244 0.088362 0.646921
Si Si6 0.803412 0.591827 0.941079
Si Si7 0.895644 0.086244 0.597723
Si Si8 0.575530 0.089595 0.823594
O O1 0.543430 0.750000 0.287259
O O2 0.602303 0.489455 0.301841
O O3 0.388815 0.564414 0.300934
O O4 0.506963 0.574534 0.221395
O O5 0.952537 0.250000 0.087233
O O6 0.827742 0.089448 0.037732
O O7 0.064205 0.067181 0.043755
O O8 0.922365 0.990831 0.110953
O O9 0.204245 0.250000 0.183219
O O10 0.193307 0.423168 0.114963
O O11 0.320444 0.487493 0.183514
O O12 0.663890 0.250000 0.010044
O O13 0.621115 0.494346 0.051457
O O14 0.717302 0.488631 0.966498
O O15 0.648998 0.250000 0.637927
O O16 0.788475 0.051917 0.632467
O O17 0.774150 0.750000 0.953088
O O18 0.889574 0.250000 0.586665
O O19 0.008622 0.061131 0.628154
O O20 0.612922 0.250000 0.824149
#
# Coordination Sequence:
#
# PCOD9463878 Si02
#       8
#     8   8   8   8   8   8   8   8
#     4  10  21  37  62  90 117 150 192 241 292 349
#     4   9  17  31  49  76 116 152 183 227 286 343
#     4  11  24  41  61  87 122 158 195 241 295 353
#     4  10  20  32  54  85 114 150 195 244 293 348
#     4   9  17  30  53  84 113 146 186 230 280 338
#     4  10  20  35  54  78 115 158 194 237 291 350
#     4   9  19  37  58  82 115 154 194 238 294 349
#     4  10  23  41  64  87 115 155 200 249 292 345
#
# _framework density 19.788143999999999
#
# number of rings (size 3 to 8) (size 9 to 14) (size 15 to 20)
#    0.000    2.250    1.250    1.125    1.750    3.000 
#    0.000    0.625    0.000    0.000    0.000    0.000 
#    0.000    0.000    0.000    0.000    0.000    0.000 
#
# Total GULP energy -357115.655835 kJ/mol
# GULP energy per Si atom -5579.932122 kJ/mol
# Density = 1.974310 g / cm^3
# Si number density = 19.788144 Si / 1000 Ang^3
#
#
#
# Elastic Constant Matrix: (Units=GPa)
#
#
# Indices 1 2 3 4 5 6 
#
# 1 39.9738 35.0502 5.9137 0.0000 0.0000 0.0000
# 2 35.0502 66.7278 35.4371 0.0000 0.0000 0.0000
# 3 5.9137 35.4371 43.2011 0.0000 0.0000 0.0000
# 4 0.0000 0.0000 0.0000 26.3447 0.0000 0.0000
# 5 0.0000 0.0000 0.0000 0.0000 17.1538 0.0000
# 6 0.0000 0.0000 0.0000 0.0000 0.0000 23.8330
#
#
#
# Elastic Compliance Matrix: (Units=1/GPa)
#
#
# Indices 1 2 3 4 5 6 
#
# 1 0.066902 -0.053650 0.034850 0.000000 0.000000 0.000000
# 2 -0.053650 0.069576 -0.049728 0.000000 0.000000 0.000000
# 3 0.034850 -0.049728 0.059168 0.000000 0.000000 0.000000
# 4 0.000000 0.000000 0.000000 0.037958 0.000000 0.000000
# 5 0.000000 0.000000 0.000000 0.000000 0.058296 0.000000
# 6 0.000000 0.000000 0.000000 0.000000 0.000000 0.041959
#
#
# Mechanical properties :
#
#
# Convention : Reuss Voigt Hill
#
# Bulk Modulus (GPa) = 17.06751 33.63385 25.35068
# Shear Modulus (GPa) = 10.19481 18.36640 14.28061
#
# Velocity S-wave (km/s) = 2.27226 3.04986 2.68932
# Velocity P-wave (km/s) = 3.94057 5.42550 4.74153
#
# Compressibility (1/GPa) = 0.05859084
#
# Stress axis : x y z
#
# Youngs Moduli (GPa) = 14.94714 14.37279 16.90098
#
# Poissons Ratio (x) = 0.77109 -0.58900
# Poissons Ratio (y) = 0.80191 0.84045
# Poissons Ratio (z) = -0.52091 0.71473
#
# Static dielectric constant tensor:
#      x y z
#    x 1.714800 0.000000 0.000000 
#    y 0.000000 1.664140 0.000000 
#    z 0.000000 0.000000 1.695270 
# 
# From -- ./inp_files/32442.got.cif
#   From: 2010.05.17/outbox.cif.g08.bks.cpg/sg62_17_cif.got.tgz:32442.got - 2010.06.03 15:25:27.
