data_PCOD9463914
_publ_section_title
;
Structure prediction by ZEFSAII (Michael W. Deem and Ramdas Pophale) SiO2 
 PCOD9463914
Probable space group: P N M A
;
_chemical_formula_sum "Si O2"
_cell_formula_units_Z 64
_cell_length_a 28.959192
_cell_length_b 7.767898
_cell_length_c 14.809253
_cell_angle_alpha 90.000000
_cell_angle_beta 90.000000
_cell_angle_gamma 90.000000
_cell_volume 3331.371816
_symmetry_space_group_name_H-M "P N M A"
_symmetry_group_IT_number 62
_symmetry_cell_setting 'orthorhombic'
loop_
_space_group_symop_operation_xyz
x,y,z
1/2-x,-y,1/2+z
1/2+x,1/2-y,1/2-z
-x,1/2+y,-z
-x,-y,-z
1/2+x,y,1/2-z
1/2-x,1/2+y,1/2+z
x,1/2-y,z
loop_
_atom_site_type_symbol
_atom_site_label
_atom_site_fract_x
_atom_site_fract_y
_atom_site_fract_z
Si Si1 0.650233 0.957876 0.821093
Si Si2 0.679395 0.962690 0.621549
Si Si3 0.223067 0.444847 0.330737
Si Si4 0.943057 0.954854 0.421466
Si Si5 0.873295 0.044818 0.740521
Si Si6 0.343377 0.446683 0.566146
Si Si7 0.456811 0.452147 0.875800
Si Si8 0.754025 0.052669 0.379186
O O1 0.653446 0.750000 0.820911
O O2 0.657831 0.014897 0.717508
O O3 0.693953 0.017295 0.881691
O O4 0.601624 0.009313 0.862092
O O5 0.680703 0.750000 0.620657
O O6 0.733029 0.023075 0.617699
O O7 0.651205 0.022529 0.533800
O O8 0.216801 0.250000 0.363266
O O9 0.172350 0.522620 0.321291
O O10 0.242131 0.440411 0.227795
O O11 0.948104 0.750000 0.433151
O O12 0.990954 0.022648 0.377907
O O13 0.938889 0.031375 0.521630
O O14 0.878448 0.250000 0.750701
O O15 0.863403 0.973297 0.841524
O O16 0.918694 0.972988 0.691913
O O17 0.359971 0.250000 0.562100
O O18 0.287886 0.447806 0.579440
O O19 0.460535 0.250000 0.853756
O O20 0.752327 0.250000 0.412631
#
# Coordination Sequence:
#
# PCOD9463914 Si02
#       8
#     8   8   8   8   8   8   8   8
#     4   9  17  31  49  66  90 123 152 180 220 269
#     4   8  15  28  45  65  91 124 155 179 210 256
#     4   8  14  26  42  60  86 118 149 180 212 249
#     4  10  20  33  50  70  88 110 146 190 230 269
#     4   9  17  29  46  67  90 117 148 183 223 265
#     4   9  16  27  45  68  92 119 154 189 214 249
#     4   9  19  35  50  66  91 118 143 178 231 286
#     4   8  15  27  41  59  86 120 151 178 216 260
#
# _framework density 19.211303999999998
#
# number of rings (size 3 to 8) (size 9 to 14) (size 15 to 20)
#    0.000    3.250    0.000    1.875    0.000    2.500 
#    0.000    5.625    0.000    0.750    0.000    0.000 
#    0.000    0.000    0.000    0.000    0.000    0.375 
#
# Total GULP energy -356282.905459 kJ/mol
# GULP energy per Si atom -5566.920398 kJ/mol
# Density = 1.916758 g / cm^3
# Si number density = 19.211304 Si / 1000 Ang^3
#
#
#
# Elastic Constant Matrix: (Units=GPa)
#
#
# Indices 1 2 3 4 5 6 
#
# 1 90.7242 -4.7306 24.8604 0.0000 0.0000 0.0000
# 2 -4.7306 26.2865 -7.6749 0.0000 0.0000 0.0000
# 3 24.8604 -7.6749 34.7603 0.0000 0.0000 0.0000
# 4 0.0000 0.0000 0.0000 8.4556 0.0000 0.0000
# 5 0.0000 0.0000 0.0000 0.0000 28.0530 0.0000
# 6 0.0000 0.0000 0.0000 0.0000 0.0000 -17.3042
#
#
#
# Elastic Compliance Matrix: (Units=1/GPa)
#
#
# Indices 1 2 3 4 5 6 
#
# 1 0.013714 -0.000423 -0.009901 0.000000 0.000000 0.000000
# 2 -0.000423 0.040677 0.009284 0.000000 0.000000 0.000000
# 3 -0.009901 0.009284 0.037899 0.000000 0.000000 0.000000
# 4 0.000000 0.000000 0.000000 0.118265 0.000000 0.000000
# 5 0.000000 0.000000 0.000000 0.000000 0.035647 0.000000
# 6 0.000000 0.000000 0.000000 0.000000 0.000000 -0.057790
#
#
# Mechanical properties :
#
#
# Convention : Reuss Voigt Hill
#
# Bulk Modulus (GPa) = 11.08537 19.63119 15.35828
# Shear Modulus (GPa) = 22.66925 13.12862 17.89894
#
# Velocity S-wave (km/s) = 3.43883 2.61699 3.05567
# Velocity P-wave (km/s) = 4.64222 4.40139 4.52341
#
# Compressibility (1/GPa) = 0.09020900
#
# Stress axis : x y z
#
# Youngs Moduli (GPa) = 72.92081 24.58400 26.38560
#
# Poissons Ratio (x) = 0.01040 0.26125
# Poissons Ratio (y) = 0.03084 -0.24496
# Poissons Ratio (z) = 0.72200 -0.22823
#
# Static dielectric constant tensor:
#      x y z
#    x 1.680780 0.000000 0.000000 
#    y 0.000000 1.724200 0.000000 
#    z 0.000000 0.000000 1.708600 
# 
# From -- ./inp_files/21240.got.cif
#   From: 2010.05.17/outbox.cif.g08.bks.cpg/sg62_11_cif.got.tgz:21240.got - 2010.06.03 15:25:27.
