data_PCOD9463132
_publ_section_title
;
Structure prediction by ZEFSAII (Michael W. Deem and Ramdas Pophale) SiO2 
 PCOD9463132
Probable space group: P N M A
;
_chemical_formula_sum "Si O2"
_cell_formula_units_Z 48
_cell_length_a 7.933592
_cell_length_b 12.598979
_cell_length_c 25.260338
_cell_angle_alpha 90.000000
_cell_angle_beta 90.000000
_cell_angle_gamma 90.000000
_cell_volume 2524.901101
_symmetry_space_group_name_H-M "P N M A"
_symmetry_group_IT_number 62
_symmetry_cell_setting 'orthorhombic'
loop_
_space_group_symop_operation_xyz
x,y,z
1/2-x,-y,1/2+z
1/2+x,1/2-y,1/2-z
-x,1/2+y,-z
-x,-y,-z
1/2+x,y,1/2-z
1/2-x,1/2+y,1/2+z
x,1/2-y,z
loop_
_atom_site_type_symbol
_atom_site_label
_atom_site_fract_x
_atom_site_fract_y
_atom_site_fract_z
Si Si1 0.528621 0.127455 0.423254
Si Si2 0.560883 0.628826 0.694557
Si Si3 0.333039 0.623767 0.178724
Si Si4 0.832227 0.978596 0.434191
Si Si5 0.143009 0.374625 0.454215
Si Si6 0.140422 0.505616 0.272551
O O1 0.554508 0.250000 0.439827
O O2 0.544631 0.122313 0.359430
O O3 0.670093 0.051654 0.447075
O O4 0.334221 0.100072 0.436084
O O5 0.621136 0.750000 0.698951
O O6 0.456019 0.593362 0.745684
O O7 0.711226 0.544260 0.692988
O O8 0.326373 0.750000 0.181450
O O9 0.295414 0.583340 0.119827
O O10 0.211937 0.572633 0.223072
O O11 0.515993 0.578550 0.194411
O O12 0.996793 0.053874 0.428275
O O13 0.865213 0.900434 0.483231
O O14 0.114276 0.250000 0.443569
#
# Coordination Sequence:
#
# PCOD9463132 Si02
#       6
#     8   8   8   8   8   8
#     4  10  20  36  57  84 115 149 188 235 296 350
#     4  10  19  34  55  83 114 146 186 233 287 348
#     4  11  22  38  58  80 111 152 195 238 284 338
#     4  11  21  38  60  85 114 149 196 237 288 347
#     4  10  22  38  59  85 116 150 187 240 296 347
#     4  10  21  36  55  81 115 149 190 234 286 337
#
# _framework density 19.010645
#
# number of rings (size 3 to 8) (size 9 to 14) (size 15 to 20)
#    0.000    1.667    1.667    3.500    0.000    0.000 
#    0.000    1.667    0.000    4.000    0.000    0.000 
#    0.000    0.000    0.000    0.000    0.000    0.000 
#
# Total GULP energy -267956.820187 kJ/mol
# GULP energy per Si atom -5582.433754 kJ/mol
# Density = 1.896738 g / cm^3
# Si number density = 19.010645 Si / 1000 Ang^3
#
#
#
# Elastic Constant Matrix: (Units=GPa)
#
#
# Indices 1 2 3 4 5 6 
#
# 1 44.4010 12.7640 -14.0160 0.0000 0.0000 0.0000
# 2 12.7640 82.6063 17.5923 0.0000 0.0000 0.0000
# 3 -14.0160 17.5923 40.0355 0.0000 0.0000 0.0000
# 4 0.0000 0.0000 0.0000 16.5194 0.0000 0.0000
# 5 0.0000 0.0000 0.0000 0.0000 19.6946 0.0000
# 6 0.0000 0.0000 0.0000 0.0000 0.0000 14.6843
#
#
#
# Elastic Compliance Matrix: (Units=1/GPa)
#
#
# Indices 1 2 3 4 5 6 
#
# 1 0.028809 -0.007281 0.013285 0.000000 0.000000 0.000000
# 2 -0.007281 0.015195 -0.009226 0.000000 0.000000 0.000000
# 3 0.013285 -0.009226 0.033683 0.000000 0.000000 0.000000
# 4 0.000000 0.000000 0.000000 0.060535 0.000000 0.000000
# 5 0.000000 0.000000 0.000000 0.000000 0.050775 0.000000
# 6 0.000000 0.000000 0.000000 0.000000 0.000000 0.068100
#
#
# Mechanical properties :
#
#
# Convention : Reuss Voigt Hill
#
# Bulk Modulus (GPa) = 14.03646 22.19151 18.11398
# Shear Modulus (GPa) = 17.40413 20.22649 18.81531
#
# Velocity S-wave (km/s) = 3.02900 3.26537 3.14940
# Velocity P-wave (km/s) = 4.43087 5.09072 4.77221
#
# Compressibility (1/GPa) = 0.07124301
#
# Stress axis : x y z
#
# Youngs Moduli (GPa) = 34.71196 65.80944 29.68883
#
# Poissons Ratio (x) = 0.47913 -0.39441
# Poissons Ratio (y) = 0.25272 0.27391
# Poissons Ratio (z) = -0.46114 0.60716
#
# Static dielectric constant tensor:
#      x y z
#    x 1.676400 0.000000 0.000000 
#    y 0.000000 1.625320 0.000000 
#    z 0.000000 0.000000 1.651770 
# 
# From -- ./inp_files/28795.got.cif
#   From: 2010.05.17/outbox.cif.g08.bks.cpg/sg62_15_cif.got.tgz:28795.got - 2010.06.03 15:25:27.
