data_PCOD9463654
_publ_section_title
;
Structure prediction by ZEFSAII (Michael W. Deem and Ramdas Pophale) SiO2 
 PCOD9463654
Probable space group: P N M A
;
_chemical_formula_sum "Si O2"
_cell_formula_units_Z 64
_cell_length_a 16.921214
_cell_length_b 13.658496
_cell_length_c 11.020982
_cell_angle_alpha 90.000000
_cell_angle_beta 90.000000
_cell_angle_gamma 90.000000
_cell_volume 2547.150996
_symmetry_space_group_name_H-M "P N M A"
_symmetry_group_IT_number 62
_symmetry_cell_setting 'orthorhombic'
loop_
_space_group_symop_operation_xyz
x,y,z
1/2-x,-y,1/2+z
1/2+x,1/2-y,1/2-z
-x,1/2+y,-z
-x,-y,-z
1/2+x,y,1/2-z
1/2-x,1/2+y,1/2+z
x,1/2-y,z
loop_
_atom_site_type_symbol
_atom_site_label
_atom_site_fract_x
_atom_site_fract_y
_atom_site_fract_z
Si Si1 0.482315 0.632978 0.834141
Si Si2 0.189977 0.639728 0.426382
Si Si3 0.262122 0.048653 0.513755
Si Si4 0.878943 0.133286 0.173258
Si Si5 0.601142 0.363941 0.926355
Si Si6 0.361276 0.864066 0.330720
Si Si7 0.009078 0.364307 0.981628
Si Si8 0.600973 0.952064 0.284798
O O1 0.463453 0.750000 0.816483
O O2 0.575364 0.624142 0.801326
O O3 0.459180 0.602784 0.970575
O O4 0.428157 0.560909 0.751572
O O5 0.179090 0.750000 0.472736
O O6 0.216345 0.554966 0.517448
O O7 0.267897 0.638775 0.340087
O O8 0.120485 0.603688 0.339870
O O9 0.305887 0.072981 0.384305
O O10 0.190879 0.125446 0.525976
O O11 0.324122 0.052067 0.623884
O O12 0.861561 0.250000 0.156405
O O13 0.951541 0.099896 0.085805
O O14 0.582638 0.250000 0.911559
O O15 0.606215 0.410619 0.792430
O O16 0.384580 0.750000 0.326919
O O17 0.402097 0.899177 0.455704
O O18 0.011077 0.250000 0.007590
O O19 0.964926 0.391929 0.857893
#
# Coordination Sequence:
#
# PCOD9463654 Si02
#       8
#     8   8   8   8   8   8   8   8
#     4  10  22  38  56  83 120 158 197 243 299 365
#     4  11  23  38  58  88 124 158 196 253 308 357
#     4  11  22  36  62  90 118 153 200 253 305 358
#     4   9  20  37  60  89 122 153 193 251 309 362
#     4  10  19  37  62  85 114 158 208 246 289 358
#     4   9  19  35  58  86 116 152 199 248 295 348
#     4   9  19  35  59  90 117 150 194 249 304 357
#     4  11  22  37  61  86 118 156 202 245 302 364
#
# _framework density 25.126111999999999
#
# number of rings (size 3 to 8) (size 9 to 14) (size 15 to 20)
#    0.000    2.000    2.500    0.750    3.500    2.500 
#    0.000    0.625    2.750    0.000    0.000    0.000 
#    0.000    0.000    0.000    0.000    0.000    0.000 
#
# Total GULP energy -357222.762635 kJ/mol
# GULP energy per Si atom -5581.605666 kJ/mol
# Density = 2.506892 g / cm^3
# Si number density = 25.126112 Si / 1000 Ang^3
#
#
#
# Elastic Constant Matrix: (Units=GPa)
#
#
# Indices 1 2 3 4 5 6 
#
# 1 54.0637 -4.5130 20.3719 0.0000 0.0000 0.0000
# 2 -4.5130 109.8790 -19.0683 0.0000 0.0000 0.0000
# 3 20.3719 -19.0683 42.8053 0.0000 0.0000 0.0000
# 4 0.0000 0.0000 0.0000 24.9985 0.0000 0.0000
# 5 0.0000 0.0000 0.0000 0.0000 56.1218 0.0000
# 6 0.0000 0.0000 0.0000 0.0000 0.0000 35.3759
#
#
#
# Elastic Compliance Matrix: (Units=1/GPa)
#
#
# Indices 1 2 3 4 5 6 
#
# 1 0.022643 -0.001019 -0.011230 0.000000 0.000000 0.000000
# 2 -0.001019 0.009909 0.004899 0.000000 0.000000 0.000000
# 3 -0.011230 0.004899 0.030889 0.000000 0.000000 0.000000
# 4 0.000000 0.000000 0.000000 0.040002 0.000000 0.000000
# 5 0.000000 0.000000 0.000000 0.000000 0.017818 0.000000
# 6 0.000000 0.000000 0.000000 0.000000 0.000000 0.028268
#
#
# Mechanical properties :
#
#
# Convention : Reuss Voigt Hill
#
# Bulk Modulus (GPa) = 20.51650 22.25881 21.38766
# Shear Modulus (GPa) = 27.70433 37.29640 32.50037
#
# Velocity S-wave (km/s) = 3.32416 3.85693 3.60041
# Velocity P-wave (km/s) = 4.78712 5.35841 5.08080
#
# Compressibility (1/GPa) = 0.04874125
#
# Stress axis : x y z
#
# Youngs Moduli (GPa) = 44.16304 100.91571 32.37426
#
# Poissons Ratio (x) = 0.10282 0.36357
# Poissons Ratio (y) = 0.04500 -0.15861
# Poissons Ratio (z) = 0.49597 -0.49440
#
# Static dielectric constant tensor:
#      x y z
#    x 1.967550 0.000000 0.000000 
#    y 0.000000 2.016680 0.000000 
#    z 0.000000 0.000000 2.089750 
# 
# From -- ./inp_files/14311.got.cif
#   From: 2010.05.17/outbox.cif.g08.bks.cpg/sg62_8_cif.got.tgz:14311.got - 2010.06.03 15:25:27.
