data_PCOD9463018
_publ_section_title
;
Structure prediction by ZEFSAII (Michael W. Deem and Ramdas Pophale) SiO2 
 PCOD9463018
Probable space group: P N M A
;
_chemical_formula_sum "Si O2"
_cell_formula_units_Z 64
_cell_length_a 20.839589
_cell_length_b 8.992150
_cell_length_c 19.923555
_cell_angle_alpha 90.000000
_cell_angle_beta 90.000000
_cell_angle_gamma 90.000000
_cell_volume 3733.528969
_symmetry_space_group_name_H-M "P N M A"
_symmetry_group_IT_number 62
_symmetry_cell_setting 'orthorhombic'
loop_
_space_group_symop_operation_xyz
x,y,z
1/2-x,-y,1/2+z
1/2+x,1/2-y,1/2-z
-x,1/2+y,-z
-x,-y,-z
1/2+x,y,1/2-z
1/2-x,1/2+y,1/2+z
x,1/2-y,z
loop_
_atom_site_type_symbol
_atom_site_label
_atom_site_fract_x
_atom_site_fract_y
_atom_site_fract_z
Si Si1 0.684237 0.571884 0.206747
Si Si2 0.566350 0.428429 0.285128
Si Si3 0.231813 0.573803 0.568444
Si Si4 0.113059 0.924859 0.928455
Si Si5 0.933184 0.927872 0.206925
Si Si6 0.615257 0.073680 0.432237
Si Si7 0.809325 0.572043 0.296280
Si Si8 0.232494 0.425561 0.427968
O O1 0.677416 0.750000 0.205093
O O2 0.622414 0.497367 0.240095
O O3 0.746363 0.535306 0.252422
O O4 0.698644 0.509251 0.133036
O O5 0.566996 0.250000 0.279865
O O6 0.497624 0.495427 0.267134
O O7 0.580636 0.467507 0.363184
O O8 0.222461 0.750000 0.562017
O O9 0.308436 0.547309 0.577892
O O10 0.195963 0.510367 0.633087
O O11 0.213112 0.492169 0.499787
O O12 0.098706 0.750000 0.922754
O O13 0.190227 0.946142 0.922258
O O14 0.080858 0.012872 0.867834
O O15 0.094218 0.985095 0.001776
O O16 0.939937 0.750000 0.205986
O O17 0.872233 0.966373 0.253425
O O18 0.606461 0.250000 0.444087
O O19 0.809200 0.750000 0.307379
O O20 0.219645 0.250000 0.424922
#
# Coordination Sequence:
#
# PCOD9463018 Si02
#       8
#     8   8   8   8   8   8   8   8
#     4  11  21  36  59  85 112 147 188 232 281 333
#     4  11  23  39  56  81 113 149 190 234 281 333
#     4  10  19  33  56  84 113 144 183 230 280 330
#     4  10  20  33  53  80 110 147 189 230 273 326
#     4  11  23  39  56  79 112 152 190 231 280 334
#     4   9  19  34  52  76 110 148 185 226 272 328
#     4  10  21  36  57  83 112 145 186 231 278 329
#     4  10  20  34  55  84 116 146 183 231 280 330
#
# _framework density 17.141959
#
# number of rings (size 3 to 8) (size 9 to 14) (size 15 to 20)
#    0.000    1.750    2.500    2.250    0.000    4.500 
#    0.000    0.000    0.000    0.750    0.000    0.000 
#    0.000    0.000    0.000    0.000    0.000    0.000 
#
# Total GULP energy -357551.946429 kJ/mol
# GULP energy per Si atom -5586.749163 kJ/mol
# Density = 1.710294 g / cm^3
# Si number density = 17.141959 Si / 1000 Ang^3
#
#
#
# Elastic Constant Matrix: (Units=GPa)
#
#
# Indices 1 2 3 4 5 6 
#
# 1 80.1864 44.6212 40.2658 0.0000 0.0000 0.0000
# 2 44.6212 56.2807 47.9655 0.0000 0.0000 0.0000
# 3 40.2658 47.9655 103.6420 0.0000 0.0000 0.0000
# 4 0.0000 0.0000 0.0000 35.7078 0.0000 0.0000
# 5 0.0000 0.0000 0.0000 0.0000 18.4882 0.0000
# 6 0.0000 0.0000 0.0000 0.0000 0.0000 25.9898
#
#
#
# Elastic Compliance Matrix: (Units=1/GPa)
#
#
# Indices 1 2 3 4 5 6 
#
# 1 0.022357 -0.017046 -0.000797 0.000000 0.000000 0.000000
# 2 -0.017046 0.042338 -0.012971 0.000000 0.000000 0.000000
# 3 -0.000797 -0.012971 0.015961 0.000000 0.000000 0.000000
# 4 0.000000 0.000000 0.000000 0.028005 0.000000 0.000000
# 5 0.000000 0.000000 0.000000 0.000000 0.054089 0.000000
# 6 0.000000 0.000000 0.000000 0.000000 0.000000 0.038477
#
#
# Mechanical properties :
#
#
# Convention : Reuss Voigt Hill
#
# Bulk Modulus (GPa) = 52.55629 56.20157 54.37893
# Shear Modulus (GPa) = 18.57380 23.18759 20.88069
#
# Velocity S-wave (km/s) = 3.29527 3.68187 3.49392
# Velocity P-wave (km/s) = 6.72342 7.13667 6.93312
#
# Compressibility (1/GPa) = 0.01902722
#
# Stress axis : x y z
#
# Youngs Moduli (GPa) = 44.72955 23.61971 62.65138
#
# Poissons Ratio (x) = 0.40262 0.04993
# Poissons Ratio (y) = 0.76245 0.81267
# Poissons Ratio (z) = 0.03564 0.30638
#
# Static dielectric constant tensor:
#      x y z
#    x 1.575340 0.000000 0.000000 
#    y 0.000000 1.564450 0.000000 
#    z 0.000000 0.000000 1.553360 
# 
# From -- ./inp_files/24800.got.cif
#   From: 2010.05.17/outbox.cif.g08.bks.cpg/sg62_13_cif.got.tgz:24800.got - 2010.06.03 15:25:27.
