data_PCOD9463559
_publ_section_title
;
Structure prediction by ZEFSAII (Michael W. Deem and Ramdas Pophale) SiO2 
 PCOD9463559
Probable space group: P N M A
;
_chemical_formula_sum "Si O2"
_cell_formula_units_Z 40
_cell_length_a 10.381187
_cell_length_b 7.761954
_cell_length_c 27.984781
_cell_angle_alpha 90.000000
_cell_angle_beta 90.000000
_cell_angle_gamma 90.000000
_cell_volume 2254.965966
_symmetry_space_group_name_H-M "P N M A"
_symmetry_group_IT_number 62
_symmetry_cell_setting 'orthorhombic'
loop_
_space_group_symop_operation_xyz
x,y,z
1/2-x,-y,1/2+z
1/2+x,1/2-y,1/2-z
-x,1/2+y,-z
-x,-y,-z
1/2+x,y,1/2-z
1/2-x,1/2+y,1/2+z
x,1/2-y,z
loop_
_atom_site_type_symbol
_atom_site_label
_atom_site_fract_x
_atom_site_fract_y
_atom_site_fract_z
Si Si1 0.622952 0.956783 0.032171
Si Si2 0.492861 0.750000 0.790983
Si Si3 0.215169 0.556784 0.129363
Si Si4 0.298534 0.750000 0.702746
Si Si5 0.980740 0.047299 0.632631
Si Si6 0.868761 0.543853 0.973468
O O1 0.631703 0.750000 0.034819
O O2 0.599672 0.013787 0.086555
O O3 0.749979 0.021989 0.005672
O O4 0.500000 0.000000 0.000000
O O5 0.400668 0.750000 0.745347
O O6 0.647584 0.750000 0.780889
O O7 0.464308 0.580834 0.823125
O O8 0.194162 0.750000 0.147451
O O9 0.367935 0.536802 0.118552
O O10 0.141389 0.530526 0.079717
O O11 0.817736 0.584412 0.831206
O O12 0.953637 0.250000 0.642970
O O13 0.856228 0.750000 0.968893
O O14 0.000000 0.500000 0.000000
#
# Coordination Sequence:
#
# PCOD9463559 Si02
#       6
#     8   4   8   4   8   8
#     4  10  20  32  56  85 116 149 192 237 282 342
#     4  10  22  40  64  82 114 148 196 244 297 342
#     4  10  19  36  61  83 114 154 191 231 291 355
#     4  10  22  42  62  86 110 148 198 246 289 350
#     4   9  19  36  58  87 114 146 191 243 289 344
#     4  11  22  36  53  83 124 161 195 235 285 356
#
# _framework density 17.738627000000001
#
# number of rings (size 3 to 8) (size 9 to 14) (size 15 to 20)
#    0.000    2.000    3.000    0.600    1.400    1.600 
#    3.600    0.000    0.000    0.000    0.000    0.000 
#    0.000    0.000    0.000    0.000    0.000    0.000 
#
# Total GULP energy -223231.928512 kJ/mol
# GULP energy per Si atom -5580.798213 kJ/mol
# Density = 1.769825 g / cm^3
# Si number density = 17.738627 Si / 1000 Ang^3
#
#
#
# Elastic Constant Matrix: (Units=GPa)
#
#
# Indices 1 2 3 4 5 6 
#
# 1 107.4925 31.8818 79.8772 0.0000 0.0000 0.0000
# 2 31.8818 90.8105 57.7778 0.0000 0.0000 0.0000
# 3 79.8772 57.7778 143.2048 0.0000 0.0000 0.0000
# 4 0.0000 0.0000 0.0000 21.1992 0.0000 0.0000
# 5 0.0000 0.0000 0.0000 0.0000 40.1588 0.0000
# 6 0.0000 0.0000 0.0000 0.0000 0.0000 13.5384
#
#
#
# Elastic Compliance Matrix: (Units=1/GPa)
#
#
# Indices 1 2 3 4 5 6 
#
# 1 0.015889 0.000081 -0.008895 0.000000 0.000000 0.000000
# 2 0.000081 0.014815 -0.006023 0.000000 0.000000 0.000000
# 3 -0.008895 -0.006023 0.014375 0.000000 0.000000 0.000000
# 4 0.000000 0.000000 0.000000 0.047172 0.000000 0.000000
# 5 0.000000 0.000000 0.000000 0.000000 0.024901 0.000000
# 6 0.000000 0.000000 0.000000 0.000000 0.000000 0.073864
#
#
# Mechanical properties :
#
#
# Convention : Reuss Voigt Hill
#
# Bulk Modulus (GPa) = 64.91281 75.62016 70.26648
# Shear Modulus (GPa) = 22.14106 26.44401 24.29254
#
# Velocity S-wave (km/s) = 3.53680 3.86522 3.70465
# Velocity P-wave (km/s) = 7.30425 7.91471 7.61560
#
# Compressibility (1/GPa) = 0.01540528
#
# Stress axis : x y z
#
# Youngs Moduli (GPa) = 62.93666 67.49745 69.56661
#
# Poissons Ratio (x) = -0.00549 0.61883
# Poissons Ratio (y) = -0.00512 0.41899
# Poissons Ratio (z) = 0.55985 0.40653
#
# Static dielectric constant tensor:
#      x y z
#    x 1.593630 0.000000 0.000000 
#    y 0.000000 1.626090 0.000000 
#    z 0.000000 0.000000 1.576670 
# 
# From -- ./inp_files/31798.got.cif
#   From: 2010.05.17/outbox.cif.g08.bks.cpg/sg62_16_cif.got.tgz:31798.got - 2010.06.03 15:25:27.
