data_PCOD9463777
_publ_section_title
;
Structure prediction by ZEFSAII (Michael W. Deem and Ramdas Pophale) SiO2 
 PCOD9463777
Probable space group: P N M A
;
_chemical_formula_sum "Si O2"
_cell_formula_units_Z 40
_cell_length_a 5.608101
_cell_length_b 23.118536
_cell_length_c 13.234034
_cell_angle_alpha 90.000000
_cell_angle_beta 90.000000
_cell_angle_gamma 90.000000
_cell_volume 1715.806865
_symmetry_space_group_name_H-M "P N M A"
_symmetry_group_IT_number 62
_symmetry_cell_setting 'orthorhombic'
loop_
_space_group_symop_operation_xyz
x,y,z
1/2-x,-y,1/2+z
1/2+x,1/2-y,1/2-z
-x,1/2+y,-z
-x,-y,-z
1/2+x,y,1/2-z
1/2-x,1/2+y,1/2+z
x,1/2-y,z
loop_
_atom_site_type_symbol
_atom_site_label
_atom_site_fract_x
_atom_site_fract_y
_atom_site_fract_z
Si Si1 0.008591 0.981882 0.162899
Si Si2 0.545959 0.906667 0.792946
Si Si3 0.739359 0.817507 0.126295
Si Si4 0.262779 0.361226 0.645762
Si Si5 0.689640 0.949407 0.992214
O O1 0.194207 0.928682 0.172199
O O2 0.954808 0.024942 0.255964
O O3 0.793135 0.948283 0.105741
O O4 0.094129 0.028635 0.079590
O O5 0.289861 0.883063 0.757056
O O6 0.572934 0.904397 0.913422
O O7 0.714662 0.750000 0.104855
O O8 0.751462 0.827901 0.247413
O O9 0.492638 0.849068 0.095998
O O10 0.000124 0.838824 0.088377
O O11 0.500000 0.000000 0.000000
#
# Coordination Sequence:
#
# PCOD9463777 Si02
#       5
#     8   8   8   8   8
#     4  10  22  32  46  74  92 129 179 210 248 277
#     4  10  20  31  49  63  90 121 166 207 246 285
#     4  10  20  33  47  70  95 123 160 207 247 288
#     4  10  20  28  50  65  90 125 160 207 229 296
#     4  10  20  33  47  63 101 124 162 230 246 282
#
# _framework density 23.312645
#
# number of rings (size 3 to 8) (size 9 to 14) (size 15 to 20)
#    0.000    2.000    2.000    3.000   14.000    0.000 
#    0.000    0.000    0.000    0.000    0.000    0.000 
#    0.000    0.000    0.000    0.000    0.000  306.000 
#
# Total GULP energy -222843.796307 kJ/mol
# GULP energy per Si atom -5571.094908 kJ/mol
# Density = 2.325958 g / cm^3
# Si number density = 23.312645 Si / 1000 Ang^3
#
#
#
# Elastic Constant Matrix: (Units=GPa)
#
#
# Indices 1 2 3 4 5 6 
#
# 1 179.2791 14.3366 22.3570 0.0000 0.0000 0.0000
# 2 14.3366 41.4626 10.0953 0.0000 0.0000 0.0000
# 3 22.3570 10.0953 110.3691 0.0000 0.0000 0.0000
# 4 0.0000 0.0000 0.0000 10.1790 0.0000 0.0000
# 5 0.0000 0.0000 0.0000 0.0000 23.7080 0.0000
# 6 0.0000 0.0000 0.0000 0.0000 0.0000 26.8281
#
#
#
# Elastic Compliance Matrix: (Units=1/GPa)
#
#
# Indices 1 2 3 4 5 6 
#
# 1 0.005847 -0.001773 -0.001022 0.000000 0.000000 0.000000
# 2 -0.001773 0.025205 -0.001946 0.000000 0.000000 0.000000
# 3 -0.001022 -0.001946 0.009446 0.000000 0.000000 0.000000
# 4 0.000000 0.000000 0.000000 0.098241 0.000000 0.000000
# 5 0.000000 0.000000 0.000000 0.000000 0.042180 0.000000
# 6 0.000000 0.000000 0.000000 0.000000 0.000000 0.037274
#
#
# Mechanical properties :
#
#
# Convention : Reuss Voigt Hill
#
# Bulk Modulus (GPa) = 32.24264 47.18762 39.71513
# Shear Modulus (GPa) = 21.00713 31.09782 26.05247
#
# Velocity S-wave (km/s) = 3.00510 3.65629 3.34657
# Velocity P-wave (km/s) = 5.08934 6.17331 5.65734
#
# Compressibility (1/GPa) = 0.03101483
#
# Stress axis : x y z
#
# Youngs Moduli (GPa) = 171.02350 39.67462 105.86929
#
# Poissons Ratio (x) = 0.07034 0.10823
# Poissons Ratio (y) = 0.30320 0.20606
# Poissons Ratio (z) = 0.17483 0.07722
#
# Static dielectric constant tensor:
#      x y z
#    x 2.123420 0.000000 0.000000 
#    y 0.000000 1.910560 0.000000 
#    z 0.000000 0.000000 1.679030 
# 
# From -- ./inp_files/16161.got.cif
#   From: 2010.05.17/outbox.cif.g08.bks.cpg/sg62_9_cif.got.tgz:16161.got - 2010.06.03 15:25:27.
