data_PCOD9463732
_publ_section_title
;
Structure prediction by ZEFSAII (Michael W. Deem and Ramdas Pophale) SiO2 
 PCOD9463732
Probable space group: P N M A
;
_chemical_formula_sum "Si O2"
_cell_formula_units_Z 64
_cell_length_a 31.290720
_cell_length_b 8.811075
_cell_length_c 12.272664
_cell_angle_alpha 90.000000
_cell_angle_beta 90.000000
_cell_angle_gamma 90.000000
_cell_volume 3383.633364
_symmetry_space_group_name_H-M "P N M A"
_symmetry_group_IT_number 62
_symmetry_cell_setting 'orthorhombic'
loop_
_space_group_symop_operation_xyz
x,y,z
1/2-x,-y,1/2+z
1/2+x,1/2-y,1/2-z
-x,1/2+y,-z
-x,-y,-z
1/2+x,y,1/2-z
1/2-x,1/2+y,1/2+z
x,1/2-y,z
loop_
_atom_site_type_symbol
_atom_site_label
_atom_site_fract_x
_atom_site_fract_y
_atom_site_fract_z
Si Si1 0.044618 0.071103 0.463332
Si Si2 0.573671 0.574460 0.250436
Si Si3 0.376668 0.433542 0.347731
Si Si4 0.708815 0.565200 0.040740
Si Si5 0.673419 0.926864 0.267764
Si Si6 0.452900 0.432216 0.505008
Si Si7 0.805253 0.568881 0.996079
Si Si8 0.875043 0.433852 0.406666
O O1 0.044225 0.250000 0.480537
O O2 0.050939 0.030978 0.336416
O O3 0.084365 0.999250 0.529093
O O4 0.000000 0.000000 0.500000
O O5 0.559749 0.750000 0.234903
O O6 0.624262 0.568862 0.230623
O O7 0.565778 0.532171 0.375615
O O8 0.375320 0.250000 0.352889
O O9 0.419664 0.483776 0.411811
O O10 0.336064 0.496189 0.413557
O O11 0.376341 0.477556 0.220796
O O12 0.707789 0.750000 0.040313
O O13 0.700635 0.517526 0.165269
O O14 0.755965 0.517306 0.005542
O O15 0.669430 0.516878 0.963918
O O16 0.683712 0.750000 0.291171
O O17 0.678940 0.020836 0.376950
O O18 0.500000 0.500000 0.500000
O O19 0.455775 0.250000 0.496536
O O20 0.806584 0.750000 0.008231
O O21 0.877102 0.250000 0.412765
#
# Coordination Sequence:
#
# PCOD9463732 Si02
#       8
#     8   8   8   8   8   8   8   8
#     4  12  26  42  63  92 124 157 200 247 300 359
#     4  10  20  40  66  87 116 158 203 249 298 355
#     4  10  22  41  63  86 118 164 205 239 295 367
#     4   9  20  38  60  87 120 159 197 246 308 356
#     4  10  19  39  65  83 114 160 203 246 301 359
#     4  10  22  39  59  89 120 153 200 246 297 354
#     4  11  23  37  58  92 126 155 199 252 300 355
#     4  10  21  42  66  86 118 162 205 249 298 356
#
# _framework density 18.914579
#
# number of rings (size 3 to 8) (size 9 to 14) (size 15 to 20)
#    0.000    1.750    2.500    1.500    3.500    2.000 
#    0.000    1.875    0.000    0.000    0.000    0.000 
#    0.000    0.000    0.000    0.000    0.000    0.000 
#
# Total GULP energy -357405.894274 kJ/mol
# GULP energy per Si atom -5584.467098 kJ/mol
# Density = 1.887153 g / cm^3
# Si number density = 18.914579 Si / 1000 Ang^3
#
#
#
# Elastic Constant Matrix: (Units=GPa)
#
#
# Indices 1 2 3 4 5 6 
#
# 1 103.4617 20.7902 24.4904 0.0000 0.0000 0.0000
# 2 20.7902 23.6434 23.5398 0.0000 0.0000 0.0000
# 3 24.4904 23.5398 85.6626 0.0000 0.0000 0.0000
# 4 0.0000 0.0000 0.0000 23.1293 0.0000 0.0000
# 5 0.0000 0.0000 0.0000 0.0000 29.1690 0.0000
# 6 0.0000 0.0000 0.0000 0.0000 0.0000 29.0077
#
#
#
# Elastic Compliance Matrix: (Units=1/GPa)
#
#
# Indices 1 2 3 4 5 6 
#
# 1 0.011772 -0.009637 -0.000717 0.000000 0.000000 0.000000
# 2 -0.009637 0.066115 -0.015413 0.000000 0.000000 0.000000
# 3 -0.000717 -0.015413 0.016114 0.000000 0.000000 0.000000
# 4 0.000000 0.000000 0.000000 0.043235 0.000000 0.000000
# 5 0.000000 0.000000 0.000000 0.000000 0.034283 0.000000
# 6 0.000000 0.000000 0.000000 0.000000 0.000000 0.034474
#
#
# Mechanical properties :
#
#
# Convention : Reuss Voigt Hill
#
# Bulk Modulus (GPa) = 23.54817 38.93427 31.24122
# Shear Modulus (GPa) = 18.40387 25.85767 22.13077
#
# Velocity S-wave (km/s) = 3.12268 3.70141 3.42429
# Velocity P-wave (km/s) = 5.04760 6.23668 5.67338
#
# Compressibility (1/GPa) = 0.04246614
#
# Stress axis : x y z
#
# Youngs Moduli (GPa) = 84.94942 15.12526 62.05721
#
# Poissons Ratio (x) = 0.14576 0.04451
# Poissons Ratio (y) = 0.81866 0.95648
# Poissons Ratio (z) = 0.06093 0.23312
#
# Static dielectric constant tensor:
#      x y z
#    x 1.658770 0.000000 0.000000 
#    y 0.000000 1.642230 0.000000 
#    z 0.000000 0.000000 1.651120 
# 
# From -- ./inp_files/15919.got.cif
#   From: 2010.05.17/outbox.cif.g08.bks.cpg/sg62_8_cif.got.tgz:15919.got - 2010.06.03 15:25:27.
