data_PCOD9463793
_publ_section_title
;
Structure prediction by ZEFSAII (Michael W. Deem and Ramdas Pophale) SiO2 
 PCOD9463793
Probable space group: P N M A
;
_chemical_formula_sum "Si O2"
_cell_formula_units_Z 48
_cell_length_a 5.226090
_cell_length_b 23.376869
_cell_length_c 16.500719
_cell_angle_alpha 90.000000
_cell_angle_beta 90.000000
_cell_angle_gamma 90.000000
_cell_volume 2015.886592
_symmetry_space_group_name_H-M "P N M A"
_symmetry_group_IT_number 62
_symmetry_cell_setting 'orthorhombic'
loop_
_space_group_symop_operation_xyz
x,y,z
1/2-x,-y,1/2+z
1/2+x,1/2-y,1/2-z
-x,1/2+y,-z
-x,-y,-z
1/2+x,y,1/2-z
1/2-x,1/2+y,1/2+z
x,1/2-y,z
loop_
_atom_site_type_symbol
_atom_site_label
_atom_site_fract_x
_atom_site_fract_y
_atom_site_fract_z
Si Si1 0.040643 0.108605 0.855337
Si Si2 0.488064 0.089113 0.457237
Si Si3 0.678330 0.185509 0.219237
Si Si4 0.003601 0.983069 0.798654
Si Si5 0.534162 0.315249 0.865507
Si Si6 0.983922 0.343677 0.450585
O O1 0.797951 0.151004 0.850556
O O2 0.007087 0.052161 0.802712
O O3 0.293829 0.146064 0.838214
O O4 0.057485 0.083528 0.947733
O O5 0.691017 0.139242 0.435063
O O6 0.186195 0.103821 0.456184
O O7 0.533395 0.041324 0.389403
O O8 0.449587 0.156567 0.267753
O O9 0.719192 0.250000 0.251938
O O10 0.593507 0.188063 0.127085
O O11 0.273176 0.965357 0.760021
O O12 0.532961 0.250000 0.834259
O O13 0.504833 0.313065 0.963488
#
# Coordination Sequence:
#
# PCOD9463793 Si02
#       6
#     8   8   8   8   8   8
#     4  10  22  41  63  89 123 158 195 244 300 355
#     4  10  22  38  59  86 115 154 195 235 291 350
#     4  10  20  31  44  65 101 149 188 225 281 341
#     4  12  25  41  63  89 121 159 202 248 296 354
#     4  10  20  37  64  91 115 149 196 248 297 353
#     4  10  20  34  54  82 113 145 190 244 286 335
#
# _framework density 23.810862
#
# number of rings (size 3 to 8) (size 9 to 14) (size 15 to 20)
#    0.000    1.667    0.000    4.500    0.000    4.000 
#    0.000   11.667    0.000   10.000    0.000    0.000 
#    0.000    0.000    0.000    0.000    0.000    0.000 
#
# Total GULP energy -268293.348989 kJ/mol
# GULP energy per Si atom -5589.444771 kJ/mol
# Density = 2.375667 g / cm^3
# Si number density = 23.810862 Si / 1000 Ang^3
#
#
#
# Elastic Constant Matrix: (Units=GPa)
#
#
# Indices 1 2 3 4 5 6 
#
# 1 131.9021 9.7544 18.7823 0.0000 0.0000 0.0000
# 2 9.7544 92.3423 11.0969 0.0000 0.0000 0.0000
# 3 18.7823 11.0969 88.0634 0.0000 0.0000 0.0000
# 4 0.0000 0.0000 0.0000 19.3989 0.0000 0.0000
# 5 0.0000 0.0000 0.0000 0.0000 -13.4938 0.0000
# 6 0.0000 0.0000 0.0000 0.0000 0.0000 15.8008
#
#
#
# Elastic Compliance Matrix: (Units=1/GPa)
#
#
# Indices 1 2 3 4 5 6 
#
# 1 0.007856 -0.000638 -0.001595 0.000000 0.000000 0.000000
# 2 -0.000638 0.011048 -0.001256 0.000000 0.000000 0.000000
# 3 -0.001595 -0.001256 0.011854 0.000000 0.000000 0.000000
# 4 0.000000 0.000000 0.000000 0.051549 0.000000 0.000000
# 5 0.000000 0.000000 0.000000 0.000000 -0.074108 0.000000
# 6 0.000000 0.000000 0.000000 0.000000 0.000000 0.063288
#
#
# Mechanical properties :
#
#
# Convention : Reuss Voigt Hill
#
# Bulk Modulus (GPa) = 42.05424 43.50833 42.78129
# Shear Modulus (GPa) = 57.87597 22.51943 40.19770
#
# Velocity S-wave (km/s) = 4.93551 3.07866 4.11324
# Velocity P-wave (km/s) = 7.08373 5.56324 6.36902
#
# Compressibility (1/GPa) = 0.02377881
#
# Stress axis : x y z
#
# Youngs Moduli (GPa) = 127.29603 90.51720 84.36030
#
# Poissons Ratio (x) = 0.05776 0.13456
# Poissons Ratio (y) = 0.08123 0.10596
# Poissons Ratio (z) = 0.20305 0.11369
#
# Static dielectric constant tensor:
#      x y z
#    x 1.890110 0.000000 0.000000 
#    y 0.000000 1.892560 0.000000 
#    z 0.000000 0.000000 1.899170 
# 
# From -- ./inp_files/21602.got.cif
#   From: 2010.05.17/outbox.cif.g08.bks.cpg/sg62_11_cif.got.tgz:21602.got - 2010.06.03 15:25:27.
