data_PCOD9463826
_publ_section_title
;
Structure prediction by ZEFSAII (Michael W. Deem and Ramdas Pophale) SiO2 
 PCOD9463826
Probable space group: P N M A
;
_chemical_formula_sum "Si O2"
_cell_formula_units_Z 64
_cell_length_a 8.989013
_cell_length_b 22.299919
_cell_length_c 16.583747
_cell_angle_alpha 90.000000
_cell_angle_beta 90.000000
_cell_angle_gamma 90.000000
_cell_volume 3324.282763
_symmetry_space_group_name_H-M "P N M A"
_symmetry_group_IT_number 62
_symmetry_cell_setting 'orthorhombic'
loop_
_space_group_symop_operation_xyz
x,y,z
1/2-x,-y,1/2+z
1/2+x,1/2-y,1/2-z
-x,1/2+y,-z
-x,-y,-z
1/2+x,y,1/2-z
1/2-x,1/2+y,1/2+z
x,1/2-y,z
loop_
_atom_site_type_symbol
_atom_site_label
_atom_site_fract_x
_atom_site_fract_y
_atom_site_fract_z
Si Si1 0.585990 0.681667 0.429875
Si Si2 0.009249 0.494142 0.139427
Si Si3 0.768812 0.180576 0.758914
Si Si4 0.443076 0.439819 0.047044
Si Si5 0.401877 0.681247 0.992908
Si Si6 0.110074 0.416057 0.997569
Si Si7 0.500883 0.364507 0.836996
Si Si8 0.843852 0.509374 0.302819
O O1 0.544814 0.750000 0.417379
O O2 0.656852 0.661555 0.344366
O O3 0.725364 0.677858 0.491207
O O4 0.449224 0.646971 0.467208
O O5 0.889971 0.494380 0.211481
O O6 0.041691 0.435258 0.084742
O O7 0.167540 0.512541 0.179474
O O8 0.954930 0.540284 0.071334
O O9 0.800052 0.250000 0.741914
O O10 0.594042 0.172417 0.770541
O O11 0.831959 0.137404 0.690711
O O12 0.545379 0.380386 0.049270
O O13 0.286632 0.422647 0.005197
O O14 0.407898 0.459190 0.137691
O O15 0.500000 0.500000 0.000000
O O16 0.436047 0.750000 0.964772
O O17 0.475318 0.670856 0.080801
O O18 0.575498 0.429494 0.832587
#
# Coordination Sequence:
#
# PCOD9463826 Si02
#       8
#     8   8   8   8   8   8   8   8
#     4   9  19  36  57  80 109 151 196 242 296 361
#     4  10  23  37  58  86 117 154 197 245 300 355
#     4  10  20  32  47  73 109 149 191 235 279 340
#     4  11  24  39  58  88 120 158 199 251 298 352
#     4  10  21  37  58  81 112 155 199 243 301 364
#     4  10  22  39  59  85 119 157 196 250 302 351
#     4  11  19  32  51  71 109 148 193 233 281 343
#     4  11  22  37  57  86 115 152 199 245 302 351
#
# _framework density 19.252274
#
# number of rings (size 3 to 8) (size 9 to 14) (size 15 to 20)
#    0.000    1.750    1.250    4.875    5.250    2.500 
#    0.000    1.250    0.000    0.750    0.000    0.000 
#    0.000    0.000    0.000    0.000    0.000    0.000 
#
# Total GULP energy -357011.690815 kJ/mol
# GULP energy per Si atom -5578.307669 kJ/mol
# Density = 1.920846 g / cm^3
# Si number density = 19.252274 Si / 1000 Ang^3
#
#
#
# Elastic Constant Matrix: (Units=GPa)
#
#
# Indices 1 2 3 4 5 6 
#
# 1 40.9629 27.8944 26.4153 0.0000 0.0000 0.0000
# 2 27.8944 82.8796 16.7550 0.0000 0.0000 0.0000
# 3 26.4153 16.7550 72.8942 0.0000 0.0000 0.0000
# 4 0.0000 0.0000 0.0000 17.0120 0.0000 0.0000
# 5 0.0000 0.0000 0.0000 0.0000 33.9181 0.0000
# 6 0.0000 0.0000 0.0000 0.0000 0.0000 36.7414
#
#
#
# Elastic Compliance Matrix: (Units=1/GPa)
#
#
# Indices 1 2 3 4 5 6 
#
# 1 0.039425 -0.010887 -0.011785 0.000000 0.000000 0.000000
# 2 -0.010887 0.015660 0.000346 0.000000 0.000000 0.000000
# 3 -0.011785 0.000346 0.017910 0.000000 0.000000 0.000000
# 4 0.000000 0.000000 0.000000 0.058782 0.000000 0.000000
# 5 0.000000 0.000000 0.000000 0.000000 0.029483 0.000000
# 6 0.000000 0.000000 0.000000 0.000000 0.000000 0.027217
#
#
# Mechanical properties :
#
#
# Convention : Reuss Voigt Hill
#
# Bulk Modulus (GPa) = 35.28160 37.65181 36.46670
# Shear Modulus (GPa) = 20.61211 25.91243 23.26227
#
# Velocity S-wave (km/s) = 3.27560 3.67269 3.47981
# Velocity P-wave (km/s) = 5.71593 6.13061 5.92690
#
# Compressibility (1/GPa) = 0.02834339
#
# Stress axis : x y z
#
# Youngs Moduli (GPa) = 25.36443 63.85722 55.83618
#
# Poissons Ratio (x) = 0.69520 0.65800
# Poissons Ratio (y) = 0.27614 -0.01930
# Poissons Ratio (z) = 0.29891 -0.02207
#
# Static dielectric constant tensor:
#      x y z
#    x 1.695710 0.000000 0.000000 
#    y 0.000000 1.706550 0.000000 
#    z 0.000000 0.000000 1.680470 
# 
# From -- ./inp_files/17373.got.cif
#   From: 2010.05.17/outbox.cif.g08.bks.cpg/sg62_9_cif.got.tgz:17373.got - 2010.06.03 15:25:27.
