data_PCOD9463727
_publ_section_title
;
Structure prediction by ZEFSAII (Michael W. Deem and Ramdas Pophale) SiO2 
 PCOD9463727
Probable space group: P N M A
;
_chemical_formula_sum "Si O2"
_cell_formula_units_Z 64
_cell_length_a 9.427534
_cell_length_b 22.140579
_cell_length_c 14.002352
_cell_angle_alpha 90.000000
_cell_angle_beta 90.000000
_cell_angle_gamma 90.000000
_cell_volume 2922.725794
_symmetry_space_group_name_H-M "P N M A"
_symmetry_group_IT_number 62
_symmetry_cell_setting 'orthorhombic'
loop_
_space_group_symop_operation_xyz
x,y,z
1/2-x,-y,1/2+z
1/2+x,1/2-y,1/2-z
-x,1/2+y,-z
-x,-y,-z
1/2+x,y,1/2-z
1/2-x,1/2+y,1/2+z
x,1/2-y,z
loop_
_atom_site_type_symbol
_atom_site_label
_atom_site_fract_x
_atom_site_fract_y
_atom_site_fract_z
Si Si1 0.512797 0.483835 0.867947
Si Si2 0.399322 0.136833 0.528211
Si Si3 0.485558 0.978196 0.358480
Si Si4 0.264923 0.936316 0.645625
Si Si5 0.753102 0.939586 0.627633
Si Si6 0.791741 0.818907 0.302032
Si Si7 0.206546 0.316584 0.029685
Si Si8 0.896701 0.140746 0.638827
O O1 0.511749 0.468323 0.754820
O O2 0.668022 0.507988 0.890738
O O3 0.414568 0.541489 0.887740
O O4 0.449521 0.422184 0.907841
O O5 0.454211 0.077932 0.585397
O O6 0.309335 0.112787 0.437843
O O7 0.294559 0.171620 0.599913
O O8 0.542471 0.172624 0.501502
O O9 0.578040 0.038619 0.371509
O O10 0.331405 0.998012 0.392145
O O11 0.235579 0.928993 0.758824
O O12 0.250996 0.872187 0.596800
O O13 0.772590 0.750000 0.268381
O O14 0.718683 0.863310 0.224703
O O15 0.958153 0.830849 0.319421
O O16 0.218733 0.250000 0.073110
O O17 0.312724 0.321624 0.940190
#
# Coordination Sequence:
#
# PCOD9463727 Si02
#       8
#     8   8   8   8   8   8   8   8
#     4  10  22  38  66  99 136 165 216 277 344 400
#     4  12  23  41  72 100 132 174 225 282 341 406
#     4  10  19  39  63  99 130 162 209 273 344 402
#     4  10  23  42  65  96 139 174 220 279 341 401
#     4  10  22  38  66  99 131 167 213 279 339 400
#     4  12  26  45  66  95 135 180 229 273 327 412
#     4  12  27  46  66  94 135 186 235 277 333 408
#     4  12  26  45  68  99 137 180 222 280 343 404
#
# _framework density 21.897368
#
# number of rings (size 3 to 8) (size 9 to 14) (size 15 to 20)
#    0.000    1.000    2.500    4.125    7.000    0.500 
#    0.000    1.250    0.000    0.000    0.000    0.000 
#    0.000    0.000    0.000    0.000    0.000    0.000 
#
# Total GULP energy -357986.643708 kJ/mol
# GULP energy per Si atom -5593.541308 kJ/mol
# Density = 2.184753 g / cm^3
# Si number density = 21.897368 Si / 1000 Ang^3
#
#
#
# Elastic Constant Matrix: (Units=GPa)
#
#
# Indices 1 2 3 4 5 6 
#
# 1 88.6586 9.9658 15.7555 0.0000 0.0000 0.0000
# 2 9.9658 103.4193 19.4200 0.0000 0.0000 0.0000
# 3 15.7555 19.4200 63.5593 0.0000 0.0000 0.0000
# 4 0.0000 0.0000 0.0000 27.7831 0.0000 0.0000
# 5 0.0000 0.0000 0.0000 0.0000 31.6795 0.0000
# 6 0.0000 0.0000 0.0000 0.0000 0.0000 15.0900
#
#
#
# Elastic Compliance Matrix: (Units=1/GPa)
#
#
# Indices 1 2 3 4 5 6 
#
# 1 0.011837 -0.000626 -0.002743 0.000000 0.000000 0.000000
# 2 -0.000626 0.010291 -0.002989 0.000000 0.000000 0.000000
# 3 -0.002743 -0.002989 0.017327 0.000000 0.000000 0.000000
# 4 0.000000 0.000000 0.000000 0.035993 0.000000 0.000000
# 5 0.000000 0.000000 0.000000 0.000000 0.031566 0.000000
# 6 0.000000 0.000000 0.000000 0.000000 0.000000 0.066269
#
#
# Mechanical properties :
#
#
# Convention : Reuss Voigt Hill
#
# Bulk Modulus (GPa) = 37.39881 38.43554 37.91718
# Shear Modulus (GPa) = 25.65261 28.94356 27.29809
#
# Velocity S-wave (km/s) = 3.42642 3.63958 3.53461
# Velocity P-wave (km/s) = 5.72451 5.93740 5.83193
#
# Compressibility (1/GPa) = 0.02673882
#
# Stress axis : x y z
#
# Youngs Moduli (GPa) = 84.48073 97.17248 57.71456
#
# Poissons Ratio (x) = 0.06079 0.15832
# Poissons Ratio (y) = 0.05285 0.17252
# Poissons Ratio (z) = 0.23174 0.29047
#
# Static dielectric constant tensor:
#      x y z
#    x 1.795110 0.000000 0.000000 
#    y 0.000000 1.777930 0.000000 
#    z 0.000000 0.000000 1.830880 
# 
# From -- ./inp_files/17346.got.cif
#   From: 2010.05.17/outbox.cif.g08.bks.cpg/sg62_9_cif.got.tgz:17346.got - 2010.06.03 15:25:27.
