data_PCOD9463996
_publ_section_title
;
Structure prediction by ZEFSAII (Michael W. Deem and Ramdas Pophale) SiO2 
 PCOD9463996
Probable space group: P N M A
;
_chemical_formula_sum "Si O2"
_cell_formula_units_Z 64
_cell_length_a 12.320275
_cell_length_b 8.591684
_cell_length_c 30.133023
_cell_angle_alpha 90.000000
_cell_angle_beta 90.000000
_cell_angle_gamma 90.000000
_cell_volume 3189.638026
_symmetry_space_group_name_H-M "P N M A"
_symmetry_group_IT_number 62
_symmetry_cell_setting 'orthorhombic'
loop_
_space_group_symop_operation_xyz
x,y,z
1/2-x,-y,1/2+z
1/2+x,1/2-y,1/2-z
-x,1/2+y,-z
-x,-y,-z
1/2+x,y,1/2-z
1/2-x,1/2+y,1/2+z
x,1/2-y,z
loop_
_atom_site_type_symbol
_atom_site_label
_atom_site_fract_x
_atom_site_fract_y
_atom_site_fract_z
Si Si1 0.554327 0.066947 0.563128
Si Si2 0.222495 0.062079 0.162891
Si Si3 0.023917 0.063123 0.223515
Si Si4 0.690659 0.561582 0.435736
Si Si5 0.773927 0.566567 0.525939
Si Si6 0.147563 0.432291 0.840293
Si Si7 0.033846 0.562323 0.680445
Si Si8 0.368323 0.064284 0.886803
O O1 0.568827 0.250000 0.551338
O O2 0.433069 0.014645 0.552107
O O3 0.570785 0.056328 0.616246
O O4 0.651122 0.968362 0.542326
O O5 0.216154 0.250000 0.161747
O O6 0.124101 0.004084 0.193800
O O7 0.339955 0.018088 0.181732
O O8 0.214792 0.001826 0.112765
O O9 0.031361 0.250000 0.224808
O O10 0.023189 0.006973 0.274202
O O11 0.911642 0.019436 0.199351
O O12 0.690862 0.750000 0.434347
O O13 0.772359 0.511236 0.474848
O O14 0.794147 0.750000 0.526570
O O15 0.850166 0.488683 0.562627
O O16 0.158064 0.250000 0.829050
O O17 0.264280 0.491713 0.857495
O O18 0.027677 0.750000 0.678755
O O19 0.974844 0.496338 0.637282
O O20 0.365028 0.250000 0.886306
#
# Coordination Sequence:
#
# PCOD9463996 Si02
#       8
#     8   8   8   8   8   8   8   8
#     4   9  17  31  50  78 119 155 187 234 285 336
#     4  10  22  39  58  87 119 149 192 241 289 344
#     4  10  21  36  59  87 115 148 187 233 288 346
#     4  10  20  35  55  82 117 156 195 239 289 345
#     4  10  20  33  55  85 115 152 197 239 291 348
#     4   9  18  33  54  81 115 149 183 229 278 333
#     4  10  23  41  61  84 115 150 193 245 289 341
#     4  10  22  40  59  83 116 152 195 241 289 343
#
# _framework density 20.064973999999999
#
# number of rings (size 3 to 8) (size 9 to 14) (size 15 to 20)
#    0.000    2.250    1.250    1.875    1.750    5.000 
#    0.000    0.625    0.000    0.000    0.000    0.000 
#    0.000    0.000    0.000    0.000    0.000    0.000 
#
# Total GULP energy -357187.620441 kJ/mol
# GULP energy per Si atom -5581.056569 kJ/mol
# Density = 2.001931 g / cm^3
# Si number density = 20.064974 Si / 1000 Ang^3
#
#
#
# Elastic Constant Matrix: (Units=GPa)
#
#
# Indices 1 2 3 4 5 6 
#
# 1 38.7721 8.5350 18.7558 0.0000 0.0000 0.0000
# 2 8.5350 3.2383 10.1840 0.0000 0.0000 0.0000
# 3 18.7558 10.1840 98.8168 0.0000 0.0000 0.0000
# 4 0.0000 0.0000 0.0000 21.6073 0.0000 0.0000
# 5 0.0000 0.0000 0.0000 0.0000 13.1554 0.0000
# 6 0.0000 0.0000 0.0000 0.0000 0.0000 22.4173
#
#
#
# Elastic Compliance Matrix: (Units=1/GPa)
#
#
# Indices 1 2 3 4 5 6 
#
# 1 0.065370 -0.197183 0.007914 0.000000 0.000000 0.000000
# 2 -0.197183 1.051676 -0.070959 0.000000 0.000000 0.000000
# 3 0.007914 -0.070959 0.015931 0.000000 0.000000 0.000000
# 4 0.000000 0.000000 0.000000 0.046281 0.000000 0.000000
# 5 0.000000 0.000000 0.000000 0.000000 0.076015 0.000000
# 6 0.000000 0.000000 0.000000 0.000000 0.000000 0.044608
#
#
# Mechanical properties :
#
#
# Convention : Reuss Voigt Hill
#
# Bulk Modulus (GPa) = 1.63260 23.97519 12.80389
# Shear Modulus (GPa) = 2.46974 18.32615 10.39794
#
# Velocity S-wave (km/s) = 1.11065 3.02543 2.27890
# Velocity P-wave (km/s) = 1.56848 4.91722 3.64960
#
# Compressibility (1/GPa) = 0.61252124
#
# Stress axis : x y z
#
# Youngs Moduli (GPa) = 15.29759 0.95086 62.77246
#
# Poissons Ratio (x) = 0.18749 -0.49678
# Poissons Ratio (y) = 3.01642 4.45425
# Poissons Ratio (z) = -0.12107 0.06747
#
# Static dielectric constant tensor:
#      x y z
#    x 1.705830 0.000000 0.000000 
#    y 0.000000 1.687180 0.000000 
#    z 0.000000 0.000000 1.718100 
# 
# From -- ./inp_files/32505.got.cif
#   From: 2010.05.17/outbox.cif.g08.bks.cpg/sg62_17_cif.got.tgz:32505.got - 2010.06.03 15:25:27.
