data_PCOD9463860
_publ_section_title
;
Structure prediction by ZEFSAII (Michael W. Deem and Ramdas Pophale) SiO2 
 PCOD9463860
Probable space group: P N M A
;
_chemical_formula_sum "Si O2"
_cell_formula_units_Z 56
_cell_length_a 20.728172
_cell_length_b 9.154440
_cell_length_c 14.697442
_cell_angle_alpha 90.000000
_cell_angle_beta 90.000000
_cell_angle_gamma 90.000000
_cell_volume 2788.910268
_symmetry_space_group_name_H-M "P N M A"
_symmetry_group_IT_number 62
_symmetry_cell_setting 'orthorhombic'
loop_
_space_group_symop_operation_xyz
x,y,z
1/2-x,-y,1/2+z
1/2+x,1/2-y,1/2-z
-x,1/2+y,-z
-x,-y,-z
1/2+x,y,1/2-z
1/2-x,1/2+y,1/2+z
x,1/2-y,z
loop_
_atom_site_type_symbol
_atom_site_label
_atom_site_fract_x
_atom_site_fract_y
_atom_site_fract_z
Si Si1 0.905734 0.413419 0.314986
Si Si2 0.057762 0.413975 0.955533
Si Si3 0.485332 0.414867 0.733447
Si Si4 0.157348 0.925813 0.207851
Si Si5 0.715717 0.578344 0.101172
Si Si6 0.784990 0.925968 0.405941
Si Si7 0.837744 0.412463 0.121967
O O1 0.908989 0.250000 0.355269
O O2 0.850243 0.509595 0.361700
O O3 0.880252 0.396755 0.211771
O O4 0.975944 0.487999 0.306193
O O5 0.068933 0.250000 0.990879
O O6 0.119378 0.519005 0.957830
O O7 0.033846 0.399942 0.851497
O O8 0.000000 0.500000 0.000000
O O9 0.473723 0.250000 0.769147
O O10 0.417012 0.474116 0.694222
O O11 0.157956 0.750000 0.195529
O O12 0.168877 0.957421 0.315089
O O13 0.218916 0.977047 0.147162
O O14 0.711478 0.750000 0.081128
O O15 0.784672 0.533396 0.142157
O O16 0.713152 0.486082 0.008930
O O17 0.786326 0.750000 0.403143
O O18 0.812853 0.250000 0.098934
#
# Coordination Sequence:
#
# PCOD9463860 Si02
#       7
#     8   8   8   8   8   8   8
#     4  10  20  37  59  86 116 151 195 245 291 343
#     4  10  20  32  51  79 114 150 192 237 291 355
#     4   9  19  37  59  81 109 154 198 239 295 358
#     4   9  20  39  62  86 118 154 194 244 298 355
#     4  11  22  38  59  88 119 151 196 248 299 350
#     4  11  22  38  62  89 119 159 200 240 297 364
#     4  10  20  35  55  78 112 153 192 235 287 347
#
# _framework density 20.079526999999999
#
# number of rings (size 3 to 8) (size 9 to 14) (size 15 to 20)
#    0.000    2.000    1.429    2.143    2.000    1.714 
#    0.000    3.571    0.000    0.000    0.000    0.000 
#    0.000    0.000    0.000    0.000    0.000    0.000 
#
# Total GULP energy -311842.823651 kJ/mol
# GULP energy per Si atom -5568.621851 kJ/mol
# Density = 2.003383 g / cm^3
# Si number density = 20.079527 Si / 1000 Ang^3
#
#
#
# Elastic Constant Matrix: (Units=GPa)
#
#
# Indices 1 2 3 4 5 6 
#
# 1 47.2459 8.9866 2.3470 0.0000 0.0000 0.0000
# 2 8.9866 74.9954 33.3061 0.0000 0.0000 0.0000
# 3 2.3470 33.3061 35.5249 0.0000 0.0000 0.0000
# 4 0.0000 0.0000 0.0000 23.1631 0.0000 0.0000
# 5 0.0000 0.0000 0.0000 0.0000 28.7269 0.0000
# 6 0.0000 0.0000 0.0000 0.0000 0.0000 24.1232
#
#
#
# Elastic Compliance Matrix: (Units=1/GPa)
#
#
# Indices 1 2 3 4 5 6 
#
# 1 0.021721 -0.003368 0.001722 0.000000 0.000000 0.000000
# 2 -0.003368 0.023369 -0.021687 0.000000 0.000000 0.000000
# 3 0.001722 -0.021687 0.048368 0.000000 0.000000 0.000000
# 4 0.000000 0.000000 0.000000 0.043172 0.000000 0.000000
# 5 0.000000 0.000000 0.000000 0.000000 0.034811 0.000000
# 6 0.000000 0.000000 0.000000 0.000000 0.000000 0.041454
#
#
# Mechanical properties :
#
#
# Convention : Reuss Voigt Hill
#
# Bulk Modulus (GPa) = 21.37066 27.44953 24.41009
# Shear Modulus (GPa) = 18.17145 22.74440 20.45793
#
# Velocity S-wave (km/s) = 3.01154 3.36924 3.19540
# Velocity P-wave (km/s) = 4.77060 5.36989 5.07909
#
# Compressibility (1/GPa) = 0.04679313
#
# Stress axis : x y z
#
# Youngs Moduli (GPa) = 46.03867 42.79158 20.67487
#
# Poissons Ratio (x) = 0.14411 -0.03561
# Poissons Ratio (y) = 0.15504 0.44838
# Poissons Ratio (z) = -0.07929 0.92802
#
# Static dielectric constant tensor:
#      x y z
#    x 2.137520 0.000000 0.000000 
#    y 0.000000 1.728510 0.000000 
#    z 0.000000 0.000000 1.681900 
# 
# From -- ./inp_files/20327.got.cif
#   From: 2010.05.17/outbox.cif.g08.bks.cpg/sg62_11_cif.got.tgz:20327.got - 2010.06.03 15:25:27.
