data_PCOD9463789
_publ_section_title
;
Structure prediction by ZEFSAII (Michael W. Deem and Ramdas Pophale) SiO2 
 PCOD9463789
Probable space group: P N M A
;
_chemical_formula_sum "Si O2"
_cell_formula_units_Z 48
_cell_length_a 17.845215
_cell_length_b 13.118825
_cell_length_c 8.130892
_cell_angle_alpha 90.000000
_cell_angle_beta 90.000000
_cell_angle_gamma 90.000000
_cell_volume 1903.508919
_symmetry_space_group_name_H-M "P N M A"
_symmetry_group_IT_number 62
_symmetry_cell_setting 'orthorhombic'
loop_
_space_group_symop_operation_xyz
x,y,z
1/2-x,-y,1/2+z
1/2+x,1/2-y,1/2-z
-x,1/2+y,-z
-x,-y,-z
1/2+x,y,1/2-z
1/2-x,1/2+y,1/2+z
x,1/2-y,z
loop_
_atom_site_type_symbol
_atom_site_label
_atom_site_fract_x
_atom_site_fract_y
_atom_site_fract_z
Si Si1 0.466073 0.932225 0.182139
Si Si2 0.724966 0.582590 0.121508
Si Si3 0.102173 0.427934 0.359704
Si Si4 0.605172 0.084443 0.498453
Si Si5 0.628094 0.642079 0.815356
Si Si6 0.647214 0.639005 0.452456
O O1 0.449164 0.881278 0.356351
O O2 0.422334 0.041446 0.191494
O O3 0.550267 0.968277 0.148709
O O4 0.429448 0.877378 0.024855
O O5 0.686161 0.470650 0.120806
O O6 0.811307 0.592191 0.073129
O O7 0.706595 0.622240 0.305174
O O8 0.681114 0.636383 0.972785
O O9 0.095670 0.372245 0.184745
O O10 0.597425 0.962963 0.461431
O O11 0.585327 0.750000 0.822330
O O12 0.672700 0.643828 0.642814
O O13 0.611820 0.750000 0.418802
#
# Coordination Sequence:
#
# PCOD9463789 Si02
#       6
#     8   8   8   8   8   8
#     4   9  18  33  50  74 104 134 175 218 268 318
#     4  10  20  30  52  81 105 134 178 227 261 317
#     4   9  19  31  49  75 105 133 167 220 269 308
#     4  10  20  30  53  79 105 135 179 224 269 312
#     4   9  18  32  52  74 102 138 180 219 264 319
#     4   9  19  32  48  73 106 138 172 216 267 315
#
# _framework density 25.216588000000002
#
# number of rings (size 3 to 8) (size 9 to 14) (size 15 to 20)
#    0.000    2.667    0.000    1.000   14.000    0.000 
#    0.000    0.000    0.000    3.000    0.000   10.500 
#    0.000    0.000    0.000    0.000    0.000    0.000 
#
# Total GULP energy -267575.201832 kJ/mol
# GULP energy per Si atom -5574.483371 kJ/mol
# Density = 2.515919 g / cm^3
# Si number density = 25.216588 Si / 1000 Ang^3
#
#
#
# Elastic Constant Matrix: (Units=GPa)
#
#
# Indices 1 2 3 4 5 6 
#
# 1 101.1448 -2.9491 38.9325 0.0000 0.0000 0.0000
# 2 -2.9491 73.3808 8.3246 0.0000 0.0000 0.0000
# 3 38.9325 8.3246 257.7151 0.0000 0.0000 0.0000
# 4 0.0000 0.0000 0.0000 0.8268 0.0000 0.0000
# 5 0.0000 0.0000 0.0000 0.0000 31.9986 0.0000
# 6 0.0000 0.0000 0.0000 0.0000 0.0000 4.5892
#
#
#
# Elastic Compliance Matrix: (Units=1/GPa)
#
#
# Indices 1 2 3 4 5 6 
#
# 1 0.010524 0.000606 -0.001609 0.000000 0.000000 0.000000
# 2 0.000606 0.013712 -0.000534 0.000000 0.000000 0.000000
# 3 -0.001609 -0.000534 0.004141 0.000000 0.000000 0.000000
# 4 0.000000 0.000000 0.000000 1.209509 0.000000 0.000000
# 5 0.000000 0.000000 0.000000 0.000000 0.031251 0.000000
# 6 0.000000 0.000000 0.000000 0.000000 0.000000 0.217903
#
#
# Mechanical properties :
#
#
# Convention : Reuss Voigt Hill
#
# Bulk Modulus (GPa) = 39.52487 57.87297 48.69892
# Shear Modulus (GPa) = 3.33656 33.34511 18.34083
#
# Velocity S-wave (km/s) = 1.15153 3.64036 2.69984
# Velocity P-wave (km/s) = 4.18046 6.37728 5.39194
#
# Compressibility (1/GPa) = 0.02530053
#
# Stress axis : x y z
#
# Youngs Moduli (GPa) = 95.02136 72.92618 241.50839
#
# Poissons Ratio (x) = -0.04416 0.38868
# Poissons Ratio (y) = -0.05754 0.12906
# Poissons Ratio (z) = 0.15293 0.03897
#
# Static dielectric constant tensor:
#      x y z
#    x 2.005270 0.000000 0.000000 
#    y 0.000000 2.003460 0.000000 
#    z 0.000000 0.000000 2.100450 
# 
# From -- ./inp_files/7612.got.cif
#   From: 2010.05.17/outbox.cif.g08.bks.cpg/sg62_4_cif.got.tgz:7612.got - 2010.06.03 15:25:27.
