data_PCOD9463817
_publ_section_title
;
Structure prediction by ZEFSAII (Michael W. Deem and Ramdas Pophale) SiO2 
 PCOD9463817
Probable space group: P N M A
;
_chemical_formula_sum "Si O2"
_cell_formula_units_Z 48
_cell_length_a 30.154585
_cell_length_b 9.413068
_cell_length_c 7.507095
_cell_angle_alpha 90.000000
_cell_angle_beta 90.000000
_cell_angle_gamma 90.000000
_cell_volume 2130.867589
_symmetry_space_group_name_H-M "P N M A"
_symmetry_group_IT_number 62
_symmetry_cell_setting 'orthorhombic'
loop_
_space_group_symop_operation_xyz
x,y,z
1/2-x,-y,1/2+z
1/2+x,1/2-y,1/2-z
-x,1/2+y,-z
-x,-y,-z
1/2+x,y,1/2-z
1/2-x,1/2+y,1/2+z
x,1/2-y,z
loop_
_atom_site_type_symbol
_atom_site_label
_atom_site_fract_x
_atom_site_fract_y
_atom_site_fract_z
Si Si1 0.310251 0.910410 0.470915
Si Si2 0.228563 0.091409 0.371206
Si Si3 0.151541 0.907988 0.496508
Si Si4 0.942816 0.083038 0.403758
Si Si5 0.609179 0.587852 0.404575
Si Si6 0.531345 0.083096 0.256374
O O1 0.316596 0.750000 0.405804
O O2 0.271889 0.994866 0.370683
O O3 0.355570 0.997495 0.484800
O O4 0.291762 0.902864 0.673772
O O5 0.239946 0.250000 0.431715
O O6 0.190201 0.021861 0.491742
O O7 0.170006 0.750000 0.530751
O O8 0.109537 0.933614 0.623736
O O9 0.129866 0.906656 0.297310
O O10 0.948857 0.250000 0.462344
O O11 0.978243 0.062106 0.246812
O O12 0.955080 0.972262 0.559008
O O13 0.604511 0.750000 0.466895
O O14 0.562303 0.509334 0.383303
O O15 0.540899 0.250000 0.278050
#
# Coordination Sequence:
#
# PCOD9463817 Si02
#       6
#     8   8   8   8   8   8
#     4  10  20  33  49  68  90 119 153 187 226 270
#     4  10  20  32  47  68  91 117 151 188 226 268
#     4   8  14  25  39  55  79 112 145 177 217 261
#     4   8  14  22  32  49  75 108 142 175 214 259
#     4   9  16  26  39  56  81 112 144 179 220 263
#     4   9  14  20  32  51  76 106 141 177 213 259
#
# _framework density 22.526036999999999
#
# number of rings (size 3 to 8) (size 9 to 14) (size 15 to 20)
#    0.000    3.000    0.000    3.000    0.000    6.667 
#    0.000    0.000    0.000    0.000    0.000    0.000 
#    0.000    1.333    0.000    4.000    0.000   12.000 
#
# Total GULP energy -268069.778352 kJ/mol
# GULP energy per Si atom -5584.787049 kJ/mol
# Density = 2.247477 g / cm^3
# Si number density = 22.526037 Si / 1000 Ang^3
#
#
#
# Elastic Constant Matrix: (Units=GPa)
#
#
# Indices 1 2 3 4 5 6 
#
# 1 -105.7564 -21.8523 134.8404 0.0000 0.0000 0.0000
# 2 -21.8523 119.6383 90.7348 0.0000 0.0000 0.0000
# 3 134.8404 90.7348 2.8921 0.0000 0.0000 0.0000
# 4 0.0000 0.0000 0.0000 5.6730 0.0000 0.0000
# 5 0.0000 0.0000 0.0000 0.0000 7.6626 0.0000
# 6 0.0000 0.0000 0.0000 0.0000 0.0000 34.5031
#
#
#
# Elastic Compliance Matrix: (Units=1/GPa)
#
#
# Indices 1 2 3 4 5 6 
#
# 1 0.004201 -0.006551 0.009650 0.000000 0.000000 0.000000
# 2 -0.006551 0.009848 -0.003542 0.000000 0.000000 0.000000
# 3 0.009650 -0.003542 0.006994 0.000000 0.000000 0.000000
# 4 0.000000 0.000000 0.000000 0.176273 0.000000 0.000000
# 5 0.000000 0.000000 0.000000 0.000000 0.130505 0.000000
# 6 0.000000 0.000000 0.000000 0.000000 0.000000 0.028983
#
#
# Mechanical properties :
#
#
# Convention : Reuss Voigt Hill
#
# Bulk Modulus (GPa) = 49.61067 47.13554 48.37310
# Shear Modulus (GPa) = 13.72083 -2.89553 5.41265
#
# Velocity S-wave (km/s) = 2.47069 -1.13499 1.55179
# Velocity P-wave (km/s) = 5.49642 4.38779 4.97309
#
# Compressibility (1/GPa) = 0.02015696
#
# Stress axis : x y z
#
# Youngs Moduli (GPa) = 238.02663 101.54105 142.97505
#
# Poissons Ratio (x) = 0.66519 -1.37965
# Poissons Ratio (y) = 1.55930 0.50641
# Poissons Ratio (z) = -2.29685 0.35966
#
# Static dielectric constant tensor:
#      x y z
#    x 1.820020 0.000000 0.000000 
#    y 0.000000 1.785650 0.000000 
#    z 0.000000 0.000000 1.918580 
# 
# From -- ./inp_files/15404.got.cif
#   From: 2010.05.17/outbox.cif.g08.bks.cpg/sg62_8_cif.got.tgz:15404.got - 2010.06.03 15:25:27.
