data_PCOD9463202
_publ_section_title
;
Structure prediction by ZEFSAII (Michael W. Deem and Ramdas Pophale) SiO2 
 PCOD9463202
Probable space group: P N M A
;
_chemical_formula_sum "Si O2"
_cell_formula_units_Z 56
_cell_length_a 26.026406
_cell_length_b 22.124079
_cell_length_c 5.020418
_cell_angle_alpha 90.000000
_cell_angle_beta 90.000000
_cell_angle_gamma 90.000000
_cell_volume 2890.808206
_symmetry_space_group_name_H-M "P N M A"
_symmetry_group_IT_number 62
_symmetry_cell_setting 'orthorhombic'
loop_
_space_group_symop_operation_xyz
x,y,z
1/2-x,-y,1/2+z
1/2+x,1/2-y,1/2-z
-x,1/2+y,-z
-x,-y,-z
1/2+x,y,1/2-z
1/2-x,1/2+y,1/2+z
x,1/2-y,z
loop_
_atom_site_type_symbol
_atom_site_label
_atom_site_fract_x
_atom_site_fract_y
_atom_site_fract_z
Si Si1 0.720344 0.679326 0.415186
Si Si2 0.562572 0.822995 0.098217
Si Si3 0.786049 0.996799 0.560071
Si Si4 0.829810 0.377133 0.418154
Si Si5 0.001008 0.322994 0.098707
Si Si6 0.329644 0.634963 0.884932
Si Si7 0.611068 0.322576 0.619923
O O1 0.707855 0.750000 0.431453
O O2 0.684242 0.642750 0.620018
O O3 0.778474 0.667779 0.507670
O O4 0.710077 0.656071 0.117768
O O5 0.570103 0.750000 0.088528
O O6 0.543677 0.840047 0.391562
O O7 0.614377 0.854615 0.004945
O O8 0.516820 0.839166 0.893716
O O9 0.821203 0.051942 0.463203
O O10 0.753998 0.015706 0.821025
O O11 0.816423 0.935814 0.624572
O O12 0.003936 0.250000 0.093381
O O13 0.056182 0.343960 0.994759
O O14 0.373984 0.648990 0.098486
O O15 0.346663 0.659465 0.599132
O O16 0.609868 0.250000 0.651209
#
# Coordination Sequence:
#
# PCOD9463202 Si02
#       7
#     8   8   8   8   8   8   8
#     4  12  23  36  56  89 123 151 182 241 303 348
#     4  10  19  34  57  86 113 147 189 235 294 347
#     4  12  23  44  60  79 115 162 211 233 275 339
#     4  12  23  39  60  84 119 158 197 241 281 348
#     4   9  19  35  57  83 117 150 185 234 290 357
#     4  12  23  38  60  85 118 157 198 242 280 350
#     4  11  22  38  60  90 119 151 191 240 303 351
#
# _framework density 19.371744
#
# number of rings (size 3 to 8) (size 9 to 14) (size 15 to 20)
#    0.000    0.857    2.857    6.000    0.000    3.429 
#    0.000    0.000    0.000    5.143    0.000    0.000 
#    0.000    0.000    0.000    0.000    0.000    0.000 
#
# Total GULP energy -313217.573175 kJ/mol
# GULP energy per Si atom -5593.170950 kJ/mol
# Density = 1.932765 g / cm^3
# Si number density = 19.371744 Si / 1000 Ang^3
#
#
#
# Elastic Constant Matrix: (Units=GPa)
#
#
# Indices 1 2 3 4 5 6 
#
# 1 52.7097 7.2352 -17.5279 0.0000 0.0000 0.0000
# 2 7.2352 53.7654 -11.6249 0.0000 0.0000 0.0000
# 3 -17.5279 -11.6249 55.8615 0.0000 0.0000 0.0000
# 4 0.0000 0.0000 0.0000 21.7132 0.0000 0.0000
# 5 0.0000 0.0000 0.0000 0.0000 29.1421 0.0000
# 6 0.0000 0.0000 0.0000 0.0000 0.0000 1.4669
#
#
#
# Elastic Compliance Matrix: (Units=1/GPa)
#
#
# Indices 1 2 3 4 5 6 
#
# 1 0.021295 -0.001488 0.006372 0.000000 0.000000 0.000000
# 2 -0.001488 0.019580 0.003608 0.000000 0.000000 0.000000
# 3 0.006372 0.003608 0.020652 0.000000 0.000000 0.000000
# 4 0.000000 0.000000 0.000000 0.046055 0.000000 0.000000
# 5 0.000000 0.000000 0.000000 0.000000 0.034315 0.000000
# 6 0.000000 0.000000 0.000000 0.000000 0.000000 0.681708
#
#
# Mechanical properties :
#
#
# Convention : Reuss Voigt Hill
#
# Bulk Modulus (GPa) = 12.73718 13.16681 12.95200
# Shear Modulus (GPa) = 6.00392 22.74805 14.37598
#
# Velocity S-wave (km/s) = 1.76240 3.43051 2.72713
# Velocity P-wave (km/s) = 3.27579 4.74372 4.07638
#
# Compressibility (1/GPa) = 0.07851030
#
# Stress axis : x y z
#
# Youngs Moduli (GPa) = 46.95923 51.07357 48.42236
#
# Poissons Ratio (x) = 0.07599 -0.30856
# Poissons Ratio (y) = 0.06987 -0.17469
# Poissons Ratio (z) = -0.29923 -0.18426
#
# Static dielectric constant tensor:
#      x y z
#    x 1.686200 0.000000 0.000000 
#    y 0.000000 1.643880 0.000000 
#    z 0.000000 0.000000 1.665700 
# 
# From -- ./inp_files/2812.got.cif
#   From: 2010.05.17/outbox.cif.g08.bks.cpg/sg62_2_cif.got.tgz:2812.got - 2010.06.03 15:25:27.
