data_PCOD9463927
_publ_section_title
;
Structure prediction by ZEFSAII (Michael W. Deem and Ramdas Pophale) SiO2 
 PCOD9463927
Probable space group: P N M A
;
_chemical_formula_sum "Si O2"
_cell_formula_units_Z 64
_cell_length_a 8.770358
_cell_length_b 22.469697
_cell_length_c 16.610039
_cell_angle_alpha 90.000000
_cell_angle_beta 90.000000
_cell_angle_gamma 90.000000
_cell_volume 3273.295320
_symmetry_space_group_name_H-M "P N M A"
_symmetry_group_IT_number 62
_symmetry_cell_setting 'orthorhombic'
loop_
_space_group_symop_operation_xyz
x,y,z
1/2-x,-y,1/2+z
1/2+x,1/2-y,1/2-z
-x,1/2+y,-z
-x,-y,-z
1/2+x,y,1/2-z
1/2-x,1/2+y,1/2+z
x,1/2-y,z
loop_
_atom_site_type_symbol
_atom_site_label
_atom_site_fract_x
_atom_site_fract_y
_atom_site_fract_z
Si Si1 0.233045 0.682074 0.791418
Si Si2 0.109870 0.080489 0.983927
Si Si3 0.946798 0.497373 0.860759
Si Si4 0.610878 0.987707 0.803406
Si Si5 0.457358 0.444779 0.938977
Si Si6 0.064047 0.681960 0.945776
Si Si7 0.093032 0.181343 0.513795
Si Si8 0.043538 0.856078 0.652431
O O1 0.274723 0.750000 0.813429
O O2 0.106273 0.661191 0.855386
O O3 0.382239 0.643119 0.800914
O O4 0.164298 0.680104 0.703727
O O5 0.065588 0.146316 0.009432
O O6 0.007027 0.060090 0.908628
O O7 0.282693 0.069474 0.958647
O O8 0.068994 0.043459 0.064862
O O9 0.063630 0.515743 0.790004
O O10 0.781717 0.490060 0.820169
O O11 0.492347 0.029111 0.851137
O O12 0.601072 0.923313 0.846305
O O13 0.500000 0.500000 0.000000
O O14 0.548598 0.381715 0.944457
O O15 0.019369 0.750000 0.939312
O O16 0.227462 0.677412 0.991106
O O17 0.067852 0.250000 0.544905
O O18 0.995894 0.173567 0.431731
#
# Coordination Sequence:
#
# PCOD9463927 Si02
#       8
#     8   8   8   8   8   8   8   8
#     4  10  20  33  50  78 116 162 204 252 300 362
#     4  11  23  40  62  91 122 168 203 261 318 369
#     4  11  24  38  61  89 124 162 209 256 316 369
#     4  12  23  40  59  91 125 165 207 263 311 374
#     4  12  23  41  63  91 128 162 207 263 310 373
#     4   9  20  37  57  82 116 159 208 254 305 374
#     4  10  21  38  60  84 116 164 209 254 311 373
#     4  11  20  33  54  77 119 159 207 248 302 359
#
# _framework density 19.552161999999999
#
# number of rings (size 3 to 8) (size 9 to 14) (size 15 to 20)
#    0.000    1.250    2.500    4.875    1.750    2.500 
#    0.000    1.250    0.000    0.750    0.000    0.000 
#    0.000    0.000    0.000    0.000    0.000    0.000 
#
# Total GULP energy -357150.978382 kJ/mol
# GULP energy per Si atom -5580.484037 kJ/mol
# Density = 1.950766 g / cm^3
# Si number density = 19.552162 Si / 1000 Ang^3
#
#
#
# Elastic Constant Matrix: (Units=GPa)
#
#
# Indices 1 2 3 4 5 6 
#
# 1 63.8552 4.6759 27.7006 0.0000 0.0000 0.0000
# 2 4.6759 65.0779 22.4465 0.0000 0.0000 0.0000
# 3 27.7006 22.4465 63.1864 0.0000 0.0000 0.0000
# 4 0.0000 0.0000 0.0000 26.1934 0.0000 0.0000
# 5 0.0000 0.0000 0.0000 0.0000 33.8898 0.0000
# 6 0.0000 0.0000 0.0000 0.0000 0.0000 21.3122
#
#
#
# Elastic Compliance Matrix: (Units=1/GPa)
#
#
# Indices 1 2 3 4 5 6 
#
# 1 0.019514 0.001765 -0.009182 0.000000 0.000000 0.000000
# 2 0.001765 0.017672 -0.007051 0.000000 0.000000 0.000000
# 3 -0.009182 -0.007051 0.022356 0.000000 0.000000 0.000000
# 4 0.000000 0.000000 0.000000 0.038178 0.000000 0.000000
# 5 0.000000 0.000000 0.000000 0.000000 0.029507 0.000000
# 6 0.000000 0.000000 0.000000 0.000000 0.000000 0.046921
#
#
# Mechanical properties :
#
#
# Convention : Reuss Voigt Hill
#
# Bulk Modulus (GPa) = 32.67393 33.52949 33.10171
# Shear Modulus (GPa) = 23.44253 25.43217 24.43735
#
# Velocity S-wave (km/s) = 3.46638 3.61048 3.53916
# Velocity P-wave (km/s) = 5.72437 5.87935 5.80238
#
# Compressibility (1/GPa) = 0.03060544
#
# Stress axis : x y z
#
# Youngs Moduli (GPa) = 51.24432 56.58820 44.72978
#
# Poissons Ratio (x) = -0.09987 0.41071
# Poissons Ratio (y) = -0.09044 0.31541
# Poissons Ratio (z) = 0.47052 0.39903
#
# Static dielectric constant tensor:
#      x y z
#    x 1.714280 0.000000 0.000000 
#    y 0.000000 1.726420 0.000000 
#    z 0.000000 0.000000 1.697130 
# 
# From -- ./inp_files/22562.got.cif
#   From: 2010.05.17/outbox.cif.g08.bks.cpg/sg62_12_cif.got.tgz:22562.got - 2010.06.03 15:25:27.
