data_PCOD9463260
_publ_section_title
;
Structure prediction by ZEFSAII (Michael W. Deem and Ramdas Pophale) SiO2 
 PCOD9463260
Probable space group: P N M A
;
_chemical_formula_sum "Si O2"
_cell_formula_units_Z 48
_cell_length_a 17.619268
_cell_length_b 14.518570
_cell_length_c 7.797699
_cell_angle_alpha 90.000000
_cell_angle_beta 90.000000
_cell_angle_gamma 90.000000
_cell_volume 1994.702680
_symmetry_space_group_name_H-M "P N M A"
_symmetry_group_IT_number 62
_symmetry_cell_setting 'orthorhombic'
loop_
_space_group_symop_operation_xyz
x,y,z
1/2-x,-y,1/2+z
1/2+x,1/2-y,1/2-z
-x,1/2+y,-z
-x,-y,-z
1/2+x,y,1/2-z
1/2-x,1/2+y,1/2+z
x,1/2-y,z
loop_
_atom_site_type_symbol
_atom_site_label
_atom_site_fract_x
_atom_site_fract_y
_atom_site_fract_z
Si Si1 0.808360 0.542609 0.904238
Si Si2 0.982248 0.861873 0.420419
Si Si3 0.443797 0.860637 0.451802
Si Si4 0.185354 0.085335 0.468952
Si Si5 0.164679 0.649913 0.059708
Si Si6 0.059483 0.860437 0.753344
O O1 0.862138 0.591572 0.041011
O O2 0.727320 0.510996 0.979650
O O3 0.848254 0.446102 0.845224
O O4 0.806024 0.601445 0.733551
O O5 0.980494 0.750000 0.425631
O O6 0.988328 0.886455 0.220828
O O7 0.899912 0.898191 0.477509
O O8 0.043422 0.894966 0.561640
O O9 0.435248 0.750000 0.456642
O O10 0.491794 0.889626 0.618407
O O11 0.244491 0.154075 0.558947
O O12 0.132550 0.750000 0.110396
O O13 0.134648 0.625595 0.867176
O O14 0.054844 0.750000 0.740788
#
# Coordination Sequence:
#
# PCOD9463260 Si02
#       6
#     8   8   8   8   8   8
#     4  10  21  36  58  84 120 150 198 241 292 347
#     4  10  19  34  61  85 114 157 200 241 290 346
#     4  10  20  35  58  88 117 152 199 245 289 347
#     4  10  20  36  56  84 118 151 197 244 286 348
#     4   9  21  38  60  84 118 160 194 238 303 350
#     4   9  18  37  60  85 116 157 198 240 293 353
#
# _framework density 24.063735999999999
#
# number of rings (size 3 to 8) (size 9 to 14) (size 15 to 20)
#    1.000    1.333    1.667    1.500    0.000    1.333 
#    0.000    2.500    0.000    2.000    0.000    0.000 
#    0.000    0.000    0.000    0.000    0.000    0.000 
#
# Total GULP energy -267585.808871 kJ/mol
# GULP energy per Si atom -5574.704351 kJ/mol
# Density = 2.400897 g / cm^3
# Si number density = 24.063736 Si / 1000 Ang^3
#
#
#
# Elastic Constant Matrix: (Units=GPa)
#
#
# Indices 1 2 3 4 5 6 
#
# 1 65.0487 19.6194 -16.5446 0.0000 0.0000 0.0000
# 2 19.6194 49.4036 13.0638 0.0000 0.0000 0.0000
# 3 -16.5446 13.0638 68.0977 0.0000 0.0000 0.0000
# 4 0.0000 0.0000 0.0000 18.7687 0.0000 0.0000
# 5 0.0000 0.0000 0.0000 0.0000 27.5795 0.0000
# 6 0.0000 0.0000 0.0000 0.0000 0.0000 29.1935
#
#
#
# Elastic Compliance Matrix: (Units=1/GPa)
#
#
# Indices 1 2 3 4 5 6 
#
# 1 0.020020 -0.009730 0.006730 0.000000 0.000000 0.000000
# 2 -0.009730 0.026052 -0.007362 0.000000 0.000000 0.000000
# 3 0.006730 -0.007362 0.017732 0.000000 0.000000 0.000000
# 4 0.000000 0.000000 0.000000 0.053280 0.000000 0.000000
# 5 0.000000 0.000000 0.000000 0.000000 0.036259 0.000000
# 6 0.000000 0.000000 0.000000 0.000000 0.000000 0.034254
#
#
# Mechanical properties :
#
#
# Convention : Reuss Voigt Hill
#
# Bulk Modulus (GPa) = 23.21192 23.86970 23.54081
# Shear Modulus (GPa) = 22.45371 26.20244 24.32807
#
# Velocity S-wave (km/s) = 3.05797 3.30339 3.18305
# Velocity P-wave (km/s) = 4.70481 4.94882 4.82835
#
# Compressibility (1/GPa) = 0.04308132
#
# Stress axis : x y z
#
# Youngs Moduli (GPa) = 49.95091 38.38454 56.39440
#
# Poissons Ratio (x) = 0.37348 -0.37956
# Poissons Ratio (y) = 0.48603 0.41516
# Poissons Ratio (z) = -0.33619 0.28258
#
# Static dielectric constant tensor:
#      x y z
#    x 1.947580 0.000000 0.000000 
#    y 0.000000 1.931970 0.000000 
#    z 0.000000 0.000000 1.921280 
# 
# From -- ./inp_files/8777.got.cif
#   From: 2010.05.17/outbox.cif.g08.bks.cpg/sg62_5_cif.got.tgz:8777.got - 2010.06.03 15:25:27.
