data_PCOD9463050
_publ_section_title
;
Structure prediction by ZEFSAII (Michael W. Deem and Ramdas Pophale) SiO2 
 PCOD9463050
Probable space group: P N M A
;
_chemical_formula_sum "Si O2"
_cell_formula_units_Z 32
_cell_length_a 18.855580
_cell_length_b 18.110054
_cell_length_c 5.029821
_cell_angle_alpha 90.000000
_cell_angle_beta 90.000000
_cell_angle_gamma 90.000000
_cell_volume 1717.561003
_symmetry_space_group_name_H-M "P N M A"
_symmetry_group_IT_number 62
_symmetry_cell_setting 'orthorhombic'
loop_
_space_group_symop_operation_xyz
x,y,z
1/2-x,-y,1/2+z
1/2+x,1/2-y,1/2-z
-x,1/2+y,-z
-x,-y,-z
1/2+x,y,1/2-z
1/2-x,1/2+y,1/2+z
x,1/2-y,z
loop_
_atom_site_type_symbol
_atom_site_label
_atom_site_fract_x
_atom_site_fract_y
_atom_site_fract_z
Si Si1 0.440592 0.030435 0.790345
Si Si2 0.626781 0.167769 0.025827
Si Si3 0.295306 0.516373 0.984062
Si Si4 0.452972 0.616766 0.489016
O O1 0.470515 0.103118 0.645589
O O2 0.365916 0.032567 0.938810
O O3 0.431452 0.967324 0.564892
O O4 0.500000 0.000000 0.000000
O O5 0.656194 0.250000 0.048407
O O6 0.595815 0.152773 0.734021
O O7 0.680967 0.100778 0.074639
O O8 0.562177 0.158644 0.237082
O O9 0.235774 0.491632 0.776554
#
# Coordination Sequence:
#
# PCOD9463050 Si02
#       4
#     8   8   8   8
#     4  10  19  35  61  85 123 143 191 253 302 342
#     4  11  22  38  59  86 120 157 205 251 300 368
#     4  11  23  36  58  92 119 156 205 245 299 365
#     4  10  19  33  59  88 108 148 194 239 303 340
#
# _framework density 18.631073000000001
#
# number of rings (size 3 to 8) (size 9 to 14) (size 15 to 20)
#    0.000    1.500    5.000    3.750    3.500    0.000 
#    0.000    0.000    0.000    9.000    0.000    0.000 
#    0.000    0.000    0.000    0.000    0.000    0.000 
#
# Total GULP energy -178307.603554 kJ/mol
# GULP energy per Si atom -5572.112611 kJ/mol
# Density = 1.858867 g / cm^3
# Si number density = 18.631073 Si / 1000 Ang^3
#
#
#
# Elastic Constant Matrix: (Units=GPa)
#
#
# Indices 1 2 3 4 5 6 
#
# 1 61.5165 9.2238 2.9083 0.0000 0.0000 0.0000
# 2 9.2238 90.2653 1.1000 0.0000 0.0000 0.0000
# 3 2.9083 1.1000 89.3810 0.0000 0.0000 0.0000
# 4 0.0000 0.0000 0.0000 16.1932 0.0000 0.0000
# 5 0.0000 0.0000 0.0000 0.0000 30.7545 0.0000
# 6 0.0000 0.0000 0.0000 0.0000 0.0000 14.1054
#
#
#
# Elastic Compliance Matrix: (Units=1/GPa)
#
#
# Indices 1 2 3 4 5 6 
#
# 1 0.016533 -0.001683 -0.000517 0.000000 0.000000 0.000000
# 2 -0.001683 0.011251 -0.000084 0.000000 0.000000 0.000000
# 3 -0.000517 -0.000084 0.011206 0.000000 0.000000 0.000000
# 4 0.000000 0.000000 0.000000 0.061754 0.000000 0.000000
# 5 0.000000 0.000000 0.000000 0.000000 0.032516 0.000000
# 6 0.000000 0.000000 0.000000 0.000000 0.000000 0.070895
#
#
# Mechanical properties :
#
#
# Convention : Reuss Voigt Hill
#
# Bulk Modulus (GPa) = 29.05123 29.73633 29.39378
# Shear Modulus (GPa) = 22.70699 27.40601 25.05650
#
# Velocity S-wave (km/s) = 3.49488 3.83950 3.67123
# Velocity P-wave (km/s) = 5.64910 5.97084 5.81220
#
# Compressibility (1/GPa) = 0.03442195
#
# Stress axis : x y z
#
# Youngs Moduli (GPa) = 60.48647 88.87737 89.23854
#
# Poissons Ratio (x) = 0.14959 0.04616
# Poissons Ratio (y) = 0.10180 0.00747
# Poissons Ratio (z) = 0.03129 0.00744
#
# Static dielectric constant tensor:
#      x y z
#    x 1.679900 0.000000 0.000000 
#    y 0.000000 1.657840 0.000000 
#    z 0.000000 0.000000 1.679310 
# 
# From -- ./inp_files/1528.got.cif
#   From: 2010.05.17/outbox.cif.g08.bks.cpg/sg62_1_cif.got.tgz:1528.got - 2010.06.03 15:25:27.
