data_PCOD9463770
_publ_section_title
;
Structure prediction by ZEFSAII (Michael W. Deem and Ramdas Pophale) SiO2 
 PCOD9463770
Probable space group: P N M A
;
_chemical_formula_sum "Si O2"
_cell_formula_units_Z 40
_cell_length_a 11.926673
_cell_length_b 14.265114
_cell_length_c 11.291833
_cell_angle_alpha 90.000000
_cell_angle_beta 90.000000
_cell_angle_gamma 90.000000
_cell_volume 1921.139959
_symmetry_space_group_name_H-M "P N M A"
_symmetry_group_IT_number 62
_symmetry_cell_setting 'orthorhombic'
loop_
_space_group_symop_operation_xyz
x,y,z
1/2-x,-y,1/2+z
1/2+x,1/2-y,1/2-z
-x,1/2+y,-z
-x,-y,-z
1/2+x,y,1/2-z
1/2-x,1/2+y,1/2+z
x,1/2-y,z
loop_
_atom_site_type_symbol
_atom_site_label
_atom_site_fract_x
_atom_site_fract_y
_atom_site_fract_z
Si Si1 0.078100 0.410192 0.933169
Si Si2 0.088763 0.452392 0.190816
Si Si3 0.584232 0.750000 0.539782
Si Si4 0.970564 0.250000 0.559613
Si Si5 0.197350 0.615258 0.311417
Si Si6 0.229091 0.250000 0.616646
Si Si7 0.516207 0.250000 0.219343
O O1 0.183522 0.365048 0.870427
O O2 0.023616 0.485238 0.841337
O O3 0.131776 0.449521 0.055207
O O4 0.984196 0.338035 0.982517
O O5 0.164413 0.509828 0.281866
O O6 0.075044 0.348468 0.244375
O O7 0.714268 0.750000 0.509940
O O8 0.579834 0.750000 0.680890
O O9 0.900618 0.162709 0.612143
O O10 0.096160 0.250000 0.611503
O O11 0.979846 0.250000 0.417295
O O12 0.214710 0.663689 0.185023
#
# Coordination Sequence:
#
# PCOD9463770 Si02
#       7
#     8   8   4   4   8   4   4
#     4  10  21  40  66  97 128 169 223 268 324 399
#     4  10  22  42  63  95 129 174 223 261 331 390
#     4  10  19  43  68  93 128 173 224 266 327 399
#     4  11  26  44  63 104 138 166 218 274 341 392
#     4  11  23  39  69  99 131 173 214 280 330 392
#     4  11  22  38  69  97 129 174 222 271 325 398
#     4  10  25  45  62  92 135 175 214 279 325 395
#
# _framework density 20.820969999999999
#
# number of rings (size 3 to 8) (size 9 to 14) (size 15 to 20)
#    0.000    1.600    2.000    2.400    2.800    4.000 
#    7.200    0.000    0.000    0.000    0.000    0.000 
#    0.000    0.000    0.000    0.000    0.000    0.000 
#
# Total GULP energy -222732.697349 kJ/mol
# GULP energy per Si atom -5568.317434 kJ/mol
# Density = 2.077358 g / cm^3
# Si number density = 20.820970 Si / 1000 Ang^3
#
#
#
# Elastic Constant Matrix: (Units=GPa)
#
#
# Indices 1 2 3 4 5 6 
#
# 1 44.7031 6.2955 33.0144 0.0000 0.0000 0.0000
# 2 6.2955 104.4419 16.5489 0.0000 0.0000 0.0000
# 3 33.0144 16.5489 92.1970 0.0000 0.0000 0.0000
# 4 0.0000 0.0000 0.0000 11.4095 0.0000 0.0000
# 5 0.0000 0.0000 0.0000 0.0000 18.7757 0.0000
# 6 0.0000 0.0000 0.0000 0.0000 0.0000 -2.3886
#
#
#
# Elastic Compliance Matrix: (Units=1/GPa)
#
#
# Indices 1 2 3 4 5 6 
#
# 1 0.030414 -0.000111 -0.010871 0.000000 0.000000 0.000000
# 2 -0.000111 0.009855 -0.001729 0.000000 0.000000 0.000000
# 3 -0.010871 -0.001729 0.015049 0.000000 0.000000 0.000000
# 4 0.000000 0.000000 0.000000 0.087646 0.000000 0.000000
# 5 0.000000 0.000000 0.000000 0.000000 0.053260 0.000000
# 6 0.000000 0.000000 0.000000 0.000000 0.000000 -0.418663
#
#
# Mechanical properties :
#
#
# Convention : Reuss Voigt Hill
#
# Bulk Modulus (GPa) = 33.44848 39.22886 36.33867
# Shear Modulus (GPa) = -26.73086 17.92486 -4.40300
#
# Velocity S-wave (km/s) = -3.58696 2.93730 -1.45578
# Velocity P-wave (km/s) = 1.02732 5.51231 3.82950
#
# Compressibility (1/GPa) = 0.02989673
#
# Stress axis : x y z
#
# Youngs Moduli (GPa) = 32.87980 101.46726 66.44771
#
# Poissons Ratio (x) = 0.01124 0.72234
# Poissons Ratio (y) = 0.00364 0.11491
# Poissons Ratio (z) = 0.35743 0.17547
#
# Static dielectric constant tensor:
#      x y z
#    x 1.721950 0.000000 0.000000 
#    y 0.000000 1.800830 0.000000 
#    z 0.000000 0.000000 1.751580 
# 
# From -- ./inp_files/12103.got.cif
#   From: 2010.05.17/outbox.cif.g08.bks.cpg/sg62_7_cif.got.tgz:12103.got - 2010.06.03 15:25:27.
