data_PCOD9463683
_publ_section_title
;
Structure prediction by ZEFSAII (Michael W. Deem and Ramdas Pophale) SiO2 
 PCOD9463683
Probable space group: P N M A
;
_chemical_formula_sum "Si O2"
_cell_formula_units_Z 44
_cell_length_a 5.169930
_cell_length_b 24.206561
_cell_length_c 15.868763
_cell_angle_alpha 90.000000
_cell_angle_beta 90.000000
_cell_angle_gamma 90.000000
_cell_volume 1985.915799
_symmetry_space_group_name_H-M "P N M A"
_symmetry_group_IT_number 62
_symmetry_cell_setting 'orthorhombic'
loop_
_space_group_symop_operation_xyz
x,y,z
1/2-x,-y,1/2+z
1/2+x,1/2-y,1/2-z
-x,1/2+y,-z
-x,-y,-z
1/2+x,y,1/2-z
1/2-x,1/2+y,1/2+z
x,1/2-y,z
loop_
_atom_site_type_symbol
_atom_site_label
_atom_site_fract_x
_atom_site_fract_y
_atom_site_fract_z
Si Si1 0.946097 0.911964 0.445439
Si Si2 0.028476 0.185920 0.124566
Si Si3 0.063088 0.992122 0.300515
Si Si4 0.494516 0.250000 0.695870
Si Si5 0.481291 0.886302 0.858747
Si Si6 0.938939 0.845911 0.069323
O O1 0.001644 0.909585 0.545095
O O2 0.150868 0.866818 0.410783
O O3 0.647547 0.895203 0.434702
O O4 0.008582 0.966267 0.392037
O O5 0.031870 0.250000 0.150709
O O6 0.761731 0.154824 0.144059
O O7 0.264455 0.149577 0.160038
O O8 0.060924 0.182374 0.022810
O O9 0.336190 0.973919 0.262669
O O10 0.054511 0.058512 0.305313
O O11 0.282148 0.250000 0.767821
O O12 0.463169 0.196698 0.637820
#
# Coordination Sequence:
#
# PCOD9463683 Si02
#       6
#     8   8   8   4   8   8
#     4  10  22  39  63  85 115 156 203 249 284 347
#     4  10  19  37  65  89 116 146 197 253 296 342
#     4  12  25  41  62  87 123 160 196 245 306 363
#     4  12  24  34  50  76 122 166 188 234 292 346
#     4  10  22  39  63  92 118 155 199 250 294 350
#     4  10  21  37  55  85 115 149 203 246 280 341
#
# _framework density 22.156025
#
# number of rings (size 3 to 8) (size 9 to 14) (size 15 to 20)
#    0.000    1.455    0.909    4.364    0.000    4.364 
#    0.000    7.273    0.000   10.909    0.000    0.000 
#    0.000    0.000    0.000    0.000    0.000    0.000 
#
# Total GULP energy -246160.007964 kJ/mol
# GULP energy per Si atom -5594.545636 kJ/mol
# Density = 2.210560 g / cm^3
# Si number density = 22.156025 Si / 1000 Ang^3
#
#
#
# Elastic Constant Matrix: (Units=GPa)
#
#
# Indices 1 2 3 4 5 6 
#
# 1 85.3996 11.9492 -0.6469 0.0000 0.0000 0.0000
# 2 11.9492 72.1956 31.0366 0.0000 0.0000 0.0000
# 3 -0.6469 31.0366 57.4704 0.0000 0.0000 0.0000
# 4 0.0000 0.0000 0.0000 12.7634 0.0000 0.0000
# 5 0.0000 0.0000 0.0000 0.0000 -21.2742 0.0000
# 6 0.0000 0.0000 0.0000 0.0000 0.0000 17.4568
#
#
#
# Elastic Compliance Matrix: (Units=1/GPa)
#
#
# Indices 1 2 3 4 5 6 
#
# 1 0.012097 -0.002684 0.001586 0.000000 0.000000 0.000000
# 2 -0.002684 0.018635 -0.010094 0.000000 0.000000 0.000000
# 3 0.001586 -0.010094 0.022869 0.000000 0.000000 0.000000
# 4 0.000000 0.000000 0.000000 0.078349 0.000000 0.000000
# 5 0.000000 0.000000 0.000000 0.000000 -0.047005 0.000000
# 6 0.000000 0.000000 0.000000 0.000000 0.000000 0.057284
#
#
# Mechanical properties :
#
#
# Convention : Reuss Voigt Hill
#
# Bulk Modulus (GPa) = 32.03386 33.30483 32.66935
# Shear Modulus (GPa) = 28.56829 13.30430 20.93629
#
# Velocity S-wave (km/s) = 3.59474 2.45313 3.07734
# Velocity P-wave (km/s) = 5.63198 4.80504 5.23486
#
# Compressibility (1/GPa) = 0.03121697
#
# Stress axis : x y z
#
# Youngs Moduli (GPa) = 82.66382 53.66313 43.72687
#
# Poissons Ratio (x) = 0.14402 -0.06933
# Poissons Ratio (y) = 0.22186 0.44137
# Poissons Ratio (z) = -0.13107 0.54167
#
# Static dielectric constant tensor:
#      x y z
#    x 1.759260 0.000000 0.000000 
#    y 0.000000 1.771550 0.000000 
#    z 0.000000 0.000000 1.806870 
# 
# From -- ./inp_files/25283.got.cif
#   From: 2010.05.17/outbox.cif.g08.bks.cpg/sg62_13_cif.got.tgz:25283.got - 2010.06.03 15:25:27.
