data_PCOD9463254
_publ_section_title
;
Structure prediction by ZEFSAII (Michael W. Deem and Ramdas Pophale) SiO2 
 PCOD9463254
Probable space group: P N M A
;
_chemical_formula_sum "Si O2"
_cell_formula_units_Z 60
_cell_length_a 14.915403
_cell_length_b 9.399442
_cell_length_c 18.784509
_cell_angle_alpha 90.000000
_cell_angle_beta 90.000000
_cell_angle_gamma 90.000000
_cell_volume 2633.521766
_symmetry_space_group_name_H-M "P N M A"
_symmetry_group_IT_number 62
_symmetry_cell_setting 'orthorhombic'
loop_
_space_group_symop_operation_xyz
x,y,z
1/2-x,-y,1/2+z
1/2+x,1/2-y,1/2-z
-x,1/2+y,-z
-x,-y,-z
1/2+x,y,1/2-z
1/2-x,1/2+y,1/2+z
x,1/2-y,z
loop_
_atom_site_type_symbol
_atom_site_label
_atom_site_fract_x
_atom_site_fract_y
_atom_site_fract_z
Si Si1 0.038482 0.078849 0.212413
Si Si2 0.120386 0.411976 0.841916
Si Si3 0.132551 0.465827 0.000593
Si Si4 0.527603 0.750000 0.524332
Si Si5 0.222582 0.086353 0.278290
Si Si6 0.395962 0.907388 0.922351
Si Si7 0.034533 0.081050 0.649441
Si Si8 0.788726 0.912814 0.429630
O O1 0.028289 0.250000 0.204977
O O2 0.144528 0.046493 0.221533
O O3 0.974030 0.997553 0.157031
O O4 0.995938 0.016395 0.285078
O O5 0.102909 0.250000 0.820006
O O6 0.158700 0.411092 0.921970
O O7 0.191986 0.486888 0.790439
O O8 0.102827 0.626290 0.986370
O O9 0.051563 0.371064 0.026832
O O10 0.210112 0.475617 0.058819
O O11 0.250437 0.250000 0.265362
O O12 0.170581 0.083992 0.354486
O O13 0.439500 0.750000 0.918385
O O14 0.468803 0.030591 0.913752
O O15 0.340280 0.913004 0.994522
O O16 0.023228 0.250000 0.662186
O O17 0.136431 0.052054 0.628225
O O18 0.758564 0.750000 0.415216
#
# Coordination Sequence:
#
# PCOD9463254 Si02
#       8
#     8   8   8   4   8   8   8   8
#     4  10  23  43  64  87 124 170 211 261 316 376
#     4  12  24  39  67  99 124 158 213 260 318 374
#     4  11  22  43  64  95 121 162 205 262 310 373
#     4  10  24  42  64  84 126 154 194 254 318 350
#     4   9  19  37  63  91 119 157 206 258 303 370
#     4   9  17  32  54  87 122 159 198 243 295 364
#     4  10  20  35  55  86 128 166 195 245 317 358
#     4  10  19  34  60  88 121 163 206 243 304 371
#
# _framework density 22.783177999999999
#
# number of rings (size 3 to 8) (size 9 to 14) (size 15 to 20)
#    0.000    1.867    2.667    2.400    1.867    2.667 
#    3.600    2.667    2.933    0.000    0.000    0.000 
#    0.000    0.000    0.000    0.000    0.000    0.000 
#
# Total GULP energy -334208.428668 kJ/mol
# GULP energy per Si atom -5570.140478 kJ/mol
# Density = 2.273132 g / cm^3
# Si number density = 22.783178 Si / 1000 Ang^3
#
#
#
# Elastic Constant Matrix: (Units=GPa)
#
#
# Indices 1 2 3 4 5 6 
#
# 1 81.0016 52.0931 18.4474 0.0000 0.0000 0.0000
# 2 52.0931 143.6720 17.1435 0.0000 0.0000 0.0000
# 3 18.4474 17.1435 67.3420 0.0000 0.0000 0.0000
# 4 0.0000 0.0000 0.0000 -0.1494 0.0000 0.0000
# 5 0.0000 0.0000 0.0000 0.0000 26.5369 0.0000
# 6 0.0000 0.0000 0.0000 0.0000 0.0000 68.8924
#
#
#
# Elastic Compliance Matrix: (Units=1/GPa)
#
#
# Indices 1 2 3 4 5 6 
#
# 1 0.016716 -0.005687 -0.003131 0.000000 0.000000 0.000000
# 2 -0.005687 0.009113 -0.000762 0.000000 0.000000 0.000000
# 3 -0.003131 -0.000762 0.015901 0.000000 0.000000 0.000000
# 4 0.000000 0.000000 0.000000 -6.693772 0.000000 0.000000
# 5 0.000000 0.000000 0.000000 0.000000 0.037683 0.000000
# 6 0.000000 0.000000 0.000000 0.000000 0.000000 0.014515
#
#
# Mechanical properties :
#
#
# Convention : Reuss Voigt Hill
#
# Bulk Modulus (GPa) = 44.30770 51.93153 48.11961
# Shear Modulus (GPa) = -0.76067 32.67807 15.95870
#
# Velocity S-wave (km/s) = -0.57844 3.79133 2.64949
# Velocity P-wave (km/s) = 4.36390 6.48143 5.52506
#
# Compressibility (1/GPa) = 0.02256944
#
# Stress axis : x y z
#
# Youngs Moduli (GPa) = 59.82228 109.72884 62.88768
#
# Poissons Ratio (x) = 0.62407 0.19692
# Poissons Ratio (y) = 0.34023 0.04792
# Poissons Ratio (z) = 0.18732 0.08362
#
# Static dielectric constant tensor:
#      x y z
#    x 1.857570 0.000000 0.000000 
#    y 0.000000 1.791400 0.000000 
#    z 0.000000 0.000000 1.983120 
# 
# From -- ./inp_files/29670.got.cif
#   From: 2010.05.17/outbox.cif.g08.bks.cpg/sg62_15_cif.got.tgz:29670.got - 2010.06.03 15:25:27.
