data_PCOD9463717
_publ_section_title
;
Structure prediction by ZEFSAII (Michael W. Deem and Ramdas Pophale) SiO2 
 PCOD9463717
Probable space group: P N M A
;
_chemical_formula_sum "Si O2"
_cell_formula_units_Z 64
_cell_length_a 28.521727
_cell_length_b 12.952017
_cell_length_c 8.836154
_cell_angle_alpha 90.000000
_cell_angle_beta 90.000000
_cell_angle_gamma 90.000000
_cell_volume 3264.198048
_symmetry_space_group_name_H-M "P N M A"
_symmetry_group_IT_number 62
_symmetry_cell_setting 'orthorhombic'
loop_
_space_group_symop_operation_xyz
x,y,z
1/2-x,-y,1/2+z
1/2+x,1/2-y,1/2-z
-x,1/2+y,-z
-x,-y,-z
1/2+x,y,1/2-z
1/2-x,1/2+y,1/2+z
x,1/2-y,z
loop_
_atom_site_type_symbol
_atom_site_label
_atom_site_fract_x
_atom_site_fract_y
_atom_site_fract_z
Si Si1 0.036571 0.044544 0.620477
Si Si2 0.635752 0.127716 0.989180
Si Si3 0.277038 0.368277 0.937288
Si Si4 0.213252 0.013926 0.711012
Si Si5 0.139693 0.956698 0.279069
Si Si6 0.457380 0.369154 0.684324
Si Si7 0.561896 0.865889 0.651412
Si Si8 0.831528 0.131255 0.040489
O O1 0.082010 0.100326 0.552686
O O2 0.005747 0.117110 0.729101
O O3 0.053024 0.947450 0.719405
O O4 0.000000 0.000000 0.500000
O O5 0.642803 0.250000 0.996752
O O6 0.646451 0.069433 0.148031
O O7 0.669669 0.076021 0.862953
O O8 0.267259 0.250000 0.974030
O O9 0.248070 0.406315 0.791528
O O10 0.331982 0.383259 0.895062
O O11 0.266129 0.445225 0.075006
O O12 0.198704 0.932541 0.840498
O O13 0.084651 0.932196 0.262738
O O14 0.161110 0.931141 0.115188
O O15 0.441724 0.250000 0.684975
O O16 0.461660 0.397814 0.507834
O O17 0.546035 0.750000 0.692219
O O18 0.616855 0.862243 0.613736
O O19 0.815544 0.250000 0.012834
#
# Coordination Sequence:
#
# PCOD9463717 Si02
#       8
#     8   8   8   8   8   8   8   8
#     4  12  22  38  58  90 124 163 211 256 301 371
#     4  11  24  43  60  86 132 175 208 252 309 370
#     4  11  23  40  64  94 123 159 202 250 306 363
#     4  11  23  42  65  94 127 158 205 253 310 377
#     4  10  21  40  62  90 121 155 205 256 302 359
#     4  10  20  37  61  87 120 159 201 255 308 361
#     4   9  20  37  59  87 118 156 202 252 305 358
#     4  10  19  38  67  93 119 154 195 252 312 361
#
# _framework density 19.606653999999999
#
# number of rings (size 3 to 8) (size 9 to 14) (size 15 to 20)
#    0.000    1.500    2.500    4.125    0.000    1.000 
#    0.000    9.375    0.000    0.000    0.000    0.000 
#    0.000    0.000    0.000    0.000    0.000    0.000 
#
# Total GULP energy -357332.762751 kJ/mol
# GULP energy per Si atom -5583.324418 kJ/mol
# Density = 1.956203 g / cm^3
# Si number density = 19.606654 Si / 1000 Ang^3
#
#
#
# Elastic Constant Matrix: (Units=GPa)
#
#
# Indices 1 2 3 4 5 6 
#
# 1 58.0906 35.2796 21.7702 0.0000 0.0000 0.0000
# 2 35.2796 128.6163 49.3990 0.0000 0.0000 0.0000
# 3 21.7702 49.3990 75.8268 0.0000 0.0000 0.0000
# 4 0.0000 0.0000 0.0000 21.8191 0.0000 0.0000
# 5 0.0000 0.0000 0.0000 0.0000 31.0372 0.0000
# 6 0.0000 0.0000 0.0000 0.0000 0.0000 23.4742
#
#
#
# Elastic Compliance Matrix: (Units=1/GPa)
#
#
# Indices 1 2 3 4 5 6 
#
# 1 0.021175 -0.004633 -0.003062 0.000000 0.000000 0.000000
# 2 -0.004633 0.011383 -0.006086 0.000000 0.000000 0.000000
# 3 -0.003062 -0.006086 0.018032 0.000000 0.000000 0.000000
# 4 0.000000 0.000000 0.000000 0.045831 0.000000 0.000000
# 5 0.000000 0.000000 0.000000 0.000000 0.032219 0.000000
# 6 0.000000 0.000000 0.000000 0.000000 0.000000 0.042600
#
#
# Mechanical properties :
#
#
# Convention : Reuss Voigt Hill
#
# Bulk Modulus (GPa) = 43.42096 52.82572 48.12334
# Shear Modulus (GPa) = 24.21570 25.67175 24.94372
#
# Velocity S-wave (km/s) = 3.51818 3.62240 3.57067
# Velocity P-wave (km/s) = 6.22073 6.67061 6.44959
#
# Compressibility (1/GPa) = 0.02303035
#
# Stress axis : x y z
#
# Youngs Moduli (GPa) = 47.22492 87.84862 55.45794
#
# Poissons Ratio (x) = 0.40696 0.16979
# Poissons Ratio (y) = 0.21877 0.33751
# Poissons Ratio (z) = 0.14458 0.53463
#
# Static dielectric constant tensor:
#      x y z
#    x 1.700260 0.000000 0.000000 
#    y 0.000000 1.671480 0.000000 
#    z 0.000000 0.000000 1.696440 
# 
# From -- ./inp_files/10479.got.cif
#   From: 2010.05.17/outbox.cif.g08.bks.cpg/sg62_6_cif.got.tgz:10479.got - 2010.06.03 15:25:27.
