data_PCOD9463152
_publ_section_title
;
Structure prediction by ZEFSAII (Michael W. Deem and Ramdas Pophale) SiO2 
 PCOD9463152
Probable space group: P N M A
;
_chemical_formula_sum "Si O2"
_cell_formula_units_Z 56
_cell_length_a 20.913045
_cell_length_b 15.358718
_cell_length_c 9.461449
_cell_angle_alpha 90.000000
_cell_angle_beta 90.000000
_cell_angle_gamma 90.000000
_cell_volume 3038.994339
_symmetry_space_group_name_H-M "P N M A"
_symmetry_group_IT_number 62
_symmetry_cell_setting 'orthorhombic'
loop_
_space_group_symop_operation_xyz
x,y,z
1/2-x,-y,1/2+z
1/2+x,1/2-y,1/2-z
-x,1/2+y,-z
-x,-y,-z
1/2+x,y,1/2-z
1/2-x,1/2+y,1/2+z
x,1/2-y,z
loop_
_atom_site_type_symbol
_atom_site_label
_atom_site_fract_x
_atom_site_fract_y
_atom_site_fract_z
Si Si1 0.267001 0.350112 0.764526
Si Si2 0.278316 0.849409 0.938938
Si Si3 0.389056 0.536383 0.045966
Si Si4 0.573461 0.031428 0.492928
Si Si5 0.315716 0.016051 0.306567
Si Si6 0.593888 0.565447 0.220033
Si Si7 0.462755 0.650548 0.275845
O O1 0.259245 0.250000 0.813741
O O2 0.252558 0.350147 0.596351
O O3 0.218295 0.421746 0.827970
O O4 0.338389 0.386047 0.786968
O O5 0.282580 0.750000 0.891155
O O6 0.234698 0.909518 0.840930
O O7 0.346786 0.894382 0.959629
O O8 0.340652 0.482436 0.146214
O O9 0.432497 0.588057 0.156988
O O10 0.421868 0.474026 0.933089
O O11 0.568191 0.123555 0.573649
O O12 0.500000 0.000000 0.500000
O O13 0.623306 0.977814 0.589921
O O14 0.595743 0.013564 0.333846
O O15 0.538210 0.629856 0.272830
O O16 0.449355 0.750000 0.242907
#
# Coordination Sequence:
#
# PCOD9463152 Si02
#       7
#     8   8   8   8   8   8   8
#     4  10  20  33  58  86 112 152 199 242 294 354
#     4  10  19  34  56  81 110 155 198 237 289 348
#     4  10  21  35  59  81 118 156 195 233 300 355
#     4   9  20  36  60  83 109 150 196 243 297 347
#     4  10  19  36  56  81 119 153 192 246 294 355
#     4  11  19  36  60  85 115 150 196 244 300 350
#     4  10  21  38  58  84 115 153 200 245 291 354
#
# _framework density 18.427149
#
# number of rings (size 3 to 8) (size 9 to 14) (size 15 to 20)
#    0.000    2.000    2.857    1.286    0.000    3.429 
#    0.000    2.857    0.000    0.000    0.000    0.000 
#    0.000    0.000    0.000    0.000    0.000    0.000 
#
# Total GULP energy -312102.598972 kJ/mol
# GULP energy per Si atom -5573.260696 kJ/mol
# Density = 1.838521 g / cm^3
# Si number density = 18.427149 Si / 1000 Ang^3
#
#
#
# Elastic Constant Matrix: (Units=GPa)
#
#
# Indices 1 2 3 4 5 6 
#
# 1 60.5807 10.0578 3.9514 0.0000 0.0000 0.0000
# 2 10.0578 58.1831 15.2519 0.0000 0.0000 0.0000
# 3 3.9514 15.2519 50.3960 0.0000 0.0000 0.0000
# 4 0.0000 0.0000 0.0000 20.6115 0.0000 0.0000
# 5 0.0000 0.0000 0.0000 0.0000 27.7705 0.0000
# 6 0.0000 0.0000 0.0000 0.0000 0.0000 15.4613
#
#
#
# Elastic Compliance Matrix: (Units=1/GPa)
#
#
# Indices 1 2 3 4 5 6 
#
# 1 0.017005 -0.002813 -0.000482 0.000000 0.000000 0.000000
# 2 -0.002813 0.019134 -0.005570 0.000000 0.000000 0.000000
# 3 -0.000482 -0.005570 0.021566 0.000000 0.000000 0.000000
# 4 0.000000 0.000000 0.000000 0.048517 0.000000 0.000000
# 5 0.000000 0.000000 0.000000 0.000000 0.036009 0.000000
# 6 0.000000 0.000000 0.000000 0.000000 0.000000 0.064678
#
#
# Mechanical properties :
#
#
# Convention : Reuss Voigt Hill
#
# Bulk Modulus (GPa) = 25.01571 25.29797 25.15684
# Shear Modulus (GPa) = 21.01154 22.09525 21.55339
#
# Velocity S-wave (km/s) = 3.38042 3.46650 3.42373
# Velocity P-wave (km/s) = 5.37041 5.45716 5.41396
#
# Compressibility (1/GPa) = 0.03997488
#
# Stress axis : x y z
#
# Youngs Moduli (GPa) = 58.80483 52.26423 46.36853
#
# Poissons Ratio (x) = 0.14703 0.02235
# Poissons Ratio (y) = 0.16544 0.25827
# Poissons Ratio (z) = 0.02834 0.29111
#
# Static dielectric constant tensor:
#      x y z
#    x 1.650360 0.000000 0.000000 
#    y 0.000000 1.624850 0.000000 
#    z 0.000000 0.000000 1.643930 
# 
# From -- ./inp_files/8703.got.cif
#   From: 2010.05.17/outbox.cif.g08.bks.cpg/sg62_5_cif.got.tgz:8703.got - 2010.06.03 15:25:27.
