data_PCOD9463129
_publ_section_title
;
Structure prediction by ZEFSAII (Michael W. Deem and Ramdas Pophale) SiO2 
 PCOD9463129
Probable space group: P N M A
;
_chemical_formula_sum "Si O2"
_cell_formula_units_Z 48
_cell_length_a 9.210998
_cell_length_b 7.737601
_cell_length_c 31.733488
_cell_angle_alpha 90.000000
_cell_angle_beta 90.000000
_cell_angle_gamma 90.000000
_cell_volume 2261.678291
_symmetry_space_group_name_H-M "P N M A"
_symmetry_group_IT_number 62
_symmetry_cell_setting 'orthorhombic'
loop_
_space_group_symop_operation_xyz
x,y,z
1/2-x,-y,1/2+z
1/2+x,1/2-y,1/2-z
-x,1/2+y,-z
-x,-y,-z
1/2+x,y,1/2-z
1/2-x,1/2+y,1/2+z
x,1/2-y,z
loop_
_atom_site_type_symbol
_atom_site_label
_atom_site_fract_x
_atom_site_fract_y
_atom_site_fract_z
Si Si1 0.100280 0.037929 0.707014
Si Si2 0.565576 0.960899 0.291627
Si Si3 0.079102 0.950078 0.372946
Si Si4 0.089904 0.956554 0.041769
Si Si5 0.924793 0.448238 0.456339
Si Si6 0.906894 0.538123 0.122555
O O1 0.103160 0.250000 0.706432
O O2 0.016647 0.984700 0.749273
O O3 0.267476 0.981957 0.707425
O O4 0.014959 0.976215 0.665506
O O5 0.565895 0.750000 0.291433
O O6 0.481219 0.014147 0.333715
O O7 0.103235 0.750000 0.361184
O O8 0.240460 0.023295 0.379135
O O9 0.990093 0.954227 0.416236
O O10 0.103538 0.750000 0.044789
O O11 0.001176 0.019547 0.082578
O O12 0.252358 0.028489 0.040219
O O13 0.000000 0.000000 0.000000
O O14 0.959410 0.250000 0.448277
O O15 0.000000 0.500000 0.500000
O O16 0.907119 0.750000 0.120968
#
# Coordination Sequence:
#
# PCOD9463129 Si02
#       6
#     8   8   8   8   8   8
#     4   9  16  25  44  73 110 148 184 227 277 329
#     4   9  15  25  41  71 110 147 184 227 276 327
#     4  10  19  34  55  82 112 145 183 229 281 337
#     4  11  22  38  59  85 116 152 190 234 283 337
#     4  12  25  41  60  83 110 145 186 234 287 345
#     4   9  18  31  51  78 111 145 183 229 279 331
#
# _framework density 21.223178000000001
#
# number of rings (size 3 to 8) (size 9 to 14) (size 15 to 20)
#    0.000    2.000    0.000    5.000    0.000    8.000 
#    0.000    0.833    0.000    0.000    0.000   11.667 
#    0.000    0.000    0.000    0.000    0.000    0.000 
#
# Total GULP energy -268291.171740 kJ/mol
# GULP energy per Si atom -5589.399411 kJ/mol
# Density = 2.117487 g / cm^3
# Si number density = 21.223178 Si / 1000 Ang^3
#
#
#
# Elastic Constant Matrix: (Units=GPa)
#
#
# Indices 1 2 3 4 5 6 
#
# 1 208.2152 -12.8807 109.2410 0.0000 0.0000 0.0000
# 2 -12.8807 33.7587 -18.9263 0.0000 0.0000 0.0000
# 3 109.2410 -18.9263 197.6731 0.0000 0.0000 0.0000
# 4 0.0000 0.0000 0.0000 9.1228 0.0000 0.0000
# 5 0.0000 0.0000 0.0000 0.0000 45.2520 0.0000
# 6 0.0000 0.0000 0.0000 0.0000 0.0000 11.1106
#
#
#
# Elastic Compliance Matrix: (Units=1/GPa)
#
#
# Indices 1 2 3 4 5 6 
#
# 1 0.006772 0.000513 -0.003693 0.000000 0.000000 0.000000
# 2 0.000513 0.031341 0.002717 0.000000 0.000000 0.000000
# 3 -0.003693 0.002717 0.007360 0.000000 0.000000 0.000000
# 4 0.000000 0.000000 0.000000 0.109615 0.000000 0.000000
# 5 0.000000 0.000000 0.000000 0.000000 0.022098 0.000000
# 6 0.000000 0.000000 0.000000 0.000000 0.000000 0.090004
#
#
# Mechanical properties :
#
#
# Convention : Reuss Voigt Hill
#
# Bulk Modulus (GPa) = 22.44800 66.05723 44.25261
# Shear Modulus (GPa) = 17.66993 37.24462 27.45727
#
# Velocity S-wave (km/s) = 2.88857 4.19370 3.60076
# Velocity P-wave (km/s) = 4.66103 7.39203 6.17929
#
# Compressibility (1/GPa) = 0.04454740
#
# Stress axis : x y z
#
# Youngs Moduli (GPa) = 147.66135 31.90699 135.86722
#
# Poissons Ratio (x) = -0.01638 0.50182
# Poissons Ratio (y) = -0.07579 -0.36917
# Poissons Ratio (z) = 0.54538 -0.08669
#
# Static dielectric constant tensor:
#      x y z
#    x 1.676270 0.000000 0.000000 
#    y 0.000000 1.843020 0.000000 
#    z 0.000000 0.000000 1.346540 
# 
# From -- ./inp_files/32025.got.cif
#   From: 2010.05.17/outbox.cif.g08.bks.cpg/sg62_17_cif.got.tgz:32025.got - 2010.06.03 15:25:27.
