data_PCOD9463434
_publ_section_title
;
Structure prediction by ZEFSAII (Michael W. Deem and Ramdas Pophale) SiO2 
 PCOD9463434
Probable space group: P N M A
;
_chemical_formula_sum "Si O2"
_cell_formula_units_Z 64
_cell_length_a 19.124899
_cell_length_b 8.718930
_cell_length_c 19.710538
_cell_angle_alpha 90.000000
_cell_angle_beta 90.000000
_cell_angle_gamma 90.000000
_cell_volume 3286.705713
_symmetry_space_group_name_H-M "P N M A"
_symmetry_group_IT_number 62
_symmetry_cell_setting 'orthorhombic'
loop_
_space_group_symop_operation_xyz
x,y,z
1/2-x,-y,1/2+z
1/2+x,1/2-y,1/2-z
-x,1/2+y,-z
-x,-y,-z
1/2+x,y,1/2-z
1/2-x,1/2+y,1/2+z
x,1/2-y,z
loop_
_atom_site_type_symbol
_atom_site_label
_atom_site_fract_x
_atom_site_fract_y
_atom_site_fract_z
Si Si1 0.950481 0.565806 0.150569
Si Si2 0.280970 0.935158 0.706764
Si Si3 0.662661 0.066414 0.543460
Si Si4 0.404515 0.568208 0.602987
Si Si5 0.314526 0.568718 0.972196
Si Si6 0.638356 0.566372 0.168469
Si Si7 0.021348 0.064734 0.698720
Si Si8 0.853080 0.433913 0.381360
O O1 0.948722 0.750000 0.150723
O O2 0.885247 0.514447 0.105795
O O3 0.023435 0.515150 0.118115
O O4 0.950310 0.513087 0.228048
O O5 0.280152 0.750000 0.711551
O O6 0.342702 0.980339 0.654125
O O7 0.207524 0.983715 0.672486
O O8 0.303488 0.002124 0.779418
O O9 0.677775 0.250000 0.549434
O O10 0.620485 0.044462 0.473721
O O11 0.733730 0.974280 0.538698
O O12 0.414923 0.750000 0.612930
O O13 0.325213 0.750000 0.973504
O O14 0.336568 0.497999 0.044208
O O15 0.352821 0.496589 0.907251
O O16 0.643743 0.750000 0.168078
O O17 0.560338 0.523016 0.193395
O O18 0.025513 0.250000 0.694157
O O19 0.071719 0.991911 0.643166
O O20 0.851025 0.250000 0.383996
#
# Coordination Sequence:
#
# PCOD9463434 Si02
#       8
#     8   8   8   8   8   8   8   8
#     4  10  21  37  59  90 128 165 210 257 303 367
#     4  10  21  39  63  93 127 161 205 253 301 366
#     4  10  21  39  60  89 129 169 206 254 311 365
#     4  10  19  35  60  88 127 168 204 250 305 368
#     4  12  26  43  65  93 124 159 210 263 308 371
#     4  11  24  43  67  91 125 166 207 256 312 368
#     4  10  23  42  62  93 125 160 211 260 307 366
#     4  11  24  44  68  93 126 165 205 254 315 371
#
# _framework density 19.472387000000001
#
# number of rings (size 3 to 8) (size 9 to 14) (size 15 to 20)
#    0.000    1.500    2.500    2.250    1.750    4.000 
#    0.000    0.000    0.000    0.000    0.000    0.000 
#    0.000    0.000    0.000    0.000    0.000    0.000 
#
# Total GULP energy -357693.751198 kJ/mol
# GULP energy per Si atom -5588.964862 kJ/mol
# Density = 1.942807 g / cm^3
# Si number density = 19.472387 Si / 1000 Ang^3
#
#
#
# Elastic Constant Matrix: (Units=GPa)
#
#
# Indices 1 2 3 4 5 6 
#
# 1 -437.6133 -69.3975 337.0203 0.0000 0.0000 0.0000
# 2 -69.3975 10.4122 84.9876 0.0000 0.0000 0.0000
# 3 337.0203 84.9876 -89.2265 0.0000 0.0000 0.0000
# 4 0.0000 0.0000 0.0000 32.5360 0.0000 0.0000
# 5 0.0000 0.0000 0.0000 0.0000 35.2816 0.0000
# 6 0.0000 0.0000 0.0000 0.0000 0.0000 20.9277
#
#
#
# Elastic Compliance Matrix: (Units=1/GPa)
#
#
# Indices 1 2 3 4 5 6 
#
# 1 0.007022 -0.019337 0.008103 0.000000 0.000000 0.000000
# 2 -0.019337 0.064201 -0.011889 0.000000 0.000000 0.000000
# 3 0.008103 -0.011889 0.008073 0.000000 0.000000 0.000000
# 4 0.000000 0.000000 0.000000 0.030735 0.000000 0.000000
# 5 0.000000 0.000000 0.000000 0.000000 0.028343 0.000000
# 6 0.000000 0.000000 0.000000 0.000000 0.000000 0.047784
#
#
# Mechanical properties :
#
#
# Convention : Reuss Voigt Hill
#
# Bulk Modulus (GPa) = 30.25980 20.97701 25.61841
# Shear Modulus (GPa) = 20.54049 -40.18680 -9.82316
#
# Velocity S-wave (km/s) = 3.25137 -4.54782 -2.24847
# Velocity P-wave (km/s) = 5.44691 4.09643 2.53851
#
# Compressibility (1/GPa) = 0.03304714
#
# Stress axis : x y z
#
# Youngs Moduli (GPa) = 142.41778 15.57610 123.87031
#
# Poissons Ratio (x) = 0.30120 -1.00368
# Poissons Ratio (y) = 2.75400 1.47274
# Poissons Ratio (z) = -1.15397 0.18519
#
# Static dielectric constant tensor:
#      x y z
#    x 1.662440 0.000000 0.000000 
#    y 0.000000 1.656240 0.000000 
#    z 0.000000 0.000000 1.680300 
# 
# From -- ./inp_files/27769.got.cif
#   From: 2010.05.17/outbox.cif.g08.bks.cpg/sg62_14_cif.got.tgz:27769.got - 2010.06.03 15:25:27.
