data_PCOD9463438
_publ_section_title
;
Structure prediction by ZEFSAII (Michael W. Deem and Ramdas Pophale) SiO2 
 PCOD9463438
Probable space group: P N M A
;
_chemical_formula_sum "Si O2"
_cell_formula_units_Z 64
_cell_length_a 14.010241
_cell_length_b 12.685166
_cell_length_c 17.926876
_cell_angle_alpha 90.000000
_cell_angle_beta 90.000000
_cell_angle_gamma 90.000000
_cell_volume 3186.004430
_symmetry_space_group_name_H-M "P N M A"
_symmetry_group_IT_number 62
_symmetry_cell_setting 'orthorhombic'
loop_
_space_group_symop_operation_xyz
x,y,z
1/2-x,-y,1/2+z
1/2+x,1/2-y,1/2-z
-x,1/2+y,-z
-x,-y,-z
1/2+x,y,1/2-z
1/2-x,1/2+y,1/2+z
x,1/2-y,z
loop_
_atom_site_type_symbol
_atom_site_label
_atom_site_fract_x
_atom_site_fract_y
_atom_site_fract_z
Si Si1 0.576187 0.543582 0.559263
Si Si2 0.245057 0.627342 0.045840
Si Si3 0.374578 0.463170 0.960562
Si Si4 0.548175 0.131658 0.310698
Si Si5 0.870489 0.363413 0.298071
Si Si6 0.213778 0.960515 0.209869
Si Si7 0.504681 0.134801 0.071351
Si Si8 0.287249 0.629119 0.364225
O O1 0.500000 0.500000 0.500000
O O2 0.657524 0.602806 0.510997
O O3 0.512795 0.614366 0.614172
O O4 0.630022 0.454005 0.610140
O O5 0.272821 0.750000 0.038823
O O6 0.218800 0.603728 0.132131
O O7 0.325686 0.543418 0.019940
O O8 0.421271 0.546415 0.902952
O O9 0.294375 0.390291 0.926050
O O10 0.463518 0.396417 0.990916
O O11 0.591510 0.250000 0.311298
O O12 0.467788 0.128632 0.247571
O O13 0.621446 0.036475 0.296702
O O14 0.826012 0.250000 0.279694
O O15 0.800853 0.457875 0.286282
O O16 0.907768 0.364159 0.381965
O O17 0.234049 0.894225 0.285159
O O18 0.548226 0.250000 0.075310
O O19 0.321628 0.750000 0.364835
#
# Coordination Sequence:
#
# PCOD9463438 Si02
#       8
#     8   8   8   8   8   8   8   8
#     4  11  23  45  64  94 130 164 217 275 319 389
#     4  11  23  39  62  90 124 168 210 257 320 378
#     4  10  21  38  59  88 124 157 206 254 300 379
#     4  11  23  41  67  95 128 166 210 264 327 386
#     4  10  21  38  60  91 123 157 201 253 314 376
#     4  12  22  42  64  91 130 166 213 262 315 388
#     4  10  19  35  61  88 121 157 194 251 311 365
#     4  11  25  43  65  90 127 173 214 262 321 386
#
# _framework density 20.087857
#
# number of rings (size 3 to 8) (size 9 to 14) (size 15 to 20)
#    0.000    1.250    3.750    2.625    0.000    1.000 
#    0.000    1.250    0.000    0.000    0.000    0.000 
#    0.000    0.000    0.000    0.000    0.000    0.000 
#
# Total GULP energy -356738.542072 kJ/mol
# GULP energy per Si atom -5574.039720 kJ/mol
# Density = 2.004214 g / cm^3
# Si number density = 20.087857 Si / 1000 Ang^3
#
#
#
# Elastic Constant Matrix: (Units=GPa)
#
#
# Indices 1 2 3 4 5 6 
#
# 1 61.1492 10.6492 10.7248 0.0000 0.0000 0.0000
# 2 10.6492 91.3849 30.1731 0.0000 0.0000 0.0000
# 3 10.7248 30.1731 80.3382 0.0000 0.0000 0.0000
# 4 0.0000 0.0000 0.0000 12.6450 0.0000 0.0000
# 5 0.0000 0.0000 0.0000 0.0000 31.0675 0.0000
# 6 0.0000 0.0000 0.0000 0.0000 0.0000 78.4350
#
#
#
# Elastic Compliance Matrix: (Units=1/GPa)
#
#
# Indices 1 2 3 4 5 6 
#
# 1 0.016900 -0.001398 -0.001731 0.000000 0.000000 0.000000
# 2 -0.001398 0.012607 -0.004548 0.000000 0.000000 0.000000
# 3 -0.001731 -0.004548 0.014387 0.000000 0.000000 0.000000
# 4 0.000000 0.000000 0.000000 0.079083 0.000000 0.000000
# 5 0.000000 0.000000 0.000000 0.000000 0.032188 0.000000
# 6 0.000000 0.000000 0.000000 0.000000 0.000000 0.012749
#
#
# Mechanical properties :
#
#
# Convention : Reuss Voigt Hill
#
# Bulk Modulus (GPa) = 35.03877 37.32960 36.18419
# Shear Modulus (GPa) = 25.93594 36.51785 31.22689
#
# Velocity S-wave (km/s) = 3.59712 4.26832 3.94701
# Velocity P-wave (km/s) = 5.89347 6.55095 6.23089
#
# Compressibility (1/GPa) = 0.02853981
#
# Stress axis : x y z
#
# Youngs Moduli (GPa) = 59.16986 79.31850 69.50834
#
# Poissons Ratio (x) = 0.11088 0.12033
# Poissons Ratio (y) = 0.08271 0.31615
# Poissons Ratio (z) = 0.10243 0.36077
#
# Static dielectric constant tensor:
#      x y z
#    x 1.703380 0.000000 0.000000 
#    y 0.000000 1.717520 0.000000 
#    z 0.000000 0.000000 2.020460 
# 
# From -- ./inp_files/24036.got.cif
#   From: 2010.05.17/outbox.cif.g08.bks.cpg/sg62_13_cif.got.tgz:24036.got - 2010.06.03 15:25:27.
