data_PCOD9463030
_publ_section_title
;
Structure prediction by ZEFSAII (Michael W. Deem and Ramdas Pophale) SiO2 
 PCOD9463030
Probable space group: P N M A
;
_chemical_formula_sum "Si O2"
_cell_formula_units_Z 48
_cell_length_a 16.669640
_cell_length_b 18.099815
_cell_length_c 8.914211
_cell_angle_alpha 90.000000
_cell_angle_beta 90.000000
_cell_angle_gamma 90.000000
_cell_volume 2689.572567
_symmetry_space_group_name_H-M "P N M A"
_symmetry_group_IT_number 62
_symmetry_cell_setting 'orthorhombic'
loop_
_space_group_symop_operation_xyz
x,y,z
1/2-x,-y,1/2+z
1/2+x,1/2-y,1/2-z
-x,1/2+y,-z
-x,-y,-z
1/2+x,y,1/2-z
1/2-x,1/2+y,1/2+z
x,1/2-y,z
loop_
_atom_site_type_symbol
_atom_site_label
_atom_site_fract_x
_atom_site_fract_y
_atom_site_fract_z
Si Si1 0.427585 0.338591 0.267231
Si Si2 0.832640 0.332320 0.941422
Si Si3 0.298566 0.456241 0.798821
Si Si4 0.731940 0.907292 0.865216
Si Si5 0.449315 0.551022 0.888197
Si Si6 0.831163 0.832128 0.630252
O O1 0.443506 0.250000 0.247211
O O2 0.403446 0.350194 0.441394
O O3 0.348576 0.361809 0.171922
O O4 0.494982 0.397035 0.215962
O O5 0.846239 0.250000 0.881133
O O6 0.814819 0.389487 0.812359
O O7 0.752980 0.330994 0.043997
O O8 0.237345 0.516129 0.728738
O O9 0.384529 0.497054 0.812848
O O10 0.268415 0.428737 0.960670
O O11 0.806892 0.861396 0.796260
O O12 0.390078 0.613011 0.957058
O O13 0.500000 0.500000 0.000000
O O14 0.864299 0.750000 0.638323
#
# Coordination Sequence:
#
# PCOD9463030 Si02
#       6
#     8   8   8   8   8   8
#     4  10  20  36  57  80 110 150 189 227 279 341
#     4   9  20  37  57  81 111 150 191 236 281 328
#     4  11  21  36  56  87 114 145 190 239 284 339
#     4  10  19  33  57  82 110 142 189 233 279 331
#     4  11  21  34  54  87 113 148 187 231 284 340
#     4   9  19  37  58  80 112 151 188 230 285 337
#
# _framework density 17.846699999999998
#
# number of rings (size 3 to 8) (size 9 to 14) (size 15 to 20)
#    0.000    2.000    1.667    5.000    0.000    2.000 
#    0.000    0.000    0.000    0.000    0.000    0.000 
#    0.000    0.000    0.000    0.000    0.000    0.000 
#
# Total GULP energy -267237.455550 kJ/mol
# GULP energy per Si atom -5567.446991 kJ/mol
# Density = 1.780608 g / cm^3
# Si number density = 17.846700 Si / 1000 Ang^3
#
#
#
# Elastic Constant Matrix: (Units=GPa)
#
#
# Indices 1 2 3 4 5 6 
#
# 1 62.5303 29.8853 16.8705 0.0000 0.0000 0.0000
# 2 29.8853 132.7067 65.6030 0.0000 0.0000 0.0000
# 3 16.8705 65.6030 95.5487 0.0000 0.0000 0.0000
# 4 0.0000 0.0000 0.0000 24.7854 0.0000 0.0000
# 5 0.0000 0.0000 0.0000 0.0000 20.4144 0.0000
# 6 0.0000 0.0000 0.0000 0.0000 0.0000 23.5451
#
#
#
# Elastic Compliance Matrix: (Units=1/GPa)
#
#
# Indices 1 2 3 4 5 6 
#
# 1 0.017943 -0.003746 -0.000596 0.000000 0.000000 0.000000
# 2 -0.003746 0.012189 -0.007708 0.000000 0.000000 0.000000
# 3 -0.000596 -0.007708 0.015863 0.000000 0.000000 0.000000
# 4 0.000000 0.000000 0.000000 0.040346 0.000000 0.000000
# 5 0.000000 0.000000 0.000000 0.000000 0.048985 0.000000
# 6 0.000000 0.000000 0.000000 0.000000 0.000000 0.042472
#
#
# Mechanical properties :
#
#
# Convention : Reuss Voigt Hill
#
# Bulk Modulus (GPa) = 45.67020 57.27813 51.47416
# Shear Modulus (GPa) = 23.90086 25.64410 24.77248
#
# Velocity S-wave (km/s) = 3.66352 3.79477 3.72972
# Velocity P-wave (km/s) = 6.59856 7.16691 6.88860
#
# Compressibility (1/GPa) = 0.02189612
#
# Stress axis : x y z
#
# Youngs Moduli (GPa) = 55.73051 82.03928 63.03929
#
# Poissons Ratio (x) = 0.30733 0.03758
# Poissons Ratio (y) = 0.20878 0.48588
# Poissons Ratio (z) = 0.03322 0.63233
#
# Static dielectric constant tensor:
#      x y z
#    x 1.642980 0.000000 0.000000 
#    y 0.000000 1.644730 0.000000 
#    z 0.000000 0.000000 1.598990 
# 
# From -- ./inp_files/7803.got.cif
#   From: 2010.05.17/outbox.cif.g08.bks.cpg/sg62_4_cif.got.tgz:7803.got - 2010.06.03 15:25:27.
