data_PCOD9463759
_publ_section_title
;
Structure prediction by ZEFSAII (Michael W. Deem and Ramdas Pophale) SiO2 
 PCOD9463759
Probable space group: P N M A
;
_chemical_formula_sum "Si O2"
_cell_formula_units_Z 64
_cell_length_a 13.026365
_cell_length_b 18.375736
_cell_length_c 14.297593
_cell_angle_alpha 90.000000
_cell_angle_beta 90.000000
_cell_angle_gamma 90.000000
_cell_volume 3422.401172
_symmetry_space_group_name_H-M "P N M A"
_symmetry_group_IT_number 62
_symmetry_cell_setting 'orthorhombic'
loop_
_space_group_symop_operation_xyz
x,y,z
1/2-x,-y,1/2+z
1/2+x,1/2-y,1/2-z
-x,1/2+y,-z
-x,-y,-z
1/2+x,y,1/2-z
1/2-x,1/2+y,1/2+z
x,1/2-y,z
loop_
_atom_site_type_symbol
_atom_site_label
_atom_site_fract_x
_atom_site_fract_y
_atom_site_fract_z
Si Si1 0.438897 0.395686 0.505684
Si Si2 0.253395 0.666383 0.099304
Si Si3 0.395907 0.569597 0.771283
Si Si4 0.855419 0.836270 0.911906
Si Si5 0.444793 0.991230 0.348677
Si Si6 0.936546 0.663022 0.543995
Si Si7 0.238096 0.573921 0.286671
Si Si8 0.839707 0.337079 0.539882
O O1 0.347907 0.343342 0.535990
O O2 0.542754 0.356889 0.470739
O O3 0.469847 0.446902 0.592881
O O4 0.404283 0.448173 0.421281
O O5 0.262864 0.750000 0.130603
O O6 0.240981 0.614012 0.187555
O O7 0.352365 0.648341 0.036282
O O8 0.362012 0.620721 0.685182
O O9 0.501570 0.531346 0.737685
O O10 0.411282 0.616279 0.864462
O O11 0.314710 0.504826 0.782425
O O12 0.853295 0.750000 0.895504
O O13 0.753932 0.856726 0.970365
O O14 0.354618 0.938177 0.319352
O O15 0.932496 0.750000 0.564838
O O16 0.050322 0.646049 0.505767
O O17 0.178282 0.621657 0.363201
O O18 0.835251 0.250000 0.555162
#
# Coordination Sequence:
#
# PCOD9463759 Si02
#       8
#     8   8   8   8   8   8   8   8
#     4  10  19  41  63  87 120 156 203 258 303 356
#     4  11  24  41  63  89 123 166 208 254 306 362
#     4  11  24  39  64  94 125 163 202 254 315 378
#     4  10  21  40  67  93 120 160 208 257 308 367
#     4  10  22  38  59  91 122 156 200 255 310 361
#     4  10  24  45  64  91 130 167 208 256 309 374
#     4  12  24  39  61  92 126 163 206 255 308 374
#     4  10  23  43  64  89 124 167 212 257 307 369
#
# _framework density 18.700320000000001
#
# number of rings (size 3 to 8) (size 9 to 14) (size 15 to 20)
#    0.000    1.500    2.500    1.875    3.500    1.500 
#    0.000    0.000    0.000    0.000    0.000    0.000 
#    0.000    0.000    0.000    0.000    0.000    0.000 
#
# Total GULP energy -357593.792686 kJ/mol
# GULP energy per Si atom -5587.403011 kJ/mol
# Density = 1.865776 g / cm^3
# Si number density = 18.700320 Si / 1000 Ang^3
#
#
#
# Elastic Constant Matrix: (Units=GPa)
#
#
# Indices 1 2 3 4 5 6 
#
# 1 110.4286 37.1389 64.1263 0.0000 0.0000 0.0000
# 2 37.1389 61.4414 51.7261 0.0000 0.0000 0.0000
# 3 64.1263 51.7261 108.2835 0.0000 0.0000 0.0000
# 4 0.0000 0.0000 0.0000 22.1085 0.0000 0.0000
# 5 0.0000 0.0000 0.0000 0.0000 18.8201 0.0000
# 6 0.0000 0.0000 0.0000 0.0000 0.0000 31.5175
#
#
#
# Elastic Compliance Matrix: (Units=1/GPa)
#
#
# Indices 1 2 3 4 5 6 
#
# 1 0.014025 -0.002484 -0.007119 0.000000 0.000000 0.000000
# 2 -0.002484 0.027664 -0.011744 0.000000 0.000000 0.000000
# 3 -0.007119 -0.011744 0.019061 0.000000 0.000000 0.000000
# 4 0.000000 0.000000 0.000000 0.045231 0.000000 0.000000
# 5 0.000000 0.000000 0.000000 0.000000 0.053135 0.000000
# 6 0.000000 0.000000 0.000000 0.000000 0.000000 0.031728
#
#
# Mechanical properties :
#
#
# Convention : Reuss Voigt Hill
#
# Bulk Modulus (GPa) = 55.38327 65.12623 60.25475
# Shear Modulus (GPa) = 20.87183 22.96671 21.91927
#
# Velocity S-wave (km/s) = 3.34446 3.50829 3.42736
# Velocity P-wave (km/s) = 6.67791 7.16329 6.92485
#
# Compressibility (1/GPa) = 0.01805600
#
# Stress axis : x y z
#
# Youngs Moduli (GPa) = 71.30011 36.14799 52.46350
#
# Poissons Ratio (x) = 0.08980 0.37349
# Poissons Ratio (y) = 0.17713 0.61611
# Poissons Ratio (z) = 0.50759 0.42451
#
# Static dielectric constant tensor:
#      x y z
#    x 1.636720 0.000000 0.000000 
#    y 0.000000 1.635520 0.000000 
#    z 0.000000 0.000000 1.619660 
# 
# From -- ./inp_files/18295.got.cif
#   From: 2010.05.17/outbox.cif.g08.bks.cpg/sg62_10_cif.got.tgz:18295.got - 2010.06.03 15:25:27.
