data_PCOD9463158
_publ_section_title
;
Structure prediction by ZEFSAII (Michael W. Deem and Ramdas Pophale) SiO2 
 PCOD9463158
Probable space group: P N M A
;
_chemical_formula_sum "Si O2"
_cell_formula_units_Z 48
_cell_length_a 10.354171
_cell_length_b 8.944158
_cell_length_c 30.176038
_cell_angle_alpha 90.000000
_cell_angle_beta 90.000000
_cell_angle_gamma 90.000000
_cell_volume 2794.583005
_symmetry_space_group_name_H-M "P N M A"
_symmetry_group_IT_number 62
_symmetry_cell_setting 'orthorhombic'
loop_
_space_group_symop_operation_xyz
x,y,z
1/2-x,-y,1/2+z
1/2+x,1/2-y,1/2-z
-x,1/2+y,-z
-x,-y,-z
1/2+x,y,1/2-z
1/2-x,1/2+y,1/2+z
x,1/2-y,z
loop_
_atom_site_type_symbol
_atom_site_label
_atom_site_fract_x
_atom_site_fract_y
_atom_site_fract_z
Si Si1 0.222583 0.428515 0.382708
Si Si2 0.720495 0.570205 0.211637
Si Si3 0.385156 0.429097 0.528708
Si Si4 0.377040 0.570163 0.976762
Si Si5 0.519786 0.930764 0.287574
Si Si6 0.471641 0.927958 0.617465
O O1 0.206968 0.250000 0.378118
O O2 0.187351 0.505409 0.336573
O O3 0.144980 0.479888 0.425977
O O4 0.375295 0.455796 0.390898
O O5 0.716472 0.750000 0.209328
O O6 0.869815 0.527909 0.221928
O O7 0.618557 0.522785 0.249036
O O8 0.500000 0.500000 0.500000
O O9 0.399372 0.250000 0.529419
O O10 0.250963 0.466399 0.504767
O O11 0.394181 0.494299 0.578048
O O12 0.388689 0.750000 0.976069
O O13 0.500000 0.500000 0.000000
O O14 0.524992 0.750000 0.291628
O O15 0.556742 0.003879 0.334402
O O16 0.451243 0.750000 0.617122
#
# Coordination Sequence:
#
# PCOD9463158 Si02
#       6
#     8   8   8   8   8   8
#     4   9  18  35  55  76 107 140 176 219 263 316
#     4   9  18  33  54  77 102 135 175 216 262 316
#     4  11  21  36  58  83 110 141 181 225 269 319
#     4  10  22  39  55  78 112 146 180 223 270 321
#     4   9  18  34  53  76 105 137 175 219 266 317
#     4  10  19  34  56  82 108 138 180 225 268 317
#
# _framework density 17.176089000000001
#
# number of rings (size 3 to 8) (size 9 to 14) (size 15 to 20)
#    0.000    2.333    1.667    1.000    0.000    3.333 
#    3.000    0.000    0.000    0.000    0.000    0.000 
#    0.000    0.000    0.000    0.000    0.000    0.000 
#
# Total GULP energy -267791.591736 kJ/mol
# GULP energy per Si atom -5578.991495 kJ/mol
# Density = 1.713699 g / cm^3
# Si number density = 17.176089 Si / 1000 Ang^3
#
#
#
# Elastic Constant Matrix: (Units=GPa)
#
#
# Indices 1 2 3 4 5 6 
#
# 1 110.0639 44.4801 101.7543 0.0000 0.0000 0.0000
# 2 44.4801 27.7504 50.5003 0.0000 0.0000 0.0000
# 3 101.7543 50.5003 187.3631 0.0000 0.0000 0.0000
# 4 0.0000 0.0000 0.0000 35.2195 0.0000 0.0000
# 5 0.0000 0.0000 0.0000 0.0000 35.8413 0.0000
# 6 0.0000 0.0000 0.0000 0.0000 0.0000 21.2634
#
#
#
# Elastic Compliance Matrix: (Units=1/GPa)
#
#
# Indices 1 2 3 4 5 6 
#
# 1 0.029212 -0.035235 -0.006368 0.000000 0.000000 0.000000
# 2 -0.035235 0.113227 -0.011383 0.000000 0.000000 0.000000
# 3 -0.006368 -0.011383 0.011863 0.000000 0.000000 0.000000
# 4 0.000000 0.000000 0.000000 0.028393 0.000000 0.000000
# 5 0.000000 0.000000 0.000000 0.000000 0.027901 0.000000
# 6 0.000000 0.000000 0.000000 0.000000 0.000000 0.047029
#
#
# Mechanical properties :
#
#
# Convention : Reuss Voigt Hill
#
# Bulk Modulus (GPa) = 20.69042 79.84965 50.27004
# Shear Modulus (GPa) = 13.16806 27.02768 20.09787
#
# Velocity S-wave (km/s) = 2.77185 3.97112 3.42439
# Velocity P-wave (km/s) = 4.72402 8.22291 6.70569
#
# Compressibility (1/GPa) = 0.04833154
#
# Stress axis : x y z
#
# Youngs Moduli (GPa) = 34.23231 8.83185 84.29273
#
# Poissons Ratio (x) = 0.31119 0.53676
# Poissons Ratio (y) = 1.20618 0.95946
# Poissons Ratio (z) = 0.21798 0.10053
#
# Static dielectric constant tensor:
#      x y z
#    x 1.568450 0.000000 0.000000 
#    y 0.000000 1.573960 0.000000 
#    z 0.000000 0.000000 1.567870 
# 
# From -- ./inp_files/31945.got.cif
#   From: 2010.05.17/outbox.cif.g08.bks.cpg/sg62_16_cif.got.tgz:31945.got - 2010.06.03 15:25:27.
