data_PCOD9463616
_publ_section_title
;
Structure prediction by ZEFSAII (Michael W. Deem and Ramdas Pophale) SiO2 
 PCOD9463616
Probable space group: P N M A
;
_chemical_formula_sum "Si O2"
_cell_formula_units_Z 64
_cell_length_a 8.948399
_cell_length_b 15.195969
_cell_length_c 23.283807
_cell_angle_alpha 90.000000
_cell_angle_beta 90.000000
_cell_angle_gamma 90.000000
_cell_volume 3166.122618
_symmetry_space_group_name_H-M "P N M A"
_symmetry_group_IT_number 62
_symmetry_cell_setting 'orthorhombic'
loop_
_space_group_symop_operation_xyz
x,y,z
1/2-x,-y,1/2+z
1/2+x,1/2-y,1/2-z
-x,1/2+y,-z
-x,-y,-z
1/2+x,y,1/2-z
1/2-x,1/2+y,1/2+z
x,1/2-y,z
loop_
_atom_site_type_symbol
_atom_site_label
_atom_site_fract_x
_atom_site_fract_y
_atom_site_fract_z
Si Si1 0.118834 0.015750 0.566736
Si Si2 0.379067 0.654731 0.418321
Si Si3 0.104983 0.914390 0.002544
Si Si4 0.756537 0.920641 0.831191
Si Si5 0.953356 0.152380 0.122528
Si Si6 0.988190 0.530390 0.730246
Si Si7 0.912346 0.353312 0.510198
Si Si8 0.698273 0.014973 0.677102
O O1 0.206063 0.000433 0.626510
O O2 0.068782 0.917991 0.544970
O O3 0.234283 0.050102 0.518751
O O4 0.993892 0.091198 0.561149
O O5 0.358722 0.750000 0.391091
O O6 0.540760 0.643896 0.446114
O O7 0.260567 0.648572 0.470444
O O8 0.351167 0.579505 0.372682
O O9 0.091764 0.864005 0.943074
O O10 0.000000 0.000000 0.000000
O O11 0.596661 0.899182 0.801490
O O12 0.869651 0.937165 0.778056
O O13 0.867136 0.862285 0.870405
O O14 0.917132 0.250000 0.141607
O O15 0.859138 0.081463 0.158355
O O16 0.875484 0.485258 0.685848
O O17 0.104741 0.468259 0.764366
O O18 0.959308 0.250000 0.503608
#
# Coordination Sequence:
#
# PCOD9463616 Si02
#       8
#     8   8   8   8   8   8   8   8
#     4  11  21  36  60  83 119 159 189 236 288 347
#     4  11  21  36  59  84 115 152 189 236 290 348
#     4  12  19  36  57  89 118 153 190 234 280 346
#     4  10  19  37  57  84 108 148 195 236 294 336
#     4  11  22  36  58  85 119 154 188 231 286 349
#     4   9  20  36  62  80 108 147 192 250 286 339
#     4  10  22  37  55  87 122 154 190 227 283 355
#     4  10  19  39  57  83 112 147 194 235 293 338
#
# _framework density 20.213999000000001
#
# number of rings (size 3 to 8) (size 9 to 14) (size 15 to 20)
#    0.000    1.500    3.750    1.875    0.000    3.500 
#    0.000   11.250    0.000    3.000    0.000    0.000 
#    0.000    0.000    0.000    0.000    0.000    0.000 
#
# Total GULP energy -356406.850861 kJ/mol
# GULP energy per Si atom -5568.857045 kJ/mol
# Density = 2.016799 g / cm^3
# Si number density = 20.213999 Si / 1000 Ang^3
#
#
#
# Elastic Constant Matrix: (Units=GPa)
#
#
# Indices 1 2 3 4 5 6 
#
# 1 90.5150 18.0213 24.9517 0.0000 0.0000 0.0000
# 2 18.0213 98.7920 24.7287 0.0000 0.0000 0.0000
# 3 24.9517 24.7287 76.6543 0.0000 0.0000 0.0000
# 4 0.0000 0.0000 0.0000 -13.0889 0.0000 0.0000
# 5 0.0000 0.0000 0.0000 0.0000 32.4666 0.0000
# 6 0.0000 0.0000 0.0000 0.0000 0.0000 13.5944
#
#
#
# Elastic Compliance Matrix: (Units=1/GPa)
#
#
# Indices 1 2 3 4 5 6 
#
# 1 0.012300 -0.001351 -0.003568 0.000000 0.000000 0.000000
# 2 -0.001351 0.011160 -0.003160 0.000000 0.000000 0.000000
# 3 -0.003568 -0.003160 0.015227 0.000000 0.000000 0.000000
# 4 0.000000 0.000000 0.000000 -0.076401 0.000000 0.000000
# 5 0.000000 0.000000 0.000000 0.000000 0.030801 0.000000
# 6 0.000000 0.000000 0.000000 0.000000 0.000000 0.073560
#
#
# Mechanical properties :
#
#
# Convention : Reuss Voigt Hill
#
# Bulk Modulus (GPa) = 44.38887 44.59608 44.49248
# Shear Modulus (GPa) = 55.36205 19.81173 37.58689
#
# Velocity S-wave (km/s) = 5.23903 3.13405 4.31681
# Velocity P-wave (km/s) = 7.65531 5.93348 6.84872
#
# Compressibility (1/GPa) = 0.02252817
#
# Stress axis : x y z
#
# Youngs Moduli (GPa) = 81.29797 89.60760 65.67442
#
# Poissons Ratio (x) = 0.12103 0.23434
# Poissons Ratio (y) = 0.10981 0.20756
# Poissons Ratio (z) = 0.29009 0.28320
#
# Static dielectric constant tensor:
#      x y z
#    x 1.763380 0.000000 0.000000 
#    y 0.000000 1.751780 0.000000 
#    z 0.000000 0.000000 1.790480 
# 
# From -- ./inp_files/29001.got.cif
#   From: 2010.05.17/outbox.cif.g08.bks.cpg/sg62_15_cif.got.tgz:29001.got - 2010.06.03 15:25:27.
