data_PCOD9463794
_publ_section_title
;
Structure prediction by ZEFSAII (Michael W. Deem and Ramdas Pophale) SiO2 
 PCOD9463794
Probable space group: P N M A
;
_chemical_formula_sum "Si O2"
_cell_formula_units_Z 48
_cell_length_a 5.242095
_cell_length_b 22.942038
_cell_length_c 21.540476
_cell_angle_alpha 90.000000
_cell_angle_beta 90.000000
_cell_angle_gamma 90.000000
_cell_volume 2590.551187
_symmetry_space_group_name_H-M "P N M A"
_symmetry_group_IT_number 62
_symmetry_cell_setting 'orthorhombic'
loop_
_space_group_symop_operation_xyz
x,y,z
1/2-x,-y,1/2+z
1/2+x,1/2-y,1/2-z
-x,1/2+y,-z
-x,-y,-z
1/2+x,y,1/2-z
1/2-x,1/2+y,1/2+z
x,1/2-y,z
loop_
_atom_site_type_symbol
_atom_site_label
_atom_site_fract_x
_atom_site_fract_y
_atom_site_fract_z
Si Si1 0.268054 0.432464 0.959542
Si Si2 0.884068 0.013814 0.276291
Si Si3 0.734170 0.505057 0.416758
Si Si4 0.334951 0.817299 0.905074
Si Si5 0.847351 0.682659 0.986667
Si Si6 0.502091 0.853228 0.774005
O O1 0.547522 0.447917 0.934508
O O2 0.048594 0.468978 0.924687
O O3 0.262038 0.454575 0.031436
O O4 0.195001 0.364787 0.960049
O O5 0.660227 0.985889 0.235237
O O6 0.793291 0.014692 0.347171
O O7 0.936491 0.080379 0.254868
O O8 0.290624 0.750000 0.886379
O O9 0.588939 0.818991 0.946383
O O10 0.388697 0.852441 0.842789
O O11 0.089963 0.835824 0.944785
O O12 0.890149 0.750000 0.005952
O O13 0.282975 0.825408 0.731036
#
# Coordination Sequence:
#
# PCOD9463794 Si02
#       6
#     8   8   8   8   8   8
#     4  10  20  33  52  76 102 131 163 206 252 299
#     4  10  20  33  49  70  99 132 165 201 243 297
#     4  10  20  33  51  76 103 132 165 204 252 299
#     4  10  20  32  47  66  91 127 166 206 247 285
#     4  10  20  34  51  71  97 128 162 200 248 304
#     4  10  20  31  45  64  88 125 167 206 244 278
#
# _framework density 18.528873999999998
#
# number of rings (size 3 to 8) (size 9 to 14) (size 15 to 20)
#    0.000    2.000    0.000    4.000    0.000    6.000 
#    0.000    0.000    0.000    0.000    0.000    0.000 
#    0.000   13.333    0.000    0.000    0.000    0.000 
#
# Total GULP energy -267744.654089 kJ/mol
# GULP energy per Si atom -5578.013627 kJ/mol
# Density = 1.848670 g / cm^3
# Si number density = 18.528874 Si / 1000 Ang^3
#
#
#
# Elastic Constant Matrix: (Units=GPa)
#
#
# Indices 1 2 3 4 5 6 
#
# 1 126.4498 4.7823 22.2831 0.0000 0.0000 0.0000
# 2 4.7823 32.7253 2.6979 0.0000 0.0000 0.0000
# 3 22.2831 2.6979 37.4570 0.0000 0.0000 0.0000
# 4 0.0000 0.0000 0.0000 7.3580 0.0000 0.0000
# 5 0.0000 0.0000 0.0000 0.0000 23.4327 0.0000
# 6 0.0000 0.0000 0.0000 0.0000 0.0000 -6.3566
#
#
#
# Elastic Compliance Matrix: (Units=1/GPa)
#
#
# Indices 1 2 3 4 5 6 
#
# 1 0.008859 -0.000865 -0.005208 0.000000 0.000000 0.000000
# 2 -0.000865 0.030824 -0.001705 0.000000 0.000000 0.000000
# 3 -0.005208 -0.001705 0.029918 0.000000 0.000000 0.000000
# 4 0.000000 0.000000 0.000000 0.135907 0.000000 0.000000
# 5 0.000000 0.000000 0.000000 0.000000 0.042675 0.000000
# 6 0.000000 0.000000 0.000000 0.000000 0.000000 -0.157318
#
#
# Mechanical properties :
#
#
# Convention : Reuss Voigt Hill
#
# Bulk Modulus (GPa) = 18.50324 28.46209 23.48267
# Shear Modulus (GPa) = 40.18085 16.01141 28.09613
#
# Velocity S-wave (km/s) = 4.66182 2.94280 3.89825
# Velocity P-wave (km/s) = 6.24377 5.19048 5.74133
#
# Compressibility (1/GPa) = 0.05404458
#
# Stress axis : x y z
#
# Youngs Moduli (GPa) = 112.88324 32.44175 33.42447
#
# Poissons Ratio (x) = 0.02807 0.17407
# Poissons Ratio (y) = 0.09767 0.05700
# Poissons Ratio (z) = 0.58786 0.05533
#
# Static dielectric constant tensor:
#      x y z
#    x 1.740630 0.000000 0.000000 
#    y 0.000000 1.658120 0.000000 
#    z 0.000000 0.000000 1.619120 
# 
# From -- ./inp_files/21596.got.cif
#   From: 2010.05.17/outbox.cif.g08.bks.cpg/sg62_11_cif.got.tgz:21596.got - 2010.06.03 15:25:27.
