data_PCOD9463952
_publ_section_title
;
Structure prediction by ZEFSAII (Michael W. Deem and Ramdas Pophale) SiO2 
 PCOD9463952
Probable space group: P N M A
;
_chemical_formula_sum "Si O2"
_cell_formula_units_Z 48
_cell_length_a 9.393401
_cell_length_b 8.933636
_cell_length_c 32.178737
_cell_angle_alpha 90.000000
_cell_angle_beta 90.000000
_cell_angle_gamma 90.000000
_cell_volume 2700.350324
_symmetry_space_group_name_H-M "P N M A"
_symmetry_group_IT_number 62
_symmetry_cell_setting 'orthorhombic'
loop_
_space_group_symop_operation_xyz
x,y,z
1/2-x,-y,1/2+z
1/2+x,1/2-y,1/2-z
-x,1/2+y,-z
-x,-y,-z
1/2+x,y,1/2-z
1/2-x,1/2+y,1/2+z
x,1/2-y,z
loop_
_atom_site_type_symbol
_atom_site_label
_atom_site_fract_x
_atom_site_fract_y
_atom_site_fract_z
Si Si1 0.076499 0.076414 0.874627
Si Si2 0.079896 0.928855 0.961076
Si Si3 0.582331 0.426697 0.038040
Si Si4 0.087012 0.570251 0.788382
Si Si5 0.922929 0.421817 0.622956
Si Si6 0.597880 0.931491 0.214810
O O1 0.032961 0.250000 0.872008
O O2 0.249874 0.073701 0.875482
O O3 0.029579 0.001211 0.917643
O O4 0.033556 0.986182 0.833517
O O5 0.061051 0.750000 0.959960
O O6 0.248948 0.960591 0.965082
O O7 0.000000 0.000000 0.000000
O O8 0.564674 0.250000 0.036015
O O9 0.531730 0.484027 0.083157
O O10 0.500000 0.500000 0.000000
O O11 0.087070 0.750000 0.786463
O O12 0.246275 0.505039 0.783556
O O13 0.993857 0.497647 0.752027
O O14 0.965854 0.250000 0.616402
O O15 0.967526 0.469240 0.669293
O O16 0.609205 0.750000 0.216911
#
# Coordination Sequence:
#
# PCOD9463952 Si02
#       6
#     8   8   8   8   8   8
#     4   9  17  32  53  75 101 137 174 209 254 312
#     4  10  20  34  53  78 104 134 172 214 258 306
#     4  10  20  33  52  76 103 133 168 208 252 301
#     4  11  21  34  54  81 109 137 173 219 263 308
#     4   8  16  31  52  74  98 131 171 208 248 301
#     4  10  20  36  56  78 105 140 177 214 259 314
#
# _framework density 17.775471
#
# number of rings (size 3 to 8) (size 9 to 14) (size 15 to 20)
#    0.000    2.333    0.000    4.500    0.000    6.667 
#    0.000    1.667    0.000    6.000    0.000    0.000 
#    0.000    0.000    0.000    0.000    0.000    0.000 
#
# Total GULP energy -267734.982290 kJ/mol
# GULP energy per Si atom -5577.812131 kJ/mol
# Density = 1.773501 g / cm^3
# Si number density = 17.775471 Si / 1000 Ang^3
#
#
#
# Elastic Constant Matrix: (Units=GPa)
#
#
# Indices 1 2 3 4 5 6 
#
# 1 28.2674 42.6860 57.8527 0.0000 0.0000 0.0000
# 2 42.6860 112.2465 98.7181 0.0000 0.0000 0.0000
# 3 57.8527 98.7181 216.3446 0.0000 0.0000 0.0000
# 4 0.0000 0.0000 0.0000 38.8327 0.0000 0.0000
# 5 0.0000 0.0000 0.0000 0.0000 33.9083 0.0000
# 6 0.0000 0.0000 0.0000 0.0000 0.0000 23.0848
#
#
#
# Elastic Compliance Matrix: (Units=1/GPa)
#
#
# Indices 1 2 3 4 5 6 
#
# 1 0.113004 -0.027389 -0.017721 0.000000 0.000000 0.000000
# 2 -0.027389 0.021519 -0.002495 0.000000 0.000000 0.000000
# 3 -0.017721 -0.002495 0.010499 0.000000 0.000000 0.000000
# 4 0.000000 0.000000 0.000000 0.025751 0.000000 0.000000
# 5 0.000000 0.000000 0.000000 0.000000 0.029491 0.000000
# 6 0.000000 0.000000 0.000000 0.000000 0.000000 0.043318
#
#
# Mechanical properties :
#
#
# Convention : Reuss Voigt Hill
#
# Bulk Modulus (GPa) = 20.07527 83.93023 52.00275
# Shear Modulus (GPa) = 14.06878 29.67196 21.87037
#
# Velocity S-wave (km/s) = 2.81636 4.09010 3.51147
# Velocity P-wave (km/s) = 4.67912 8.34413 6.76457
#
# Compressibility (1/GPa) = 0.04981253
#
# Stress axis : x y z
#
# Youngs Moduli (GPa) = 8.84928 46.47048 95.24361
#
# Poissons Ratio (x) = 1.27279 1.68777
# Poissons Ratio (y) = 0.24237 0.23764
# Poissons Ratio (z) = 0.15681 0.11594
#
# Static dielectric constant tensor:
#      x y z
#    x 1.604440 0.000000 0.000000 
#    y 0.000000 1.589990 0.000000 
#    z 0.000000 0.000000 1.615200 
# 
# From -- ./inp_files/30993.got.cif
#   From: 2010.05.17/outbox.cif.g08.bks.cpg/sg62_16_cif.got.tgz:30993.got - 2010.06.03 15:25:27.
