data_PCOD9463274
_publ_section_title
;
Structure prediction by ZEFSAII (Michael W. Deem and Ramdas Pophale) SiO2 
 PCOD9463274
Probable space group: P N M A
;
_chemical_formula_sum "Si O2"
_cell_formula_units_Z 64
_cell_length_a 9.496487
_cell_length_b 29.635874
_cell_length_c 13.225859
_cell_angle_alpha 90.000000
_cell_angle_beta 90.000000
_cell_angle_gamma 90.000000
_cell_volume 3722.242008
_symmetry_space_group_name_H-M "P N M A"
_symmetry_group_IT_number 62
_symmetry_cell_setting 'orthorhombic'
loop_
_space_group_symop_operation_xyz
x,y,z
1/2-x,-y,1/2+z
1/2+x,1/2-y,1/2-z
-x,1/2+y,-z
-x,-y,-z
1/2+x,y,1/2-z
1/2-x,1/2+y,1/2+z
x,1/2-y,z
loop_
_atom_site_type_symbol
_atom_site_label
_atom_site_fract_x
_atom_site_fract_y
_atom_site_fract_z
Si Si1 0.753355 0.623534 0.411513
Si Si2 0.934268 0.198692 0.852329
Si Si3 0.563330 0.544855 0.883102
Si Si4 0.432424 0.119897 0.953637
Si Si5 0.235599 0.698208 0.359143
Si Si6 0.231859 0.026539 0.486985
Si Si7 0.578030 0.001729 0.681219
Si Si8 0.838397 0.063936 0.736620
O O1 0.640066 0.662788 0.425909
O O2 0.745180 0.576744 0.472111
O O3 0.720480 0.606279 0.298441
O O4 0.911573 0.639343 0.433680
O O5 0.919485 0.250000 0.889888
O O6 0.854695 0.196833 0.744325
O O7 0.099580 0.189293 0.837834
O O8 0.405029 0.529148 0.913072
O O9 0.572979 0.539095 0.762479
O O10 0.581820 0.592547 0.941029
O O11 0.676836 0.509742 0.930919
O O12 0.323374 0.159987 0.933839
O O13 0.411312 0.082138 0.865329
O O14 0.223838 0.750000 0.397572
O O15 0.373393 0.013485 0.428774
O O16 0.705550 0.034167 0.711242
O O17 0.442726 0.033146 0.697280
#
# Coordination Sequence:
#
# PCOD9463274 Si02
#       8
#     8   8   8   8   8   8   8   8
#     4  11  22  34  51  76 101 137 177 208 256 304
#     4  10  21  35  51  74 104 132 165 210 257 307
#     4  10  19  35  51  70 102 139 170 210 259 295
#     4  11  21  34  53  73 101 140 174 208 253 309
#     4  10  21  35  52  75 102 133 167 208 258 309
#     4  10  20  35  51  71 101 138 175 211 252 302
#     4  12  21  36  51  70 104 141 177 214 251 294
#     4  12  21  31  50  74 103 139 174 211 249 293
#
# _framework density 17.193939
#
# number of rings (size 3 to 8) (size 9 to 14) (size 15 to 20)
#    0.000    1.250    6.250    1.500    1.750    2.000 
#    2.250    0.000    0.000    0.000    0.000    0.875 
#    0.000    0.000    0.000    0.000    0.000    0.000 
#
# Total GULP energy -356885.501002 kJ/mol
# GULP energy per Si atom -5576.335953 kJ/mol
# Density = 1.715480 g / cm^3
# Si number density = 17.193939 Si / 1000 Ang^3
#
#
#
# Elastic Constant Matrix: (Units=GPa)
#
#
# Indices 1 2 3 4 5 6 
#
# 1 103.2264 51.9187 16.1917 0.0000 0.0000 0.0000
# 2 51.9187 96.8988 15.6313 0.0000 0.0000 0.0000
# 3 16.1917 15.6313 31.9981 0.0000 0.0000 0.0000
# 4 0.0000 0.0000 0.0000 21.2994 0.0000 0.0000
# 5 0.0000 0.0000 0.0000 0.0000 17.8596 0.0000
# 6 0.0000 0.0000 0.0000 0.0000 0.0000 34.2580
#
#
#
# Elastic Compliance Matrix: (Units=1/GPa)
#
#
# Indices 1 2 3 4 5 6 
#
# 1 0.013636 -0.006723 -0.003616 0.000000 0.000000 0.000000
# 2 -0.006723 0.014517 -0.003690 0.000000 0.000000 0.000000
# 3 -0.003616 -0.003690 0.034884 0.000000 0.000000 0.000000
# 4 0.000000 0.000000 0.000000 0.046950 0.000000 0.000000
# 5 0.000000 0.000000 0.000000 0.000000 0.055992 0.000000
# 6 0.000000 0.000000 0.000000 0.000000 0.000000 0.029190
#
#
# Mechanical properties :
#
#
# Convention : Reuss Voigt Hill
#
# Bulk Modulus (GPa) = 28.58771 44.40073 36.49422
# Shear Modulus (GPa) = 21.28680 24.57550 22.93115
#
# Velocity S-wave (km/s) = 3.52240 3.78473 3.65592
# Velocity P-wave (km/s) = 5.76244 6.70659 6.25237
#
# Compressibility (1/GPa) = 0.03498006
#
# Stress axis : x y z
#
# Youngs Moduli (GPa) = 73.33547 68.88265 28.66633
#
# Poissons Ratio (x) = 0.46309 0.10365
# Poissons Ratio (y) = 0.49303 0.10578
# Poissons Ratio (z) = 0.26517 0.25417
#
# Static dielectric constant tensor:
#      x y z
#    x 1.609370 0.000000 0.000000 
#    y 0.000000 1.631790 0.000000 
#    z 0.000000 0.000000 1.629010 
# 
# From -- ./inp_files/17442.got.cif
#   From: 2010.05.17/outbox.cif.g08.bks.cpg/sg62_9_cif.got.tgz:17442.got - 2010.06.03 15:25:27.
