data_PCOD9463708
_publ_section_title
;
Structure prediction by ZEFSAII (Michael W. Deem and Ramdas Pophale) SiO2 
 PCOD9463708
Probable space group: P N M A
;
_chemical_formula_sum "Si O2"
_cell_formula_units_Z 40
_cell_length_a 12.426895
_cell_length_b 26.515548
_cell_length_c 4.793729
_cell_angle_alpha 90.000000
_cell_angle_beta 90.000000
_cell_angle_gamma 90.000000
_cell_volume 1579.562136
_symmetry_space_group_name_H-M "P N M A"
_symmetry_group_IT_number 62
_symmetry_cell_setting 'orthorhombic'
loop_
_space_group_symop_operation_xyz
x,y,z
1/2-x,-y,1/2+z
1/2+x,1/2-y,1/2-z
-x,1/2+y,-z
-x,-y,-z
1/2+x,y,1/2-z
1/2-x,1/2+y,1/2+z
x,1/2-y,z
loop_
_atom_site_type_symbol
_atom_site_label
_atom_site_fract_x
_atom_site_fract_y
_atom_site_fract_z
Si Si1 0.270313 0.941632 0.085176
Si Si2 0.598972 0.539192 0.973968
Si Si3 0.636444 0.809487 0.302569
Si Si4 0.455622 0.628984 0.018719
Si Si5 0.260555 0.647362 0.696242
O O1 0.156102 0.941563 0.240301
O O2 0.370192 0.906391 0.187625
O O3 0.314419 0.997862 0.133478
O O4 0.252754 0.912316 0.786222
O O5 0.500000 0.500000 0.000000
O O6 0.535925 0.589094 0.869367
O O7 0.633056 0.750000 0.265005
O O8 0.525706 0.835013 0.209254
O O9 0.674853 0.823787 0.609789
O O10 0.727829 0.834590 0.106092
O O11 0.380826 0.658956 0.801188
#
# Coordination Sequence:
#
# PCOD9463708 Si02
#       5
#     8   8   8   8   8
#     4   9  21  39  66  99 145 178 231 283 346 419
#     4  10  19  38  64 102 138 187 229 278 350 423
#     4  12  25  46  72 100 137 185 242 299 361 420
#     4   9  21  43  65  98 139 185 233 290 348 420
#     4  10  25  45  70 101 143 178 232 297 351 420
#
# _framework density 25.323473
#
# number of rings (size 3 to 8) (size 9 to 14) (size 15 to 20)
#    1.200    0.800    2.000    0.600    2.800    3.200 
#    0.000    4.000    0.000    0.000    0.000    0.000 
#    0.000    0.000    0.000    0.000    0.000    0.000 
#
# Total GULP energy -223129.639794 kJ/mol
# GULP energy per Si atom -5578.240995 kJ/mol
# Density = 2.526584 g / cm^3
# Si number density = 25.323473 Si / 1000 Ang^3
#
#
#
# Elastic Constant Matrix: (Units=GPa)
#
#
# Indices 1 2 3 4 5 6 
#
# 1 128.8536 49.7044 21.2329 0.0000 0.0000 0.0000
# 2 49.7044 191.1468 7.1585 0.0000 0.0000 0.0000
# 3 21.2329 7.1585 40.1928 0.0000 0.0000 0.0000
# 4 0.0000 0.0000 0.0000 31.7144 0.0000 0.0000
# 5 0.0000 0.0000 0.0000 0.0000 35.4464 0.0000
# 6 0.0000 0.0000 0.0000 0.0000 0.0000 30.5674
#
#
#
# Elastic Compliance Matrix: (Units=1/GPa)
#
#
# Indices 1 2 3 4 5 6 
#
# 1 0.009387 -0.002270 -0.004555 0.000000 0.000000 0.000000
# 2 -0.002270 0.005816 0.000164 0.000000 0.000000 0.000000
# 3 -0.004555 0.000164 0.027257 0.000000 0.000000 0.000000
# 4 0.000000 0.000000 0.000000 0.031531 0.000000 0.000000
# 5 0.000000 0.000000 0.000000 0.000000 0.028212 0.000000
# 6 0.000000 0.000000 0.000000 0.000000 0.000000 0.032715
#
#
# Mechanical properties :
#
#
# Convention : Reuss Voigt Hill
#
# Bulk Modulus (GPa) = 34.32051 57.37609 45.84830
# Shear Modulus (GPa) = 31.65506 38.35214 35.00360
#
# Velocity S-wave (km/s) = 3.53941 3.89587 3.72191
# Velocity P-wave (km/s) = 5.50323 6.55313 6.05099
#
# Compressibility (1/GPa) = 0.02913709
#
# Stress axis : x y z
#
# Youngs Moduli (GPa) = 106.52987 171.94470 36.68780
#
# Poissons Ratio (x) = 0.39038 0.16710
# Poissons Ratio (y) = 0.24186 -0.00600
# Poissons Ratio (z) = 0.48520 -0.02812
#
# Static dielectric constant tensor:
#      x y z
#    x 2.205590 0.000000 0.000000 
#    y 0.000000 2.062300 0.000000 
#    z 0.000000 0.000000 1.537290 
# 
# From -- ./inp_files/604.got.cif
#   From: 2010.05.17/outbox.cif.g08.bks.cpg/sg62_1_cif.got.tgz:604.got - 2010.06.03 15:25:27.
