data_PCOD9463658
_publ_section_title
;
Structure prediction by ZEFSAII (Michael W. Deem and Ramdas Pophale) SiO2 
 PCOD9463658
Probable space group: P N M A
;
_chemical_formula_sum "Si O2"
_cell_formula_units_Z 56
_cell_length_a 14.499771
_cell_length_b 13.227274
_cell_length_c 13.654373
_cell_angle_alpha 90.000000
_cell_angle_beta 90.000000
_cell_angle_gamma 90.000000
_cell_volume 2618.805568
_symmetry_space_group_name_H-M "P N M A"
_symmetry_group_IT_number 62
_symmetry_cell_setting 'orthorhombic'
loop_
_space_group_symop_operation_xyz
x,y,z
1/2-x,-y,1/2+z
1/2+x,1/2-y,1/2-z
-x,1/2+y,-z
-x,-y,-z
1/2+x,y,1/2-z
1/2-x,1/2+y,1/2+z
x,1/2-y,z
loop_
_atom_site_type_symbol
_atom_site_label
_atom_site_fract_x
_atom_site_fract_y
_atom_site_fract_z
Si Si1 0.697352 0.361704 0.997120
Si Si2 0.905007 0.862936 0.937618
Si Si3 0.496860 0.401257 0.066022
Si Si4 0.234255 0.533259 0.810927
Si Si5 0.202577 0.582336 0.595666
Si Si6 0.421233 0.865075 0.341892
Si Si7 0.936472 0.003997 0.754611
O O1 0.727326 0.250000 0.960899
O O2 0.591163 0.350278 0.032163
O O3 0.754696 0.397221 0.093091
O O4 0.701118 0.460135 0.926020
O O5 0.924112 0.750000 0.899849
O O6 0.931096 0.945458 0.857563
O O7 0.794776 0.874697 0.952662
O O8 0.949754 0.874025 0.043949
O O9 0.391212 0.367133 0.057364
O O10 0.509988 0.433251 0.178375
O O11 0.500000 0.500000 0.000000
O O12 0.212159 0.595147 0.712356
O O13 0.157921 0.447513 0.824230
O O14 0.334720 0.484248 0.789899
O O15 0.390961 0.750000 0.325118
O O16 0.506289 0.895007 0.272713
#
# Coordination Sequence:
#
# PCOD9463658 Si02
#       7
#     8   8   8   8   8   8   8
#     4  10  21  38  59  88 123 162 205 253 307 368
#     4  10  22  39  63  89 120 162 204 250 307 371
#     4   9  19  35  57  84 118 159 195 251 309 350
#     4  10  21  38  63  89 122 158 198 261 306 360
#     4  10  19  37  62  86 123 158 201 255 307 360
#     4  11  22  40  64  89 120 160 204 250 312 378
#     4  10  21  39  64  86 124 157 201 255 306 363
#
# _framework density 21.383794000000002
#
# number of rings (size 3 to 8) (size 9 to 14) (size 15 to 20)
#    0.000    2.000    2.857    0.429    0.000    6.857 
#    0.000    2.857    0.000    0.000    0.000    0.000 
#    0.000    0.000    0.000    0.000    0.000    0.000 
#
# Total GULP energy -312344.144680 kJ/mol
# GULP energy per Si atom -5577.574012 kJ/mol
# Density = 2.133512 g / cm^3
# Si number density = 21.383794 Si / 1000 Ang^3
#
#
#
# Elastic Constant Matrix: (Units=GPa)
#
#
# Indices 1 2 3 4 5 6 
#
# 1 46.8644 8.8502 -5.5059 0.0000 0.0000 0.0000
# 2 8.8502 81.4989 -5.4115 0.0000 0.0000 0.0000
# 3 -5.5059 -5.4115 22.8495 0.0000 0.0000 0.0000
# 4 0.0000 0.0000 0.0000 -1.0183 0.0000 0.0000
# 5 0.0000 0.0000 0.0000 0.0000 22.8656 0.0000
# 6 0.0000 0.0000 0.0000 0.0000 0.0000 28.3155
#
#
#
# Elastic Compliance Matrix: (Units=1/GPa)
#
#
# Indices 1 2 3 4 5 6 
#
# 1 0.022308 -0.002099 0.004878 0.000000 0.000000 0.000000
# 2 -0.002099 0.012664 0.002493 0.000000 0.000000 0.000000
# 3 0.004878 0.002493 0.045531 0.000000 0.000000 0.000000
# 4 0.000000 0.000000 0.000000 -0.982017 0.000000 0.000000
# 5 0.000000 0.000000 0.000000 0.000000 0.043734 0.000000
# 6 0.000000 0.000000 0.000000 0.000000 0.000000 0.035316
#
#
# Mechanical properties :
#
#
# Convention : Reuss Voigt Hill
#
# Bulk Modulus (GPa) = 10.98320 16.34206 13.66263
# Shear Modulus (GPa) = -6.22927 20.25122 7.01098
#
# Velocity S-wave (km/s) = -1.70863 3.08073 1.81267
# Velocity P-wave (km/s) = 1.12020 4.50704 3.28392
#
# Compressibility (1/GPa) = 0.09104816
#
# Stress axis : x y z
#
# Youngs Moduli (GPa) = 44.82783 78.96680 21.96326
#
# Poissons Ratio (x) = 0.16571 -0.10714
# Poissons Ratio (y) = 0.09407 -0.05476
# Poissons Ratio (z) = -0.21868 -0.19690
#
# Static dielectric constant tensor:
#      x y z
#    x 1.803760 0.000000 0.000000 
#    y 0.000000 1.729190 0.000000 
#    z 0.000000 0.000000 1.736980 
# 
# From -- ./inp_files/18989.got.cif
#   From: 2010.05.17/outbox.cif.g08.bks.cpg/sg62_10_cif.got.tgz:18989.got - 2010.06.03 15:25:27.
