data_PCOD9463541
_publ_section_title
;
Structure prediction by ZEFSAII (Michael W. Deem and Ramdas Pophale) SiO2 
 PCOD9463541
Probable space group: P N M A
;
_chemical_formula_sum "Si O2"
_cell_formula_units_Z 64
_cell_length_a 17.500038
_cell_length_b 12.738283
_cell_length_c 15.468458
_cell_angle_alpha 90.000000
_cell_angle_beta 90.000000
_cell_angle_gamma 90.000000
_cell_volume 3448.235410
_symmetry_space_group_name_H-M "P N M A"
_symmetry_group_IT_number 62
_symmetry_cell_setting 'orthorhombic'
loop_
_space_group_symop_operation_xyz
x,y,z
1/2-x,-y,1/2+z
1/2+x,1/2-y,1/2-z
-x,1/2+y,-z
-x,-y,-z
1/2+x,y,1/2-z
1/2-x,1/2+y,1/2+z
x,1/2-y,z
loop_
_atom_site_type_symbol
_atom_site_label
_atom_site_fract_x
_atom_site_fract_y
_atom_site_fract_z
Si Si1 0.978589 0.870718 0.858298
Si Si2 0.785226 0.134331 0.236860
Si Si3 0.918996 0.630531 0.340801
Si Si4 0.666941 0.128658 0.480653
Si Si5 0.109819 0.035098 0.845968
Si Si6 0.061097 0.946697 0.436888
Si Si7 0.611626 0.131948 0.184897
Si Si8 0.175661 0.558631 0.576692
O O1 0.003792 0.750000 0.874081
O O2 0.903383 0.888843 0.915673
O O3 0.953306 0.877976 0.757967
O O4 0.041718 0.957993 0.875264
O O5 0.806109 0.250000 0.203933
O O6 0.693652 0.125693 0.232131
O O7 0.816786 0.122524 0.334078
O O8 0.821822 0.042397 0.181424
O O9 0.893990 0.750000 0.352327
O O10 0.913953 0.596788 0.240606
O O11 0.864278 0.550622 0.394130
O O12 0.006573 0.619102 0.373639
O O13 0.691975 0.250000 0.469963
O O14 0.636499 0.108540 0.576670
O O15 0.738423 0.054270 0.459245
O O16 0.122523 0.894251 0.500806
O O17 0.102041 0.039219 0.383203
O O18 0.000000 0.000000 0.500000
O O19 0.605889 0.250000 0.146607
#
# Coordination Sequence:
#
# PCOD9463541 Si02
#       8
#     8   8   8   8   8   8   8   8
#     4  10  20  36  60  87 115 149 192 242 292 343
#     4  10  20  36  60  87 117 151 193 243 290 339
#     4  10  22  39  56  79 116 158 191 231 295 358
#     4  11  22  38  60  85 115 153 196 245 296 346
#     4  11  21  37  58  85 116 153 195 237 288 351
#     4  10  21  37  55  86 116 150 189 236 291 351
#     4  10  19  36  60  84 114 149 186 235 296 345
#     4  10  21  37  59  85 115 148 197 244 291 345
#
# _framework density 18.560217999999999
#
# number of rings (size 3 to 8) (size 9 to 14) (size 15 to 20)
#    0.000    1.750    2.500    2.250    0.000    3.000 
#    0.000    3.125    0.000    5.250    0.000    0.000 
#    0.000    0.000    0.000    0.000    0.000    0.000 
#
# Total GULP energy -357016.842213 kJ/mol
# GULP energy per Si atom -5578.388160 kJ/mol
# Density = 1.851797 g / cm^3
# Si number density = 18.560218 Si / 1000 Ang^3
#
#
#
# Elastic Constant Matrix: (Units=GPa)
#
#
# Indices 1 2 3 4 5 6 
#
# 1 69.2736 30.4276 14.7181 0.0000 0.0000 0.0000
# 2 30.4276 75.7370 16.6936 0.0000 0.0000 0.0000
# 3 14.7181 16.6936 73.2854 0.0000 0.0000 0.0000
# 4 0.0000 0.0000 0.0000 14.6343 0.0000 0.0000
# 5 0.0000 0.0000 0.0000 0.0000 33.9464 0.0000
# 6 0.0000 0.0000 0.0000 0.0000 0.0000 18.8737
#
#
#
# Elastic Compliance Matrix: (Units=1/GPa)
#
#
# Indices 1 2 3 4 5 6 
#
# 1 0.017817 -0.006706 -0.002051 0.000000 0.000000 0.000000
# 2 -0.006706 0.016426 -0.002395 0.000000 0.000000 0.000000
# 3 -0.002051 -0.002395 0.014603 0.000000 0.000000 0.000000
# 4 0.000000 0.000000 0.000000 0.068333 0.000000 0.000000
# 5 0.000000 0.000000 0.000000 0.000000 0.029458 0.000000
# 6 0.000000 0.000000 0.000000 0.000000 0.000000 0.052984
#
#
# Mechanical properties :
#
#
# Convention : Reuss Voigt Hill
#
# Bulk Modulus (GPa) = 37.67589 37.99717 37.83653
# Shear Modulus (GPa) = 21.66665 23.92134 22.79399
#
# Velocity S-wave (km/s) = 3.42039 3.59395 3.50824
# Velocity P-wave (km/s) = 5.99517 6.14319 6.06963
#
# Compressibility (1/GPa) = 0.02654217
#
# Stress axis : x y z
#
# Youngs Moduli (GPa) = 56.12717 60.88072 68.48087
#
# Poissons Ratio (x) = 0.40826 0.14043
# Poissons Ratio (y) = 0.37638 0.16400
# Poissons Ratio (z) = 0.11510 0.14580
#
# Static dielectric constant tensor:
#      x y z
#    x 1.618910 0.000000 0.000000 
#    y 0.000000 1.605010 0.000000 
#    z 0.000000 0.000000 1.650080 
# 
# From -- ./inp_files/19904.got.cif
#   From: 2010.05.17/outbox.cif.g08.bks.cpg/sg62_10_cif.got.tgz:19904.got - 2010.06.03 15:25:27.
