data_PCOD9463290
_publ_section_title
;
Structure prediction by ZEFSAII (Michael W. Deem and Ramdas Pophale) SiO2 
 PCOD9463290
Probable space group: P N M A
;
_chemical_formula_sum "Si O2"
_cell_formula_units_Z 64
_cell_length_a 25.513890
_cell_length_b 7.629817
_cell_length_c 15.526416
_cell_angle_alpha 90.000000
_cell_angle_beta 90.000000
_cell_angle_gamma 90.000000
_cell_volume 3022.470136
_symmetry_space_group_name_H-M "P N M A"
_symmetry_group_IT_number 62
_symmetry_cell_setting 'orthorhombic'
loop_
_space_group_symop_operation_xyz
x,y,z
1/2-x,-y,1/2+z
1/2+x,1/2-y,1/2-z
-x,1/2+y,-z
-x,-y,-z
1/2+x,y,1/2-z
1/2-x,1/2+y,1/2+z
x,1/2-y,z
loop_
_atom_site_type_symbol
_atom_site_label
_atom_site_fract_x
_atom_site_fract_y
_atom_site_fract_z
Si Si1 0.561357 0.541803 0.193978
Si Si2 0.845009 0.546752 0.029196
Si Si3 0.765416 0.959373 0.742897
Si Si4 0.614437 0.459976 0.013442
Si Si5 0.228274 0.462943 0.456053
Si Si6 0.136320 0.041667 0.151585
Si Si7 0.148609 0.460862 0.776673
Si Si8 0.555107 0.034978 0.846973
O O1 0.558139 0.750000 0.200566
O O2 0.595379 0.498895 0.109567
O O3 0.590060 0.479358 0.279971
O O4 0.502613 0.473214 0.178564
O O5 0.860664 0.750000 0.037650
O O6 0.782820 0.535566 0.009263
O O7 0.872507 0.469613 0.944578
O O8 0.852267 0.469108 0.124851
O O9 0.771443 0.750000 0.741080
O O10 0.774254 0.018863 0.644388
O O11 0.810498 0.031175 0.804834
O O12 0.705186 0.998264 0.764330
O O13 0.616435 0.250000 0.005300
O O14 0.674199 0.521723 0.000632
O O15 0.574027 0.524236 0.941435
O O16 0.231204 0.250000 0.459341
O O17 0.144219 0.250000 0.140077
O O18 0.145979 0.250000 0.780232
O O19 0.099778 0.520965 0.720212
O O20 0.553934 0.250000 0.847367
#
# Coordination Sequence:
#
# PCOD9463290 Si02
#       8
#     8   8   8   8   8   8   8   8
#     4  11  22  36  54  79 106 137 183 233 266 305
#     4   9  19  33  53  78 107 141 176 218 262 310
#     4   9  17  31  49  72 103 137 169 210 262 314
#     4  10  19  35  55  76 107 147 177 208 269 334
#     4   9  17  30  50  75 105 139 169 205 260 319
#     4  10  20  36  54  75 108 146 177 213 270 323
#     4   9  18  35  55  77 105 137 176 220 265 314
#     4   9  20  36  55  77 106 142 180 222 271 322
#
# _framework density 21.174733
#
# number of rings (size 3 to 8) (size 9 to 14) (size 15 to 20)
#    0.000    2.500    1.250    0.750    1.750    1.500 
#    0.000    3.125    0.000    0.000    0.000    0.000 
#    0.000    0.000    0.000    0.000    0.000    0.000 
#
# Total GULP energy -357214.036893 kJ/mol
# GULP energy per Si atom -5581.469326 kJ/mol
# Density = 2.112654 g / cm^3
# Si number density = 21.174733 Si / 1000 Ang^3
#
#
#
# Elastic Constant Matrix: (Units=GPa)
#
#
# Indices 1 2 3 4 5 6 
#
# 1 126.8279 -31.4503 80.7557 0.0000 0.0000 0.0000
# 2 -31.4503 41.4033 -19.9160 0.0000 0.0000 0.0000
# 3 80.7557 -19.9160 93.2191 0.0000 0.0000 0.0000
# 4 0.0000 0.0000 0.0000 5.4168 0.0000 0.0000
# 5 0.0000 0.0000 0.0000 0.0000 39.2880 0.0000
# 6 0.0000 0.0000 0.0000 0.0000 0.0000 19.8685
#
#
#
# Elastic Compliance Matrix: (Units=1/GPa)
#
#
# Indices 1 2 3 4 5 6 
#
# 1 0.019439 0.007429 -0.015253 0.000000 0.000000 0.000000
# 2 0.007429 0.029758 -0.000078 0.000000 0.000000 0.000000
# 3 -0.015253 -0.000078 0.023924 0.000000 0.000000 0.000000
# 4 0.000000 0.000000 0.000000 0.184612 0.000000 0.000000
# 5 0.000000 0.000000 0.000000 0.000000 0.025453 0.000000
# 6 0.000000 0.000000 0.000000 0.000000 0.000000 0.050331
#
#
# Mechanical properties :
#
#
# Convention : Reuss Voigt Hill
#
# Bulk Modulus (GPa) = 17.44652 35.58100 26.51376
# Shear Modulus (GPa) = 13.57121 28.38537 20.97829
#
# Velocity S-wave (km/s) = 2.53438 3.66530 3.15099
# Velocity P-wave (km/s) = 4.10138 5.89513 5.07808
#
# Compressibility (1/GPa) = 0.05731803
#
# Stress axis : x y z
#
# Youngs Moduli (GPa) = 51.44351 33.60405 41.79882
#
# Poissons Ratio (x) = -0.24964 0.63754
# Poissons Ratio (y) = -0.38217 0.00326
# Poissons Ratio (z) = 0.78465 0.00262
#
# Static dielectric constant tensor:
#      x y z
#    x 1.745700 0.000000 0.000000 
#    y 0.000000 1.790400 0.000000 
#    z 0.000000 0.000000 2.445080 
# 
# From -- ./inp_files/20984.got.cif
#   From: 2010.05.17/outbox.cif.g08.bks.cpg/sg62_11_cif.got.tgz:20984.got - 2010.06.03 15:25:27.
