data_PCOD9463733
_publ_section_title
;
Structure prediction by ZEFSAII (Michael W. Deem and Ramdas Pophale) SiO2 
 PCOD9463733
Probable space group: P N M A
;
_chemical_formula_sum "Si O2"
_cell_formula_units_Z 64
_cell_length_a 30.953426
_cell_length_b 7.713978
_cell_length_c 12.462793
_cell_angle_alpha 90.000000
_cell_angle_beta 90.000000
_cell_angle_gamma 90.000000
_cell_volume 2975.791524
_symmetry_space_group_name_H-M "P N M A"
_symmetry_group_IT_number 62
_symmetry_cell_setting 'orthorhombic'
loop_
_space_group_symop_operation_xyz
x,y,z
1/2-x,-y,1/2+z
1/2+x,1/2-y,1/2-z
-x,1/2+y,-z
-x,-y,-z
1/2+x,y,1/2-z
1/2-x,1/2+y,1/2+z
x,1/2-y,z
loop_
_atom_site_type_symbol
_atom_site_label
_atom_site_fract_x
_atom_site_fract_y
_atom_site_fract_z
Si Si1 0.049531 0.054473 0.513993
Si Si2 0.572767 0.546252 0.220681
Si Si3 0.374971 0.462375 0.410550
Si Si4 0.691698 0.544206 0.004770
Si Si5 0.672604 0.955498 0.239081
Si Si6 0.455321 0.458510 0.556920
Si Si7 0.790044 0.460629 0.959245
Si Si8 0.876016 0.450891 0.332968
O O1 0.050307 0.250000 0.552929
O O2 0.068669 0.040720 0.394365
O O3 0.079793 0.955938 0.598379
O O4 0.000000 0.000000 0.500000
O O5 0.563027 0.750000 0.201439
O O6 0.621822 0.532975 0.260889
O O7 0.544986 0.476988 0.319971
O O8 0.376545 0.250000 0.412249
O O9 0.414653 0.521047 0.486070
O O10 0.328720 0.513433 0.460768
O O11 0.379766 0.523247 0.287373
O O12 0.681214 0.750000 0.009599
O O13 0.742326 0.521527 0.987022
O O14 0.661415 0.471734 0.909745
O O15 0.681149 0.469204 0.121895
O O16 0.683261 0.750000 0.233748
O O17 0.698266 0.025784 0.340141
O O18 0.500000 0.500000 0.500000
O O19 0.450757 0.250000 0.565206
O O20 0.789959 0.250000 0.959050
O O21 0.864203 0.250000 0.315923
#
# Coordination Sequence:
#
# PCOD9463733 Si02
#       8
#     8   8   8   8   8   8   8   8
#     4  12  26  42  62  89 119 152 195 243 293 350
#     4  10  19  39  65  85 113 156 200 244 293 349
#     4   9  19  37  60  85 115 155 195 235 286 348
#     4  10  21  36  56  83 117 155 191 239 295 343
#     4   9  17  35  60  80 108 152 196 236 288 344
#     4  10  21  37  60  88 119 153 196 242 293 349
#     4  10  20  36  59  84 112 152 199 240 282 345
#     4  10  21  40  62  84 118 158 195 236 291 352
#
# _framework density 21.506883999999999
#
# number of rings (size 3 to 8) (size 9 to 14) (size 15 to 20)
#    0.000    2.000    2.500    1.125    3.500    1.000 
#    0.000    1.875    0.000    0.000    0.000    0.000 
#    0.000    0.000    0.000    0.000    0.000    0.000 
#
# Total GULP energy -357295.061237 kJ/mol
# GULP energy per Si atom -5582.735332 kJ/mol
# Density = 2.145793 g / cm^3
# Si number density = 21.506884 Si / 1000 Ang^3
#
#
#
# Elastic Constant Matrix: (Units=GPa)
#
#
# Indices 1 2 3 4 5 6 
#
# 1 76.6812 -10.3138 27.4351 0.0000 0.0000 0.0000
# 2 -10.3138 33.1162 -0.0044 0.0000 0.0000 0.0000
# 3 27.4351 -0.0044 118.6739 0.0000 0.0000 0.0000
# 4 0.0000 0.0000 0.0000 -8.9833 0.0000 0.0000
# 5 0.0000 0.0000 0.0000 0.0000 38.9190 0.0000
# 6 0.0000 0.0000 0.0000 0.0000 0.0000 27.4962
#
#
#
# Elastic Compliance Matrix: (Units=1/GPa)
#
#
# Indices 1 2 3 4 5 6 
#
# 1 0.014897 0.004639 -0.003444 0.000000 0.000000 0.000000
# 2 0.004639 0.031641 -0.001071 0.000000 0.000000 0.000000
# 3 -0.003444 -0.001071 0.009223 0.000000 0.000000 0.000000
# 4 0.000000 0.000000 0.000000 -0.111318 0.000000 0.000000
# 5 0.000000 0.000000 0.000000 0.000000 0.025694 0.000000
# 6 0.000000 0.000000 0.000000 0.000000 0.000000 0.036369
#
#
# Mechanical properties :
#
#
# Convention : Reuss Voigt Hill
#
# Bulk Modulus (GPa) = 17.85423 29.18947 23.52185
# Shear Modulus (GPa) = 200.58212 25.57669 113.07940
#
# Velocity S-wave (km/s) = 9.66781 3.45227 7.25895
# Velocity P-wave (km/s) = 11.53004 5.43070 9.01206
#
# Compressibility (1/GPa) = 0.05600914
#
# Stress axis : x y z
#
# Youngs Moduli (GPa) = 67.12725 31.60418 108.42999
#
# Poissons Ratio (x) = -0.14662 0.37341
# Poissons Ratio (y) = -0.31141 0.11616
# Poissons Ratio (z) = 0.23117 0.03386
#
# Static dielectric constant tensor:
#      x y z
#    x 2.230240 0.000000 0.000000 
#    y 0.000000 1.804650 0.000000 
#    z 0.000000 0.000000 2.430830 
# 
# From -- ./inp_files/15920.got.cif
#   From: 2010.05.17/outbox.cif.g08.bks.cpg/sg62_8_cif.got.tgz:15920.got - 2010.06.03 15:25:27.
