data_PCOD9463070
_publ_section_title
;
Structure prediction by ZEFSAII (Michael W. Deem and Ramdas Pophale) SiO2 
 PCOD9463070
Probable space group: P N M A
;
_chemical_formula_sum "Si O2"
_cell_formula_units_Z 64
_cell_length_a 14.691100
_cell_length_b 8.555569
_cell_length_c 31.104300
_cell_angle_alpha 90.000000
_cell_angle_beta 90.000000
_cell_angle_gamma 90.000000
_cell_volume 3909.521854
_symmetry_space_group_name_H-M "P N M A"
_symmetry_group_IT_number 62
_symmetry_cell_setting 'orthorhombic'
loop_
_space_group_symop_operation_xyz
x,y,z
1/2-x,-y,1/2+z
1/2+x,1/2-y,1/2-z
-x,1/2+y,-z
-x,-y,-z
1/2+x,y,1/2-z
1/2-x,1/2+y,1/2+z
x,1/2-y,z
loop_
_atom_site_type_symbol
_atom_site_label
_atom_site_fract_x
_atom_site_fract_y
_atom_site_fract_z
Si Si1 0.105398 0.562400 0.045045
Si Si2 0.161259 0.065359 0.304567
Si Si3 0.193148 0.062987 0.864145
Si Si4 0.023947 0.931929 0.814190
Si Si5 0.106362 0.437567 0.953280
Si Si6 0.356597 0.438070 0.637777
Si Si7 0.475153 0.933538 0.222884
Si Si8 0.265328 0.938531 0.219760
O O1 0.104446 0.750000 0.041308
O O2 0.161370 0.521812 0.088010
O O3 0.999529 0.510839 0.051514
O O4 0.138251 0.494662 0.999873
O O5 0.172737 0.250000 0.307759
O O6 0.209816 0.983015 0.344908
O O7 0.055156 0.021197 0.301882
O O8 0.211419 0.008838 0.260468
O O9 0.180424 0.250000 0.860851
O O10 0.167404 0.013599 0.912656
O O11 0.120805 0.978704 0.833252
O O12 0.020803 0.750000 0.802259
O O13 0.948011 0.973570 0.848886
O O14 0.003863 0.037783 0.772995
O O15 0.105330 0.250000 0.953238
O O16 0.372510 0.250000 0.639467
O O17 0.283417 0.475750 0.674555
O O18 0.479337 0.750000 0.212780
O O19 0.370893 0.988631 0.217650
O O20 0.264198 0.750000 0.225435
#
# Coordination Sequence:
#
# PCOD9463070 Si02
#       8
#     8   8   8   8   8   8   8   8
#     4   9  17  30  48  72 102 134 165 206 253 301
#     4  12  24  35  51  77 104 132 172 217 260 298
#     4  11  21  36  53  71 100 141 178 209 253 309
#     4  12  22  30  47  76 105 135 172 217 255 292
#     4   9  18  31  48  72  99 133 171 206 249 306
#     4  10  19  34  52  73 101 138 177 207 249 309
#     4  11  22  37  53  71 100 139 177 210 252 303
#     4  10  21  35  55  74  97 137 177 210 248 303
#
# _framework density 16.370287999999999
#
# number of rings (size 3 to 8) (size 9 to 14) (size 15 to 20)
#    0.000    1.500    3.750    3.000    0.000    2.000 
#    0.000    0.000    0.000    0.000    0.000    0.875 
#    0.000    0.000    0.000    0.000    0.000    0.000 
#
# Total GULP energy -357094.959095 kJ/mol
# GULP energy per Si atom -5579.608736 kJ/mol
# Density = 1.633303 g / cm^3
# Si number density = 16.370288 Si / 1000 Ang^3
#
#
#
# Elastic Constant Matrix: (Units=GPa)
#
#
# Indices 1 2 3 4 5 6 
#
# 1 49.5669 12.0546 5.6388 0.0000 0.0000 0.0000
# 2 12.0546 19.4780 11.9472 0.0000 0.0000 0.0000
# 3 5.6388 11.9472 78.6778 0.0000 0.0000 0.0000
# 4 0.0000 0.0000 0.0000 21.2768 0.0000 0.0000
# 5 0.0000 0.0000 0.0000 0.0000 22.6103 0.0000
# 6 0.0000 0.0000 0.0000 0.0000 0.0000 12.3758
#
#
#
# Elastic Compliance Matrix: (Units=1/GPa)
#
#
# Indices 1 2 3 4 5 6 
#
# 1 0.023774 -0.015072 0.000585 0.000000 0.000000 0.000000
# 2 -0.015072 0.066168 -0.008967 0.000000 0.000000 0.000000
# 3 0.000585 -0.008967 0.014030 0.000000 0.000000 0.000000
# 4 0.000000 0.000000 0.000000 0.046999 0.000000 0.000000
# 5 0.000000 0.000000 0.000000 0.000000 0.044228 0.000000
# 6 0.000000 0.000000 0.000000 0.000000 0.000000 0.080803
#
#
# Mechanical properties :
#
#
# Convention : Reuss Voigt Hill
#
# Bulk Modulus (GPa) = 17.52459 23.00043 20.26251
# Shear Modulus (GPa) = 14.62285 19.12474 16.87380
#
# Velocity S-wave (km/s) = 2.99198 3.42169 3.21402
# Velocity P-wave (km/s) = 4.76070 5.44896 5.11642
#
# Compressibility (1/GPa) = 0.05706267
#
# Stress axis : x y z
#
# Youngs Moduli (GPa) = 42.06341 15.11310 71.27670
#
# Poissons Ratio (x) = 0.22778 -0.04168
# Poissons Ratio (y) = 0.63397 0.63916
# Poissons Ratio (z) = -0.02460 0.13552
#
# Static dielectric constant tensor:
#      x y z
#    x 1.558490 0.000000 0.000000 
#    y 0.000000 1.552610 0.000000 
#    z 0.000000 0.000000 1.558050 
# 
# From -- ./inp_files/32692.got.cif
#   From: 2010.05.17/outbox.cif.g08.bks.cpg/sg62_17_cif.got.tgz:32692.got - 2010.06.03 15:25:27.
