data_PCOD9463630
_publ_section_title
;
Structure prediction by ZEFSAII (Michael W. Deem and Ramdas Pophale) SiO2 
 PCOD9463630
Probable space group: P N M A
;
_chemical_formula_sum "Si O2"
_cell_formula_units_Z 56
_cell_length_a 14.855488
_cell_length_b 8.978281
_cell_length_c 21.441930
_cell_angle_alpha 90.000000
_cell_angle_beta 90.000000
_cell_angle_gamma 90.000000
_cell_volume 2859.854844
_symmetry_space_group_name_H-M "P N M A"
_symmetry_group_IT_number 62
_symmetry_cell_setting 'orthorhombic'
loop_
_space_group_symop_operation_xyz
x,y,z
1/2-x,-y,1/2+z
1/2+x,1/2-y,1/2-z
-x,1/2+y,-z
-x,-y,-z
1/2+x,y,1/2-z
1/2-x,1/2+y,1/2+z
x,1/2-y,z
loop_
_atom_site_type_symbol
_atom_site_label
_atom_site_fract_x
_atom_site_fract_y
_atom_site_fract_z
Si Si1 0.042566 0.416835 0.634245
Si Si2 0.725973 0.931446 0.522900
Si Si3 0.928795 0.574940 0.545768
Si Si4 0.197489 0.071359 0.243177
Si Si5 0.850062 0.429840 0.154371
Si Si6 0.495217 0.078475 0.728631
Si Si7 0.247452 0.073725 0.613438
O O1 0.009921 0.250000 0.618248
O O2 0.053682 0.422892 0.708072
O O3 0.139714 0.437770 0.603277
O O4 0.969672 0.535210 0.612688
O O5 0.725553 0.750000 0.522146
O O6 0.827880 0.980949 0.537799
O O7 0.668576 0.977649 0.582970
O O8 0.705493 0.975339 0.451332
O O9 0.928116 0.750000 0.535458
O O10 0.000000 0.500000 0.500000
O O11 0.189676 0.250000 0.245865
O O12 0.268034 0.026414 0.298186
O O13 0.231398 0.019825 0.174845
O O14 0.099341 0.996483 0.246179
O O15 0.853152 0.250000 0.156132
O O16 0.944308 0.494322 0.178390
O O17 0.479634 0.250000 0.710385
O O18 0.266298 0.250000 0.624523
#
# Coordination Sequence:
#
# PCOD9463630 Si02
#       7
#     8   8   8   8   8   8   8
#     4  10  20  35  55  82 115 151 192 238 291 353
#     4   9  19  36  57  81 115 156 192 238 295 351
#     4  11  20  32  52  81 118 154 192 233 289 355
#     4  11  23  39  61  90 121 154 200 248 296 352
#     4  10  21  39  62  88 118 153 196 246 297 348
#     4  11  23  39  61  87 118 155 197 245 299 355
#     4  10  19  37  60  82 116 155 195 237 291 351
#
# _framework density 19.581412
#
# number of rings (size 3 to 8) (size 9 to 14) (size 15 to 20)
#    0.000    1.714    2.857    2.143    0.000    3.429 
#    0.000    2.857    0.000    0.000    0.000    0.000 
#    0.000    0.000    0.000    0.000    0.000    0.000 
#
# Total GULP energy -312354.938735 kJ/mol
# GULP energy per Si atom -5577.766763 kJ/mol
# Density = 1.953684 g / cm^3
# Si number density = 19.581412 Si / 1000 Ang^3
#
#
#
# Elastic Constant Matrix: (Units=GPa)
#
#
# Indices 1 2 3 4 5 6 
#
# 1 39.9281 12.3722 -2.7283 0.0000 0.0000 0.0000
# 2 12.3722 36.4463 9.8740 0.0000 0.0000 0.0000
# 3 -2.7283 9.8740 81.6497 0.0000 0.0000 0.0000
# 4 0.0000 0.0000 0.0000 29.1709 0.0000 0.0000
# 5 0.0000 0.0000 0.0000 0.0000 28.6888 0.0000
# 6 0.0000 0.0000 0.0000 0.0000 0.0000 25.3508
#
#
#
# Elastic Compliance Matrix: (Units=1/GPa)
#
#
# Indices 1 2 3 4 5 6 
#
# 1 0.028361 -0.010219 0.002183 0.000000 0.000000 0.000000
# 2 -0.010219 0.032049 -0.004217 0.000000 0.000000 0.000000
# 3 0.002183 -0.004217 0.012830 0.000000 0.000000 0.000000
# 4 0.000000 0.000000 0.000000 0.034281 0.000000 0.000000
# 5 0.000000 0.000000 0.000000 0.000000 0.034857 0.000000
# 6 0.000000 0.000000 0.000000 0.000000 0.000000 0.039446
#
#
# Mechanical properties :
#
#
# Convention : Reuss Voigt Hill
#
# Bulk Modulus (GPa) = 20.51923 21.89554 21.20739
# Shear Modulus (GPa) = 22.46441 25.87586 24.17014
#
# Velocity S-wave (km/s) = 3.39075 3.63912 3.51713
# Velocity P-wave (km/s) = 5.08245 5.37249 5.22948
#
# Compressibility (1/GPa) = 0.04873477
#
# Stress axis : x y z
#
# Youngs Moduli (GPa) = 35.26016 31.20215 77.94001
#
# Poissons Ratio (x) = 0.31885 -0.17018
# Poissons Ratio (y) = 0.36032 0.32869
# Poissons Ratio (z) = -0.07699 0.13158
#
# Static dielectric constant tensor:
#      x y z
#    x 1.687030 0.000000 0.000000 
#    y 0.000000 1.672270 0.000000 
#    z 0.000000 0.000000 1.774310 
# 
# From -- ./inp_files/27113.got.cif
#   From: 2010.05.17/outbox.cif.g08.bks.cpg/sg62_14_cif.got.tgz:27113.got - 2010.06.03 15:25:27.
