data_PCOD9463961
_publ_section_title
;
Structure prediction by ZEFSAII (Michael W. Deem and Ramdas Pophale) SiO2 
 PCOD9463961
Probable space group: P N M A
;
_chemical_formula_sum "Si O2"
_cell_formula_units_Z 48
_cell_length_a 8.009537
_cell_length_b 8.820467
_cell_length_c 28.782392
_cell_angle_alpha 90.000000
_cell_angle_beta 90.000000
_cell_angle_gamma 90.000000
_cell_volume 2033.414308
_symmetry_space_group_name_H-M "P N M A"
_symmetry_group_IT_number 62
_symmetry_cell_setting 'orthorhombic'
loop_
_space_group_symop_operation_xyz
x,y,z
1/2-x,-y,1/2+z
1/2+x,1/2-y,1/2-z
-x,1/2+y,-z
-x,-y,-z
1/2+x,y,1/2-z
1/2-x,1/2+y,1/2+z
x,1/2-y,z
loop_
_atom_site_type_symbol
_atom_site_label
_atom_site_fract_x
_atom_site_fract_y
_atom_site_fract_z
Si Si1 0.947458 0.929603 0.903335
Si Si2 0.634645 0.069786 0.852235
Si Si3 0.412019 0.075276 0.932390
Si Si4 0.945549 0.072168 0.738899
Si Si5 0.270310 0.076714 0.513035
Si Si6 0.141213 0.569081 0.817061
O O1 0.961713 0.750000 0.907112
O O2 0.096435 0.983766 0.869414
O O3 0.785130 0.974757 0.872847
O O4 0.903290 0.993811 0.954064
O O5 0.662792 0.250000 0.862052
O O6 0.470423 0.022525 0.881738
O O7 0.597263 0.055269 0.798130
O O8 0.359228 0.250000 0.930387
O O9 0.590699 0.069240 0.960017
O O10 0.277305 0.986287 0.962541
O O11 0.931566 0.250000 0.751394
O O12 0.788526 0.019050 0.708727
O O13 0.984861 0.971306 0.783504
O O14 0.320680 0.250000 0.509389
O O15 0.170644 0.750000 0.817381
#
# Coordination Sequence:
#
# PCOD9463961 Si02
#       6
#     8   8   8   8   8   8
#     4  10  20  33  52  77 106 142 179 216 262 314
#     4   9  19  34  53  79 108 138 175 219 264 311
#     4   8  14  26  44  69 103 137 169 210 260 310
#     4  11  23  39  60  83 107 139 179 221 267 319
#     4   9  16  26  44  72 104 136 173 217 260 304
#     4  11  24  40  57  80 110 142 177 219 269 322
#
# _framework density 23.605616000000001
#
# number of rings (size 3 to 8) (size 9 to 14) (size 15 to 20)
#    0.000    2.333    0.000    4.000    0.000   10.667 
#    0.000    0.000    0.000    1.000    0.000    0.000 
#    0.000    0.000    0.000    0.000    0.000    0.000 
#
# Total GULP energy -268393.180038 kJ/mol
# GULP energy per Si atom -5591.524584 kJ/mol
# Density = 2.355189 g / cm^3
# Si number density = 23.605616 Si / 1000 Ang^3
#
#
#
# Elastic Constant Matrix: (Units=GPa)
#
#
# Indices 1 2 3 4 5 6 
#
# 1 76.8914 -3.4223 4.4796 0.0000 0.0000 0.0000
# 2 -3.4223 27.4208 4.0810 0.0000 0.0000 0.0000
# 3 4.4796 4.0810 137.8914 0.0000 0.0000 0.0000
# 4 0.0000 0.0000 0.0000 29.8314 0.0000 0.0000
# 5 0.0000 0.0000 0.0000 0.0000 45.5706 0.0000
# 6 0.0000 0.0000 0.0000 0.0000 0.0000 19.1216
#
#
#
# Elastic Compliance Matrix: (Units=1/GPa)
#
#
# Indices 1 2 3 4 5 6 
#
# 1 0.013109 0.001707 -0.000476 0.000000 0.000000 0.000000
# 2 0.001707 0.036852 -0.001146 0.000000 0.000000 0.000000
# 3 -0.000476 -0.001146 0.007301 0.000000 0.000000 0.000000
# 4 0.000000 0.000000 0.000000 0.033522 0.000000 0.000000
# 5 0.000000 0.000000 0.000000 0.000000 0.021944 0.000000
# 6 0.000000 0.000000 0.000000 0.000000 0.000000 0.052297
#
#
# Mechanical properties :
#
#
# Convention : Reuss Voigt Hill
#
# Bulk Modulus (GPa) = 17.41195 28.05334 22.73265
# Shear Modulus (GPa) = 27.17386 34.70907 30.94147
#
# Velocity S-wave (km/s) = 3.39656 3.83871 3.62438
# Velocity P-wave (km/s) = 4.77225 5.61761 5.21209
#
# Compressibility (1/GPa) = 0.05743183
#
# Stress axis : x y z
#
# Youngs Moduli (GPa) = 76.28299 27.13539 136.95855
#
# Poissons Ratio (x) = -0.04632 0.06525
# Poissons Ratio (y) = -0.13022 0.15697
# Poissons Ratio (z) = 0.03634 0.03110
#
# Static dielectric constant tensor:
#      x y z
#    x 1.989550 0.000000 0.000000 
#    y 0.000000 1.778900 0.000000 
#    z 0.000000 0.000000 1.927420 
# 
# From -- ./inp_files/31964.got.cif
#   From: 2010.05.17/outbox.cif.g08.bks.cpg/sg62_16_cif.got.tgz:31964.got - 2010.06.03 15:25:27.
