data_PCOD9463575
_publ_section_title
;
Structure prediction by ZEFSAII (Michael W. Deem and Ramdas Pophale) SiO2 
 PCOD9463575
Probable space group: P N M A
;
_chemical_formula_sum "Si O2"
_cell_formula_units_Z 56
_cell_length_a 20.488148
_cell_length_b 16.582714
_cell_length_c 8.833051
_cell_angle_alpha 90.000000
_cell_angle_beta 90.000000
_cell_angle_gamma 90.000000
_cell_volume 3001.021116
_symmetry_space_group_name_H-M "P N M A"
_symmetry_group_IT_number 62
_symmetry_cell_setting 'orthorhombic'
loop_
_space_group_symop_operation_xyz
x,y,z
1/2-x,-y,1/2+z
1/2+x,1/2-y,1/2-z
-x,1/2+y,-z
-x,-y,-z
1/2+x,y,1/2-z
1/2-x,1/2+y,1/2+z
x,1/2-y,z
loop_
_atom_site_type_symbol
_atom_site_label
_atom_site_fract_x
_atom_site_fract_y
_atom_site_fract_z
Si Si1 0.940782 0.531912 0.601078
Si Si2 0.150910 0.845993 0.950427
Si Si3 0.135199 0.443643 0.674185
Si Si4 0.217520 0.342865 0.915872
Si Si5 0.167904 0.924597 0.277755
Si Si6 0.468766 0.047305 0.359326
Si Si7 0.757082 0.071266 0.291449
O O1 0.895211 0.582713 0.486241
O O2 0.901359 0.453777 0.661218
O O3 0.000000 0.500000 0.500000
O O4 0.973388 0.573507 0.745975
O O5 0.150634 0.750000 0.972071
O O6 0.080198 0.880130 0.899943
O O7 0.205959 0.870923 0.826928
O O8 0.165385 0.893912 0.105469
O O9 0.173938 0.382414 0.782721
O O10 0.077672 0.482849 0.773714
O O11 0.185084 0.516589 0.638355
O O12 0.201412 0.250000 0.930394
O O13 0.293054 0.356540 0.868285
O O14 0.214874 0.386688 0.078013
O O15 0.211574 0.005397 0.287673
O O16 0.500000 0.000000 0.500000
#
# Coordination Sequence:
#
# PCOD9463575 Si02
#       7
#     8   8   8   8   8   8   8
#     4  10  20  36  61  85 110 153 212 250 282 348
#     4  11  23  38  58  92 126 152 197 267 319 355
#     4   9  20  36  57  85 112 150 201 246 290 360
#     4  11  22  36  57  88 121 152 186 245 313 361
#     4  11  20  37  62  87 114 157 204 244 297 374
#     4  10  19  36  62  82 109 156 209 244 292 367
#     4  10  20  36  61  87 115 158 195 243 304 382
#
# _framework density 18.660312999999999
#
# number of rings (size 3 to 8) (size 9 to 14) (size 15 to 20)
#    0.000    1.714    2.857    3.429    2.000    0.000 
#    0.000    1.429    0.000    0.000    0.000    0.000 
#    0.000    0.000    0.000    0.000    0.000    0.000 
#
# Total GULP energy -312161.821262 kJ/mol
# GULP energy per Si atom -5574.318237 kJ/mol
# Density = 1.861784 g / cm^3
# Si number density = 18.660313 Si / 1000 Ang^3
#
#
#
# Elastic Constant Matrix: (Units=GPa)
#
#
# Indices 1 2 3 4 5 6 
#
# 1 74.3447 27.9633 33.2144 0.0000 0.0000 0.0000
# 2 27.9633 87.2554 33.0244 0.0000 0.0000 0.0000
# 3 33.2144 33.0244 97.4748 0.0000 0.0000 0.0000
# 4 0.0000 0.0000 0.0000 17.8101 0.0000 0.0000
# 5 0.0000 0.0000 0.0000 0.0000 47.3272 0.0000
# 6 0.0000 0.0000 0.0000 0.0000 0.0000 19.7535
#
#
#
# Elastic Compliance Matrix: (Units=1/GPa)
#
#
# Indices 1 2 3 4 5 6 
#
# 1 0.016847 -0.003701 -0.004487 0.000000 0.000000 0.000000
# 2 -0.003701 0.013959 -0.003468 0.000000 0.000000 0.000000
# 3 -0.004487 -0.003468 0.012963 0.000000 0.000000 0.000000
# 4 0.000000 0.000000 0.000000 0.056148 0.000000 0.000000
# 5 0.000000 0.000000 0.000000 0.000000 0.021130 0.000000
# 6 0.000000 0.000000 0.000000 0.000000 0.000000 0.050624
#
#
# Mechanical properties :
#
#
# Convention : Reuss Voigt Hill
#
# Bulk Modulus (GPa) = 48.88185 49.71989 49.30087
# Shear Modulus (GPa) = 24.77667 27.96968 26.37317
#
# Velocity S-wave (km/s) = 3.64782 3.87574 3.76351
# Velocity P-wave (km/s) = 6.63284 6.83601 6.73519
#
# Compressibility (1/GPa) = 0.02045749
#
# Stress axis : x y z
#
# Youngs Moduli (GPa) = 59.35605 71.63640 77.14259
#
# Poissons Ratio (x) = 0.26513 0.34613
# Poissons Ratio (y) = 0.21968 0.26755
# Poissons Ratio (z) = 0.26632 0.24846
#
# Static dielectric constant tensor:
#      x y z
#    x 1.698380 0.000000 0.000000 
#    y 0.000000 1.602840 0.000000 
#    z 0.000000 0.000000 1.715480 
# 
# From -- ./inp_files/8758.got.cif
#   From: 2010.05.17/outbox.cif.g08.bks.cpg/sg62_5_cif.got.tgz:8758.got - 2010.06.03 15:25:27.
