data_PCOD9463471
_publ_section_title
;
Structure prediction by ZEFSAII (Michael W. Deem and Ramdas Pophale) SiO2 
 PCOD9463471
Probable space group: P N M A
;
_chemical_formula_sum "Si O2"
_cell_formula_units_Z 64
_cell_length_a 9.398324
_cell_length_b 25.823355
_cell_length_c 16.597059
_cell_angle_alpha 90.000000
_cell_angle_beta 90.000000
_cell_angle_gamma 90.000000
_cell_volume 4028.044097
_symmetry_space_group_name_H-M "P N M A"
_symmetry_group_IT_number 62
_symmetry_cell_setting 'orthorhombic'
loop_
_space_group_symop_operation_xyz
x,y,z
1/2-x,-y,1/2+z
1/2+x,1/2-y,1/2-z
-x,1/2+y,-z
-x,-y,-z
1/2+x,y,1/2-z
1/2-x,1/2+y,1/2+z
x,1/2-y,z
loop_
_atom_site_type_symbol
_atom_site_label
_atom_site_fract_x
_atom_site_fract_y
_atom_site_fract_z
Si Si1 0.546007 0.893974 0.080796
Si Si2 0.831664 0.460741 0.441778
Si Si3 0.949078 0.188351 0.841443
Si Si4 0.725638 0.535569 0.574267
Si Si5 0.209515 0.608530 0.056901
Si Si6 0.933406 0.004933 0.873694
Si Si7 0.719085 0.811932 0.176789
Si Si8 0.944208 0.497698 0.683537
O O1 0.376542 0.884818 0.076399
O O2 0.631704 0.844337 0.111391
O O3 0.572116 0.940094 0.145993
O O4 0.607421 0.913892 0.994837
O O5 0.826379 0.507510 0.507752
O O6 0.672467 0.460265 0.406350
O O7 0.927690 0.476623 0.366332
O O8 0.944001 0.250000 0.854284
O O9 0.113744 0.173938 0.825258
O O10 0.881516 0.157207 0.915139
O O11 0.852820 0.176390 0.763105
O O12 0.697014 0.591325 0.536355
O O13 0.582952 0.502484 0.582149
O O14 0.806817 0.531006 0.657742
O O15 0.142659 0.559133 0.104542
O O16 0.959555 0.003150 0.778632
O O17 0.707478 0.750000 0.164198
#
# Coordination Sequence:
#
# PCOD9463471 Si02
#       8
#     8   8   8   8   8   8   8   8
#     4  11  20  33  54  68 100 141 170 204 249 300
#     4  10  19  36  46  68 103 136 169 207 250 292
#     4  10  22  37  53  74 102 129 165 212 251 293
#     4  10  20  32  48  72 101 136 169 211 248 296
#     4  11  20  34  49  73 100 137 174 202 249 301
#     4  11  22  29  50  75 103 134 176 211 243 300
#     4  10  22  37  53  75 100 130 167 211 254 294
#     4  11  19  34  48  72 104 138 170 207 249 297
#
# _framework density 15.888605
#
# number of rings (size 3 to 8) (size 9 to 14) (size 15 to 20)
#    0.000    1.500    3.750    4.500    5.250    1.500 
#    0.000    0.000    0.000    0.000    0.000    0.000 
#    0.000    6.000    0.000    0.000    0.000    0.000 
#
# Total GULP energy -356860.855348 kJ/mol
# GULP energy per Si atom -5575.950865 kJ/mol
# Density = 1.585244 g / cm^3
# Si number density = 15.888605 Si / 1000 Ang^3
#
#
#
# Elastic Constant Matrix: (Units=GPa)
#
#
# Indices 1 2 3 4 5 6 
#
# 1 108.4671 25.9891 22.1133 0.0000 0.0000 0.0000
# 2 25.9891 30.9145 12.4364 0.0000 0.0000 0.0000
# 3 22.1133 12.4364 55.6412 0.0000 0.0000 0.0000
# 4 0.0000 0.0000 0.0000 25.2786 0.0000 0.0000
# 5 0.0000 0.0000 0.0000 0.0000 28.9679 0.0000
# 6 0.0000 0.0000 0.0000 0.0000 0.0000 25.5745
#
#
#
# Elastic Compliance Matrix: (Units=1/GPa)
#
#
# Indices 1 2 3 4 5 6 
#
# 1 0.011914 -0.008912 -0.002743 0.000000 0.000000 0.000000
# 2 -0.008912 0.042210 -0.005892 0.000000 0.000000 0.000000
# 3 -0.002743 -0.005892 0.020379 0.000000 0.000000 0.000000
# 4 0.000000 0.000000 0.000000 0.039559 0.000000 0.000000
# 5 0.000000 0.000000 0.000000 0.000000 0.034521 0.000000
# 6 0.000000 0.000000 0.000000 0.000000 0.000000 0.039102
#
#
# Mechanical properties :
#
#
# Convention : Reuss Voigt Hill
#
# Bulk Modulus (GPa) = 25.37548 35.12229 30.24888
# Shear Modulus (GPa) = 21.19390 24.92979 23.06185
#
# Velocity S-wave (km/s) = 3.65623 3.96540 3.81395
# Velocity P-wave (km/s) = 5.81632 6.56652 6.20277
#
# Compressibility (1/GPa) = 0.03940813
#
# Stress axis : x y z
#
# Youngs Moduli (GPa) = 83.93448 23.69095 49.06913
#
# Poissons Ratio (x) = 0.21114 0.13459
# Poissons Ratio (y) = 0.74806 0.28913
# Poissons Ratio (z) = 0.23023 0.13960
#
# Static dielectric constant tensor:
#      x y z
#    x 1.582720 0.000000 0.000000 
#    y 0.000000 1.530490 0.000000 
#    z 0.000000 0.000000 1.537410 
# 
# From -- ./inp_files/22641.got.cif
#   From: 2010.05.17/outbox.cif.g08.bks.cpg/sg62_12_cif.got.tgz:22641.got - 2010.06.03 15:25:27.
