data_PCOD9463970
_publ_section_title
;
Structure prediction by ZEFSAII (Michael W. Deem and Ramdas Pophale) SiO2 
 PCOD9463970
Probable space group: P N M A
;
_chemical_formula_sum "Si O2"
_cell_formula_units_Z 56
_cell_length_a 16.252012
_cell_length_b 8.885878
_cell_length_c 19.920947
_cell_angle_alpha 90.000000
_cell_angle_beta 90.000000
_cell_angle_gamma 90.000000
_cell_volume 2876.851606
_symmetry_space_group_name_H-M "P N M A"
_symmetry_group_IT_number 62
_symmetry_cell_setting 'orthorhombic'
loop_
_space_group_symop_operation_xyz
x,y,z
1/2-x,-y,1/2+z
1/2+x,1/2-y,1/2-z
-x,1/2+y,-z
-x,-y,-z
1/2+x,y,1/2-z
1/2-x,1/2+y,1/2+z
x,1/2-y,z
loop_
_atom_site_type_symbol
_atom_site_label
_atom_site_fract_x
_atom_site_fract_y
_atom_site_fract_z
Si Si1 0.258457 0.429326 0.436642
Si Si2 0.204979 0.570385 0.299996
Si Si3 0.357252 0.429574 0.215693
Si Si4 0.641303 0.413375 0.377163
Si Si5 0.419173 0.583209 0.474371
Si Si6 0.962120 0.927632 0.757879
Si Si7 0.206255 0.076632 0.589686
O O1 0.255180 0.250000 0.426796
O O2 0.214206 0.515837 0.376747
O O3 0.353806 0.483481 0.434161
O O4 0.218597 0.459714 0.510654
O O5 0.208058 0.750000 0.295242
O O6 0.282002 0.501103 0.258080
O O7 0.117029 0.509020 0.273926
O O8 0.353504 0.250000 0.224358
O O9 0.447118 0.483374 0.240510
O O10 0.349845 0.473469 0.136906
O O11 0.675069 0.250000 0.352005
O O12 0.626196 0.396038 0.454897
O O13 0.557795 0.439626 0.337115
O O14 0.705152 0.548798 0.374626
O O15 0.500000 0.500000 0.500000
O O16 0.434823 0.750000 0.445079
O O17 0.958796 0.750000 0.739666
O O18 0.181890 0.250000 0.595069
#
# Coordination Sequence:
#
# PCOD9463970 Si02
#       7
#     8   8   8   8   8   8   8
#     4  10  22  40  61  83 116 161 204 251 308 368
#     4  12  25  41  63  94 127 158 200 258 312 363
#     4  11  23  39  64  92 124 164 205 248 302 369
#     4   9  18  34  56  79 112 155 195 237 288 351
#     4  10  20  33  52  83 118 155 199 245 298 360
#     4  10  22  40  62  89 119 161 207 246 299 362
#     4  10  20  37  61  89 117 154 202 248 299 354
#
# _framework density 19.465726
#
# number of rings (size 3 to 8) (size 9 to 14) (size 15 to 20)
#    0.000    1.714    1.429    3.000    2.000    3.429 
#    0.000    0.714    0.000    0.000    0.000    0.000 
#    0.000    0.000    0.000    0.000    0.000    0.000 
#
# Total GULP energy -311988.416245 kJ/mol
# GULP energy per Si atom -5571.221719 kJ/mol
# Density = 1.942142 g / cm^3
# Si number density = 19.465726 Si / 1000 Ang^3
#
#
#
# Elastic Constant Matrix: (Units=GPa)
#
#
# Indices 1 2 3 4 5 6 
#
# 1 94.0557 34.1565 21.7297 0.0000 0.0000 0.0000
# 2 34.1565 93.0944 32.5600 0.0000 0.0000 0.0000
# 3 21.7297 32.5600 59.7075 0.0000 0.0000 0.0000
# 4 0.0000 0.0000 0.0000 29.3877 0.0000 0.0000
# 5 0.0000 0.0000 0.0000 0.0000 13.2004 0.0000
# 6 0.0000 0.0000 0.0000 0.0000 0.0000 20.1835
#
#
#
# Elastic Compliance Matrix: (Units=1/GPa)
#
#
# Indices 1 2 3 4 5 6 
#
# 1 0.012572 -0.003722 -0.002545 0.000000 0.000000 0.000000
# 2 -0.003722 0.014376 -0.006485 0.000000 0.000000 0.000000
# 3 -0.002545 -0.006485 0.021211 0.000000 0.000000 0.000000
# 4 0.000000 0.000000 0.000000 0.034028 0.000000 0.000000
# 5 0.000000 0.000000 0.000000 0.000000 0.075755 0.000000
# 6 0.000000 0.000000 0.000000 0.000000 0.000000 0.049545
#
#
# Mechanical properties :
#
#
# Convention : Reuss Voigt Hill
#
# Bulk Modulus (GPa) = 44.14345 47.08335 45.61340
# Shear Modulus (GPa) = 20.78634 23.11509 21.95072
#
# Velocity S-wave (km/s) = 3.27133 3.44972 3.36171
# Velocity P-wave (km/s) = 6.08240 6.33307 6.20900
#
# Compressibility (1/GPa) = 0.02265342
#
# Stress axis : x y z
#
# Youngs Moduli (GPa) = 79.54270 69.56259 47.14547
#
# Poissons Ratio (x) = 0.25894 0.12001
# Poissons Ratio (y) = 0.29609 0.30572
# Poissons Ratio (z) = 0.20247 0.45109
#
# Static dielectric constant tensor:
#      x y z
#    x 1.703140 0.000000 0.000000 
#    y 0.000000 1.692280 0.000000 
#    z 0.000000 0.000000 1.727230 
# 
# From -- ./inp_files/27067.got.cif
#   From: 2010.05.17/outbox.cif.g08.bks.cpg/sg62_14_cif.got.tgz:27067.got - 2010.06.03 15:25:27.
