data_PCOD9463084
_publ_section_title
;
Structure prediction by ZEFSAII (Michael W. Deem and Ramdas Pophale) SiO2 
 PCOD9463084
Probable space group: P N M A
;
_chemical_formula_sum "Si O2"
_cell_formula_units_Z 56
_cell_length_a 19.637994
_cell_length_b 8.853401
_cell_length_c 19.613787
_cell_angle_alpha 90.000000
_cell_angle_beta 90.000000
_cell_angle_gamma 90.000000
_cell_volume 3410.112550
_symmetry_space_group_name_H-M "P N M A"
_symmetry_group_IT_number 62
_symmetry_cell_setting 'orthorhombic'
loop_
_space_group_symop_operation_xyz
x,y,z
1/2-x,-y,1/2+z
1/2+x,1/2-y,1/2-z
-x,1/2+y,-z
-x,-y,-z
1/2+x,y,1/2-z
1/2-x,1/2+y,1/2+z
x,1/2-y,z
loop_
_atom_site_type_symbol
_atom_site_label
_atom_site_fract_x
_atom_site_fract_y
_atom_site_fract_z
Si Si1 0.632750 0.931514 0.759508
Si Si2 0.265677 0.930097 0.344774
Si Si3 0.845954 0.069622 0.770487
Si Si4 0.553691 0.431940 0.052576
Si Si5 0.709298 0.068834 0.019880
Si Si6 0.022144 0.067659 0.291630
Si Si7 0.256935 0.069202 0.125650
O O1 0.636458 0.750000 0.751087
O O2 0.554510 0.974247 0.770907
O O3 0.678281 0.969660 0.826023
O O4 0.668475 0.009777 0.695329
O O5 0.268663 0.750000 0.352214
O O6 0.201818 0.967581 0.294996
O O7 0.253091 0.007185 0.417081
O O8 0.846896 0.250000 0.778113
O O9 0.920398 0.005910 0.755328
O O10 0.808616 0.994824 0.834808
O O11 0.549631 0.250000 0.049502
O O12 0.630634 0.476773 0.033510
O O13 0.536340 0.477702 0.129985
O O14 0.500000 0.500000 0.000000
O O15 0.712357 0.250000 0.018336
O O16 0.733345 0.001920 0.948263
O O17 0.028051 0.250000 0.288053
O O18 0.253017 0.250000 0.120888
#
# Coordination Sequence:
#
# PCOD9463084 Si02
#       7
#     8   8   8   8   8   8   8
#     4   9  19  34  54  77 105 140 178 220 263 315
#     4  10  20  34  53  76 104 138 180 223 264 315
#     4  10  20  34  53  78 105 137 180 224 264 313
#     4  10  21  33  49  75 110 146 178 213 258 318
#     4  11  21  34  53  77 107 141 178 220 265 314
#     4  10  19  34  53  76 106 142 179 215 264 319
#     4  10  20  35  55  77 106 141 178 221 266 315
#
# _framework density 16.421745999999999
#
# number of rings (size 3 to 8) (size 9 to 14) (size 15 to 20)
#    0.000    2.000    1.429    2.571    0.000    5.143 
#    0.000    0.000    0.000    0.857    0.000    0.000 
#    0.000    0.000    0.000    0.000    0.000    0.000 
#
# Total GULP energy -312676.689310 kJ/mol
# GULP energy per Si atom -5583.512309 kJ/mol
# Density = 1.638437 g / cm^3
# Si number density = 16.421746 Si / 1000 Ang^3
#
#
#
# Elastic Constant Matrix: (Units=GPa)
#
#
# Indices 1 2 3 4 5 6 
#
# 1 115.2144 45.4218 97.9650 0.0000 0.0000 0.0000
# 2 45.4218 40.6332 58.8992 0.0000 0.0000 0.0000
# 3 97.9650 58.8992 154.6640 0.0000 0.0000 0.0000
# 4 0.0000 0.0000 0.0000 29.4542 0.0000 0.0000
# 5 0.0000 0.0000 0.0000 0.0000 23.5087 0.0000
# 6 0.0000 0.0000 0.0000 0.0000 0.0000 27.1126
#
#
#
# Elastic Compliance Matrix: (Units=1/GPa)
#
#
# Indices 1 2 3 4 5 6 
#
# 1 0.020183 -0.008997 -0.009358 0.000000 0.000000 0.000000
# 2 -0.008997 0.058946 -0.016749 0.000000 0.000000 0.000000
# 3 -0.009358 -0.016749 0.018771 0.000000 0.000000 0.000000
# 4 0.000000 0.000000 0.000000 0.033951 0.000000 0.000000
# 5 0.000000 0.000000 0.000000 0.000000 0.042537 0.000000
# 6 0.000000 0.000000 0.000000 0.000000 0.000000 0.036883
#
#
# Mechanical properties :
#
#
# Convention : Reuss Voigt Hill
#
# Bulk Modulus (GPa) = 36.11079 79.45373 57.78226
# Shear Modulus (GPa) = 17.19914 23.23016 20.21465
#
# Velocity S-wave (km/s) = 3.23977 3.76519 3.51232
# Velocity P-wave (km/s) = 6.00268 8.20917 7.19106
#
# Compressibility (1/GPa) = 0.02769255
#
# Stress axis : x y z
#
# Youngs Moduli (GPa) = 49.54552 16.96456 53.27277
#
# Poissons Ratio (x) = 0.15264 0.49852
# Poissons Ratio (y) = 0.44578 0.89226
# Poissons Ratio (z) = 0.46364 0.28414
#
# Static dielectric constant tensor:
#      x y z
#    x 1.534990 0.000000 0.000000 
#    y 0.000000 1.548550 0.000000 
#    z 0.000000 0.000000 1.523270 
# 
# From -- ./inp_files/24603.got.cif
#   From: 2010.05.17/outbox.cif.g08.bks.cpg/sg62_13_cif.got.tgz:24603.got - 2010.06.03 15:25:27.
