data_PCOD9463935
_publ_section_title
;
Structure prediction by ZEFSAII (Michael W. Deem and Ramdas Pophale) SiO2 
 PCOD9463935
Probable space group: P N M A
;
_chemical_formula_sum "Si O2"
_cell_formula_units_Z 64
_cell_length_a 29.296297
_cell_length_b 7.988562
_cell_length_c 14.681857
_cell_angle_alpha 90.000000
_cell_angle_beta 90.000000
_cell_angle_gamma 90.000000
_cell_volume 3436.072587
_symmetry_space_group_name_H-M "P N M A"
_symmetry_group_IT_number 62
_symmetry_cell_setting 'orthorhombic'
loop_
_space_group_symop_operation_xyz
x,y,z
1/2-x,-y,1/2+z
1/2+x,1/2-y,1/2-z
-x,1/2+y,-z
-x,-y,-z
1/2+x,y,1/2-z
1/2-x,1/2+y,1/2+z
x,1/2-y,z
loop_
_atom_site_type_symbol
_atom_site_label
_atom_site_fract_x
_atom_site_fract_y
_atom_site_fract_z
Si Si1 0.499602 0.451218 0.895224
Si Si2 0.749167 0.452014 0.395623
Si Si3 0.573285 0.454762 0.749950
Si Si4 0.822736 0.547666 0.252693
Si Si5 0.574065 0.547740 0.249884
Si Si6 0.000676 0.548764 0.104817
Si Si7 0.748116 0.450082 0.601445
Si Si8 0.820973 0.949116 0.743124
O O1 0.499445 0.250000 0.890841
O O2 0.544069 0.507748 0.838254
O O3 0.455236 0.508941 0.838120
O O4 0.500000 0.500000 0.000000
O O5 0.746768 0.250000 0.398953
O O6 0.795587 0.498999 0.343669
O O7 0.746969 0.516548 0.498745
O O8 0.707858 0.512438 0.330655
O O9 0.574165 0.250000 0.749875
O O10 0.625315 0.513088 0.750052
O O11 0.543779 0.507539 0.661957
O O12 0.823574 0.750000 0.248350
O O13 0.792056 0.485347 0.167805
O O14 0.573938 0.750000 0.249930
O O15 0.545172 0.490900 0.338423
O O16 0.626045 0.491764 0.248554
O O17 0.000847 0.750000 0.109165
O O18 0.000000 0.500000 0.000000
O O19 0.742334 0.250000 0.596051
O O20 0.795425 0.483342 0.653679
O O21 0.816124 0.750000 0.741178
#
# Coordination Sequence:
#
# PCOD9463935 Si02
#       8
#     8   8   8   8   8   8   8   8
#     4   9  18  33  51  71  97 128 161 198 239 285
#     4   9  19  34  49  70 100 128 157 198 246 290
#     4   8  16  32  51  70  95 126 159 195 236 284
#     4   9  17  31  52  73  92 123 164 197 231 283
#     4   9  19  35  51  70 101 137 165 193 242 300
#     4   9  18  33  52  73  99 130 162 198 239 285
#     4   9  18  33  51  70  97 131 160 191 242 301
#     4  10  20  33  51  75  99 125 164 210 244 278
#
# _framework density 18.625916
#
# number of rings (size 3 to 8) (size 9 to 14) (size 15 to 20)
#    0.000    3.000    0.000    1.875    0.000    4.000 
#    0.000    8.125    0.000    3.000    0.000    0.000 
#    0.000    0.000    0.000    0.000    0.000    0.000 
#
# Total GULP energy -356771.534541 kJ/mol
# GULP energy per Si atom -5574.555227 kJ/mol
# Density = 1.858352 g / cm^3
# Si number density = 18.625916 Si / 1000 Ang^3
#
#
#
# Elastic Constant Matrix: (Units=GPa)
#
#
# Indices 1 2 3 4 5 6 
#
# 1 171.8048 0.9719 89.9643 0.0000 0.0000 0.0000
# 2 0.9719 10.0656 5.6916 0.0000 0.0000 0.0000
# 3 89.9643 5.6916 188.1263 0.0000 0.0000 0.0000
# 4 0.0000 0.0000 0.0000 26.5532 0.0000 0.0000
# 5 0.0000 0.0000 0.0000 0.0000 7.5411 0.0000
# 6 0.0000 0.0000 0.0000 0.0000 0.0000 12.7541
#
#
#
# Elastic Compliance Matrix: (Units=1/GPa)
#
#
# Indices 1 2 3 4 5 6 
#
# 1 0.007784 0.001377 -0.003764 0.000000 0.000000 0.000000
# 2 0.001377 0.101321 -0.003724 0.000000 0.000000 0.000000
# 3 -0.003764 -0.003724 0.007228 0.000000 0.000000 0.000000
# 4 0.000000 0.000000 0.000000 0.037660 0.000000 0.000000
# 5 0.000000 0.000000 0.000000 0.000000 0.132607 0.000000
# 6 0.000000 0.000000 0.000000 0.000000 0.000000 0.078406
#
#
# Mechanical properties :
#
#
# Convention : Reuss Voigt Hill
#
# Bulk Modulus (GPa) = 9.60513 62.58357 36.09435
# Shear Modulus (GPa) = 12.13794 27.59426 19.86610
#
# Velocity S-wave (km/s) = 2.55555 3.85320 3.26940
# Velocity P-wave (km/s) = 3.72503 7.31228 5.80281
#
# Compressibility (1/GPa) = 0.10411098
#
# Stress axis : x y z
#
# Youngs Moduli (GPa) = 128.47320 9.86963 138.34712
#
# Poissons Ratio (x) = -0.01359 0.52073
# Poissons Ratio (y) = -0.17688 0.51517
# Poissons Ratio (z) = 0.48356 0.03675
#
# Static dielectric constant tensor:
#      x y z
#    x 1.627790 0.000000 0.000000 
#    y 0.000000 1.671470 0.000000 
#    z 0.000000 0.000000 1.637500 
# 
# From -- ./inp_files/21261.got.cif
#   From: 2010.05.17/outbox.cif.g08.bks.cpg/sg62_11_cif.got.tgz:21261.got - 2010.06.03 15:25:27.
