data_PCOD9463337
_publ_section_title
;
Structure prediction by ZEFSAII (Michael W. Deem and Ramdas Pophale) SiO2 
 PCOD9463337
Probable space group: P N M A
;
_chemical_formula_sum "Si O2"
_cell_formula_units_Z 64
_cell_length_a 8.196438
_cell_length_b 24.593653
_cell_length_c 13.674878
_cell_angle_alpha 90.000000
_cell_angle_beta 90.000000
_cell_angle_gamma 90.000000
_cell_volume 2756.586721
_symmetry_space_group_name_H-M "P N M A"
_symmetry_group_IT_number 62
_symmetry_cell_setting 'orthorhombic'
loop_
_space_group_symop_operation_xyz
x,y,z
1/2-x,-y,1/2+z
1/2+x,1/2-y,1/2-z
-x,1/2+y,-z
-x,-y,-z
1/2+x,y,1/2-z
1/2-x,1/2+y,1/2+z
x,1/2-y,z
loop_
_atom_site_type_symbol
_atom_site_label
_atom_site_fract_x
_atom_site_fract_y
_atom_site_fract_z
Si Si1 0.888004 0.311348 0.936032
Si Si2 0.025778 0.590812 0.189578
Si Si3 0.376147 0.187346 0.228703
Si Si4 0.682148 0.138028 0.438918
Si Si5 0.343985 0.413914 0.896505
Si Si6 0.324735 0.966420 0.884425
Si Si7 0.443293 0.529829 0.664947
Si Si8 0.819093 0.651076 0.599262
O O1 0.915982 0.250000 0.901890
O O2 0.883248 0.356715 0.852551
O O3 0.732298 0.313726 0.007091
O O4 0.037417 0.333119 0.002845
O O5 0.034504 0.593847 0.306590
O O6 0.106940 0.533745 0.152993
O O7 0.838985 0.589308 0.152062
O O8 0.378450 0.250000 0.258998
O O9 0.234242 0.175097 0.150821
O O10 0.333825 0.151599 0.323545
O O11 0.536112 0.172636 0.167026
O O12 0.829354 0.128276 0.515550
O O13 0.640191 0.077409 0.398089
O O14 0.368005 0.476042 0.930964
O O15 0.415610 0.959724 0.780020
O O16 0.349676 0.909850 0.937879
O O17 0.132875 0.969439 0.861008
#
# Coordination Sequence:
#
# PCOD9463337 Si02
#       8
#     8   8   8   8   8   8   8   8
#     4  11  23  40  61  86 115 155 204 244 285 345
#     4   9  21  39  62  85 118 153 195 244 301 344
#     4  12  25  40  56  82 121 159 196 235 285 346
#     4  11  22  38  61  89 117 152 198 238 297 346
#     4   9  21  38  63  85 119 149 189 246 300 349
#     4  10  19  35  57  87 120 152 190 231 287 351
#     4  10  19  35  59  87 119 156 190 237 292 351
#     4  12  23  39  59  86 118 161 192 238 285 346
#
# _framework density 23.217117999999999
#
# number of rings (size 3 to 8) (size 9 to 14) (size 15 to 20)
#    0.000    1.500    2.500    3.000    1.750    2.500 
#    0.000    3.750    0.000    0.000    0.000    0.000 
#    0.000    0.000    0.000    0.000    0.000    0.000 
#
# Total GULP energy -357883.299686 kJ/mol
# GULP energy per Si atom -5591.926558 kJ/mol
# Density = 2.316427 g / cm^3
# Si number density = 23.217118 Si / 1000 Ang^3
#
#
#
# Elastic Constant Matrix: (Units=GPa)
#
#
# Indices 1 2 3 4 5 6 
#
# 1 41.4189 -8.9276 -2.7510 0.0000 0.0000 0.0000
# 2 -8.9276 135.2044 10.9262 0.0000 0.0000 0.0000
# 3 -2.7510 10.9262 16.9302 0.0000 0.0000 0.0000
# 4 0.0000 0.0000 0.0000 32.6198 0.0000 0.0000
# 5 0.0000 0.0000 0.0000 0.0000 32.1973 0.0000
# 6 0.0000 0.0000 0.0000 0.0000 0.0000 21.7054
#
#
#
# Elastic Compliance Matrix: (Units=1/GPa)
#
#
# Indices 1 2 3 4 5 6 
#
# 1 0.024647 0.001376 0.003117 0.000000 0.000000 0.000000
# 2 0.001376 0.007880 -0.004862 0.000000 0.000000 0.000000
# 3 0.003117 -0.004862 0.062710 0.000000 0.000000 0.000000
# 4 0.000000 0.000000 0.000000 0.030656 0.000000 0.000000
# 5 0.000000 0.000000 0.000000 0.000000 0.031058 0.000000
# 6 0.000000 0.000000 0.000000 0.000000 0.000000 0.046071
#
#
# Mechanical properties :
#
#
# Convention : Reuss Voigt Hill
#
# Bulk Modulus (GPa) = 10.58215 21.33875 15.96045
# Shear Modulus (GPa) = 21.25294 30.25823 25.75559
#
# Velocity S-wave (km/s) = 3.02884 3.61400 3.33428
# Velocity P-wave (km/s) = 4.09873 5.16000 4.65968
#
# Compressibility (1/GPa) = 0.09449879
#
# Stress axis : x y z
#
# Youngs Moduli (GPa) = 40.57278 126.90444 15.94634
#
# Poissons Ratio (x) = -0.17456 -0.04971
# Poissons Ratio (y) = -0.05581 0.07753
# Poissons Ratio (z) = -0.12647 0.61700
#
# Static dielectric constant tensor:
#      x y z
#    x 1.951020 0.000000 0.000000 
#    y 0.000000 1.841360 0.000000 
#    z 0.000000 0.000000 1.794860 
# 
# From -- ./inp_files/17367.got.cif
#   From: 2010.05.17/outbox.cif.g08.bks.cpg/sg62_9_cif.got.tgz:17367.got - 2010.06.03 15:25:27.
