data_PCOD9463255
_publ_section_title
;
Structure prediction by ZEFSAII (Michael W. Deem and Ramdas Pophale) SiO2 
 PCOD9463255
Probable space group: P N M A
;
_chemical_formula_sum "Si O2"
_cell_formula_units_Z 56
_cell_length_a 14.917461
_cell_length_b 14.474399
_cell_length_c 12.184728
_cell_angle_alpha 90.000000
_cell_angle_beta 90.000000
_cell_angle_gamma 90.000000
_cell_volume 2630.942098
_symmetry_space_group_name_H-M "P N M A"
_symmetry_group_IT_number 62
_symmetry_cell_setting 'orthorhombic'
loop_
_space_group_symop_operation_xyz
x,y,z
1/2-x,-y,1/2+z
1/2+x,1/2-y,1/2-z
-x,1/2+y,-z
-x,-y,-z
1/2+x,y,1/2-z
1/2-x,1/2+y,1/2+z
x,1/2-y,z
loop_
_atom_site_type_symbol
_atom_site_label
_atom_site_fract_x
_atom_site_fract_y
_atom_site_fract_z
Si Si1 0.566568 0.549948 0.798248
Si Si2 0.161570 0.146703 0.716378
Si Si3 0.137922 0.648777 0.157430
Si Si4 0.275835 0.921198 0.446475
Si Si5 0.620917 0.490706 0.169813
Si Si6 0.071317 0.568613 0.948120
Si Si7 0.743001 0.143109 0.315562
O O1 0.598880 0.442294 0.799429
O O2 0.473349 0.553835 0.863419
O O3 0.542591 0.587274 0.675664
O O4 0.654743 0.607982 0.825603
O O5 0.125169 0.250000 0.695392
O O6 0.254339 0.134531 0.648318
O O7 0.195078 0.140066 0.842693
O O8 0.124452 0.750000 0.207192
O O9 0.102960 0.567852 0.235776
O O10 0.090732 0.644585 0.039574
O O11 0.293963 0.873714 0.561943
O O12 0.174817 0.956137 0.425048
O O13 0.336593 0.011978 0.439267
O O14 0.687914 0.418436 0.228821
O O15 0.000000 0.500000 0.000000
O O16 0.739544 0.250000 0.285272
#
# Coordination Sequence:
#
# PCOD9463255 Si02
#       7
#     8   8   8   8   8   8   8
#     4  11  22  38  62  88 125 164 205 255 309 379
#     4   9  18  35  59  89 120 159 206 257 311 370
#     4  10  19  34  60  89 118 155 201 257 318 371
#     4  10  20  39  62  86 119 165 205 253 309 369
#     4  11  22  42  64  89 128 165 204 262 317 373
#     4  11  18  35  60  88 124 159 201 254 316 365
#     4  12  24  42  64  89 125 168 213 259 312 377
#
# _framework density 21.285150000000002
#
# number of rings (size 3 to 8) (size 9 to 14) (size 15 to 20)
#    0.000    1.429    7.143    0.429    0.000    2.857 
#    0.000    2.143    0.000    1.714    0.000    0.000 
#    0.000    0.000    0.000    0.000    0.000    0.000 
#
# Total GULP energy -312531.110744 kJ/mol
# GULP energy per Si atom -5580.912692 kJ/mol
# Density = 2.123670 g / cm^3
# Si number density = 21.285150 Si / 1000 Ang^3
#
#
#
# Elastic Constant Matrix: (Units=GPa)
#
#
# Indices 1 2 3 4 5 6 
#
# 1 74.2066 12.3379 -7.1503 0.0000 0.0000 0.0000
# 2 12.3379 103.2252 4.9753 0.0000 0.0000 0.0000
# 3 -7.1503 4.9753 36.1601 0.0000 0.0000 0.0000
# 4 0.0000 0.0000 0.0000 9.3693 0.0000 0.0000
# 5 0.0000 0.0000 0.0000 0.0000 19.0575 0.0000
# 6 0.0000 0.0000 0.0000 0.0000 0.0000 1.9743
#
#
#
# Elastic Compliance Matrix: (Units=1/GPa)
#
#
# Indices 1 2 3 4 5 6 
#
# 1 0.014072 -0.001828 0.003034 0.000000 0.000000 0.000000
# 2 -0.001828 0.009990 -0.001736 0.000000 0.000000 0.000000
# 3 0.003034 -0.001736 0.028494 0.000000 0.000000 0.000000
# 4 0.000000 0.000000 0.000000 0.106731 0.000000 0.000000
# 5 0.000000 0.000000 0.000000 0.000000 0.052473 0.000000
# 6 0.000000 0.000000 0.000000 0.000000 0.000000 0.506520
#
#
# Mechanical properties :
#
#
# Convention : Reuss Voigt Hill
#
# Bulk Modulus (GPa) = 19.41916 25.99086 22.70501
# Shear Modulus (GPa) = 6.78882 19.64214 13.21548
#
# Velocity S-wave (km/s) = 1.78784 3.04107 2.49445
# Velocity P-wave (km/s) = 3.66128 4.95663 4.35736
#
# Compressibility (1/GPa) = 0.05149552
#
# Stress axis : x y z
#
# Youngs Moduli (GPa) = 71.06196 100.10266 35.09556
#
# Poissons Ratio (x) = 0.18301 -0.10649
# Poissons Ratio (y) = 0.12992 0.06093
# Poissons Ratio (z) = -0.21561 0.17378
#
# Static dielectric constant tensor:
#      x y z
#    x 1.817860 0.000000 0.000000 
#    y 0.000000 1.749580 0.000000 
#    z 0.000000 0.000000 1.798140 
# 
# From -- ./inp_files/13374.got.cif
#   From: 2010.05.17/outbox.cif.g08.bks.cpg/sg62_7_cif.got.tgz:13374.got - 2010.06.03 15:25:27.
