data_PCOD9463432
_publ_section_title
;
Structure prediction by ZEFSAII (Michael W. Deem and Ramdas Pophale) SiO2 
 PCOD9463432
Probable space group: P N M A
;
_chemical_formula_sum "Si O2"
_cell_formula_units_Z 64
_cell_length_a 24.237804
_cell_length_b 7.701256
_cell_length_c 15.715524
_cell_angle_alpha 90.000000
_cell_angle_beta 90.000000
_cell_angle_gamma 90.000000
_cell_volume 2933.483809
_symmetry_space_group_name_H-M "P N M A"
_symmetry_group_IT_number 62
_symmetry_cell_setting 'orthorhombic'
loop_
_space_group_symop_operation_xyz
x,y,z
1/2-x,-y,1/2+z
1/2+x,1/2-y,1/2-z
-x,1/2+y,-z
-x,-y,-z
1/2+x,y,1/2-z
1/2-x,1/2+y,1/2+z
x,1/2-y,z
loop_
_atom_site_type_symbol
_atom_site_label
_atom_site_fract_x
_atom_site_fract_y
_atom_site_fract_z
Si Si1 0.138464 0.463092 0.583071
Si Si2 0.252312 0.541378 0.845002
Si Si3 0.125995 0.548897 0.114064
Si Si4 0.140276 0.454568 0.925385
Si Si5 0.247245 0.954702 0.151220
Si Si6 0.416349 0.951178 0.255681
Si Si7 0.624235 0.037753 0.105301
Si Si8 0.959535 0.950630 0.748690
O O1 0.138310 0.250000 0.582363
O O2 0.201887 0.520994 0.595483
O O3 0.105225 0.523749 0.665997
O O4 0.115180 0.517067 0.491939
O O5 0.251936 0.750000 0.845125
O O6 0.205485 0.480362 0.909971
O O7 0.237956 0.477485 0.750238
O O8 0.314227 0.482808 0.867061
O O9 0.125230 0.750000 0.141044
O O10 0.186316 0.470988 0.136263
O O11 0.077783 0.460539 0.167044
O O12 0.120721 0.538119 0.012877
O O13 0.128532 0.250000 0.932668
O O14 0.110468 0.527807 0.841014
O O15 0.242973 0.750000 0.131607
O O16 0.398176 0.750000 0.255671
O O17 0.482064 0.958835 0.259438
O O18 0.624198 0.250000 0.108513
O O19 0.578277 0.978267 0.171929
O O20 0.972013 0.750000 0.729950
#
# Coordination Sequence:
#
# PCOD9463432 Si02
#       8
#     8   8   8   8   8   8   8   8
#     4   9  17  35  60  84 115 154 193 232 284 349
#     4  11  20  34  59  90 124 156 193 237 291 354
#     4  11  23  39  63  91 119 155 199 243 298 359
#     4  11  23  40  61  88 121 156 198 243 297 356
#     4  10  19  35  60  88 119 156 193 234 290 352
#     4  10  22  40  61  83 111 155 202 246 292 349
#     4   9  19  35  58  87 119 156 192 233 294 352
#     4  11  23  40  60  85 118 155 197 250 301 350
#
# _framework density 21.817060999999999
#
# number of rings (size 3 to 8) (size 9 to 14) (size 15 to 20)
#    0.000    1.750    2.500    2.250    0.000    4.500 
#    0.000    0.000    0.000    3.750    0.000    0.000 
#    0.000    0.000    0.000    0.000    0.000    0.000 
#
# Total GULP energy -357707.707831 kJ/mol
# GULP energy per Si atom -5589.182935 kJ/mol
# Density = 2.176740 g / cm^3
# Si number density = 21.817061 Si / 1000 Ang^3
#
#
#
# Elastic Constant Matrix: (Units=GPa)
#
#
# Indices 1 2 3 4 5 6 
#
# 1 91.5489 -4.9139 40.3574 0.0000 0.0000 0.0000
# 2 -4.9139 39.5479 -11.4179 0.0000 0.0000 0.0000
# 3 40.3574 -11.4179 108.9525 0.0000 0.0000 0.0000
# 4 0.0000 0.0000 0.0000 13.7359 0.0000 0.0000
# 5 0.0000 0.0000 0.0000 0.0000 45.1954 0.0000
# 6 0.0000 0.0000 0.0000 0.0000 0.0000 4.5070
#
#
#
# Elastic Compliance Matrix: (Units=1/GPa)
#
#
# Indices 1 2 3 4 5 6 
#
# 1 0.013057 0.000233 -0.004812 0.000000 0.000000 0.000000
# 2 0.000233 0.026079 0.002647 0.000000 0.000000 0.000000
# 3 -0.004812 0.002647 0.011238 0.000000 0.000000 0.000000
# 4 0.000000 0.000000 0.000000 0.072802 0.000000 0.000000
# 5 0.000000 0.000000 0.000000 0.000000 0.022126 0.000000
# 6 0.000000 0.000000 0.000000 0.000000 0.000000 0.221876
#
#
# Mechanical properties :
#
#
# Convention : Reuss Voigt Hill
#
# Bulk Modulus (GPa) = 21.50108 32.01117 26.75612
# Shear Modulus (GPa) = 12.93508 27.08924 20.01216
#
# Velocity S-wave (km/s) = 2.43757 3.52753 3.03193
# Velocity P-wave (km/s) = 4.21887 5.59426 4.95452
#
# Compressibility (1/GPa) = 0.04650930
#
# Stress axis : x y z
#
# Youngs Moduli (GPa) = 76.58783 38.34518 88.98297
#
# Poissons Ratio (x) = -0.00894 0.42819
# Poissons Ratio (y) = -0.01785 -0.23551
# Poissons Ratio (z) = 0.36854 -0.10149
#
# Static dielectric constant tensor:
#      x y z
#    x 1.803200 0.000000 0.000000 
#    y 0.000000 1.785890 0.000000 
#    z 0.000000 0.000000 1.788790 
# 
# From -- ./inp_files/20806.got.cif
#   From: 2010.05.17/outbox.cif.g08.bks.cpg/sg62_11_cif.got.tgz:20806.got - 2010.06.03 15:25:27.
