data_PCOD9463133
_publ_section_title
;
Structure prediction by ZEFSAII (Michael W. Deem and Ramdas Pophale) SiO2 
 PCOD9463133
Probable space group: P N M A
;
_chemical_formula_sum "Si O2"
_cell_formula_units_Z 56
_cell_length_a 16.723653
_cell_length_b 8.638998
_cell_length_c 19.721685
_cell_angle_alpha 90.000000
_cell_angle_beta 90.000000
_cell_angle_gamma 90.000000
_cell_volume 2849.302368
_symmetry_space_group_name_H-M "P N M A"
_symmetry_group_IT_number 62
_symmetry_cell_setting 'orthorhombic'
loop_
_space_group_symop_operation_xyz
x,y,z
1/2-x,-y,1/2+z
1/2+x,1/2-y,1/2-z
-x,1/2+y,-z
-x,-y,-z
1/2+x,y,1/2-z
1/2-x,1/2+y,1/2+z
x,1/2-y,z
loop_
_atom_site_type_symbol
_atom_site_label
_atom_site_fract_x
_atom_site_fract_y
_atom_site_fract_z
Si Si1 0.815400 0.568839 0.127433
Si Si2 0.715384 0.565201 0.386148
Si Si3 0.476919 0.066474 0.146378
Si Si4 0.589978 0.063732 0.490750
Si Si5 0.323160 0.065626 0.226699
Si Si6 0.354747 0.570552 0.879188
Si Si7 0.379473 0.925842 0.038068
O O1 0.832756 0.750000 0.136851
O O2 0.859270 0.517494 0.058244
O O3 0.835445 0.475759 0.195230
O O4 0.721064 0.538332 0.123228
O O5 0.706473 0.750000 0.383163
O O6 0.637671 0.495938 0.423964
O O7 0.745961 0.504463 0.312627
O O8 0.791688 0.527039 0.434562
O O9 0.481786 0.250000 0.156578
O O10 0.403770 0.004434 0.190600
O O11 0.566525 0.009679 0.158946
O O12 0.445937 0.033460 0.070795
O O13 0.587697 0.250000 0.487935
O O14 0.500000 0.000000 0.500000
O O15 0.318218 0.250000 0.217757
O O16 0.335362 0.750000 0.858612
O O17 0.378338 0.576010 0.957881
O O18 0.394034 0.750000 0.062189
#
# Coordination Sequence:
#
# PCOD9463133 Si02
#       7
#     8   8   8   8   8   8   8
#     4  11  24  41  61  87 118 157 204 256 309 363
#     4  10  19  36  62  90 120 155 198 247 303 366
#     4   9  19  33  53  82 115 150 191 233 281 348
#     4  11  24  42  65  92 121 159 210 264 318 374
#     4  10  21  39  61  86 120 162 202 249 307 366
#     4  10  19  34  55  83 117 151 189 234 291 354
#     4   9  17  29  52  83 115 150 182 223 281 341
#
# _framework density 19.653932999999999
#
# number of rings (size 3 to 8) (size 9 to 14) (size 15 to 20)
#    0.000    2.000    1.429    2.143    0.000    4.000 
#    2.571    0.000    0.000    0.000    0.000    0.000 
#    0.000    0.000    0.000    0.000    0.000    0.000 
#
# Total GULP energy -312177.500950 kJ/mol
# GULP energy per Si atom -5574.598231 kJ/mol
# Density = 1.960920 g / cm^3
# Si number density = 19.653933 Si / 1000 Ang^3
#
#
#
# Elastic Constant Matrix: (Units=GPa)
#
#
# Indices 1 2 3 4 5 6 
#
# 1 100.9241 17.4033 8.5725 0.0000 0.0000 0.0000
# 2 17.4033 31.4224 11.5934 0.0000 0.0000 0.0000
# 3 8.5725 11.5934 52.0611 0.0000 0.0000 0.0000
# 4 0.0000 0.0000 0.0000 28.9439 0.0000 0.0000
# 5 0.0000 0.0000 0.0000 0.0000 7.1429 0.0000
# 6 0.0000 0.0000 0.0000 0.0000 0.0000 18.2546
#
#
#
# Elastic Compliance Matrix: (Units=1/GPa)
#
#
# Indices 1 2 3 4 5 6 
#
# 1 0.010966 -0.005892 -0.000494 0.000000 0.000000 0.000000
# 2 -0.005892 0.037838 -0.007456 0.000000 0.000000 0.000000
# 3 -0.000494 -0.007456 0.020950 0.000000 0.000000 0.000000
# 4 0.000000 0.000000 0.000000 0.034550 0.000000 0.000000
# 5 0.000000 0.000000 0.000000 0.000000 0.140000 0.000000
# 6 0.000000 0.000000 0.000000 0.000000 0.000000 0.054781
#
#
# Mechanical properties :
#
#
# Convention : Reuss Voigt Hill
#
# Bulk Modulus (GPa) = 23.76887 28.83846 26.30366
# Shear Modulus (GPa) = 14.67175 20.65751 17.66463
#
# Velocity S-wave (km/s) = 2.73519 3.24553 3.00122
# Velocity P-wave (km/s) = 4.70053 5.36186 5.04205
#
# Compressibility (1/GPa) = 0.04207184
#
# Stress axis : x y z
#
# Youngs Moduli (GPa) = 91.18841 26.42820 47.73291
#
# Poissons Ratio (x) = 0.15570 0.02357
# Poissons Ratio (y) = 0.53724 0.35590
# Poissons Ratio (z) = 0.04502 0.19705
#
# Static dielectric constant tensor:
#      x y z
#    x 1.717350 0.000000 0.000000 
#    y 0.000000 1.690300 0.000000 
#    z 0.000000 0.000000 1.717810 
# 
# From -- ./inp_files/27099.got.cif
#   From: 2010.05.17/outbox.cif.g08.bks.cpg/sg62_14_cif.got.tgz:27099.got - 2010.06.03 15:25:27.
