data_PCOD9463067
_publ_section_title
;
Structure prediction by ZEFSAII (Michael W. Deem and Ramdas Pophale) SiO2 
 PCOD9463067
Probable space group: P N M A
;
_chemical_formula_sum "Si O2"
_cell_formula_units_Z 56
_cell_length_a 19.886840
_cell_length_b 7.794309
_cell_length_c 19.489243
_cell_angle_alpha 90.000000
_cell_angle_beta 90.000000
_cell_angle_gamma 90.000000
_cell_volume 3020.914052
_symmetry_space_group_name_H-M "P N M A"
_symmetry_group_IT_number 62
_symmetry_cell_setting 'orthorhombic'
loop_
_space_group_symop_operation_xyz
x,y,z
1/2-x,-y,1/2+z
1/2+x,1/2-y,1/2-z
-x,1/2+y,-z
-x,-y,-z
1/2+x,y,1/2-z
1/2-x,1/2+y,1/2+z
x,1/2-y,z
loop_
_atom_site_type_symbol
_atom_site_label
_atom_site_fract_x
_atom_site_fract_y
_atom_site_fract_z
Si Si1 0.609048 0.049469 0.730752
Si Si2 0.276055 0.960339 0.364557
Si Si3 0.824245 0.042521 0.757885
Si Si4 0.556365 0.451414 0.055489
Si Si5 0.701268 0.950292 0.005225
Si Si6 0.030292 0.957912 0.287560
Si Si7 0.292955 0.048336 0.148007
O O1 0.598497 0.250000 0.715219
O O2 0.653866 0.978049 0.668241
O O3 0.536767 0.975279 0.750501
O O4 0.656603 0.037342 0.797798
O O5 0.219009 0.750000 0.503294
O O6 0.217967 0.007225 0.310017
O O7 0.253463 0.022704 0.439118
O O8 0.823399 0.250000 0.761601
O O9 0.900633 0.984627 0.748287
O O10 0.781834 0.973982 0.821853
O O11 0.568695 0.250000 0.050894
O O12 0.626948 0.540089 0.037505
O O13 0.532667 0.494208 0.132299
O O14 0.500000 0.500000 0.000000
O O15 0.777413 0.750000 0.134208
O O16 0.701011 0.024116 0.928657
O O17 0.029315 0.750000 0.285472
O O18 0.310549 0.250000 0.147533
#
# Coordination Sequence:
#
# PCOD9463067 Si02
#       7
#     8   8   8   8   8   8   8
#     4   9  18  32  52  74  96 127 168 210 250 299
#     4   8  14  29  51  71  92 124 166 205 245 294
#     4   9  17  32  53  71  95 132 169 209 251 300
#     4  12  24  34  48  73 106 139 169 203 250 311
#     4  10  19  34  52  71 100 135 169 208 255 300
#     4  10  19  34  54  75 100 132 170 211 255 303
#     4  10  20  31  48  73 101 131 165 208 253 300
#
# _framework density 18.537434999999999
#
# number of rings (size 3 to 8) (size 9 to 14) (size 15 to 20)
#    0.000    2.286    1.429    3.429    0.000    4.571 
#    0.000    0.000    0.000    0.857    0.000    0.000 
#    0.000    0.000    0.000    0.000    0.000    0.143 
#
# Total GULP energy -312392.724472 kJ/mol
# GULP energy per Si atom -5578.441508 kJ/mol
# Density = 1.849524 g / cm^3
# Si number density = 18.537435 Si / 1000 Ang^3
#
#
#
# Elastic Constant Matrix: (Units=GPa)
#
#
# Indices 1 2 3 4 5 6 
#
# 1 96.0614 -11.4400 2.8226 0.0000 0.0000 0.0000
# 2 -11.4400 26.6264 -8.8095 0.0000 0.0000 0.0000
# 3 2.8226 -8.8095 16.6012 0.0000 0.0000 0.0000
# 4 0.0000 0.0000 0.0000 15.5868 0.0000 0.0000
# 5 0.0000 0.0000 0.0000 0.0000 27.2169 0.0000
# 6 0.0000 0.0000 0.0000 0.0000 0.0000 12.3246
#
#
#
# Elastic Compliance Matrix: (Units=1/GPa)
#
#
# Indices 1 2 3 4 5 6 
#
# 1 0.010980 0.004973 0.000772 0.000000 0.000000 0.000000
# 2 0.004973 0.047807 0.024523 0.000000 0.000000 0.000000
# 3 0.000772 0.024523 0.073119 0.000000 0.000000 0.000000
# 4 0.000000 0.000000 0.000000 0.064157 0.000000 0.000000
# 5 0.000000 0.000000 0.000000 0.000000 0.036742 0.000000
# 6 0.000000 0.000000 0.000000 0.000000 0.000000 0.081139
#
#
# Mechanical properties :
#
#
# Convention : Reuss Voigt Hill
#
# Bulk Modulus (GPa) = 5.19637 11.60391 8.40014
# Shear Modulus (GPa) = 15.74537 21.47338 18.60937
#
# Velocity S-wave (km/s) = 2.91758 3.40719 3.17184
# Velocity P-wave (km/s) = 3.76284 4.66389 4.23738
#
# Compressibility (1/GPa) = 0.19244208
#
# Stress axis : x y z
#
# Youngs Moduli (GPa) = 91.07856 20.91742 13.67635
#
# Poissons Ratio (x) = -0.10402 -0.01056
# Poissons Ratio (y) = -0.45291 -0.33539
# Poissons Ratio (z) = -0.07032 -0.51297
#
# Static dielectric constant tensor:
#      x y z
#    x 1.628120 0.000000 0.000000 
#    y 0.000000 1.682210 0.000000 
#    z 0.000000 0.000000 1.636100 
# 
# From -- ./inp_files/24606.got.cif
#   From: 2010.05.17/outbox.cif.g08.bks.cpg/sg62_13_cif.got.tgz:24606.got - 2010.06.03 15:25:27.
