data_PCOD9463838
_publ_section_title
;
Structure prediction by ZEFSAII (Michael W. Deem and Ramdas Pophale) SiO2 
 PCOD9463838
Probable space group: P N M A
;
_chemical_formula_sum "Si O2"
_cell_formula_units_Z 48
_cell_length_a 22.863153
_cell_length_b 7.383518
_cell_length_c 12.587548
_cell_angle_alpha 90.000000
_cell_angle_beta 90.000000
_cell_angle_gamma 90.000000
_cell_volume 2124.910293
_symmetry_space_group_name_H-M "P N M A"
_symmetry_group_IT_number 62
_symmetry_cell_setting 'orthorhombic'
loop_
_space_group_symop_operation_xyz
x,y,z
1/2-x,-y,1/2+z
1/2+x,1/2-y,1/2-z
-x,1/2+y,-z
-x,-y,-z
1/2+x,y,1/2-z
1/2-x,1/2+y,1/2+z
x,1/2-y,z
loop_
_atom_site_type_symbol
_atom_site_label
_atom_site_fract_x
_atom_site_fract_y
_atom_site_fract_z
Si Si1 0.638658 0.956670 0.436221
Si Si2 0.265763 0.030668 0.144081
Si Si3 0.631070 0.970869 0.013852
Si Si4 0.585548 0.538929 0.230199
Si Si5 0.953967 0.468022 0.332127
Si Si6 0.350413 0.470738 0.326088
O O1 0.618755 0.750000 0.455604
O O2 0.596443 0.040244 0.346961
O O3 0.645743 0.037486 0.553553
O O4 0.702172 0.958645 0.381663
O O5 0.262727 0.250000 0.143918
O O6 0.311310 0.976378 0.051172
O O7 0.294580 0.972344 0.255693
O O8 0.630632 0.750000 0.015455
O O9 0.575050 0.027521 0.943133
O O10 0.624341 0.037151 0.133782
O O11 0.601930 0.750000 0.239563
O O12 0.518737 0.530854 0.192976
O O13 0.955446 0.250000 0.333898
O O14 0.907924 0.521781 0.240791
O O15 0.347827 0.250000 0.326973
#
# Coordination Sequence:
#
# PCOD9463838 Si02
#       6
#     8   8   8   8   8   8
#     4  10  21  34  49  73 104 135 162 201 256 299
#     4   9  18  34  55  72  94 131 173 207 239 293
#     4   8  16  32  52  73  97 130 164 202 253 294
#     4  10  20  32  48  74 106 130 156 203 258 295
#     4   9  17  33  55  72  93 131 173 203 235 293
#     4   8  17  35  53  70  98 135 166 199 250 300
#
# _framework density 22.589189000000001
#
# number of rings (size 3 to 8) (size 9 to 14) (size 15 to 20)
#    0.000    3.000    0.000    2.500    2.333    1.333 
#    0.000    5.000    0.000    0.000    0.000    0.000 
#    0.000    0.000    0.000    0.000    0.000    0.000 
#
# Total GULP energy -267995.390181 kJ/mol
# GULP energy per Si atom -5583.237295 kJ/mol
# Density = 2.253778 g / cm^3
# Si number density = 22.589189 Si / 1000 Ang^3
#
#
#
# Elastic Constant Matrix: (Units=GPa)
#
#
# Indices 1 2 3 4 5 6 
#
# 1 26.6171 -9.1190 -9.8717 0.0000 0.0000 0.0000
# 2 -9.1190 80.7013 9.0484 0.0000 0.0000 0.0000
# 3 -9.8717 9.0484 131.7929 0.0000 0.0000 0.0000
# 4 0.0000 0.0000 0.0000 -5.1988 0.0000 0.0000
# 5 0.0000 0.0000 0.0000 0.0000 10.1512 0.0000
# 6 0.0000 0.0000 0.0000 0.0000 0.0000 20.9968
#
#
#
# Elastic Compliance Matrix: (Units=1/GPa)
#
#
# Indices 1 2 3 4 5 6 
#
# 1 0.040019 0.004218 0.002708 0.000000 0.000000 0.000000
# 2 0.004218 0.012932 -0.000572 0.000000 0.000000 0.000000
# 3 0.002708 -0.000572 0.007830 0.000000 0.000000 0.000000
# 4 0.000000 0.000000 0.000000 -0.192354 0.000000 0.000000
# 5 0.000000 0.000000 0.000000 0.000000 0.098511 0.000000
# 6 0.000000 0.000000 0.000000 0.000000 0.000000 0.047626
#
#
# Mechanical properties :
#
#
# Convention : Reuss Voigt Hill
#
# Bulk Modulus (GPa) = 13.60723 24.35853 18.98288
# Shear Modulus (GPa) = 189.73727 21.79342 105.76534
#
# Velocity S-wave (km/s) = 9.17481 3.10945 6.85003
# Velocity P-wave (km/s) = 10.87534 4.86808 8.42529
#
# Compressibility (1/GPa) = 0.07349037
#
# Stress axis : x y z
#
# Youngs Moduli (GPa) = 24.98787 77.32654 127.71781
#
# Poissons Ratio (x) = -0.32620 -0.34585
# Poissons Ratio (y) = -0.10541 0.07304
# Poissons Ratio (z) = -0.06767 0.04422
#
# Static dielectric constant tensor:
#      x y z
#    x 1.775940 0.000000 0.000000 
#    y 0.000000 1.845210 0.000000 
#    z 0.000000 0.000000 1.868280 
# 
# From -- ./inp_files/14100.got.cif
#   From: 2010.05.17/outbox.cif.g08.bks.cpg/sg62_8_cif.got.tgz:14100.got - 2010.06.03 15:25:27.
