data_PCOD9463870
_publ_section_title
;
Structure prediction by ZEFSAII (Michael W. Deem and Ramdas Pophale) SiO2 
 PCOD9463870
Probable space group: P N M A
;
_chemical_formula_sum "Si O2"
_cell_formula_units_Z 56
_cell_length_a 11.477223
_cell_length_b 9.335646
_cell_length_c 21.171331
_cell_angle_alpha 90.000000
_cell_angle_beta 90.000000
_cell_angle_gamma 90.000000
_cell_volume 2268.450763
_symmetry_space_group_name_H-M "P N M A"
_symmetry_group_IT_number 62
_symmetry_cell_setting 'orthorhombic'
loop_
_space_group_symop_operation_xyz
x,y,z
1/2-x,-y,1/2+z
1/2+x,1/2-y,1/2-z
-x,1/2+y,-z
-x,-y,-z
1/2+x,y,1/2-z
1/2-x,1/2+y,1/2+z
x,1/2-y,z
loop_
_atom_site_type_symbol
_atom_site_label
_atom_site_fract_x
_atom_site_fract_y
_atom_site_fract_z
Si Si1 0.470976 0.250000 0.716013
Si Si2 0.606674 0.594132 0.562177
Si Si3 0.374396 0.082540 0.578374
Si Si4 0.525003 0.085717 0.062229
Si Si5 0.216882 0.250000 0.767600
Si Si6 0.794821 0.522756 0.660324
Si Si7 0.006110 0.416051 0.238137
Si Si8 0.810119 0.093244 0.343969
O O1 0.334172 0.250000 0.728277
O O2 0.587720 0.250000 0.761622
O O3 0.483761 0.428317 0.702352
O O4 0.550606 0.750000 0.553696
O O5 0.670826 0.566335 0.494825
O O6 0.502650 0.484500 0.572671
O O7 0.692269 0.599704 0.621868
O O8 0.387320 0.250000 0.594018
O O9 0.286784 0.010783 0.627889
O O10 0.568723 0.250000 0.053319
O O11 0.407832 0.097074 0.102284
O O12 0.613314 0.995797 0.104819
O O13 0.500000 0.000000 0.000000
O O14 0.234460 0.115844 0.812765
O O15 0.878901 0.585493 0.715427
O O16 0.000583 0.250000 0.211651
O O17 0.887704 0.429882 0.280892
O O18 0.755360 0.250000 0.337384
#
# Coordination Sequence:
#
# PCOD9463870 Si02
#       8
#     4   8   8   8   4   8   8   8
#     4  10  22  46  68 100 126 166 202 276 344 414
#     4  10  20  35  52  75 113 160 209 250 301 360
#     4  10  21  33  49  75 115 166 207 253 298 356
#     4  10  20  32  52  85 122 162 204 254 302 363
#     4  10  24  44  70  98 132 162 216 276 352 408
#     4  10  20  37  61  87 120 163 206 261 317 385
#     4   9  19  38  65  91 120 156 199 255 327 389
#     4   9  18  33  51  77 111 149 196 241 298 361
#
# _framework density 24.686451000000002
#
# number of rings (size 3 to 8) (size 9 to 14) (size 15 to 20)
#    0.000    2.286    0.000    3.429    3.000    2.286 
#    2.571    4.286    0.000    0.000    0.000    0.000 
#    0.000    0.000    0.000    0.000    0.000    0.000 
#
# Total GULP energy -312047.233937 kJ/mol
# GULP energy per Si atom -5572.272035 kJ/mol
# Density = 2.463026 g / cm^3
# Si number density = 24.686451 Si / 1000 Ang^3
#
#
#
# Elastic Constant Matrix: (Units=GPa)
#
#
# Indices 1 2 3 4 5 6 
#
# 1 120.8347 38.1958 23.4910 0.0000 0.0000 0.0000
# 2 38.1958 167.8003 58.5372 0.0000 0.0000 0.0000
# 3 23.4910 58.5372 93.3182 0.0000 0.0000 0.0000
# 4 0.0000 0.0000 0.0000 32.1465 0.0000 0.0000
# 5 0.0000 0.0000 0.0000 0.0000 35.7079 0.0000
# 6 0.0000 0.0000 0.0000 0.0000 0.0000 44.5834
#
#
#
# Elastic Compliance Matrix: (Units=1/GPa)
#
#
# Indices 1 2 3 4 5 6 
#
# 1 0.009032 -0.001616 -0.001260 0.000000 0.000000 0.000000
# 2 -0.001616 0.007918 -0.004560 0.000000 0.000000 0.000000
# 3 -0.001260 -0.004560 0.013894 0.000000 0.000000 0.000000
# 4 0.000000 0.000000 0.000000 0.031108 0.000000 0.000000
# 5 0.000000 0.000000 0.000000 0.000000 0.028005 0.000000
# 6 0.000000 0.000000 0.000000 0.000000 0.000000 0.022430
#
#
# Mechanical properties :
#
#
# Convention : Reuss Voigt Hill
#
# Bulk Modulus (GPa) = 62.61260 69.15570 65.88415
# Shear Modulus (GPa) = 37.71261 39.93617 38.82439
#
# Velocity S-wave (km/s) = 3.91277 4.02647 3.97003
# Velocity P-wave (km/s) = 6.76988 7.04919 6.91095
#
# Compressibility (1/GPa) = 0.01597123
#
# Stress axis : x y z
#
# Youngs Moduli (GPa) = 110.72247 126.29150 71.97576
#
# Poissons Ratio (x) = 0.20414 0.09066
# Poissons Ratio (y) = 0.17898 0.32821
# Poissons Ratio (z) = 0.13946 0.57590
#
# Static dielectric constant tensor:
#      x y z
#    x 1.942440 0.000000 0.000000 
#    y 0.000000 1.981750 0.000000 
#    z 0.000000 0.000000 2.051660 
# 
# From -- ./inp_files/31120.got.cif
#   From: 2010.05.17/outbox.cif.g08.bks.cpg/sg62_16_cif.got.tgz:31120.got - 2010.06.03 15:25:27.
