data_PCOD9463147
_publ_section_title
;
Structure prediction by ZEFSAII (Michael W. Deem and Ramdas Pophale) SiO2 
 PCOD9463147
Probable space group: P N M A
;
_chemical_formula_sum "Si O2"
_cell_formula_units_Z 40
_cell_length_a 27.023247
_cell_length_b 8.491226
_cell_length_c 9.312190
_cell_angle_alpha 90.000000
_cell_angle_beta 90.000000
_cell_angle_gamma 90.000000
_cell_volume 2136.779751
_symmetry_space_group_name_H-M "P N M A"
_symmetry_group_IT_number 62
_symmetry_cell_setting 'orthorhombic'
loop_
_space_group_symop_operation_xyz
x,y,z
1/2-x,-y,1/2+z
1/2+x,1/2-y,1/2-z
-x,1/2+y,-z
-x,-y,-z
1/2+x,y,1/2-z
1/2-x,1/2+y,1/2+z
x,1/2-y,z
loop_
_atom_site_type_symbol
_atom_site_label
_atom_site_fract_x
_atom_site_fract_y
_atom_site_fract_z
Si Si1 0.199449 0.940582 0.646434
Si Si2 0.109017 0.938498 0.153932
Si Si3 0.495457 0.939007 0.663596
Si Si4 0.896436 0.058393 0.180409
Si Si5 0.796065 0.938539 0.676876
O O1 0.198806 0.750000 0.646571
O O2 0.148688 0.996151 0.721548
O O3 0.246925 0.992687 0.738650
O O4 0.203655 0.998036 0.484370
O O5 0.110852 0.750000 0.155650
O O6 0.056237 0.992459 0.218239
O O7 0.155258 0.005434 0.239581
O O8 0.110834 0.990566 0.986122
O O9 0.492535 0.750000 0.663893
O O10 0.548276 0.987432 0.731085
O O11 0.500000 0.000000 0.500000
O O12 0.895613 0.250000 0.179578
O O13 0.795355 0.750000 0.673071
#
# Coordination Sequence:
#
# PCOD9463147 Si02
#       5
#     8   8   8   8   8
#     4  10  21  38  57  77 105 140 175 214 266 322
#     4  10  19  34  56  80 109 145 182 222 269 316
#     4   9  16  29  51  80 111 142 180 222 265 317
#     4   8  16  32  55  80 106 139 177 218 263 314
#     4  11  23  37  55  81 109 138 177 222 266 319
#
# _framework density 18.719759
#
# number of rings (size 3 to 8) (size 9 to 14) (size 15 to 20)
#    0.000    2.400    0.000    4.200    0.000    3.200 
#    0.000    7.000    0.000    0.000    0.000    0.000 
#    0.000    0.000    0.000    0.000    0.000    0.000 
#
# Total GULP energy -223115.106162 kJ/mol
# GULP energy per Si atom -5577.877654 kJ/mol
# Density = 1.867715 g / cm^3
# Si number density = 18.719759 Si / 1000 Ang^3
#
#
#
# Elastic Constant Matrix: (Units=GPa)
#
#
# Indices 1 2 3 4 5 6 
#
# 1 591.3547 111.3404 351.6899 0.0000 0.0000 0.0000
# 2 111.3404 41.3745 75.8114 0.0000 0.0000 0.0000
# 3 351.6899 75.8114 285.7403 0.0000 0.0000 0.0000
# 4 0.0000 0.0000 0.0000 25.6493 0.0000 0.0000
# 5 0.0000 0.0000 0.0000 0.0000 32.2948 0.0000
# 6 0.0000 0.0000 0.0000 0.0000 0.0000 16.8375
#
#
#
# Elastic Compliance Matrix: (Units=1/GPa)
#
#
# Indices 1 2 3 4 5 6 
#
# 1 0.006983 -0.005923 -0.007024 0.000000 0.000000 0.000000
# 2 -0.005923 0.052059 -0.006522 0.000000 0.000000 0.000000
# 3 -0.007024 -0.006522 0.013875 0.000000 0.000000 0.000000
# 4 0.000000 0.000000 0.000000 0.038987 0.000000 0.000000
# 5 0.000000 0.000000 0.000000 0.000000 0.030965 0.000000
# 6 0.000000 0.000000 0.000000 0.000000 0.000000 0.059391
#
#
# Mechanical properties :
#
#
# Convention : Reuss Voigt Hill
#
# Bulk Modulus (GPa) = 29.42959 221.79477 125.61218
# Shear Modulus (GPa) = 19.80013 40.26485 30.03249
#
# Velocity S-wave (km/s) = 3.25578 4.64284 4.00974
# Velocity P-wave (km/s) = 5.46706 12.14414 9.41724
#
# Compressibility (1/GPa) = 0.03397941
#
# Stress axis : x y z
#
# Youngs Moduli (GPa) = 143.20087 19.20914 72.07301
#
# Poissons Ratio (x) = 0.11377 0.50621
# Poissons Ratio (y) = 0.84812 0.47009
# Poissons Ratio (z) = 1.00578 0.12529
#
# Static dielectric constant tensor:
#      x y z
#    x 1.677480 0.000000 0.000000 
#    y 0.000000 1.637700 0.000000 
#    z 0.000000 0.000000 1.612490 
# 
# From -- ./inp_files/9069.got.cif
#   From: 2010.05.17/outbox.cif.g08.bks.cpg/sg62_5_cif.got.tgz:9069.got - 2010.06.03 15:25:27.
