data_PCOD9463375
_publ_section_title
;
Structure prediction by ZEFSAII (Michael W. Deem and Ramdas Pophale) SiO2 
 PCOD9463375
Probable space group: P N M A
;
_chemical_formula_sum "Si O2"
_cell_formula_units_Z 48
_cell_length_a 13.217355
_cell_length_b 21.286612
_cell_length_c 8.197660
_cell_angle_alpha 90.000000
_cell_angle_beta 90.000000
_cell_angle_gamma 90.000000
_cell_volume 2306.433837
_symmetry_space_group_name_H-M "P N M A"
_symmetry_group_IT_number 62
_symmetry_cell_setting 'orthorhombic'
loop_
_space_group_symop_operation_xyz
x,y,z
1/2-x,-y,1/2+z
1/2+x,1/2-y,1/2-z
-x,1/2+y,-z
-x,-y,-z
1/2+x,y,1/2-z
1/2-x,1/2+y,1/2+z
x,1/2-y,z
loop_
_atom_site_type_symbol
_atom_site_label
_atom_site_fract_x
_atom_site_fract_y
_atom_site_fract_z
Si Si1 0.032105 0.428217 0.482084
Si Si2 0.757868 0.888457 0.624389
Si Si3 0.004934 0.914846 0.164804
Si Si4 0.689574 0.613730 0.957216
Si Si5 0.346295 0.994603 0.527163
Si Si6 0.676737 0.824160 0.309772
O O1 0.055765 0.410011 0.668394
O O2 0.930412 0.392276 0.434174
O O3 0.000000 0.500000 0.500000
O O4 0.127858 0.413586 0.372768
O O5 0.743186 0.846969 0.462847
O O6 0.683639 0.949015 0.597153
O O7 0.732485 0.854457 0.793627
O O8 0.064541 0.850189 0.143043
O O9 0.928900 0.944388 0.034825
O O10 0.098256 0.965705 0.169849
O O11 0.745105 0.545614 0.949588
O O12 0.706054 0.644547 0.134903
O O13 0.678663 0.750000 0.292201
#
# Coordination Sequence:
#
# PCOD9463375 Si02
#       6
#     8   8   8   8   8   8
#     4  11  19  34  58  92 131 166 202 253 330 397
#     4  11  23  37  64  96 131 170 209 270 331 396
#     4   9  20  35  61  92 128 167 211 260 321 389
#     4  11  23  37  62  92 127 166 211 267 323 386
#     4  10  19  35  58  98 135 159 206 266 338 392
#     4  10  24  45  64  89 127 175 222 265 316 387
#
# _framework density 20.811350000000001
#
# number of rings (size 3 to 8) (size 9 to 14) (size 15 to 20)
#    0.000    1.667    1.667    3.000    4.667    3.333 
#    0.000    7.500    0.000    2.000    0.000    0.000 
#    0.000    0.000    0.000    0.000    0.000    0.000 
#
# Total GULP energy -267654.628764 kJ/mol
# GULP energy per Si atom -5576.138099 kJ/mol
# Density = 2.076398 g / cm^3
# Si number density = 20.811350 Si / 1000 Ang^3
#
#
#
# Elastic Constant Matrix: (Units=GPa)
#
#
# Indices 1 2 3 4 5 6 
#
# 1 63.4826 28.4622 47.4423 0.0000 0.0000 0.0000
# 2 28.4622 80.9967 41.1842 0.0000 0.0000 0.0000
# 3 47.4423 41.1842 130.2299 0.0000 0.0000 0.0000
# 4 0.0000 0.0000 0.0000 13.1986 0.0000 0.0000
# 5 0.0000 0.0000 0.0000 0.0000 28.8784 0.0000
# 6 0.0000 0.0000 0.0000 0.0000 0.0000 13.8086
#
#
#
# Elastic Compliance Matrix: (Units=1/GPa)
#
#
# Indices 1 2 3 4 5 6 
#
# 1 0.022970 -0.004548 -0.006930 0.000000 0.000000 0.000000
# 2 -0.004548 0.015612 -0.003280 0.000000 0.000000 0.000000
# 3 -0.006930 -0.003280 0.011241 0.000000 0.000000 0.000000
# 4 0.000000 0.000000 0.000000 0.075766 0.000000 0.000000
# 5 0.000000 0.000000 0.000000 0.000000 0.034628 0.000000
# 6 0.000000 0.000000 0.000000 0.000000 0.000000 0.072418
#
#
# Mechanical properties :
#
#
# Convention : Reuss Voigt Hill
#
# Bulk Modulus (GPa) = 49.24488 56.54296 52.89392
# Shear Modulus (GPa) = 18.59283 21.68515 20.13899
#
# Velocity S-wave (km/s) = 2.99222 3.23148 3.11415
# Velocity P-wave (km/s) = 5.97091 6.41495 6.19691
#
# Compressibility (1/GPa) = 0.02030668
#
# Stress axis : x y z
#
# Youngs Moduli (GPa) = 43.53456 64.05164 88.96343
#
# Poissons Ratio (x) = 0.29132 0.61648
# Poissons Ratio (y) = 0.19801 0.29184
# Poissons Ratio (z) = 0.30168 0.21011
#
# Static dielectric constant tensor:
#      x y z
#    x 1.781970 0.000000 0.000000 
#    y 0.000000 1.732310 0.000000 
#    z 0.000000 0.000000 -3.554400 
# 
# From -- ./inp_files/6626.got.cif
#   From: 2010.05.17/outbox.cif.g08.bks.cpg/sg62_4_cif.got.tgz:6626.got - 2010.06.03 15:25:27.
