data_PCOD9463288
_publ_section_title
;
Structure prediction by ZEFSAII (Michael W. Deem and Ramdas Pophale) SiO2 
 PCOD9463288
Probable space group: P N M A
;
_chemical_formula_sum "Si O2"
_cell_formula_units_Z 56
_cell_length_a 20.117176
_cell_length_b 25.531239
_cell_length_c 5.250360
_cell_angle_alpha 90.000000
_cell_angle_beta 90.000000
_cell_angle_gamma 90.000000
_cell_volume 2696.671151
_symmetry_space_group_name_H-M "P N M A"
_symmetry_group_IT_number 62
_symmetry_cell_setting 'orthorhombic'
loop_
_space_group_symop_operation_xyz
x,y,z
1/2-x,-y,1/2+z
1/2+x,1/2-y,1/2-z
-x,1/2+y,-z
-x,-y,-z
1/2+x,y,1/2-z
1/2-x,1/2+y,1/2+z
x,1/2-y,z
loop_
_atom_site_type_symbol
_atom_site_label
_atom_site_fract_x
_atom_site_fract_y
_atom_site_fract_z
Si Si1 0.738671 0.250000 0.027661
Si Si2 0.434586 0.537303 0.242748
Si Si3 0.633057 0.643911 0.820602
Si Si4 0.152553 0.449476 0.245120
Si Si5 0.554613 0.926706 0.539965
Si Si6 0.687663 0.937929 0.211423
Si Si7 0.266565 0.638020 0.976188
Si Si8 0.673083 0.750000 0.032625
O O1 0.701653 0.194713 0.977810
O O2 0.795680 0.250000 0.811080
O O3 0.767816 0.250000 0.317373
O O4 0.381371 0.546462 0.470110
O O5 0.456302 0.476451 0.274775
O O6 0.498249 0.571142 0.326219
O O7 0.402626 0.548111 0.969906
O O8 0.564513 0.627232 0.689893
O O9 0.692823 0.652692 0.621866
O O10 0.632710 0.696331 0.987225
O O11 0.657755 0.592276 0.970746
O O12 0.199290 0.500038 0.305978
O O13 0.192806 0.396129 0.276429
O O14 0.626262 0.935315 0.409296
O O15 0.749862 0.903160 0.300592
#
# Coordination Sequence:
#
# PCOD9463288 Si02
#       8
#     4   8   8   8   8   8   8   4
#     4  10  20  38  54  80 105 155 190 226 267 334
#     4  10  22  37  55  80 112 149 191 221 269 339
#     4  10  19  35  54  83 109 148 177 237 283 338
#     4  11  24  35  54  84 116 152 182 226 281 337
#     4   9  20  35  55  80 110 147 185 230 275 333
#     4  10  20  32  55  83 115 141 181 229 295 333
#     4  10  23  35  56  81 118 147 190 229 284 343
#     4  10  20  34  56  80 113 137 190 228 285 336
#
# _framework density 20.766342000000002
#
# number of rings (size 3 to 8) (size 9 to 14) (size 15 to 20)
#    0.000    2.000    2.857    0.000    6.000    1.714 
#    0.000    0.000    0.000    1.714    0.000    0.000 
#    0.000    0.000    0.000    0.000    0.000    0.000 
#
# Total GULP energy -312346.489446 kJ/mol
# GULP energy per Si atom -5577.615883 kJ/mol
# Density = 2.071908 g / cm^3
# Si number density = 20.766342 Si / 1000 Ang^3
#
#
#
# Elastic Constant Matrix: (Units=GPa)
#
#
# Indices 1 2 3 4 5 6 
#
# 1 38.4435 26.5365 18.7562 0.0000 0.0000 0.0000
# 2 26.5365 142.5052 12.1591 0.0000 0.0000 0.0000
# 3 18.7562 12.1591 73.9202 0.0000 0.0000 0.0000
# 4 0.0000 0.0000 0.0000 25.1953 0.0000 0.0000
# 5 0.0000 0.0000 0.0000 0.0000 32.6284 0.0000
# 6 0.0000 0.0000 0.0000 0.0000 0.0000 22.7882
#
#
#
# Elastic Compliance Matrix: (Units=1/GPa)
#
#
# Indices 1 2 3 4 5 6 
#
# 1 0.033591 -0.005607 -0.007601 0.000000 0.000000 0.000000
# 2 -0.005607 0.008053 0.000098 0.000000 0.000000 0.000000
# 3 -0.007601 0.000098 0.015441 0.000000 0.000000 0.000000
# 4 0.000000 0.000000 0.000000 0.039690 0.000000 0.000000
# 5 0.000000 0.000000 0.000000 0.000000 0.030648 0.000000
# 6 0.000000 0.000000 0.000000 0.000000 0.000000 0.043882
#
#
# Mechanical properties :
#
#
# Convention : Reuss Voigt Hill
#
# Bulk Modulus (GPa) = 32.39895 41.08584 36.74239
# Shear Modulus (GPa) = 24.06018 29.28350 26.67184
#
# Velocity S-wave (km/s) = 3.40754 3.75926 3.58771
# Velocity P-wave (km/s) = 5.57828 6.21856 5.90710
#
# Compressibility (1/GPa) = 0.03086520
#
# Stress axis : x y z
#
# Youngs Moduli (GPa) = 29.77018 124.17824 64.76423
#
# Poissons Ratio (x) = 0.69621 0.49227
# Poissons Ratio (y) = 0.16691 -0.00634
# Poissons Ratio (z) = 0.22628 -0.01216
#
# Static dielectric constant tensor:
#      x y z
#    x 1.758940 0.000000 0.000000 
#    y 0.000000 1.841530 0.000000 
#    z 0.000000 0.000000 1.824870 
# 
# From -- ./inp_files/2310.got.cif
#   From: 2010.05.17/outbox.cif.g08.bks.cpg/sg62_2_cif.got.tgz:2310.got - 2010.06.03 15:25:27.
