data_PCOD9463806
_publ_section_title
;
Structure prediction by ZEFSAII (Michael W. Deem and Ramdas Pophale) SiO2 
 PCOD9463806
Probable space group: P N M A
;
_chemical_formula_sum "Si O2"
_cell_formula_units_Z 64
_cell_length_a 8.450095
_cell_length_b 21.675492
_cell_length_c 18.301105
_cell_angle_alpha 90.000000
_cell_angle_beta 90.000000
_cell_angle_gamma 90.000000
_cell_volume 3352.029780
_symmetry_space_group_name_H-M "P N M A"
_symmetry_group_IT_number 62
_symmetry_cell_setting 'orthorhombic'
loop_
_space_group_symop_operation_xyz
x,y,z
1/2-x,-y,1/2+z
1/2+x,1/2-y,1/2-z
-x,1/2+y,-z
-x,-y,-z
1/2+x,y,1/2-z
1/2-x,1/2+y,1/2+z
x,1/2-y,z
loop_
_atom_site_type_symbol
_atom_site_label
_atom_site_fract_x
_atom_site_fract_y
_atom_site_fract_z
Si Si1 0.606280 0.404155 0.513263
Si Si2 0.787941 0.445003 0.641364
Si Si3 0.065643 0.605930 0.675666
Si Si4 0.847886 0.928746 0.558074
Si Si5 0.095832 0.679339 0.921244
Si Si6 0.124797 0.178659 0.215260
Si Si7 0.892229 0.970755 0.283451
Si Si8 0.192742 0.522766 0.076294
O O1 0.742859 0.401054 0.574011
O O2 0.544873 0.342278 0.475710
O O3 0.457729 0.435411 0.555957
O O4 0.648876 0.454169 0.450615
O O5 0.783343 0.514008 0.606423
O O6 0.662645 0.443236 0.707183
O O7 0.959570 0.437852 0.678039
O O8 0.231463 0.639346 0.683578
O O9 0.062759 0.543107 0.722921
O O10 0.015428 0.587650 0.593749
O O11 0.932529 0.650523 0.708701
O O12 0.733598 0.870180 0.566538
O O13 0.835792 0.952839 0.475542
O O14 0.143159 0.750000 0.934083
O O15 0.023196 0.674560 0.840116
O O16 0.171394 0.250000 0.222127
O O17 0.746793 0.972449 0.340791
#
# Coordination Sequence:
#
# PCOD9463806 Si02
#       8
#     8   8   8   8   8   8   8   8
#     4   9  18  33  50  71  99 130 159 196 245 290
#     4  10  20  31  49  74 102 130 158 199 246 297
#     4  11  21  32  48  67  99 133 165 205 239 280
#     4   9  20  34  49  72 100 132 164 199 246 290
#     4  10  20  34  52  71  94 128 168 203 238 284
#     4  11  22  33  46  66  94 134 176 208 235 269
#     4  11  20  31  50  76 100 127 161 198 250 300
#     4   9  18  32  51  72 101 130 157 196 245 302
#
# _framework density 19.092908000000001
#
# number of rings (size 3 to 8) (size 9 to 14) (size 15 to 20)
#    0.000    2.000    0.000    5.625    0.000    7.500 
#    0.000    0.000    0.000    0.000    0.000    7.875 
#    0.000    0.000    0.000    0.000    0.000    0.000 
#
# Total GULP energy -357600.048650 kJ/mol
# GULP energy per Si atom -5587.500760 kJ/mol
# Density = 1.904945 g / cm^3
# Si number density = 19.092908 Si / 1000 Ang^3
#
#
#
# Elastic Constant Matrix: (Units=GPa)
#
#
# Indices 1 2 3 4 5 6 
#
# 1 43.4542 2.8399 -1.1657 0.0000 0.0000 0.0000
# 2 2.8399 35.7427 8.0890 0.0000 0.0000 0.0000
# 3 -1.1657 8.0890 70.7372 0.0000 0.0000 0.0000
# 4 0.0000 0.0000 0.0000 17.8451 0.0000 0.0000
# 5 0.0000 0.0000 0.0000 0.0000 40.2482 0.0000
# 6 0.0000 0.0000 0.0000 0.0000 0.0000 23.0554
#
#
#
# Elastic Compliance Matrix: (Units=1/GPa)
#
#
# Indices 1 2 3 4 5 6 
#
# 1 0.023158 -0.001978 0.000608 0.000000 0.000000 0.000000
# 2 -0.001978 0.028890 -0.003336 0.000000 0.000000 0.000000
# 3 0.000608 -0.003336 0.014528 0.000000 0.000000 0.000000
# 4 0.000000 0.000000 0.000000 0.056038 0.000000 0.000000
# 5 0.000000 0.000000 0.000000 0.000000 0.024846 0.000000
# 6 0.000000 0.000000 0.000000 0.000000 0.000000 0.043374
#
#
# Mechanical properties :
#
#
# Convention : Reuss Voigt Hill
#
# Bulk Modulus (GPa) = 17.49338 18.82894 18.16116
# Shear Modulus (GPa) = 22.79971 25.57445 24.18708
#
# Velocity S-wave (km/s) = 3.45939 3.66385 3.56309
# Velocity P-wave (km/s) = 5.01384 5.27082 5.14394
#
# Compressibility (1/GPa) = 0.05716449
#
# Stress axis : x y z
#
# Youngs Moduli (GPa) = 43.18107 34.61420 68.83090
#
# Poissons Ratio (x) = 0.06845 -0.04183
# Poissons Ratio (y) = 0.08539 0.22964
# Poissons Ratio (z) = -0.02624 0.11548
#
# Static dielectric constant tensor:
#      x y z
#    x 1.734500 0.000000 0.000000 
#    y 0.000000 1.619500 0.000000 
#    z 0.000000 0.000000 1.683770 
# 
# From -- ./inp_files/22568.got.cif
#   From: 2010.05.17/outbox.cif.g08.bks.cpg/sg62_12_cif.got.tgz:22568.got - 2010.06.03 15:25:27.
