data_PCOD9463782
_publ_section_title
;
Structure prediction by ZEFSAII (Michael W. Deem and Ramdas Pophale) SiO2 
 PCOD9463782
Probable space group: P N M A
;
_chemical_formula_sum "Si O2"
_cell_formula_units_Z 44
_cell_length_a 5.077512
_cell_length_b 22.157796
_cell_length_c 25.146673
_cell_angle_alpha 90.000000
_cell_angle_beta 90.000000
_cell_angle_gamma 90.000000
_cell_volume 2829.163539
_symmetry_space_group_name_H-M "P N M A"
_symmetry_group_IT_number 62
_symmetry_cell_setting 'orthorhombic'
loop_
_space_group_symop_operation_xyz
x,y,z
1/2-x,-y,1/2+z
1/2+x,1/2-y,1/2-z
-x,1/2+y,-z
-x,-y,-z
1/2+x,y,1/2-z
1/2-x,1/2+y,1/2+z
x,1/2-y,z
loop_
_atom_site_type_symbol
_atom_site_label
_atom_site_fract_x
_atom_site_fract_y
_atom_site_fract_z
Si Si1 0.427978 0.750000 0.521069
Si Si2 0.192642 0.418065 0.906154
Si Si3 0.634077 0.114610 0.469870
Si Si4 0.922081 0.750000 0.455364
Si Si5 0.220789 0.250000 0.714064
Si Si6 0.314399 0.852993 0.128553
Si Si7 0.390538 0.961387 0.949944
O O1 0.372466 0.684738 0.546044
O O2 0.735678 0.750000 0.506374
O O3 0.229354 0.750000 0.469916
O O4 0.402123 0.384025 0.869262
O O5 0.276091 0.487825 0.910708
O O6 0.904803 0.402707 0.884415
O O7 0.204226 0.392062 0.966979
O O8 0.352615 0.081840 0.464720
O O9 0.856796 0.079255 0.436637
O O10 0.838806 0.692116 0.421510
O O11 0.431543 0.250000 0.760934
O O12 0.252390 0.190556 0.677542
O O13 0.500000 0.000000 0.000000
#
# Coordination Sequence:
#
# PCOD9463782 Si02
#       7
#     4   8   8   4   4   8   8
#     4  12  20  27  44  55  88 106 154 182 222 263
#     4  11  18  31  45  66  81 108 148 193 220 279
#     4  11  19  30  41  62  86 118 141 188 236 264
#     4  11  18  30  38  63  80 104 136 204 214 255
#     4  11  24  39  50  68  96 118 140 192 254 296
#     4  11  20  31  51  64  81 110 151 183 236 273
#     4  10  20  30  42  58  89 114 139 180 243 274
#
# _framework density 15.552300000000001
#
# number of rings (size 3 to 8) (size 9 to 14) (size 15 to 20)
#    0.000    1.091    3.636    7.636    0.000    2.909 
#    0.000    0.000    0.000    0.000    0.000    0.000 
#    0.000    0.000    0.000    0.000    0.000    0.000 
#
# Total GULP energy -245304.615677 kJ/mol
# GULP energy per Si atom -5575.104902 kJ/mol
# Density = 1.551690 g / cm^3
# Si number density = 15.552300 Si / 1000 Ang^3
#
#
#
# Elastic Constant Matrix: (Units=GPa)
#
#
# Indices 1 2 3 4 5 6 
#
# 1 82.6719 27.9290 -2.2156 0.0000 0.0000 0.0000
# 2 27.9290 108.1257 4.5221 0.0000 0.0000 0.0000
# 3 -2.2156 4.5221 13.5757 0.0000 0.0000 0.0000
# 4 0.0000 0.0000 0.0000 6.1694 0.0000 0.0000
# 5 0.0000 0.0000 0.0000 0.0000 16.2694 0.0000
# 6 0.0000 0.0000 0.0000 0.0000 0.0000 28.7759
#
#
#
# Elastic Compliance Matrix: (Units=1/GPa)
#
#
# Indices 1 2 3 4 5 6 
#
# 1 0.013404 -0.003604 0.003388 0.000000 0.000000 0.000000
# 2 -0.003604 0.010348 -0.004035 0.000000 0.000000 0.000000
# 3 0.003388 -0.004035 0.075558 0.000000 0.000000 0.000000
# 4 0.000000 0.000000 0.000000 0.162091 0.000000 0.000000
# 5 0.000000 0.000000 0.000000 0.000000 0.061465 0.000000
# 6 0.000000 0.000000 0.000000 0.000000 0.000000 0.034751
#
#
# Mechanical properties :
#
#
# Convention : Reuss Voigt Hill
#
# Bulk Modulus (GPa) = 11.01220 29.42714 20.21967
# Shear Modulus (GPa) = 12.61383 21.85211 17.23297
#
# Velocity S-wave (km/s) = 2.85100 3.75250 3.33237
# Velocity P-wave (km/s) = 4.23482 6.14308 5.27594
#
# Compressibility (1/GPa) = 0.09080837
#
# Stress axis : x y z
#
# Youngs Moduli (GPa) = 74.60253 96.63523 13.23486
#
# Poissons Ratio (x) = 0.34828 -0.04484
# Poissons Ratio (y) = 0.26887 0.05340
# Poissons Ratio (z) = -0.25276 0.38994
#
# Static dielectric constant tensor:
#      x y z
#    x 1.541670 0.000000 0.000000 
#    y 0.000000 1.568160 0.000000 
#    z 0.000000 0.000000 1.483960 
# 
# From -- ./inp_files/25292.got.cif
#   From: 2010.05.17/outbox.cif.g08.bks.cpg/sg62_13_cif.got.tgz:25292.got - 2010.06.03 15:25:27.
