data_PCOD9463328
_publ_section_title
;
Structure prediction by ZEFSAII (Michael W. Deem and Ramdas Pophale) SiO2 
 PCOD9463328
Probable space group: P N M A
;
_chemical_formula_sum "Si O2"
_cell_formula_units_Z 64
_cell_length_a 19.295311
_cell_length_b 15.219262
_cell_length_c 8.400988
_cell_angle_alpha 90.000000
_cell_angle_beta 90.000000
_cell_angle_gamma 90.000000
_cell_volume 2467.037442
_symmetry_space_group_name_H-M "P N M A"
_symmetry_group_IT_number 62
_symmetry_cell_setting 'orthorhombic'
loop_
_space_group_symop_operation_xyz
x,y,z
1/2-x,-y,1/2+z
1/2+x,1/2-y,1/2-z
-x,1/2+y,-z
-x,-y,-z
1/2+x,y,1/2-z
1/2-x,1/2+y,1/2+z
x,1/2-y,z
loop_
_atom_site_type_symbol
_atom_site_label
_atom_site_fract_x
_atom_site_fract_y
_atom_site_fract_z
Si Si1 0.648599 0.643368 0.743187
Si Si2 0.064917 0.849735 0.052013
Si Si3 0.382210 0.899066 0.748966
Si Si4 0.766581 0.853114 0.958293
Si Si5 0.690148 0.147953 0.922945
Si Si6 0.054251 0.357906 0.742370
Si Si7 0.485209 0.144414 0.084345
Si Si8 0.183217 0.587870 0.236962
O O1 0.654553 0.750000 0.720361
O O2 0.609295 0.607144 0.588860
O O3 0.723136 0.613734 0.803493
O O4 0.594214 0.623209 0.883531
O O5 0.048511 0.750000 0.000636
O O6 0.120594 0.845961 0.196348
O O7 0.993083 0.889717 0.112921
O O8 0.346779 0.862085 0.589388
O O9 0.463574 0.887183 0.775921
O O10 0.357904 0.998388 0.751281
O O11 0.347544 0.855391 0.906645
O O12 0.753090 0.750000 0.977477
O O13 0.730685 0.895586 0.109962
O O14 0.708379 0.250000 0.890900
O O15 0.633400 0.117777 0.792369
O O16 0.760349 0.093992 0.905480
O O17 0.053432 0.250000 0.745029
O O18 0.013967 0.388212 0.582999
O O19 0.490412 0.250000 0.083715
#
# Coordination Sequence:
#
# PCOD9463328 Si02
#       8
#     8   8   8   8   8   8   8   8
#     4   9  19  34  58  85 109 141 191 243 282 327
#     4  10  19  35  57  83 113 148 187 234 286 341
#     4  11  23  39  57  84 118 152 187 234 290 343
#     4  11  22  38  59  84 112 151 196 238 281 337
#     4  10  20  39  62  83 110 153 197 234 280 342
#     4   8  16  31  56  83 107 138 187 238 277 325
#     4   9  17  35  59  82 107 143 188 234 279 336
#     4  12  24  37  55  86 120 150 186 237 289 339
#
# _framework density 25.942048
#
# number of rings (size 3 to 8) (size 9 to 14) (size 15 to 20)
#    0.000    2.000    0.000    5.250    0.000    4.000 
#    0.000   10.000    0.000    0.000    0.000    0.000 
#    0.000    0.000    0.000    0.000    0.000    0.000 
#
# Total GULP energy -358022.615898 kJ/mol
# GULP energy per Si atom -5594.103373 kJ/mol
# Density = 2.588300 g / cm^3
# Si number density = 25.942048 Si / 1000 Ang^3
#
#
#
# Elastic Constant Matrix: (Units=GPa)
#
#
# Indices 1 2 3 4 5 6 
#
# 1 109.9849 -5.6014 2.8303 0.0000 0.0000 0.0000
# 2 -5.6014 49.7085 -5.3212 0.0000 0.0000 0.0000
# 3 2.8303 -5.3212 60.5759 0.0000 0.0000 0.0000
# 4 0.0000 0.0000 0.0000 30.3009 0.0000 0.0000
# 5 0.0000 0.0000 0.0000 0.0000 38.4558 0.0000
# 6 0.0000 0.0000 0.0000 0.0000 0.0000 15.2028
#
#
#
# Elastic Compliance Matrix: (Units=1/GPa)
#
#
# Indices 1 2 3 4 5 6 
#
# 1 0.009152 0.000995 -0.000340 0.000000 0.000000 0.000000
# 2 0.000995 0.020416 0.001747 0.000000 0.000000 0.000000
# 3 -0.000340 0.001747 0.016678 0.000000 0.000000 0.000000
# 4 0.000000 0.000000 0.000000 0.033002 0.000000 0.000000
# 5 0.000000 0.000000 0.000000 0.000000 0.026004 0.000000
# 6 0.000000 0.000000 0.000000 0.000000 0.000000 0.065777
#
#
# Mechanical properties :
#
#
# Convention : Reuss Voigt Hill
#
# Bulk Modulus (GPa) = 19.58913 22.67608 21.13260
# Shear Modulus (GPa) = 27.28630 32.01601 29.65116
#
# Velocity S-wave (km/s) = 3.24669 3.51684 3.38446
# Velocity P-wave (km/s) = 4.64997 5.02503 4.84113
#
# Compressibility (1/GPa) = 0.05104871
#
# Stress axis : x y z
#
# Youngs Moduli (GPa) = 109.27080 48.98027 59.96080
#
# Poissons Ratio (x) = -0.04873 0.02040
# Poissons Ratio (y) = -0.10871 -0.10475
# Poissons Ratio (z) = 0.03717 -0.08557
#
# Static dielectric constant tensor:
#      x y z
#    x 1.965700 0.000000 0.000000 
#    y 0.000000 1.982770 0.000000 
#    z 0.000000 0.000000 2.114810 
# 
# From -- ./inp_files/8855.got.cif
#   From: 2010.05.17/outbox.cif.g08.bks.cpg/sg62_5_cif.got.tgz:8855.got - 2010.06.03 15:25:27.
