data_PCOD9463044
_publ_section_title
;
Structure prediction by ZEFSAII (Michael W. Deem and Ramdas Pophale) SiO2 
 PCOD9463044
Probable space group: P N M A
;
_chemical_formula_sum "Si O2"
_cell_formula_units_Z 40
_cell_length_a 10.507208
_cell_length_b 20.191729
_cell_length_c 11.343894
_cell_angle_alpha 90.000000
_cell_angle_beta 90.000000
_cell_angle_gamma 90.000000
_cell_volume 2406.705764
_symmetry_space_group_name_H-M "P N M A"
_symmetry_group_IT_number 62
_symmetry_cell_setting 'orthorhombic'
loop_
_space_group_symop_operation_xyz
x,y,z
1/2-x,-y,1/2+z
1/2+x,1/2-y,1/2-z
-x,1/2+y,-z
-x,-y,-z
1/2+x,y,1/2-z
1/2-x,1/2+y,1/2+z
x,1/2-y,z
loop_
_atom_site_type_symbol
_atom_site_label
_atom_site_fract_x
_atom_site_fract_y
_atom_site_fract_z
Si Si1 0.316581 0.621798 0.223036
Si Si2 0.939584 0.487837 0.188693
Si Si3 0.078714 0.826475 0.371958
Si Si4 0.678564 0.537247 0.446560
Si Si5 0.588976 0.943420 0.943397
O O1 0.350727 0.550654 0.280591
O O2 0.449930 0.659107 0.203247
O O3 0.206513 0.657489 0.297126
O O4 0.257611 0.600256 0.097221
O O5 0.944303 0.442658 0.304714
O O6 0.074161 0.519361 0.152038
O O7 0.887478 0.452518 0.072101
O O8 0.079909 0.750000 0.407296
O O9 0.075813 0.876823 0.482337
O O10 0.770234 0.473813 0.455290
O O11 0.500000 0.000000 0.000000
#
# Coordination Sequence:
#
# PCOD9463044 Si02
#       5
#     8   8   8   8   8
#     4  11  20  37  57  83 116 147 188 229 279 342
#     4  10  20  32  57  89 114 140 180 238 290 329
#     4  12  24  38  56  83 117 154 189 235 288 340
#     4  10  19  33  58  86 114 140 180 235 287 328
#     4  11  20  33  57  81 110 143 192 232 273 337
#
# _framework density 16.620228999999998
#
# number of rings (size 3 to 8) (size 9 to 14) (size 15 to 20)
#    0.000    1.200    8.000    0.600    2.800    0.000 
#    0.000    0.000    0.000    6.000    0.000    0.000 
#    0.000    0.000    0.000    0.000    0.000    0.000 
#
# Total GULP energy -223063.633270 kJ/mol
# GULP energy per Si atom -5576.590832 kJ/mol
# Density = 1.658240 g / cm^3
# Si number density = 16.620229 Si / 1000 Ang^3
#
#
#
# Elastic Constant Matrix: (Units=GPa)
#
#
# Indices 1 2 3 4 5 6 
#
# 1 104.6507 30.2488 41.6052 0.0000 0.0000 0.0000
# 2 30.2488 107.2939 43.3105 0.0000 0.0000 0.0000
# 3 41.6052 43.3105 97.4380 0.0000 0.0000 0.0000
# 4 0.0000 0.0000 0.0000 18.4953 0.0000 0.0000
# 5 0.0000 0.0000 0.0000 0.0000 30.4317 0.0000
# 6 0.0000 0.0000 0.0000 0.0000 0.0000 12.0405
#
#
#
# Elastic Compliance Matrix: (Units=1/GPa)
#
#
# Indices 1 2 3 4 5 6 
#
# 1 0.011721 -0.001565 -0.004309 0.000000 0.000000 0.000000
# 2 -0.001565 0.011567 -0.004473 0.000000 0.000000 0.000000
# 3 -0.004309 -0.004473 0.014091 0.000000 0.000000 0.000000
# 4 0.000000 0.000000 0.000000 0.054068 0.000000 0.000000
# 5 0.000000 0.000000 0.000000 0.000000 0.032861 0.000000
# 6 0.000000 0.000000 0.000000 0.000000 0.000000 0.083053
#
#
# Mechanical properties :
#
#
# Convention : Reuss Voigt Hill
#
# Bulk Modulus (GPa) = 59.93559 59.96796 59.95177
# Shear Modulus (GPa) = 21.40256 25.14138 23.27197
#
# Velocity S-wave (km/s) = 3.59240 3.89356 3.74601
# Velocity P-wave (km/s) = 7.30392 7.50818 7.40675
#
# Compressibility (1/GPa) = 0.01668458
#
# Stress axis : x y z
#
# Youngs Moduli (GPa) = 85.31599 86.45215 70.96610
#
# Poissons Ratio (x) = 0.13530 0.30581
# Poissons Ratio (y) = 0.13352 0.31745
# Poissons Ratio (z) = 0.36764 0.38672
#
# Static dielectric constant tensor:
#      x y z
#    x 1.613950 0.000000 0.000000 
#    y 0.000000 1.526450 0.000000 
#    z 0.000000 0.000000 1.590430 
# 
# From -- ./inp_files/11211.got.cif
#   From: 2010.05.17/outbox.cif.g08.bks.cpg/sg62_6_cif.got.tgz:11211.got - 2010.06.03 15:25:27.
