data_PCOD9463472
_publ_section_title
;
Structure prediction by ZEFSAII (Michael W. Deem and Ramdas Pophale) SiO2 
 PCOD9463472
Probable space group: P N M A
;
_chemical_formula_sum "Si O2"
_cell_formula_units_Z 32
_cell_length_a 5.676751
_cell_length_b 12.688013
_cell_length_c 16.048912
_cell_angle_alpha 90.000000
_cell_angle_beta 90.000000
_cell_angle_gamma 90.000000
_cell_volume 1155.950017
_symmetry_space_group_name_H-M "P N M A"
_symmetry_group_IT_number 62
_symmetry_cell_setting 'orthorhombic'
loop_
_space_group_symop_operation_xyz
x,y,z
1/2-x,-y,1/2+z
1/2+x,1/2-y,1/2-z
-x,1/2+y,-z
-x,-y,-z
1/2+x,y,1/2-z
1/2-x,1/2+y,1/2+z
x,1/2-y,z
loop_
_atom_site_type_symbol
_atom_site_label
_atom_site_fract_x
_atom_site_fract_y
_atom_site_fract_z
Si Si1 0.133143 0.865931 0.200194
Si Si2 0.871140 0.589733 0.879431
Si Si3 0.637123 0.866046 0.046640
Si Si4 0.126364 0.404756 0.387389
O O1 0.383699 0.871569 0.249623
O O2 0.136329 0.750000 0.160085
O O3 0.128196 0.965893 0.140199
O O4 0.840899 0.615136 0.977481
O O5 0.618352 0.627323 0.844130
O O6 0.125124 0.630211 0.852812
O O7 0.652518 0.750000 0.084805
O O8 0.414715 0.870024 0.983216
O O9 0.629269 0.967696 0.104622
#
# Coordination Sequence:
#
# PCOD9463472 Si02
#       4
#     8   8   8   8
#     4  10  21  36  56  79 102 132 170 215 265 310
#     4  10  19  36  52  77 104 137 171 210 261 303
#     4   9  20  34  52  77 109 141 174 207 251 306
#     4   9  20  34  50  79 108 140 171 207 252 301
#
# _framework density 27.682856000000001
#
# number of rings (size 3 to 8) (size 9 to 14) (size 15 to 20)
#    1.500    1.000    0.000    2.250    0.000    3.000 
#    0.000    0.000    0.000    1.500    0.000    0.000 
#    0.000    0.000    0.000    0.000    0.000    0.000 
#
# Total GULP energy -178605.344413 kJ/mol
# GULP energy per Si atom -5581.417013 kJ/mol
# Density = 2.761985 g / cm^3
# Si number density = 27.682856 Si / 1000 Ang^3
#
#
#
# Elastic Constant Matrix: (Units=GPa)
#
#
# Indices 1 2 3 4 5 6 
#
# 1 335.2189 20.3110 50.9327 0.0000 0.0000 0.0000
# 2 20.3110 216.6702 21.0607 0.0000 0.0000 0.0000
# 3 50.9327 21.0607 58.4190 0.0000 0.0000 0.0000
# 4 0.0000 0.0000 0.0000 28.6961 0.0000 0.0000
# 5 0.0000 0.0000 0.0000 0.0000 32.2516 0.0000
# 6 0.0000 0.0000 0.0000 0.0000 0.0000 -1.1860
#
#
#
# Elastic Compliance Matrix: (Units=1/GPa)
#
#
# Indices 1 2 3 4 5 6 
#
# 1 0.003439 -0.000032 -0.002987 0.000000 0.000000 0.000000
# 2 -0.000032 0.004783 -0.001696 0.000000 0.000000 0.000000
# 3 -0.002987 -0.001696 0.020333 0.000000 0.000000 0.000000
# 4 0.000000 0.000000 0.000000 0.034848 0.000000 0.000000
# 5 0.000000 0.000000 0.000000 0.000000 0.031006 0.000000
# 6 0.000000 0.000000 0.000000 0.000000 0.000000 -0.843193
#
#
# Mechanical properties :
#
#
# Convention : Reuss Voigt Hill
#
# Bulk Modulus (GPa) = 52.28757 88.32410 70.30584
# Shear Modulus (GPa) = -6.82148 46.48593 19.83222
#
# Velocity S-wave (km/s) = -1.57147 4.10229 2.67948
# Velocity P-wave (km/s) = 3.95429 7.37654 5.91818
#
# Compressibility (1/GPa) = 0.01912500
#
# Stress axis : x y z
#
# Youngs Moduli (GPa) = 290.79495 209.06449 49.18072
#
# Poissons Ratio (x) = 0.00670 0.14688
# Poissons Ratio (y) = 0.00932 0.08343
# Poissons Ratio (z) = 0.86849 0.35467
#
# Static dielectric constant tensor:
#      x y z
#    x 2.233800 0.000000 0.000000 
#    y 0.000000 2.079240 0.000000 
#    z 0.000000 0.000000 2.112200 
# 
# From -- ./inp_files/25171.got.cif
#   From: 2010.05.17/outbox.cif.g08.bks.cpg/sg62_13_cif.got.tgz:25171.got - 2010.06.03 15:25:27.
