data_PCOD9463157
_publ_section_title
;
Structure prediction by ZEFSAII (Michael W. Deem and Ramdas Pophale) SiO2 
 PCOD9463157
Probable space group: P N M A
;
_chemical_formula_sum "Si O2"
_cell_formula_units_Z 48
_cell_length_a 9.980724
_cell_length_b 16.709753
_cell_length_c 12.403640
_cell_angle_alpha 90.000000
_cell_angle_beta 90.000000
_cell_angle_gamma 90.000000
_cell_volume 2068.622429
_symmetry_space_group_name_H-M "P N M A"
_symmetry_group_IT_number 62
_symmetry_cell_setting 'orthorhombic'
loop_
_space_group_symop_operation_xyz
x,y,z
1/2-x,-y,1/2+z
1/2+x,1/2-y,1/2-z
-x,1/2+y,-z
-x,-y,-z
1/2+x,y,1/2-z
1/2-x,1/2+y,1/2+z
x,1/2-y,z
loop_
_atom_site_type_symbol
_atom_site_label
_atom_site_fract_x
_atom_site_fract_y
_atom_site_fract_z
Si Si1 0.911946 0.883242 0.062853
Si Si2 0.006511 0.399971 0.705440
Si Si3 0.428541 0.658457 0.969280
Si Si4 0.782094 0.340184 0.375603
Si Si5 0.164292 0.940060 0.975598
Si Si6 0.730411 0.503132 0.287202
O O1 0.957264 0.853896 0.181866
O O2 0.038802 0.880569 0.980924
O O3 0.792309 0.846663 0.992413
O O4 0.873801 0.977241 0.081174
O O5 0.862162 0.443099 0.709518
O O6 0.028892 0.351956 0.595358
O O7 0.117047 0.469444 0.702922
O O8 0.386113 0.750000 0.952720
O O9 0.304746 0.599437 0.947212
O O10 0.561489 0.643066 0.899720
O O11 0.766290 0.250000 0.335257
O O12 0.726468 0.407328 0.294280
O O13 0.172515 0.968943 0.098241
#
# Coordination Sequence:
#
# PCOD9463157 Si02
#       6
#     8   8   8   8   8   8
#     4   9  17  32  54  78 103 135 178 223 264 319
#     4  10  19  34  56  82 106 135 179 226 273 321
#     4  10  21  35  53  81 115 146 177 223 284 339
#     4  10  21  36  52  74 107 145 181 220 272 331
#     4   8  17  33  52  76 104 138 180 217 260 326
#     4   9  19  34  53  75 103 138 179 223 265 320
#
# _framework density 23.203847
#
# number of rings (size 3 to 8) (size 9 to 14) (size 15 to 20)
#    0.000    2.667    0.000    2.000    0.000    8.667 
#    0.000   10.833    0.000    1.000    0.000    0.000 
#    0.000    0.000    0.000    0.000    0.000    0.000 
#
# Total GULP energy -267733.195613 kJ/mol
# GULP energy per Si atom -5577.774909 kJ/mol
# Density = 2.315103 g / cm^3
# Si number density = 23.203847 Si / 1000 Ang^3
#
#
#
# Elastic Constant Matrix: (Units=GPa)
#
#
# Indices 1 2 3 4 5 6 
#
# 1 112.2408 31.5345 -3.9769 0.0000 0.0000 0.0000
# 2 31.5345 81.7518 -0.0591 0.0000 0.0000 0.0000
# 3 -3.9769 -0.0591 36.5765 0.0000 0.0000 0.0000
# 4 0.0000 0.0000 0.0000 11.9795 0.0000 0.0000
# 5 0.0000 0.0000 0.0000 0.0000 17.3209 0.0000
# 6 0.0000 0.0000 0.0000 0.0000 0.0000 9.1815
#
#
#
# Elastic Compliance Matrix: (Units=1/GPa)
#
#
# Indices 1 2 3 4 5 6 
#
# 1 0.010035 -0.003870 0.001085 0.000000 0.000000 0.000000
# 2 -0.003870 0.013725 -0.000399 0.000000 0.000000 0.000000
# 3 0.001085 -0.000399 0.027457 0.000000 0.000000 0.000000
# 4 0.000000 0.000000 0.000000 0.083476 0.000000 0.000000
# 5 0.000000 0.000000 0.000000 0.000000 0.057734 0.000000
# 6 0.000000 0.000000 0.000000 0.000000 0.000000 0.108914
#
#
# Mechanical properties :
#
#
# Convention : Reuss Voigt Hill
#
# Bulk Modulus (GPa) = 22.29688 31.72959 27.01323
# Shear Modulus (GPa) = 15.49627 21.23444 18.36535
#
# Velocity S-wave (km/s) = 2.58705 3.02839 2.81638
# Velocity P-wave (km/s) = 4.30741 5.09236 4.71624
#
# Compressibility (1/GPa) = 0.04484933
#
# Stress axis : x y z
#
# Youngs Moduli (GPa) = 99.64938 72.86130 36.42024
#
# Poissons Ratio (x) = 0.28198 -0.03951
# Poissons Ratio (y) = 0.38566 0.01452
# Poissons Ratio (z) = -0.10810 0.02904
#
# Static dielectric constant tensor:
#      x y z
#    x 1.902180 0.000000 0.000000 
#    y 0.000000 1.893070 0.000000 
#    z 0.000000 0.000000 2.034270 
# 
# From -- ./inp_files/16973.got.cif
#   From: 2010.05.17/outbox.cif.g08.bks.cpg/sg62_9_cif.got.tgz:16973.got - 2010.06.03 15:25:27.
