data_PCOD9463511
_publ_section_title
;
Structure prediction by ZEFSAII (Michael W. Deem and Ramdas Pophale) SiO2 
 PCOD9463511
Probable space group: P N M A
;
_chemical_formula_sum "Si O2"
_cell_formula_units_Z 48
_cell_length_a 20.945652
_cell_length_b 7.595259
_cell_length_c 14.541092
_cell_angle_alpha 90.000000
_cell_angle_beta 90.000000
_cell_angle_gamma 90.000000
_cell_volume 2313.308182
_symmetry_space_group_name_H-M "P N M A"
_symmetry_group_IT_number 62
_symmetry_cell_setting 'orthorhombic'
loop_
_space_group_symop_operation_xyz
x,y,z
1/2-x,-y,1/2+z
1/2+x,1/2-y,1/2-z
-x,1/2+y,-z
-x,-y,-z
1/2+x,y,1/2-z
1/2-x,1/2+y,1/2+z
x,1/2-y,z
loop_
_atom_site_type_symbol
_atom_site_label
_atom_site_fract_x
_atom_site_fract_y
_atom_site_fract_z
Si Si1 0.064209 0.039047 0.944680
Si Si2 0.684071 0.534216 0.042207
Si Si3 0.494705 0.955493 0.261594
Si Si4 0.186493 0.037458 0.056933
Si Si5 0.860607 0.039685 0.741866
Si Si6 0.558845 0.540713 0.933481
O O1 0.073654 0.250000 0.939683
O O2 0.049055 0.969205 0.842829
O O3 0.125126 0.970063 0.000089
O O4 0.000000 0.000000 0.000000
O O5 0.684810 0.750000 0.043006
O O6 0.672418 0.475543 0.147641
O O7 0.749124 0.476122 0.993206
O O8 0.623542 0.477307 0.981336
O O9 0.504215 0.750000 0.285075
O O10 0.566606 0.031072 0.253084
O O11 0.458566 0.966272 0.165527
O O12 0.186794 0.250000 0.053188
O O13 0.177738 0.992012 0.164183
O O14 0.866315 0.250000 0.730038
O O15 0.564113 0.750000 0.923398
O O16 0.500000 0.500000 0.000000
#
# Coordination Sequence:
#
# PCOD9463511 Si02
#       6
#     8   8   8   8   8   8
#     4  10  20  34  55  81 110 142 182 229 275 323
#     4   9  20  38  56  77 112 150 180 221 283 335
#     4  10  20  35  56  85 115 145 184 232 277 329
#     4  10  21  37  57  82 111 146 187 230 276 334
#     4  10  19  36  59  80 110 150 182 223 285 336
#     4  11  21  36  58  83 110 146 187 231 279 330
#
# _framework density 20.749504999999999
#
# number of rings (size 3 to 8) (size 9 to 14) (size 15 to 20)
#    0.000    2.000    3.333    0.500    0.000    2.667 
#    0.000    4.167    0.000    0.000    0.000    0.000 
#    0.000    0.000    0.000    0.000    0.000    0.000 
#
# Total GULP energy -267986.194156 kJ/mol
# GULP energy per Si atom -5583.045712 kJ/mol
# Density = 2.070228 g / cm^3
# Si number density = 20.749505 Si / 1000 Ang^3
#
#
#
# Elastic Constant Matrix: (Units=GPa)
#
#
# Indices 1 2 3 4 5 6 
#
# 1 180.2102 -6.6624 97.2989 0.0000 0.0000 0.0000
# 2 -6.6624 39.5790 -16.3655 0.0000 0.0000 0.0000
# 3 97.2989 -16.3655 197.0109 0.0000 0.0000 0.0000
# 4 0.0000 0.0000 0.0000 13.1619 0.0000 0.0000
# 5 0.0000 0.0000 0.0000 0.0000 32.3703 0.0000
# 6 0.0000 0.0000 0.0000 0.0000 0.0000 9.6868
#
#
#
# Elastic Compliance Matrix: (Units=1/GPa)
#
#
# Indices 1 2 3 4 5 6 
#
# 1 0.007570 -0.000281 -0.003762 0.000000 0.000000 0.000000
# 2 -0.000281 0.026175 0.002313 0.000000 0.000000 0.000000
# 3 -0.003762 0.002313 0.007126 0.000000 0.000000 0.000000
# 4 0.000000 0.000000 0.000000 0.075977 0.000000 0.000000
# 5 0.000000 0.000000 0.000000 0.000000 0.030893 0.000000
# 6 0.000000 0.000000 0.000000 0.000000 0.000000 0.103234
#
#
# Mechanical properties :
#
#
# Convention : Reuss Voigt Hill
#
# Bulk Modulus (GPa) = 26.73015 62.81579 44.77297
# Shear Modulus (GPa) = 18.73333 33.87907 26.30620
#
# Velocity S-wave (km/s) = 3.00798 4.04513 3.56448
# Velocity P-wave (km/s) = 4.99742 7.22195 6.21010
#
# Compressibility (1/GPa) = 0.03741094
#
# Stress axis : x y z
#
# Youngs Moduli (GPa) = 132.10380 38.20431 140.33240
#
# Poissons Ratio (x) = 0.01075 0.52792
# Poissons Ratio (y) = 0.03716 -0.32462
# Poissons Ratio (z) = 0.49696 -0.08838
#
# Static dielectric constant tensor:
#      x y z
#    x 1.716090 0.000000 0.000000 
#    y 0.000000 1.797920 0.000000 
#    z 0.000000 0.000000 1.783750 
# 
# From -- ./inp_files/15159.got.cif
#   From: 2010.05.17/outbox.cif.g08.bks.cpg/sg62_8_cif.got.tgz:15159.got - 2010.06.03 15:25:27.
