data_PCOD9463803
_publ_section_title
;
Structure prediction by ZEFSAII (Michael W. Deem and Ramdas Pophale) SiO2 
 PCOD9463803
Probable space group: P N M A
;
_chemical_formula_sum "Si O2"
_cell_formula_units_Z 64
_cell_length_a 11.720572
_cell_length_b 25.666616
_cell_length_c 13.543035
_cell_angle_alpha 90.000000
_cell_angle_beta 90.000000
_cell_angle_gamma 90.000000
_cell_volume 4074.116289
_symmetry_space_group_name_H-M "P N M A"
_symmetry_group_IT_number 62
_symmetry_cell_setting 'orthorhombic'
loop_
_space_group_symop_operation_xyz
x,y,z
1/2-x,-y,1/2+z
1/2+x,1/2-y,1/2-z
-x,1/2+y,-z
-x,-y,-z
1/2+x,y,1/2-z
1/2-x,1/2+y,1/2+z
x,1/2-y,z
loop_
_atom_site_type_symbol
_atom_site_label
_atom_site_fract_x
_atom_site_fract_y
_atom_site_fract_z
Si Si1 0.946567 0.810309 0.156084
Si Si2 0.832129 0.029639 0.945341
Si Si3 0.961144 0.084608 0.543400
Si Si4 0.903821 0.012935 0.367970
Si Si5 0.263407 0.608767 0.338719
Si Si6 0.924863 0.989087 0.152278
Si Si7 0.187713 0.857604 0.121322
Si Si8 0.424720 0.809119 0.106946
O O1 0.936584 0.750000 0.131602
O O2 0.835248 0.841981 0.123490
O O3 0.952406 0.814757 0.275943
O O4 0.062387 0.833978 0.113341
O O5 0.800730 0.090393 0.942757
O O6 0.944583 0.021911 0.877870
O O7 0.726209 0.997570 0.901530
O O8 0.864788 0.012820 0.055716
O O9 0.954027 0.059159 0.435068
O O10 0.834943 0.089988 0.588681
O O11 0.017046 0.141735 0.553091
O O12 0.029231 0.040967 0.606651
O O13 0.915629 0.022433 0.251724
O O14 0.357189 0.563959 0.323739
O O15 0.207743 0.623866 0.234319
O O16 0.288719 0.817510 0.098153
O O17 0.456918 0.750000 0.077384
#
# Coordination Sequence:
#
# PCOD9463803 Si02
#       8
#     8   8   8   8   8   8   8   8
#     4  10  20  31  48  72 101 140 172 207 258 314
#     4  11  21  34  54  76 108 140 172 213 263 309
#     4  11  21  34  51  77 103 142 173 208 258 313
#     4  11  22  35  54  76 108 141 176 214 254 320
#     4  11  19  30  50  69 106 139 166 207 254 307
#     4  11  22  34  51  80 106 140 174 213 258 308
#     4  11  18  32  50  72 102 139 169 209 258 313
#     4  10  20  32  48  73 103 134 174 215 254 305
#
# _framework density 15.708928
#
# number of rings (size 3 to 8) (size 9 to 14) (size 15 to 20)
#    0.000    1.250    6.250    1.875    0.000    1.000 
#    0.000    0.000    0.000    0.000    0.000    1.750 
#    0.000    0.000    0.000    0.000    0.000    0.000 
#
# Total GULP energy -357114.501689 kJ/mol
# GULP energy per Si atom -5579.914089 kJ/mol
# Density = 1.567317 g / cm^3
# Si number density = 15.708928 Si / 1000 Ang^3
#
#
#
# Elastic Constant Matrix: (Units=GPa)
#
#
# Indices 1 2 3 4 5 6 
#
# 1 76.3268 20.8724 24.5697 0.0000 0.0000 0.0000
# 2 20.8724 74.8074 15.7240 0.0000 0.0000 0.0000
# 3 24.5697 15.7240 65.2048 0.0000 0.0000 0.0000
# 4 0.0000 0.0000 0.0000 14.5695 0.0000 0.0000
# 5 0.0000 0.0000 0.0000 0.0000 12.0123 0.0000
# 6 0.0000 0.0000 0.0000 0.0000 0.0000 25.7610
#
#
#
# Elastic Compliance Matrix: (Units=1/GPa)
#
#
# Indices 1 2 3 4 5 6 
#
# 1 0.015644 -0.003293 -0.005101 0.000000 0.000000 0.000000
# 2 -0.003293 0.014774 -0.002322 0.000000 0.000000 0.000000
# 3 -0.005101 -0.002322 0.017818 0.000000 0.000000 0.000000
# 4 0.000000 0.000000 0.000000 0.068637 0.000000 0.000000
# 5 0.000000 0.000000 0.000000 0.000000 0.083248 0.000000
# 6 0.000000 0.000000 0.000000 0.000000 0.000000 0.038818
#
#
# Mechanical properties :
#
#
# Convention : Reuss Voigt Hill
#
# Bulk Modulus (GPa) = 37.30575 37.63014 37.46794
# Shear Modulus (GPa) = 18.56624 20.81341 19.68982
#
# Velocity S-wave (km/s) = 3.44159 3.64392 3.54420
# Velocity P-wave (km/s) = 6.29225 6.45839 6.37586
#
# Compressibility (1/GPa) = 0.02680552
#
# Stress axis : x y z
#
# Youngs Moduli (GPa) = 63.92256 67.68426 56.12217
#
# Poissons Ratio (x) = 0.22287 0.28626
# Poissons Ratio (y) = 0.21048 0.13032
# Poissons Ratio (z) = 0.32605 0.15717
#
# Static dielectric constant tensor:
#      x y z
#    x 1.543370 0.000000 0.000000 
#    y 0.000000 1.524100 0.000000 
#    z 0.000000 0.000000 1.511360 
# 
# From -- ./inp_files/12538.got.cif
#   From: 2010.05.17/outbox.cif.g08.bks.cpg/sg62_7_cif.got.tgz:12538.got - 2010.06.03 15:25:27.
