data_PCOD9463416
_publ_section_title
;
Structure prediction by ZEFSAII (Michael W. Deem and Ramdas Pophale) SiO2 
 PCOD9463416
Probable space group: P N M A
;
_chemical_formula_sum "Si O2"
_cell_formula_units_Z 64
_cell_length_a 11.667573
_cell_length_b 8.763763
_cell_length_c 33.367440
_cell_angle_alpha 90.000000
_cell_angle_beta 90.000000
_cell_angle_gamma 90.000000
_cell_volume 3411.882288
_symmetry_space_group_name_H-M "P N M A"
_symmetry_group_IT_number 62
_symmetry_cell_setting 'orthorhombic'
loop_
_space_group_symop_operation_xyz
x,y,z
1/2-x,-y,1/2+z
1/2+x,1/2-y,1/2-z
-x,1/2+y,-z
-x,-y,-z
1/2+x,y,1/2-z
1/2-x,1/2+y,1/2+z
x,1/2-y,z
loop_
_atom_site_type_symbol
_atom_site_label
_atom_site_fract_x
_atom_site_fract_y
_atom_site_fract_z
Si Si1 0.456669 0.432515 0.629830
Si Si2 0.576756 0.431369 0.941251
Si Si3 0.829199 0.068049 0.521261
Si Si4 0.706442 0.932339 0.867538
Si Si5 0.415722 0.932160 0.288411
Si Si6 0.298029 0.566233 0.832060
Si Si7 0.957660 0.434024 0.298125
Si Si8 0.328969 0.067102 0.413684
O O1 0.462646 0.250000 0.625946
O O2 0.328092 0.490115 0.624731
O O3 0.501009 0.474771 0.674566
O O4 0.546027 0.507960 0.599023
O O5 0.587819 0.250000 0.935635
O O6 0.445513 0.465673 0.953531
O O7 0.618032 0.518608 0.902009
O O8 0.653309 0.486093 0.978806
O O9 0.822947 0.250000 0.515482
O O10 0.722490 0.007243 0.546560
O O11 0.719669 0.750000 0.867756
O O12 0.651249 0.979417 0.825025
O O13 0.411577 0.750000 0.286171
O O14 0.291647 0.996086 0.300818
O O15 0.454021 0.998960 0.246152
O O16 0.291508 0.750000 0.829671
O O17 0.426464 0.519086 0.821234
O O18 0.254210 0.522599 0.876329
O O19 0.957997 0.250000 0.295535
O O20 0.329085 0.250000 0.417056
#
# Coordination Sequence:
#
# PCOD9463416 Si02
#       8
#     8   8   8   8   8   8   8   8
#     4  10  22  40  58  80 114 153 192 236 288 345
#     4  10  21  37  58  87 121 156 191 234 286 339
#     4  10  20  35  59  89 121 154 190 234 285 339
#     4  11  23  39  59  84 114 151 192 236 288 345
#     4  10  22  37  55  80 110 143 185 235 284 334
#     4   9  19  36  56  79 108 142 183 230 277 332
#     4  10  22  37  56  81 109 145 187 231 281 339
#     4  10  19  35  60  86 112 147 192 237 283 337
#
# _framework density 18.757974000000001
#
# number of rings (size 3 to 8) (size 9 to 14) (size 15 to 20)
#    0.000    2.000    0.000    3.000    1.750    6.000 
#    0.000    0.625    0.000    0.000    0.000    0.000 
#    0.000    0.000    0.000    0.000    0.000    0.000 
#
# Total GULP energy -357529.563092 kJ/mol
# GULP energy per Si atom -5586.399423 kJ/mol
# Density = 1.871528 g / cm^3
# Si number density = 18.757974 Si / 1000 Ang^3
#
#
#
# Elastic Constant Matrix: (Units=GPa)
#
#
# Indices 1 2 3 4 5 6 
#
# 1 33.7898 5.1630 -11.8802 0.0000 0.0000 0.0000
# 2 5.1630 17.9077 -0.6693 0.0000 0.0000 0.0000
# 3 -11.8802 -0.6693 30.8391 0.0000 0.0000 0.0000
# 4 0.0000 0.0000 0.0000 30.1434 0.0000 0.0000
# 5 0.0000 0.0000 0.0000 0.0000 14.8685 0.0000
# 6 0.0000 0.0000 0.0000 0.0000 0.0000 25.4181
#
#
#
# Elastic Compliance Matrix: (Units=1/GPa)
#
#
# Indices 1 2 3 4 5 6 
#
# 1 0.035883 -0.009837 0.013610 0.000000 0.000000 0.000000
# 2 -0.009837 0.058584 -0.002518 0.000000 0.000000 0.000000
# 3 0.013610 -0.002518 0.037615 0.000000 0.000000 0.000000
# 4 0.000000 0.000000 0.000000 0.033175 0.000000 0.000000
# 5 0.000000 0.000000 0.000000 0.000000 0.067256 0.000000
# 6 0.000000 0.000000 0.000000 0.000000 0.000000 0.039342
#
#
# Mechanical properties :
#
#
# Convention : Reuss Voigt Hill
#
# Bulk Modulus (GPa) = 7.42988 7.52926 7.47957
# Shear Modulus (GPa) = 15.91302 20.08088 17.99695
#
# Velocity S-wave (km/s) = 2.91578 3.27544 3.10083
# Velocity P-wave (km/s) = 3.91218 4.28104 4.10076
#
# Compressibility (1/GPa) = 0.13459166
#
# Stress axis : x y z
#
# Youngs Moduli (GPa) = 27.86846 17.06955 26.58537
#
# Poissons Ratio (x) = 0.16791 -0.36182
# Poissons Ratio (y) = 0.27413 0.06694
# Poissons Ratio (z) = -0.37928 0.04298
#
# Static dielectric constant tensor:
#      x y z
#    x 1.635560 0.000000 0.000000 
#    y 0.000000 1.619830 0.000000 
#    z 0.000000 0.000000 1.633940 
# 
# From -- ./inp_files/32568.got.cif
#   From: 2010.05.17/outbox.cif.g08.bks.cpg/sg62_17_cif.got.tgz:32568.got - 2010.06.03 15:25:27.
