data_PCOD9463174
_publ_section_title
;
Structure prediction by ZEFSAII (Michael W. Deem and Ramdas Pophale) SiO2 
 PCOD9463174
Probable space group: P N M A
;
_chemical_formula_sum "Si O2"
_cell_formula_units_Z 64
_cell_length_a 15.477133
_cell_length_b 8.975267
_cell_length_c 24.155860
_cell_angle_alpha 90.000000
_cell_angle_beta 90.000000
_cell_angle_gamma 90.000000
_cell_volume 3355.524357
_symmetry_space_group_name_H-M "P N M A"
_symmetry_group_IT_number 62
_symmetry_cell_setting 'orthorhombic'
loop_
_space_group_symop_operation_xyz
x,y,z
1/2-x,-y,1/2+z
1/2+x,1/2-y,1/2-z
-x,1/2+y,-z
-x,-y,-z
1/2+x,y,1/2-z
1/2-x,1/2+y,1/2+z
x,1/2-y,z
loop_
_atom_site_type_symbol
_atom_site_label
_atom_site_fract_x
_atom_site_fract_y
_atom_site_fract_z
Si Si1 0.658496 0.926925 0.079073
Si Si2 0.965649 0.572706 0.376525
Si Si3 0.467527 0.922737 0.772378
Si Si4 0.197093 0.928302 0.844788
Si Si5 0.171219 0.572328 0.120588
Si Si6 0.316104 0.072192 0.050196
Si Si7 0.713256 0.572034 0.253409
Si Si8 0.492678 0.422858 0.357076
O O1 0.673634 0.750000 0.087690
O O2 0.559918 0.956754 0.096850
O O3 0.725846 0.016746 0.116174
O O4 0.671574 0.961469 0.014539
O O5 0.953286 0.750000 0.371756
O O6 0.969211 0.497701 0.316315
O O7 0.892173 0.503099 0.414563
O O8 0.451608 0.750000 0.787208
O O9 0.501552 0.927101 0.709798
O O10 0.377628 0.012840 0.771116
O O11 0.196987 0.750000 0.839802
O O12 0.104368 0.973668 0.869982
O O13 0.213725 0.998148 0.784280
O O14 0.176279 0.750000 0.114787
O O15 0.227039 0.491573 0.074169
O O16 0.210733 0.532787 0.181436
O O17 0.072062 0.519024 0.120755
O O18 0.319318 0.250000 0.057198
O O19 0.717166 0.750000 0.248653
O O20 0.504275 0.250000 0.373939
#
# Coordination Sequence:
#
# PCOD9463174 Si02
#       8
#     8   8   8   8   8   8   8   8
#     4  10  23  42  61  85 119 157 198 247 300 351
#     4  11  22  37  58  87 122 157 197 244 293 354
#     4  10  19  34  56  85 119 157 195 234 289 349
#     4  11  22  36  60  90 118 155 200 243 293 352
#     4  10  22  40  61  88 118 155 199 247 301 350
#     4  11  24  41  62  85 115 158 202 247 299 355
#     4  10  20  35  55  83 119 155 191 238 294 350
#     4   9  21  39  58  86 122 157 197 245 292 351
#
# _framework density 19.073024
#
# number of rings (size 3 to 8) (size 9 to 14) (size 15 to 20)
#    0.000    1.750    1.250    2.625    1.750    4.500 
#    0.000    0.625    0.000    0.000    0.000    0.000 
#    0.000    0.000    0.000    0.000    0.000    0.000 
#
# Total GULP energy -357651.785817 kJ/mol
# GULP energy per Si atom -5588.309153 kJ/mol
# Density = 1.902961 g / cm^3
# Si number density = 19.073024 Si / 1000 Ang^3
#
#
#
# Elastic Constant Matrix: (Units=GPa)
#
#
# Indices 1 2 3 4 5 6 
#
# 1 65.7858 16.5755 -8.3614 0.0000 0.0000 0.0000
# 2 16.5755 41.4437 5.0214 0.0000 0.0000 0.0000
# 3 -8.3614 5.0214 11.8813 0.0000 0.0000 0.0000
# 4 0.0000 0.0000 0.0000 25.9194 0.0000 0.0000
# 5 0.0000 0.0000 0.0000 0.0000 17.4100 0.0000
# 6 0.0000 0.0000 0.0000 0.0000 0.0000 15.8172
#
#
#
# Elastic Compliance Matrix: (Units=1/GPa)
#
#
# Indices 1 2 3 4 5 6 
#
# 1 0.020154 -0.010307 0.018539 0.000000 0.000000 0.000000
# 2 -0.010307 0.030702 -0.020229 0.000000 0.000000 0.000000
# 3 0.018539 -0.020229 0.105763 0.000000 0.000000 0.000000
# 4 0.000000 0.000000 0.000000 0.038581 0.000000 0.000000
# 5 0.000000 0.000000 0.000000 0.000000 0.057438 0.000000
# 6 0.000000 0.000000 0.000000 0.000000 0.000000 0.063222
#
#
# Mechanical properties :
#
#
# Convention : Reuss Voigt Hill
#
# Bulk Modulus (GPa) = 7.54001 16.17574 11.85787
# Shear Modulus (GPa) = 13.01870 18.88768 15.95319
#
# Velocity S-wave (km/s) = 2.61544 3.15029 2.89524
# Velocity P-wave (km/s) = 3.61698 4.66174 4.17219
#
# Compressibility (1/GPa) = 0.13262585
#
# Stress axis : x y z
#
# Youngs Moduli (GPa) = 49.61744 32.57069 9.45513
#
# Poissons Ratio (x) = 0.33571 -0.17529
# Poissons Ratio (y) = 0.51141 0.19127
# Poissons Ratio (z) = -0.91988 0.65888
#
# Static dielectric constant tensor:
#      x y z
#    x 1.661630 0.000000 0.000000 
#    y 0.000000 1.632370 0.000000 
#    z 0.000000 0.000000 1.652540 
# 
# From -- ./inp_files/29744.got.cif
#   From: 2010.05.17/outbox.cif.g08.bks.cpg/sg62_15_cif.got.tgz:29744.got - 2010.06.03 15:25:27.
