data_PCOD9463189
_publ_section_title
;
Structure prediction by ZEFSAII (Michael W. Deem and Ramdas Pophale) SiO2 
 PCOD9463189
Probable space group: P N M A
;
_chemical_formula_sum "Si O2"
_cell_formula_units_Z 60
_cell_length_a 30.861624
_cell_length_b 8.276388
_cell_length_c 9.452022
_cell_angle_alpha 90.000000
_cell_angle_beta 90.000000
_cell_angle_gamma 90.000000
_cell_volume 2414.261684
_symmetry_space_group_name_H-M "P N M A"
_symmetry_group_IT_number 62
_symmetry_cell_setting 'orthorhombic'
loop_
_space_group_symop_operation_xyz
x,y,z
1/2-x,-y,1/2+z
1/2+x,1/2-y,1/2-z
-x,1/2+y,-z
-x,-y,-z
1/2+x,y,1/2-z
1/2-x,1/2+y,1/2+z
x,1/2-y,z
loop_
_atom_site_type_symbol
_atom_site_label
_atom_site_fract_x
_atom_site_fract_y
_atom_site_fract_z
Si Si1 0.654588 0.939452 0.055638
Si Si2 0.530080 0.566042 0.797619
Si Si3 0.548025 0.434727 0.517973
Si Si4 0.828303 0.569261 0.259100
Si Si5 0.860618 0.553422 0.935828
Si Si6 0.745734 0.077255 0.147788
Si Si7 0.302095 0.250000 0.580900
Si Si8 0.061009 0.940943 0.378655
O O1 0.657376 0.750000 0.082447
O O2 0.698089 0.023180 0.109521
O O3 0.610099 0.005654 0.123161
O O4 0.654452 0.958316 0.884487
O O5 0.536965 0.750000 0.751870
O O6 0.554699 0.455323 0.686343
O O7 0.547733 0.547139 0.955332
O O8 0.478696 0.527954 0.801256
O O9 0.500000 0.500000 0.500000
O O10 0.547206 0.250000 0.480619
O O11 0.588918 0.500496 0.432979
O O12 0.835919 0.750000 0.308730
O O13 0.848981 0.546310 0.104719
O O14 0.776767 0.542983 0.232376
O O15 0.855058 0.750000 0.899011
O O16 0.833993 0.401676 0.871320
O O17 0.745067 0.250000 0.226913
O O18 0.771102 0.114603 0.002611
O O19 0.060187 0.750000 0.342495
#
# Coordination Sequence:
#
# PCOD9463189 Si02
#       8
#     8   8   8   8   8   8   4   8
#     4  11  21  33  57  86 116 152 197 241 297 366
#     4  10  20  36  59  87 121 160 200 250 304 358
#     4  11  23  37  57  88 123 161 202 249 302 365
#     4  10  19  34  57  82 111 143 189 247 295 349
#     4   9  19  34  57  87 112 148 197 246 297 353
#     4   9  19  35  52  80 110 144 181 235 296 344
#     4   8  18  34  60  76 112 146 184 246 294 340
#     4   9  20  37  58  87 120 159 199 245 303 365
#
# _framework density 24.852318
#
# number of rings (size 3 to 8) (size 9 to 14) (size 15 to 20)
#    0.400    1.867    0.000    2.800    2.800    2.133 
#    0.000    0.000    5.867    0.000    0.000    0.000 
#    0.000    0.000    0.000    0.000    0.000    0.000 
#
# Total GULP energy -334276.371749 kJ/mol
# GULP energy per Si atom -5571.272862 kJ/mol
# Density = 2.479575 g / cm^3
# Si number density = 24.852318 Si / 1000 Ang^3
#
#
#
# Elastic Constant Matrix: (Units=GPa)
#
#
# Indices 1 2 3 4 5 6 
#
# 1 152.5995 36.0050 10.1039 0.0000 0.0000 0.0000
# 2 36.0050 80.7837 28.7629 0.0000 0.0000 0.0000
# 3 10.1039 28.7629 63.9070 0.0000 0.0000 0.0000
# 4 0.0000 0.0000 0.0000 -14.4574 0.0000 0.0000
# 5 0.0000 0.0000 0.0000 0.0000 31.5034 0.0000
# 6 0.0000 0.0000 0.0000 0.0000 0.0000 119.0885
#
#
#
# Elastic Compliance Matrix: (Units=1/GPa)
#
#
# Indices 1 2 3 4 5 6 
#
# 1 0.007331 -0.003399 0.000371 0.000000 0.000000 0.000000
# 2 -0.003399 0.016317 -0.006807 0.000000 0.000000 0.000000
# 3 0.000371 -0.006807 0.018653 0.000000 0.000000 0.000000
# 4 0.000000 0.000000 0.000000 -0.069169 0.000000 0.000000
# 5 0.000000 0.000000 0.000000 0.000000 0.031743 0.000000
# 6 0.000000 0.000000 0.000000 0.000000 0.000000 0.008397
#
#
# Mechanical properties :
#
#
# Convention : Reuss Voigt Hill
#
# Bulk Modulus (GPa) = 44.18794 49.67043 46.92919
# Shear Modulus (GPa) = 123.50377 42.05479 82.77928
#
# Velocity S-wave (km/s) = 7.05712 4.11808 5.77761
# Velocity P-wave (km/s) = 9.17730 6.53002 7.96442
#
# Compressibility (1/GPa) = 0.02263061
#
# Stress axis : x y z
#
# Youngs Moduli (GPa) = 136.41480 61.28484 53.61196
#
# Poissons Ratio (x) = 0.20833 -0.01989
# Poissons Ratio (y) = 0.46371 0.36491
# Poissons Ratio (z) = -0.05060 0.41714
#
# Static dielectric constant tensor:
#      x y z
#    x 2.157290 0.000000 0.000000 
#    y 0.000000 1.895770 0.000000 
#    z 0.000000 0.000000 2.097740 
# 
# From -- ./inp_files/15731.got.cif
#   From: 2010.05.17/outbox.cif.g08.bks.cpg/sg62_8_cif.got.tgz:15731.got - 2010.06.03 15:25:27.
