data_PCOD9463323
_publ_section_title
;
Structure prediction by ZEFSAII (Michael W. Deem and Ramdas Pophale) SiO2 
 PCOD9463323
Probable space group: P N M A
;
_chemical_formula_sum "Si O2"
_cell_formula_units_Z 64
_cell_length_a 11.450655
_cell_length_b 8.178233
_cell_length_c 32.312774
_cell_angle_alpha 90.000000
_cell_angle_beta 90.000000
_cell_angle_gamma 90.000000
_cell_volume 3025.966060
_symmetry_space_group_name_H-M "P N M A"
_symmetry_group_IT_number 62
_symmetry_cell_setting 'orthorhombic'
loop_
_space_group_symop_operation_xyz
x,y,z
1/2-x,-y,1/2+z
1/2+x,1/2-y,1/2-z
-x,1/2+y,-z
-x,-y,-z
1/2+x,y,1/2-z
1/2-x,1/2+y,1/2+z
x,1/2-y,z
loop_
_atom_site_type_symbol
_atom_site_label
_atom_site_fract_x
_atom_site_fract_y
_atom_site_fract_z
Si Si1 0.878903 0.552217 0.021429
Si Si2 0.058783 0.437073 0.887190
Si Si3 0.056794 0.059882 0.388782
Si Si4 0.089296 0.552404 0.759943
Si Si5 0.271970 0.064642 0.822522
Si Si6 0.634750 0.950589 0.831130
Si Si7 0.105787 0.059577 0.177691
Si Si8 0.619683 0.941471 0.021662
O O1 0.874654 0.750000 0.019604
O O2 0.895382 0.501860 0.069186
O O3 0.748641 0.491654 0.008137
O O4 0.000000 0.500000 0.000000
O O5 0.016668 0.250000 0.892173
O O6 0.164707 0.433681 0.854952
O O7 0.959546 0.543339 0.865926
O O8 0.048599 0.250000 0.400351
O O9 0.932600 0.995362 0.372156
O O10 0.134713 0.042555 0.347247
O O11 0.106379 0.969629 0.428840
O O12 0.089154 0.750000 0.761959
O O13 0.212185 0.498256 0.780450
O O14 0.076608 0.502571 0.712506
O O15 0.982006 0.488815 0.787860
O O16 0.315180 0.250000 0.817535
O O17 0.634042 0.750000 0.832920
O O18 0.766452 0.011975 0.827051
O O19 0.121145 0.250000 0.188522
O O20 0.624334 0.750000 0.013414
O O21 0.500000 0.000000 0.000000
#
# Coordination Sequence:
#
# PCOD9463323 Si02
#       8
#     8   8   8   8   8   8   8   8
#     4  10  22  40  62  90 122 154 195 252 310 370
#     4   9  18  36  57  77 108 145 180 227 286 343
#     4  11  22  37  61  90 118 157 205 249 304 371
#     4   9  18  33  56  82 108 149 197 241 292 351
#     4  10  19  35  57  81 113 149 189 240 291 346
#     4   9  20  35  54  83 119 152 194 250 299 351
#     4   9  18  33  53  79 109 143 188 238 289 343
#     4  11  24  45  67  92 128 167 210 263 320 383
#
# _framework density 21.150271
#
# number of rings (size 3 to 8) (size 9 to 14) (size 15 to 20)
#    0.000    2.250    1.250    1.125    1.750    3.000 
#    0.000    6.875    0.000    0.000    0.000    0.000 
#    0.000    0.000    0.000    0.000    0.000    0.000 
#
# Total GULP energy -356770.775229 kJ/mol
# GULP energy per Si atom -5574.543363 kJ/mol
# Density = 2.110213 g / cm^3
# Si number density = 21.150271 Si / 1000 Ang^3
#
#
#
# Elastic Constant Matrix: (Units=GPa)
#
#
# Indices 1 2 3 4 5 6 
#
# 1 137.4228 8.5337 37.0293 0.0000 0.0000 0.0000
# 2 8.5337 14.6040 -0.8639 0.0000 0.0000 0.0000
# 3 37.0293 -0.8639 54.5733 0.0000 0.0000 0.0000
# 4 0.0000 0.0000 0.0000 3.1783 0.0000 0.0000
# 5 0.0000 0.0000 0.0000 0.0000 23.1874 0.0000
# 6 0.0000 0.0000 0.0000 0.0000 0.0000 18.3605
#
#
#
# Elastic Compliance Matrix: (Units=1/GPa)
#
#
# Indices 1 2 3 4 5 6 
#
# 1 0.009381 -0.005864 -0.006458 0.000000 0.000000 0.000000
# 2 -0.005864 0.072204 0.005122 0.000000 0.000000 0.000000
# 3 -0.006458 0.005122 0.022787 0.000000 0.000000 0.000000
# 4 0.000000 0.000000 0.000000 0.314631 0.000000 0.000000
# 5 0.000000 0.000000 0.000000 0.000000 0.043127 0.000000
# 6 0.000000 0.000000 0.000000 0.000000 0.000000 0.054465
#
#
# Mechanical properties :
#
#
# Convention : Reuss Voigt Hill
#
# Bulk Modulus (GPa) = 11.11466 32.88870 22.00168
# Shear Modulus (GPa) = 8.91288 19.73864 14.32576
#
# Velocity S-wave (km/s) = 2.05505 3.05824 2.60538
# Velocity P-wave (km/s) = 3.30113 5.29662 4.41314
#
# Compressibility (1/GPa) = 0.08997128
#
# Stress axis : x y z
#
# Youngs Moduli (GPa) = 106.59706 13.84973 43.88458
#
# Poissons Ratio (x) = 0.08121 0.28341
# Poissons Ratio (y) = 0.62506 -0.22476
# Poissons Ratio (z) = 0.68842 -0.07093
#
# Static dielectric constant tensor:
#      x y z
#    x 1.827450 0.000000 0.000000 
#    y 0.000000 1.765140 0.000000 
#    z 0.000000 0.000000 1.752810 
# 
# From -- ./inp_files/32617.got.cif
#   From: 2010.05.17/outbox.cif.g08.bks.cpg/sg62_17_cif.got.tgz:32617.got - 2010.06.03 15:25:27.
