data_PCOD9463413
_publ_section_title
;
Structure prediction by ZEFSAII (Michael W. Deem and Ramdas Pophale) SiO2 
 PCOD9463413
Probable space group: P N M A
;
_chemical_formula_sum "Si O2"
_cell_formula_units_Z 48
_cell_length_a 18.030536
_cell_length_b 14.754367
_cell_length_c 8.485660
_cell_angle_alpha 90.000000
_cell_angle_beta 90.000000
_cell_angle_gamma 90.000000
_cell_volume 2257.432878
_symmetry_space_group_name_H-M "P N M A"
_symmetry_group_IT_number 62
_symmetry_cell_setting 'orthorhombic'
loop_
_space_group_symop_operation_xyz
x,y,z
1/2-x,-y,1/2+z
1/2+x,1/2-y,1/2-z
-x,1/2+y,-z
-x,-y,-z
1/2+x,y,1/2-z
1/2-x,1/2+y,1/2+z
x,1/2-y,z
loop_
_atom_site_type_symbol
_atom_site_label
_atom_site_fract_x
_atom_site_fract_y
_atom_site_fract_z
Si Si1 0.715899 0.250000 0.840389
Si Si2 0.083243 0.079690 0.889256
Si Si3 0.454912 0.250000 0.121390
Si Si4 0.720174 0.052885 0.838736
Si Si5 0.645018 0.541143 0.130525
Si Si6 0.476579 0.925450 0.718867
Si Si7 0.665187 0.750000 0.086725
Si Si8 0.958330 0.750000 0.296005
O O1 0.738422 0.152714 0.911245
O O2 0.751979 0.250000 0.662892
O O3 0.627460 0.250000 0.849661
O O4 0.162874 0.073300 0.804933
O O5 0.036219 0.159902 0.807637
O O6 0.078646 0.097618 0.074720
O O7 0.041938 0.986260 0.852644
O O8 0.486439 0.338103 0.205893
O O9 0.365996 0.250000 0.092477
O O10 0.490333 0.250000 0.946811
O O11 0.794964 0.015172 0.763931
O O12 0.680407 0.989053 0.964527
O O13 0.569867 0.486060 0.158296
O O14 0.637285 0.650069 0.141874
#
# Coordination Sequence:
#
# PCOD9463413 Si02
#       8
#     4   8   4   8   8   8   4   4
#     4   8  18  35  55  81 109 147 187 235 285 350
#     4  10  21  38  58  85 118 157 193 247 307 365
#     4  12  23  37  60  93 120 157 206 257 304 368
#     4  10  20  37  60  83 115 152 199 243 302 362
#     4  11  22  39  61  89 120 162 207 257 307 368
#     4  11  23  37  58  86 120 153 201 252 304 362
#     4  10  22  37  57  85 122 157 198 245 307 363
#     4  10  19  35  60  83 113 151 195 239 298 355
#
# _framework density 21.263092
#
# number of rings (size 3 to 8) (size 9 to 14) (size 15 to 20)
#    0.000    1.667    0.000    5.500    0.000    2.000 
#    0.000    4.167    0.000    4.000    0.000    0.000 
#    0.000    0.000    0.000    0.000    0.000    0.000 
#
# Total GULP energy -267669.537863 kJ/mol
# GULP energy per Si atom -5576.448705 kJ/mol
# Density = 2.121470 g / cm^3
# Si number density = 21.263092 Si / 1000 Ang^3
#
#
#
# Elastic Constant Matrix: (Units=GPa)
#
#
# Indices 1 2 3 4 5 6 
#
# 1 54.8211 10.7261 11.5100 0.0000 0.0000 0.0000
# 2 10.7261 108.5743 29.3570 0.0000 0.0000 0.0000
# 3 11.5100 29.3570 65.1835 0.0000 0.0000 0.0000
# 4 0.0000 0.0000 0.0000 28.9318 0.0000 0.0000
# 5 0.0000 0.0000 0.0000 0.0000 29.0116 0.0000
# 6 0.0000 0.0000 0.0000 0.0000 0.0000 -36.5839
#
#
#
# Elastic Compliance Matrix: (Units=1/GPa)
#
#
# Indices 1 2 3 4 5 6 
#
# 1 0.019060 -0.001108 -0.002867 0.000000 0.000000 0.000000
# 2 -0.001108 0.010552 -0.004557 0.000000 0.000000 0.000000
# 3 -0.002867 -0.004557 0.017900 0.000000 0.000000 0.000000
# 4 0.000000 0.000000 0.000000 0.034564 0.000000 0.000000
# 5 0.000000 0.000000 0.000000 0.000000 0.034469 0.000000
# 6 0.000000 0.000000 0.000000 0.000000 0.000000 -0.027334
#
#
# Mechanical properties :
#
#
# Convention : Reuss Voigt Hill
#
# Bulk Modulus (GPa) = 32.84171 36.86278 34.85225
# Shear Modulus (GPa) = 42.94733 16.07095 29.50914
#
# Velocity S-wave (km/s) = 4.49910 2.75219 3.72937
# Velocity P-wave (km/s) = 6.51676 5.24152 5.91362
#
# Compressibility (1/GPa) = 0.03044908
#
# Stress axis : x y z
#
# Youngs Moduli (GPa) = 52.46658 94.77072 55.86686
#
# Poissons Ratio (x) = 0.10499 0.16015
# Poissons Ratio (y) = 0.05812 0.25457
# Poissons Ratio (z) = 0.15040 0.43184
#
# Static dielectric constant tensor:
#      x y z
#    x 1.804380 0.000000 0.000000 
#    y 0.000000 1.781090 0.000000 
#    z 0.000000 0.000000 1.786650 
# 
# From -- ./inp_files/7733.got.cif
#   From: 2010.05.17/outbox.cif.g08.bks.cpg/sg62_4_cif.got.tgz:7733.got - 2010.06.03 15:25:27.
