data_PCOD9463340
_publ_section_title
;
Structure prediction by ZEFSAII (Michael W. Deem and Ramdas Pophale) SiO2 
 PCOD9463340
Probable space group: P N M A
;
_chemical_formula_sum "Si O2"
_cell_formula_units_Z 56
_cell_length_a 16.998771
_cell_length_b 27.485795
_cell_length_c 6.404499
_cell_angle_alpha 90.000000
_cell_angle_beta 90.000000
_cell_angle_gamma 90.000000
_cell_volume 2992.340348
_symmetry_space_group_name_H-M "P N M A"
_symmetry_group_IT_number 62
_symmetry_cell_setting 'orthorhombic'
loop_
_space_group_symop_operation_xyz
x,y,z
1/2-x,-y,1/2+z
1/2+x,1/2-y,1/2-z
-x,1/2+y,-z
-x,-y,-z
1/2+x,y,1/2-z
1/2-x,1/2+y,1/2+z
x,1/2-y,z
loop_
_atom_site_type_symbol
_atom_site_label
_atom_site_fract_x
_atom_site_fract_y
_atom_site_fract_z
Si Si1 0.651346 0.368794 0.091623
Si Si2 0.934169 0.554193 0.305638
Si Si3 0.978451 0.618242 0.917263
Si Si4 0.107927 0.805981 0.935886
Si Si5 0.261461 0.694319 0.228186
Si Si6 0.580711 0.553900 0.900570
Si Si7 0.294862 0.366742 0.113519
O O1 0.586084 0.357462 0.266228
O O2 0.731536 0.381065 0.211823
O O3 0.617815 0.413969 0.962643
O O4 0.672711 0.326218 0.929324
O O5 0.902404 0.499295 0.307604
O O6 0.022476 0.550086 0.401229
O O7 0.939318 0.583947 0.091061
O O8 0.036020 0.659812 0.005604
O O9 0.032435 0.583522 0.774275
O O10 0.084526 0.750000 0.904920
O O11 0.144847 0.828830 0.723941
O O12 0.178761 0.807135 0.102646
O O13 0.277399 0.750000 0.288686
O O14 0.249917 0.659790 0.426229
O O15 0.656166 0.586199 0.955099
#
# Coordination Sequence:
#
# PCOD9463340 Si02
#       7
#     8   8   8   8   8   8   8
#     4  10  22  36  50  81 116 145 185 225 275 342
#     4  10  19  37  55  81 111 147 187 235 282 335
#     4  10  19  35  58  79 114 150 181 236 284 334
#     4   9  19  34  56  84 105 135 189 234 275 332
#     4  10  20  36  58  79 109 150 187 231 285 338
#     4   9  20  35  59  83 105 145 195 232 283 336
#     4  10  19  37  56  80 109 147 181 233 281 329
#
# _framework density 18.714448000000001
#
# number of rings (size 3 to 8) (size 9 to 14) (size 15 to 20)
#    0.000    2.286    0.000    2.571    0.000    1.143 
#    5.143    2.143    0.000    0.000    0.000    0.000 
#    0.000    0.000    0.000    0.000    0.000    0.000 
#
# Total GULP energy -312405.357894 kJ/mol
# GULP energy per Si atom -5578.667105 kJ/mol
# Density = 1.867185 g / cm^3
# Si number density = 18.714448 Si / 1000 Ang^3
#
#
#
# Elastic Constant Matrix: (Units=GPa)
#
#
# Indices 1 2 3 4 5 6 
#
# 1 54.2116 49.6270 16.5591 0.0000 0.0000 0.0000
# 2 49.6270 91.3181 24.2097 0.0000 0.0000 0.0000
# 3 16.5591 24.2097 70.6002 0.0000 0.0000 0.0000
# 4 0.0000 0.0000 0.0000 18.5704 0.0000 0.0000
# 5 0.0000 0.0000 0.0000 0.0000 16.6108 0.0000
# 6 0.0000 0.0000 0.0000 0.0000 0.0000 20.5473
#
#
#
# Elastic Compliance Matrix: (Units=1/GPa)
#
#
# Indices 1 2 3 4 5 6 
#
# 1 0.036953 -0.019563 -0.001959 0.000000 0.000000 0.000000
# 2 -0.019563 0.022402 -0.003094 0.000000 0.000000 0.000000
# 3 -0.001959 -0.003094 0.015685 0.000000 0.000000 0.000000
# 4 0.000000 0.000000 0.000000 0.053849 0.000000 0.000000
# 5 0.000000 0.000000 0.000000 0.000000 0.060202 0.000000
# 6 0.000000 0.000000 0.000000 0.000000 0.000000 0.048668
#
#
# Mechanical properties :
#
#
# Convention : Reuss Voigt Hill
#
# Bulk Modulus (GPa) = 38.74584 44.10239 41.42412
# Shear Modulus (GPa) = 16.91513 19.52797 18.22155
#
# Velocity S-wave (km/s) = 3.00968 3.23378 3.12374
# Velocity P-wave (km/s) = 5.72942 6.12864 5.93239
#
# Compressibility (1/GPa) = 0.02580922
#
# Stress axis : x y z
#
# Youngs Moduli (GPa) = 27.06129 44.63801 63.75694
#
# Poissons Ratio (x) = 0.87325 0.12489
# Poissons Ratio (y) = 0.52940 0.19724
# Poissons Ratio (z) = 0.05301 0.13809
#
# Static dielectric constant tensor:
#      x y z
#    x 1.645960 0.000000 0.000000 
#    y 0.000000 1.626250 0.000000 
#    z 0.000000 0.000000 1.648120 
# 
# From -- ./inp_files/1278.got.cif
#   From: 2010.05.17/outbox.cif.g08.bks.cpg/sg62_1_cif.got.tgz:1278.got - 2010.06.03 15:25:27.
