data_PCOD9463892
_publ_section_title
;
Structure prediction by ZEFSAII (Michael W. Deem and Ramdas Pophale) SiO2 
 PCOD9463892
Probable space group: P N M A
;
_chemical_formula_sum "Si O2"
_cell_formula_units_Z 64
_cell_length_a 21.875809
_cell_length_b 7.546107
_cell_length_c 18.763193
_cell_angle_alpha 90.000000
_cell_angle_beta 90.000000
_cell_angle_gamma 90.000000
_cell_volume 3097.375278
_symmetry_space_group_name_H-M "P N M A"
_symmetry_group_IT_number 62
_symmetry_cell_setting 'orthorhombic'
loop_
_space_group_symop_operation_xyz
x,y,z
1/2-x,-y,1/2+z
1/2+x,1/2-y,1/2-z
-x,1/2+y,-z
-x,-y,-z
1/2+x,y,1/2-z
1/2-x,1/2+y,1/2+z
x,1/2-y,z
loop_
_atom_site_type_symbol
_atom_site_label
_atom_site_fract_x
_atom_site_fract_y
_atom_site_fract_z
Si Si1 0.132285 0.465410 0.818032
Si Si2 0.999591 0.048536 0.833479
Si Si3 0.000319 0.460716 0.331142
Si Si4 0.130827 0.537237 0.177724
Si Si5 0.133599 0.962934 0.340715
Si Si6 0.756062 0.967015 0.082666
Si Si7 0.245969 0.036869 0.078633
Si Si8 0.131289 0.541321 0.650504
O O1 0.130207 0.250000 0.818212
O O2 0.066470 0.530773 0.847353
O O3 0.189113 0.523432 0.865615
O O4 0.139264 0.519929 0.735690
O O5 0.001195 0.250000 0.860946
O O6 0.933916 0.967756 0.853456
O O7 0.996345 0.049410 0.746871
O O8 0.994374 0.250000 0.318869
O O9 0.937274 0.525348 0.366554
O O10 0.065529 0.492066 0.367430
O O11 0.123788 0.750000 0.182444
O O12 0.139346 0.471525 0.258885
O O13 0.189302 0.501874 0.129921
O O14 0.137417 0.750000 0.338775
O O15 0.190468 0.025698 0.387181
O O16 0.756486 0.750000 0.083385
O O17 0.764742 0.026116 0.001667
O O18 0.250736 0.250000 0.075510
O O19 0.309784 0.965929 0.110635
O O20 0.130464 0.750000 0.634020
#
# Coordination Sequence:
#
# PCOD9463892 Si02
#       8
#     8   8   8   8   8   8   8   8
#     4   9  16  30  53  73  88 115 157 195 223 262
#     4   8  15  28  47  70  93 116 146 187 231 269
#     4   9  16  27  45  69  94 117 146 186 229 273
#     4   9  17  30  48  70  93 116 147 189 231 268
#     4   9  17  31  50  70  92 119 152 190 230 269
#     4   9  18  32  49  68  91 122 159 193 223 263
#     4  10  20  33  47  65  93 127 157 185 224 274
#     4   9  18  31  47  69  96 122 148 185 233 276
#
# _framework density 20.662656999999999
#
# number of rings (size 3 to 8) (size 9 to 14) (size 15 to 20)
#    0.000    3.000    0.000    1.875    0.000    4.000 
#    0.000    3.125    0.000    0.000    0.000    0.000 
#    0.000    0.000    0.000    0.000    0.000    0.000 
#
# Total GULP energy -356691.358703 kJ/mol
# GULP energy per Si atom -5573.302480 kJ/mol
# Density = 2.061563 g / cm^3
# Si number density = 20.662657 Si / 1000 Ang^3
#
#
#
# Elastic Constant Matrix: (Units=GPa)
#
#
# Indices 1 2 3 4 5 6 
#
# 1 -52.2948 -3.8922 -134.6728 0.0000 0.0000 0.0000
# 2 -3.8922 53.1086 -7.6623 0.0000 0.0000 0.0000
# 3 -134.6728 -7.6623 -92.0077 0.0000 0.0000 0.0000
# 4 0.0000 0.0000 0.0000 6.6872 0.0000 0.0000
# 5 0.0000 0.0000 0.0000 0.0000 -7.1475 0.0000
# 6 0.0000 0.0000 0.0000 0.0000 0.0000 13.4811
#
#
#
# Elastic Compliance Matrix: (Units=1/GPa)
#
#
# Indices 1 2 3 4 5 6 
#
# 1 0.006953 -0.000947 -0.010098 0.000000 0.000000 0.000000
# 2 -0.000947 0.018735 -0.000174 0.000000 0.000000 0.000000
# 3 -0.010098 -0.000174 0.003926 0.000000 0.000000 0.000000
# 4 0.000000 0.000000 0.000000 0.149540 0.000000 0.000000
# 5 0.000000 0.000000 0.000000 0.000000 -0.139909 0.000000
# 6 0.000000 0.000000 0.000000 0.000000 0.000000 0.074178
#
#
# Mechanical properties :
#
#
# Convention : Reuss Voigt Hill
#
# Bulk Modulus (GPa) = 139.35072 -42.62762 48.36155
# Shear Modulus (GPa) = 36.16567 6.27304 21.21936
#
# Velocity S-wave (km/s) = 4.18819 1.74428 3.20807
# Velocity P-wave (km/s) = 9.53809 4.07656 6.09741
#
# Compressibility (1/GPa) = 0.00717614
#
# Stress axis : x y z
#
# Youngs Moduli (GPa) = 143.82979 53.37640 254.70609
#
# Poissons Ratio (x) = 0.05057 2.57197
# Poissons Ratio (y) = 0.13626 0.04422
# Poissons Ratio (z) = 1.45237 0.00927
#
# Static dielectric constant tensor:
#      x y z
#    x 1.794480 0.000000 0.000000 
#    y 0.000000 1.805270 0.000000 
#    z 0.000000 0.000000 1.675540 
# 
# From -- ./inp_files/27976.got.cif
#   From: 2010.05.17/outbox.cif.g08.bks.cpg/sg62_14_cif.got.tgz:27976.got - 2010.06.03 15:25:27.
