data_PCOD9463689
_publ_section_title
;
Structure prediction by ZEFSAII (Michael W. Deem and Ramdas Pophale) SiO2 
 PCOD9463689
Probable space group: P N M A
;
_chemical_formula_sum "Si O2"
_cell_formula_units_Z 48
_cell_length_a 8.882973
_cell_length_b 15.418381
_cell_length_c 19.410755
_cell_angle_alpha 90.000000
_cell_angle_beta 90.000000
_cell_angle_gamma 90.000000
_cell_volume 2658.517621
_symmetry_space_group_name_H-M "P N M A"
_symmetry_group_IT_number 62
_symmetry_cell_setting 'orthorhombic'
loop_
_space_group_symop_operation_xyz
x,y,z
1/2-x,-y,1/2+z
1/2+x,1/2-y,1/2-z
-x,1/2+y,-z
-x,-y,-z
1/2+x,y,1/2-z
1/2-x,1/2+y,1/2+z
x,1/2-y,z
loop_
_atom_site_type_symbol
_atom_site_label
_atom_site_fract_x
_atom_site_fract_y
_atom_site_fract_z
Si Si1 0.622011 0.441301 0.038478
Si Si2 0.607145 0.250000 0.029154
Si Si3 0.581215 0.933310 0.451737
Si Si4 0.530784 0.576154 0.296785
Si Si5 0.206815 0.750000 0.181910
Si Si6 0.578777 0.750000 0.470256
Si Si7 0.315565 0.068345 0.836198
Si Si8 0.971976 0.250000 0.625891
O O1 0.565801 0.344694 0.059624
O O2 0.684194 0.498384 0.101950
O O3 0.500000 0.500000 0.000000
O O4 0.751327 0.423678 0.981458
O O5 0.791542 0.250000 0.027749
O O6 0.535510 0.250000 0.952199
O O7 0.583470 0.958205 0.371648
O O8 0.496197 0.841301 0.464954
O O9 0.500000 0.000000 0.500000
O O10 0.622729 0.666239 0.289788
O O11 0.578756 0.531926 0.225602
O O12 0.352130 0.582992 0.306408
O O13 0.167538 0.750000 0.101544
O O14 0.386998 0.750000 0.180058
O O15 0.380289 0.160815 0.862799
#
# Coordination Sequence:
#
# PCOD9463689 Si02
#       8
#     8   4   8   8   4   4   8   4
#     4  11  22  38  62  88 114 158 198 247 294 358
#     4   9  18  36  58  84 115 147 192 245 290 342
#     4  10  19  38  57  84 114 150 197 239 295 346
#     4  11  23  37  55  87 123 160 196 250 298 367
#     4   9  18  36  55  79 123 159 187 230 309 357
#     4   7  16  28  56  78 111 145 176 227 290 343
#     4  12  24  36  58  88 123 159 202 240 307 358
#     4  11  20  36  59  89 123 161 189 240 297 372
#
# _framework density 18.055174000000001
#
# number of rings (size 3 to 8) (size 9 to 14) (size 15 to 20)
#    0.000    1.667    3.333    3.000    2.333    0.000 
#    0.000    0.833    0.000    2.000    0.000    0.000 
#    0.000    0.000    0.000    0.000    0.000    0.000 
#
# Total GULP energy -267292.837827 kJ/mol
# GULP energy per Si atom -5568.600788 kJ/mol
# Density = 1.801408 g / cm^3
# Si number density = 18.055174 Si / 1000 Ang^3
#
#
#
# Elastic Constant Matrix: (Units=GPa)
#
#
# Indices 1 2 3 4 5 6 
#
# 1 78.8223 18.2227 21.0158 0.0000 0.0000 0.0000
# 2 18.2227 99.3181 27.3420 0.0000 0.0000 0.0000
# 3 21.0158 27.3420 92.3586 0.0000 0.0000 0.0000
# 4 0.0000 0.0000 0.0000 19.0366 0.0000 0.0000
# 5 0.0000 0.0000 0.0000 0.0000 32.3743 0.0000
# 6 0.0000 0.0000 0.0000 0.0000 0.0000 19.4560
#
#
#
# Elastic Compliance Matrix: (Units=1/GPa)
#
#
# Indices 1 2 3 4 5 6 
#
# 1 0.013800 -0.001816 -0.002603 0.000000 0.000000 0.000000
# 2 -0.001816 0.011201 -0.002903 0.000000 0.000000 0.000000
# 3 -0.002603 -0.002903 0.012279 0.000000 0.000000 0.000000
# 4 0.000000 0.000000 0.000000 0.052530 0.000000 0.000000
# 5 0.000000 0.000000 0.000000 0.000000 0.030889 0.000000
# 6 0.000000 0.000000 0.000000 0.000000 0.000000 0.051398
#
#
# Mechanical properties :
#
#
# Convention : Reuss Voigt Hill
#
# Bulk Modulus (GPa) = 44.17336 44.85112 44.51224
# Shear Modulus (GPa) = 25.73527 27.76792 26.75160
#
# Velocity S-wave (km/s) = 3.77950 3.92592 3.85341
# Velocity P-wave (km/s) = 6.60038 6.74133 6.67123
#
# Compressibility (1/GPa) = 0.02263808
#
# Stress axis : x y z
#
# Youngs Moduli (GPa) = 72.46138 89.27842 81.44005
#
# Poissons Ratio (x) = 0.16209 0.21197
# Poissons Ratio (y) = 0.13156 0.23641
# Poissons Ratio (z) = 0.18860 0.25916
#
# Static dielectric constant tensor:
#      x y z
#    x 1.666660 0.000000 0.000000 
#    y 0.000000 0.410950 0.000000 
#    z 0.000000 0.000000 1.651590 
# 
# From -- ./inp_files/25896.got.cif
#   From: 2010.05.17/outbox.cif.g08.bks.cpg/sg62_13_cif.got.tgz:25896.got - 2010.06.03 15:25:27.
