data_PCOD9463682
_publ_section_title
;
Structure prediction by ZEFSAII (Michael W. Deem and Ramdas Pophale) SiO2 
 PCOD9463682
Probable space group: P N M A
;
_chemical_formula_sum "Si O2"
_cell_formula_units_Z 20
_cell_length_a 20.264063
_cell_length_b 5.540858
_cell_length_c 6.921568
_cell_angle_alpha 90.000000
_cell_angle_beta 90.000000
_cell_angle_gamma 90.000000
_cell_volume 777.155701
_symmetry_space_group_name_H-M "P N M A"
_symmetry_group_IT_number 62
_symmetry_cell_setting 'orthorhombic'
loop_
_space_group_symop_operation_xyz
x,y,z
1/2-x,-y,1/2+z
1/2+x,1/2-y,1/2-z
-x,1/2+y,-z
-x,-y,-z
1/2+x,y,1/2-z
1/2-x,1/2+y,1/2+z
x,1/2-y,z
loop_
_atom_site_type_symbol
_atom_site_label
_atom_site_fract_x
_atom_site_fract_y
_atom_site_fract_z
Si Si1 0.091721 0.750000 0.556484
Si Si2 0.820731 0.750000 0.897426
Si Si3 0.536489 0.250000 0.549369
Si Si4 0.437518 0.750000 0.983070
Si Si5 0.795869 0.250000 0.115863
O O1 0.098854 0.500771 0.441893
O O2 0.143463 0.750000 0.729952
O O3 0.012256 0.750000 0.599042
O O4 0.775657 0.750000 0.710688
O O5 0.899109 0.750000 0.917130
O O6 0.801577 0.499273 0.001779
O O7 0.500000 0.500000 0.500000
O O8 0.554633 0.250000 0.779050
#
# Coordination Sequence:
#
# PCOD9463682 Si02
#       5
#     4   4   4   4   4
#     4  10  19  37  65  86 123 165 217 267 324 391
#     4  12  27  46  72 102 140 190 233 286 358 411
#     4  12  24  41  66  97 137 172 218 283 346 411
#     4  10  20  36  61  95 119 167 213 262 329 398
#     4  12  24  46  70 100 141 184 237 292 343 429
#
# _framework density 25.734870999999998
#
# number of rings (size 3 to 8) (size 9 to 14) (size 15 to 20)
#    0.000    0.800    4.000    3.600    0.000    3.200 
#    0.000    0.000    0.000    0.000    0.000    0.000 
#    0.000    0.000    0.000    0.000    0.000    0.000 
#
# Total GULP energy -112088.031581 kJ/mol
# GULP energy per Si atom -5604.401579 kJ/mol
# Density = 2.567630 g / cm^3
# Si number density = 25.734871 Si / 1000 Ang^3
#
#
#
# Elastic Constant Matrix: (Units=GPa)
#
#
# Indices 1 2 3 4 5 6 
#
# 1 148.4098 83.3068 30.8528 0.0000 0.0000 0.0000
# 2 83.3068 304.2735 46.4489 0.0000 0.0000 0.0000
# 3 30.8528 46.4489 72.1962 0.0000 0.0000 0.0000
# 4 0.0000 0.0000 0.0000 57.9893 0.0000 0.0000
# 5 0.0000 0.0000 0.0000 0.0000 40.0688 0.0000
# 6 0.0000 0.0000 0.0000 0.0000 0.0000 60.5344
#
#
#
# Elastic Compliance Matrix: (Units=1/GPa)
#
#
# Indices 1 2 3 4 5 6 
#
# 1 0.008295 -0.001918 -0.002311 0.000000 0.000000 0.000000
# 2 -0.001918 0.004088 -0.001810 0.000000 0.000000 0.000000
# 3 -0.002311 -0.001810 0.016003 0.000000 0.000000 0.000000
# 4 0.000000 0.000000 0.000000 0.017245 0.000000 0.000000
# 5 0.000000 0.000000 0.000000 0.000000 0.024957 0.000000
# 6 0.000000 0.000000 0.000000 0.000000 0.000000 0.016520
#
#
# Mechanical properties :
#
#
# Convention : Reuss Voigt Hill
#
# Bulk Modulus (GPa) = 61.32031 94.01073 77.66552
# Shear Modulus (GPa) = 47.79068 56.00323 51.89696
#
# Velocity S-wave (km/s) = 4.31401 4.67000 4.49553
# Velocity P-wave (km/s) = 6.97809 8.10483 7.56247
#
# Compressibility (1/GPa) = 0.01630781
#
# Stress axis : x y z
#
# Youngs Moduli (GPa) = 120.54953 244.61116 62.48695
#
# Poissons Ratio (x) = 0.46927 0.14439
# Poissons Ratio (y) = 0.23127 0.11312
# Poissons Ratio (z) = 0.27856 0.44283
#
# Static dielectric constant tensor:
#      x y z
#    x 1.966010 0.000000 0.000000 
#    y 0.000000 1.961200 0.000000 
#    z 0.000000 0.000000 2.106200 
# 
# From -- ./inp_files/7042.got.cif
#   From: 2010.05.17/outbox.cif.g08.bks.cpg/sg62_4_cif.got.tgz:7042.got - 2010.06.03 15:25:27.
