data_PCOD9463949
_publ_section_title
;
Structure prediction by ZEFSAII (Michael W. Deem and Ramdas Pophale) SiO2 
 PCOD9463949
Probable space group: P N M A
;
_chemical_formula_sum "Si O2"
_cell_formula_units_Z 56
_cell_length_a 20.935200
_cell_length_b 9.726204
_cell_length_c 14.209069
_cell_angle_alpha 90.000000
_cell_angle_beta 90.000000
_cell_angle_gamma 90.000000
_cell_volume 2893.250999
_symmetry_space_group_name_H-M "P N M A"
_symmetry_group_IT_number 62
_symmetry_cell_setting 'orthorhombic'
loop_
_space_group_symop_operation_xyz
x,y,z
1/2-x,-y,1/2+z
1/2+x,1/2-y,1/2-z
-x,1/2+y,-z
-x,-y,-z
1/2+x,y,1/2-z
1/2-x,1/2+y,1/2+z
x,1/2-y,z
loop_
_atom_site_type_symbol
_atom_site_label
_atom_site_fract_x
_atom_site_fract_y
_atom_site_fract_z
Si Si1 0.998710 0.091782 0.144601
Si Si2 0.891663 0.416446 0.288593
Si Si3 0.906916 0.092985 0.961507
Si Si4 0.674544 0.589988 0.140154
Si Si5 0.935238 0.084726 0.497436
Si Si6 0.712095 0.404125 0.489075
Si Si7 0.748890 0.591561 0.773197
O O1 0.018684 0.250000 0.164104
O O2 0.952753 0.038983 0.227932
O O3 0.954014 0.094950 0.051664
O O4 0.057890 0.994968 0.119323
O O5 0.889775 0.250000 0.279994
O O6 0.900874 0.447860 0.398280
O O7 0.822474 0.464786 0.252467
O O8 0.895416 0.250000 0.932630
O O9 0.842647 0.017188 0.992668
O O10 0.669536 0.750000 0.167284
O O11 0.695799 0.496431 0.226059
O O12 0.610463 0.550014 0.084962
O O13 0.732200 0.577653 0.064703
O O14 0.946026 0.250000 0.498768
O O15 0.000000 0.000000 0.500000
O O16 0.684315 0.250000 0.501829
O O17 0.742702 0.408650 0.385353
O O18 0.752735 0.750000 0.740681
#
# Coordination Sequence:
#
# PCOD9463949 Si02
#       7
#     8   8   8   8   8   8   8
#     4   9  18  33  54  78 105 143 186 226 273 333
#     4   9  17  35  60  80 103 144 195 233 269 332
#     4  10  20  33  51  80 114 143 178 230 283 327
#     4  10  21  38  58  84 117 149 183 236 296 338
#     4  10  21  39  60  81 111 149 188 233 284 337
#     4  10  20  36  57  79 109 148 185 222 275 340
#     4  10  20  36  60  85 108 145 193 233 275 339
#
# _framework density 19.35539
#
# number of rings (size 3 to 8) (size 9 to 14) (size 15 to 20)
#    0.000    2.286    1.429    1.286    0.000    4.571 
#    0.000    6.429    0.000    0.000    0.000    0.000 
#    0.000    0.000    0.000    0.000    0.000    0.000 
#
# Total GULP energy -312600.112100 kJ/mol
# GULP energy per Si atom -5582.144859 kJ/mol
# Density = 1.931134 g / cm^3
# Si number density = 19.355390 Si / 1000 Ang^3
#
#
#
# Elastic Constant Matrix: (Units=GPa)
#
#
# Indices 1 2 3 4 5 6 
#
# 1 77.9783 39.4840 -9.1000 0.0000 0.0000 0.0000
# 2 39.4840 60.0255 -0.2287 0.0000 0.0000 0.0000
# 3 -9.1000 -0.2287 32.2547 0.0000 0.0000 0.0000
# 4 0.0000 0.0000 0.0000 6.5882 0.0000 0.0000
# 5 0.0000 0.0000 0.0000 0.0000 30.3294 0.0000
# 6 0.0000 0.0000 0.0000 0.0000 0.0000 31.2977
#
#
#
# Elastic Compliance Matrix: (Units=1/GPa)
#
#
# Indices 1 2 3 4 5 6 
#
# 1 0.020193 -0.013261 0.005603 0.000000 0.000000 0.000000
# 2 -0.013261 0.025369 -0.003561 0.000000 0.000000 0.000000
# 3 0.005603 -0.003561 0.032559 0.000000 0.000000 0.000000
# 4 0.000000 0.000000 0.000000 0.151788 0.000000 0.000000
# 5 0.000000 0.000000 0.000000 0.000000 0.032971 0.000000
# 6 0.000000 0.000000 0.000000 0.000000 0.000000 0.031951
#
#
# Mechanical properties :
#
#
# Convention : Reuss Voigt Hill
#
# Bulk Modulus (GPa) = 17.95944 25.61877 21.78910
# Shear Modulus (GPa) = 14.88848 22.98328 18.93588
#
# Velocity S-wave (km/s) = 2.77648 3.44966 3.13121
# Velocity P-wave (km/s) = 4.42464 5.39737 4.93503
#
# Compressibility (1/GPa) = 0.05568103
#
# Stress axis : x y z
#
# Youngs Moduli (GPa) = 49.52294 39.41816 30.71376
#
# Poissons Ratio (x) = 0.52273 -0.17209
# Poissons Ratio (y) = 0.65673 0.10939
# Poissons Ratio (z) = -0.27747 0.14039
#
# Static dielectric constant tensor:
#      x y z
#    x 1.676960 0.000000 0.000000 
#    y 0.000000 1.660220 0.000000 
#    z 0.000000 0.000000 1.682990 
# 
# From -- ./inp_files/20254.got.cif
#   From: 2010.05.17/outbox.cif.g08.bks.cpg/sg62_11_cif.got.tgz:20254.got - 2010.06.03 15:25:27.
