data_PCOD9463104
_publ_section_title
;
Structure prediction by ZEFSAII (Michael W. Deem and Ramdas Pophale) SiO2 
 PCOD9463104
Probable space group: P N M A
;
_chemical_formula_sum "Si O2"
_cell_formula_units_Z 64
_cell_length_a 14.589049
_cell_length_b 7.711074
_cell_length_c 25.044902
_cell_angle_alpha 90.000000
_cell_angle_beta 90.000000
_cell_angle_gamma 90.000000
_cell_volume 2817.482262
_symmetry_space_group_name_H-M "P N M A"
_symmetry_group_IT_number 62
_symmetry_cell_setting 'orthorhombic'
loop_
_space_group_symop_operation_xyz
x,y,z
1/2-x,-y,1/2+z
1/2+x,1/2-y,1/2-z
-x,1/2+y,-z
-x,-y,-z
1/2+x,y,1/2-z
1/2-x,1/2+y,1/2+z
x,1/2-y,z
loop_
_atom_site_type_symbol
_atom_site_label
_atom_site_fract_x
_atom_site_fract_y
_atom_site_fract_z
Si Si1 0.376384 0.544882 0.441580
Si Si2 0.278144 0.458165 0.332803
Si Si3 0.606897 0.956039 0.886692
Si Si4 0.564390 0.549008 0.404420
Si Si5 0.564250 0.052105 0.287012
Si Si6 0.759881 0.950681 0.961500
Si Si7 0.933104 0.537396 0.669940
Si Si8 0.726367 0.452977 0.784317
O O1 0.386259 0.750000 0.452851
O O2 0.333037 0.523823 0.383440
O O3 0.479536 0.473214 0.437885
O O4 0.308152 0.470461 0.486246
O O5 0.280675 0.250000 0.332703
O O6 0.312951 0.520357 0.275105
O O7 0.171786 0.515438 0.338377
O O8 0.599169 0.750000 0.895889
O O9 0.669253 0.029444 0.934541
O O10 0.505123 0.022975 0.874349
O O11 0.662651 0.981135 0.831649
O O12 0.578269 0.750000 0.418035
O O13 0.539442 0.538470 0.342046
O O14 0.659482 0.456129 0.417256
O O15 0.531657 0.250000 0.291003
O O16 0.536276 0.979175 0.229332
O O17 0.675443 0.047874 0.284739
O O18 0.738888 0.750000 0.974129
O O19 0.934032 0.750000 0.671328
O O20 0.744524 0.250000 0.793286
#
# Coordination Sequence:
#
# PCOD9463104 Si02
#       8
#     8   8   8   8   8   8   8   8
#     4  10  23  40  56  82 115 153 195 241 296 346
#     4  10  21  39  60  82 110 151 195 240 287 340
#     4  10  19  35  59  85 112 150 193 236 283 342
#     4  11  22  35  54  81 117 151 189 241 289 340
#     4  10  19  34  54  80 113 150 188 225 277 346
#     4  10  21  38  60  82 114 154 195 238 288 350
#     4   8  18  35  56  82 112 144 188 237 278 333
#     4  11  21  34  54  83 117 149 181 233 289 339
#
# _framework density 22.715316999999999
#
# number of rings (size 3 to 8) (size 9 to 14) (size 15 to 20)
#    0.000    2.000    1.250    3.375    1.750    1.500 
#    0.000    3.750    0.000    0.000    0.000    0.000 
#    0.000    0.000    0.000    0.000    0.000    0.000 
#
# Total GULP energy -357566.526490 kJ/mol
# GULP energy per Si atom -5586.976976 kJ/mol
# Density = 2.266362 g / cm^3
# Si number density = 22.715317 Si / 1000 Ang^3
#
#
#
# Elastic Constant Matrix: (Units=GPa)
#
#
# Indices 1 2 3 4 5 6 
#
# 1 44.9617 -9.4798 -6.2727 0.0000 0.0000 0.0000
# 2 -9.4798 50.5230 -10.6089 0.0000 0.0000 0.0000
# 3 -6.2727 -10.6089 53.8322 0.0000 0.0000 0.0000
# 4 0.0000 0.0000 0.0000 15.2383 0.0000 0.0000
# 5 0.0000 0.0000 0.0000 0.0000 32.6026 0.0000
# 6 0.0000 0.0000 0.0000 0.0000 0.0000 1.6243
#
#
#
# Elastic Compliance Matrix: (Units=1/GPa)
#
#
# Indices 1 2 3 4 5 6 
#
# 1 0.023889 0.005286 0.003825 0.000000 0.000000 0.000000
# 2 0.005286 0.021817 0.004915 0.000000 0.000000 0.000000
# 3 0.003825 0.004915 0.019991 0.000000 0.000000 0.000000
# 4 0.000000 0.000000 0.000000 0.065624 0.000000 0.000000
# 5 0.000000 0.000000 0.000000 0.000000 0.030672 0.000000
# 6 0.000000 0.000000 0.000000 0.000000 0.000000 0.615643
#
#
# Mechanical properties :
#
#
# Convention : Reuss Voigt Hill
#
# Bulk Modulus (GPa) = 10.66671 10.73269 10.69970
# Shear Modulus (GPa) = 6.40342 21.60493 14.00417
#
# Velocity S-wave (km/s) = 1.68080 3.08736 2.48565
# Velocity P-wave (km/s) = 2.91081 4.17663 3.59979
#
# Compressibility (1/GPa) = 0.09374958
#
# Stress axis : x y z
#
# Youngs Moduli (GPa) = 41.85981 45.83611 50.02335
#
# Poissons Ratio (x) = -0.24227 -0.19136
# Poissons Ratio (y) = -0.22126 -0.24589
# Poissons Ratio (z) = -0.16013 -0.22530
#
# Static dielectric constant tensor:
#      x y z
#    x 1.863740 0.000000 0.000000 
#    y 0.000000 1.832800 0.000000 
#    z 0.000000 0.000000 1.853220 
# 
# From -- ./inp_files/29736.got.cif
#   From: 2010.05.17/outbox.cif.g08.bks.cpg/sg62_15_cif.got.tgz:29736.got - 2010.06.03 15:25:27.
