data_PCOD9463395
_publ_section_title
;
Structure prediction by ZEFSAII (Michael W. Deem and Ramdas Pophale) SiO2 
 PCOD9463395
Probable space group: P N M A
;
_chemical_formula_sum "Si O2"
_cell_formula_units_Z 64
_cell_length_a 11.740669
_cell_length_b 12.500823
_cell_length_c 22.110567
_cell_angle_alpha 90.000000
_cell_angle_beta 90.000000
_cell_angle_gamma 90.000000
_cell_volume 3245.124252
_symmetry_space_group_name_H-M "P N M A"
_symmetry_group_IT_number 62
_symmetry_cell_setting 'orthorhombic'
loop_
_space_group_symop_operation_xyz
x,y,z
1/2-x,-y,1/2+z
1/2+x,1/2-y,1/2-z
-x,1/2+y,-z
-x,-y,-z
1/2+x,y,1/2-z
1/2-x,1/2+y,1/2+z
x,1/2-y,z
loop_
_atom_site_type_symbol
_atom_site_label
_atom_site_fract_x
_atom_site_fract_y
_atom_site_fract_z
Si Si1 0.995445 0.473671 0.339226
Si Si2 0.881615 0.026898 0.208981
Si Si3 0.454694 0.130778 0.552035
Si Si4 0.186582 0.470796 0.968328
Si Si5 0.376157 0.010936 0.661326
Si Si6 0.680652 0.877307 0.211622
Si Si7 0.715331 0.366098 0.127915
Si Si8 0.302270 0.378483 0.085287
O O1 0.077657 0.578117 0.331026
O O2 0.089943 0.381854 0.345335
O O3 0.919494 0.468060 0.278631
O O4 0.910673 0.450768 0.394754
O O5 0.799649 0.118866 0.184509
O O6 0.997384 0.033425 0.171360
O O7 0.807068 0.919984 0.195403
O O8 0.442387 0.250000 0.530532
O O9 0.390835 0.054524 0.505335
O O10 0.588682 0.105157 0.558770
O O11 0.390671 0.107984 0.614600
O O12 0.256337 0.539791 0.919692
O O13 0.262927 0.408124 0.017280
O O14 0.296630 0.921761 0.630688
O O15 0.338203 0.060333 0.724938
O O16 0.676023 0.750000 0.216429
O O17 0.728853 0.250000 0.099623
O O18 0.319954 0.250000 0.091385
#
# Coordination Sequence:
#
# PCOD9463395 Si02
#       8
#     8   8   8   8   8   8   8   8
#     4  10  23  43  60  93 131 165 219 257 304 390
#     4  10  21  41  60  91 129 160 209 262 309 392
#     4  10  19  35  59  85 119 154 197 261 324 373
#     4  10  22  39  58  91 123 158 221 262 313 386
#     4  10  20  38  59  93 122 156 205 258 308 384
#     4  10  21  39  65  91 126 169 205 256 318 373
#     4  11  23  41  64  89 127 170 211 271 324 371
#     4  11  23  42  66  90 130 172 211 266 321 373
#
# _framework density 19.721895
#
# number of rings (size 3 to 8) (size 9 to 14) (size 15 to 20)
#    0.000    1.750    2.500    1.500    0.000    4.500 
#    0.000    3.750    0.000    0.000    0.000    0.000 
#    0.000    0.000    0.000    0.000    0.000    0.000 
#
# Total GULP energy -356615.935248 kJ/mol
# GULP energy per Si atom -5572.123988 kJ/mol
# Density = 1.967701 g / cm^3
# Si number density = 19.721895 Si / 1000 Ang^3
#
#
#
# Elastic Constant Matrix: (Units=GPa)
#
#
# Indices 1 2 3 4 5 6 
#
# 1 104.6496 19.2031 21.8921 0.0000 0.0000 0.0000
# 2 19.2031 87.4143 20.6665 0.0000 0.0000 0.0000
# 3 21.8921 20.6665 52.2961 0.0000 0.0000 0.0000
# 4 0.0000 0.0000 0.0000 4.5407 0.0000 0.0000
# 5 0.0000 0.0000 0.0000 0.0000 29.9878 0.0000
# 6 0.0000 0.0000 0.0000 0.0000 0.0000 11.5846
#
#
#
# Elastic Compliance Matrix: (Units=1/GPa)
#
#
# Indices 1 2 3 4 5 6 
#
# 1 0.010629 -0.001415 -0.003890 0.000000 0.000000 0.000000
# 2 -0.001415 0.012807 -0.004469 0.000000 0.000000 0.000000
# 3 -0.003890 -0.004469 0.022516 0.000000 0.000000 0.000000
# 4 0.000000 0.000000 0.000000 0.220230 0.000000 0.000000
# 5 0.000000 0.000000 0.000000 0.000000 0.033347 0.000000
# 6 0.000000 0.000000 0.000000 0.000000 0.000000 0.086321
#
#
# Mechanical properties :
#
#
# Convention : Reuss Voigt Hill
#
# Bulk Modulus (GPa) = 37.87273 40.87594 39.37433
# Shear Modulus (GPa) = 12.07145 21.39585 16.73365
#
# Velocity S-wave (km/s) = 2.47672 3.29732 2.91603
# Velocity P-wave (km/s) = 5.23678 5.93865 5.59873
#
# Compressibility (1/GPa) = 0.02640422
#
# Stress axis : x y z
#
# Youngs Moduli (GPa) = 94.08020 78.08121 44.41215
#
# Poissons Ratio (x) = 0.11051 0.17278
# Poissons Ratio (y) = 0.13315 0.19846
# Poissons Ratio (z) = 0.36600 0.34892
#
# Static dielectric constant tensor:
#      x y z
#    x 1.713350 0.000000 0.000000 
#    y 0.000000 1.666320 0.000000 
#    z 0.000000 0.000000 1.732670 
# 
# From -- ./inp_files/29451.got.cif
#   From: 2010.05.17/outbox.cif.g08.bks.cpg/sg62_15_cif.got.tgz:29451.got - 2010.06.03 15:25:27.
