data_PCOD9463504
_publ_section_title
;
Structure prediction by ZEFSAII (Michael W. Deem and Ramdas Pophale) SiO2 
 PCOD9463504
Probable space group: P N M A
;
_chemical_formula_sum "Si O2"
_cell_formula_units_Z 48
_cell_length_a 11.970546
_cell_length_b 13.363889
_cell_length_c 13.185457
_cell_angle_alpha 90.000000
_cell_angle_beta 90.000000
_cell_angle_gamma 90.000000
_cell_volume 2109.317746
_symmetry_space_group_name_H-M "P N M A"
_symmetry_group_IT_number 62
_symmetry_cell_setting 'orthorhombic'
loop_
_space_group_symop_operation_xyz
x,y,z
1/2-x,-y,1/2+z
1/2+x,1/2-y,1/2-z
-x,1/2+y,-z
-x,-y,-z
1/2+x,y,1/2-z
1/2-x,1/2+y,1/2+z
x,1/2-y,z
loop_
_atom_site_type_symbol
_atom_site_label
_atom_site_fract_x
_atom_site_fract_y
_atom_site_fract_z
Si Si1 0.199120 0.138457 0.716105
Si Si2 0.871953 0.537841 0.491068
Si Si3 0.714454 0.140496 0.423316
Si Si4 0.338476 0.551861 0.785584
Si Si5 0.023028 0.463861 0.835499
Si Si6 0.050468 0.864604 0.975999
O O1 0.245086 0.250000 0.717629
O O2 0.278599 0.053957 0.763447
O O3 0.093412 0.125783 0.790383
O O4 0.155378 0.108545 0.604346
O O5 0.792145 0.442390 0.472467
O O6 0.839177 0.585433 0.599076
O O7 0.000000 0.500000 0.500000
O O8 0.757961 0.250000 0.448113
O O9 0.585083 0.135679 0.459660
O O10 0.709051 0.123857 0.301696
O O11 0.465300 0.525878 0.753608
O O12 0.089097 0.550778 0.896723
O O13 0.935004 0.413810 0.913518
O O14 0.089081 0.750000 0.966366
#
# Coordination Sequence:
#
# PCOD9463504 Si02
#       6
#     8   8   8   8   8   8
#     4  11  24  40  61  90 122 163 209 253 311 372
#     4  11  22  40  61  91 127 162 201 255 311 364
#     4   9  20  39  62  87 117 161 205 247 307 370
#     4  10  22  40  61  85 125 158 201 256 305 365
#     4  10  19  36  58  85 123 159 198 261 304 359
#     4   9  18  34  60  89 118 159 208 252 305 367
#
# _framework density 22.756174000000001
#
# number of rings (size 3 to 8) (size 9 to 14) (size 15 to 20)
#    0.000    2.000    1.667    1.500    0.000    6.000 
#    0.000    3.333    0.000    0.000    0.000    0.000 
#    0.000    0.000    0.000    0.000    0.000    0.000 
#
# Total GULP energy -268118.555199 kJ/mol
# GULP energy per Si atom -5585.803233 kJ/mol
# Density = 2.270438 g / cm^3
# Si number density = 22.756174 Si / 1000 Ang^3
#
#
#
# Elastic Constant Matrix: (Units=GPa)
#
#
# Indices 1 2 3 4 5 6 
#
# 1 55.1598 -9.0007 3.3077 0.0000 0.0000 0.0000
# 2 -9.0007 109.2808 5.0598 0.0000 0.0000 0.0000
# 3 3.3077 5.0598 132.4507 0.0000 0.0000 0.0000
# 4 0.0000 0.0000 0.0000 13.5690 0.0000 0.0000
# 5 0.0000 0.0000 0.0000 0.0000 21.8202 0.0000
# 6 0.0000 0.0000 0.0000 0.0000 0.0000 18.9239
#
#
#
# Elastic Compliance Matrix: (Units=1/GPa)
#
#
# Indices 1 2 3 4 5 6 
#
# 1 0.018412 0.001540 -0.000519 0.000000 0.000000 0.000000
# 2 0.001540 0.009296 -0.000394 0.000000 0.000000 0.000000
# 3 -0.000519 -0.000394 0.007578 0.000000 0.000000 0.000000
# 4 0.000000 0.000000 0.000000 0.073697 0.000000 0.000000
# 5 0.000000 0.000000 0.000000 0.000000 0.045829 0.000000
# 6 0.000000 0.000000 0.000000 0.000000 0.000000 0.052843
#
#
# Mechanical properties :
#
#
# Convention : Reuss Voigt Hill
#
# Bulk Modulus (GPa) = 27.36588 32.84722 30.10655
# Shear Modulus (GPa) = 22.87501 30.69760 26.78631
#
# Velocity S-wave (km/s) = 3.17396 3.67683 3.43461
# Velocity P-wave (km/s) = 5.04815 5.70010 5.38401
#
# Compressibility (1/GPa) = 0.03654185
#
# Stress axis : x y z
#
# Youngs Moduli (GPa) = 54.31357 107.57503 131.96156
#
# Poissons Ratio (x) = -0.16571 0.06844
# Poissons Ratio (y) = -0.08367 0.05194
# Poissons Ratio (z) = 0.02817 0.04234
#
# Static dielectric constant tensor:
#      x y z
#    x 1.942050 0.000000 0.000000 
#    y 0.000000 1.789940 0.000000 
#    z 0.000000 0.000000 1.883570 
# 
# From -- ./inp_files/13271.got.cif
#   From: 2010.05.17/outbox.cif.g08.bks.cpg/sg62_7_cif.got.tgz:13271.got - 2010.06.03 15:25:27.
