data_PCOD9463248
_publ_section_title
;
Structure prediction by ZEFSAII (Michael W. Deem and Ramdas Pophale) SiO2 
 PCOD9463248
Probable space group: P N M A
;
_chemical_formula_sum "Si O2"
_cell_formula_units_Z 48
_cell_length_a 21.415250
_cell_length_b 22.938674
_cell_length_c 5.240134
_cell_angle_alpha 90.000000
_cell_angle_beta 90.000000
_cell_angle_gamma 90.000000
_cell_volume 2574.150003
_symmetry_space_group_name_H-M "P N M A"
_symmetry_group_IT_number 62
_symmetry_cell_setting 'orthorhombic'
loop_
_space_group_symop_operation_xyz
x,y,z
1/2-x,-y,1/2+z
1/2+x,1/2-y,1/2-z
-x,1/2+y,-z
-x,-y,-z
1/2+x,y,1/2-z
1/2-x,1/2+y,1/2+z
x,1/2-y,z
loop_
_atom_site_type_symbol
_atom_site_label
_atom_site_fract_x
_atom_site_fract_y
_atom_site_fract_z
Si Si1 0.709953 0.007202 0.201453
Si Si2 0.913500 0.431453 0.647895
Si Si3 0.457095 0.182556 0.672131
Si Si4 0.514374 0.920780 0.643832
Si Si5 0.874859 0.612943 0.838225
Si Si6 0.600089 0.317184 0.839222
O O1 0.680532 0.068790 0.283263
O O2 0.755056 0.988285 0.431686
O O3 0.652259 0.962582 0.173014
O O4 0.909991 0.360954 0.683370
O O5 0.960158 0.447788 0.880473
O O6 0.947145 0.443941 0.381844
O O7 0.439957 0.250000 0.648097
O O8 0.469134 0.148371 0.405447
O O9 0.524652 0.178440 0.810831
O O10 0.440536 0.921987 0.677086
O O11 0.879312 0.660454 0.614436
O O12 0.872629 0.642676 0.114616
O O13 0.616821 0.250000 0.798902
#
# Coordination Sequence:
#
# PCOD9463248 Si02
#       6
#     8   8   8   8   8   8
#     4  12  27  43  61  81 112 170 212 251 288 339
#     4  10  20  37  57  86 120 149 194 240 289 356
#     4   8  17  31  55  89 124 147 175 225 300 369
#     4   9  18  33  55  92 117 145 179 235 310 345
#     4  11  20  38  59  90 123 155 192 244 298 359
#     4  10  19  34  59  95 127 150 180 232 308 378
#
# _framework density 18.646932
#
# number of rings (size 3 to 8) (size 9 to 14) (size 15 to 20)
#    1.000    1.000    1.667    2.500    0.000    2.667 
#    0.000    0.000    0.000    6.000    0.000    0.000 
#    0.000    0.000    0.000    0.000    0.000    0.000 
#
# Total GULP energy -267728.721364 kJ/mol
# GULP energy per Si atom -5577.681695 kJ/mol
# Density = 1.860449 g / cm^3
# Si number density = 18.646932 Si / 1000 Ang^3
#
#
#
# Elastic Constant Matrix: (Units=GPa)
#
#
# Indices 1 2 3 4 5 6 
#
# 1 39.0507 2.6815 1.4961 0.0000 0.0000 0.0000
# 2 2.6815 69.9357 -15.2198 0.0000 0.0000 0.0000
# 3 1.4961 -15.2198 81.9373 0.0000 0.0000 0.0000
# 4 0.0000 0.0000 0.0000 23.3601 0.0000 0.0000
# 5 0.0000 0.0000 0.0000 0.0000 21.7438 0.0000
# 6 0.0000 0.0000 0.0000 0.0000 0.0000 10.9225
#
#
#
# Elastic Compliance Matrix: (Units=1/GPa)
#
#
# Indices 1 2 3 4 5 6 
#
# 1 0.025712 -0.001134 -0.000680 0.000000 0.000000 0.000000
# 2 -0.001134 0.014951 0.002798 0.000000 0.000000 0.000000
# 3 -0.000680 0.002798 0.012737 0.000000 0.000000 0.000000
# 4 0.000000 0.000000 0.000000 0.042808 0.000000 0.000000
# 5 0.000000 0.000000 0.000000 0.000000 0.045990 0.000000
# 6 0.000000 0.000000 0.000000 0.000000 0.000000 0.091554
#
#
# Mechanical properties :
#
#
# Convention : Reuss Voigt Hill
#
# Bulk Modulus (GPa) = 18.06117 18.75991 18.41054
# Shear Modulus (GPa) = 19.98087 24.66967 22.32527
#
# Velocity S-wave (km/s) = 3.27698 3.64124 3.46390
# Velocity P-wave (km/s) = 4.90154 5.26883 5.08850
#
# Compressibility (1/GPa) = 0.05536739
#
# Stress axis : x y z
#
# Youngs Moduli (GPa) = 38.89284 66.88423 78.51409
#
# Poissons Ratio (x) = 0.07584 0.05339
# Poissons Ratio (y) = 0.04410 -0.21967
# Poissons Ratio (z) = 0.02645 -0.18713
#
# Static dielectric constant tensor:
#      x y z
#    x 1.609690 0.000000 0.000000 
#    y 0.000000 1.698450 0.000000 
#    z 0.000000 0.000000 1.647390 
# 
# From -- ./inp_files/2184.got.cif
#   From: 2010.05.17/outbox.cif.g08.bks.cpg/sg62_2_cif.got.tgz:2184.got - 2010.06.03 15:25:27.
