data_PCOD9463580
_publ_section_title
;
Structure prediction by ZEFSAII (Michael W. Deem and Ramdas Pophale) SiO2 
 PCOD9463580
Probable space group: P N M A
;
_chemical_formula_sum "Si O2"
_cell_formula_units_Z 56
_cell_length_a 12.277029
_cell_length_b 15.118917
_cell_length_c 14.178765
_cell_angle_alpha 90.000000
_cell_angle_beta 90.000000
_cell_angle_gamma 90.000000
_cell_volume 2631.796888
_symmetry_space_group_name_H-M "P N M A"
_symmetry_group_IT_number 62
_symmetry_cell_setting 'orthorhombic'
loop_
_space_group_symop_operation_xyz
x,y,z
1/2-x,-y,1/2+z
1/2+x,1/2-y,1/2-z
-x,1/2+y,-z
-x,-y,-z
1/2+x,y,1/2-z
1/2-x,1/2+y,1/2+z
x,1/2-y,z
loop_
_atom_site_type_symbol
_atom_site_label
_atom_site_fract_x
_atom_site_fract_y
_atom_site_fract_z
Si Si1 0.174226 0.414239 0.110834
Si Si2 0.100899 0.652001 0.680948
Si Si3 0.598901 0.462326 0.184034
Si Si4 0.827537 0.100790 0.111248
Si Si5 0.305115 0.346021 0.797887
Si Si6 0.343111 0.118797 0.593808
Si Si7 0.907433 0.597468 0.088598
O O1 0.286083 0.362884 0.126411
O O2 0.113631 0.421640 0.210616
O O3 0.196414 0.517046 0.087759
O O4 0.108828 0.378810 0.021402
O O5 0.056115 0.750000 0.662771
O O6 0.130745 0.643864 0.792120
O O7 0.016580 0.575307 0.652490
O O8 0.701563 0.424862 0.127095
O O9 0.618297 0.568111 0.185087
O O10 0.894928 0.008797 0.099911
O O11 0.834008 0.151887 0.012809
O O12 0.350122 0.250000 0.826049
O O13 0.283965 0.344555 0.685426
O O14 0.191575 0.362435 0.851909
O O15 0.471717 0.123126 0.618171
#
# Coordination Sequence:
#
# PCOD9463580 Si02
#       7
#     8   8   8   8   8   8   8
#     4   9  19  36  60  86 112 147 193 242 293 353
#     4  11  22  36  57  88 125 160 193 238 299 355
#     4   9  19  37  59  85 122 158 196 244 294 348
#     4   9  18  35  58  86 112 146 194 244 293 350
#     4  10  22  37  55  84 119 155 200 249 293 342
#     4  10  19  36  62  86 111 146 193 243 294 349
#     4  10  19  37  62  83 110 148 192 244 297 351
#
# _framework density 21.278237000000001
#
# number of rings (size 3 to 8) (size 9 to 14) (size 15 to 20)
#    0.000    2.286    0.000    5.143    0.000    4.000 
#    0.000    9.286    0.000    0.000    0.000    0.000 
#    0.000    0.000    0.000    0.000    0.000    0.000 
#
# Total GULP energy -312457.165776 kJ/mol
# GULP energy per Si atom -5579.592246 kJ/mol
# Density = 2.122981 g / cm^3
# Si number density = 21.278237 Si / 1000 Ang^3
#
#
#
# Elastic Constant Matrix: (Units=GPa)
#
#
# Indices 1 2 3 4 5 6 
#
# 1 65.2197 26.5504 28.0093 0.0000 0.0000 0.0000
# 2 26.5504 97.0450 6.3543 0.0000 0.0000 0.0000
# 3 28.0093 6.3543 59.6888 0.0000 0.0000 0.0000
# 4 0.0000 0.0000 0.0000 -14.6974 0.0000 0.0000
# 5 0.0000 0.0000 0.0000 0.0000 23.1807 0.0000
# 6 0.0000 0.0000 0.0000 0.0000 0.0000 6.4955
#
#
#
# Elastic Compliance Matrix: (Units=1/GPa)
#
#
# Indices 1 2 3 4 5 6 
#
# 1 0.021593 -0.005281 -0.009570 0.000000 0.000000 0.000000
# 2 -0.005281 0.011668 0.001236 0.000000 0.000000 0.000000
# 3 -0.009570 0.001236 0.021113 0.000000 0.000000 0.000000
# 4 0.000000 0.000000 0.000000 -0.068039 0.000000 0.000000
# 5 0.000000 0.000000 0.000000 0.000000 0.043139 0.000000
# 6 0.000000 0.000000 0.000000 0.000000 0.000000 0.153952
#
#
# Mechanical properties :
#
#
# Convention : Reuss Voigt Hill
#
# Bulk Modulus (GPa) = 36.84137 38.19796 37.51966
# Shear Modulus (GPa) = 22.75785 13.73174 18.24479
#
# Velocity S-wave (km/s) = 3.27392 2.54311 2.93138
# Velocity P-wave (km/s) = 5.62522 5.15886 5.39708
#
# Compressibility (1/GPa) = 0.02714340
#
# Stress axis : x y z
#
# Youngs Moduli (GPa) = 46.31210 85.70188 47.36441
#
# Poissons Ratio (x) = 0.45258 0.45329
# Poissons Ratio (y) = 0.24457 -0.05854
# Poissons Ratio (z) = 0.44322 -0.10592
#
# Static dielectric constant tensor:
#      x y z
#    x 1.726270 0.000000 0.000000 
#    y 0.000000 1.801000 0.000000 
#    z 0.000000 0.000000 1.801700 
# 
# From -- ./inp_files/18106.got.cif
#   From: 2010.05.17/outbox.cif.g08.bks.cpg/sg62_10_cif.got.tgz:18106.got - 2010.06.03 15:25:27.
