data_PCOD9463741
_publ_section_title
;
Structure prediction by ZEFSAII (Michael W. Deem and Ramdas Pophale) SiO2 
 PCOD9463741
Probable space group: P N M A
;
_chemical_formula_sum "Si O2"
_cell_formula_units_Z 48
_cell_length_a 10.342756
_cell_length_b 14.410181
_cell_length_c 13.955654
_cell_angle_alpha 90.000000
_cell_angle_beta 90.000000
_cell_angle_gamma 90.000000
_cell_volume 2079.964432
_symmetry_space_group_name_H-M "P N M A"
_symmetry_group_IT_number 62
_symmetry_cell_setting 'orthorhombic'
loop_
_space_group_symop_operation_xyz
x,y,z
1/2-x,-y,1/2+z
1/2+x,1/2-y,1/2-z
-x,1/2+y,-z
-x,-y,-z
1/2+x,y,1/2-z
1/2-x,1/2+y,1/2+z
x,1/2-y,z
loop_
_atom_site_type_symbol
_atom_site_label
_atom_site_fract_x
_atom_site_fract_y
_atom_site_fract_z
Si Si1 0.279889 0.864255 0.820524
Si Si2 0.381802 0.863533 0.029729
Si Si3 0.558671 0.402412 0.530308
Si Si4 0.504693 0.354038 0.320345
Si Si5 0.661515 0.863240 0.104328
Si Si6 0.336825 0.140171 0.675868
O O1 0.271140 0.750000 0.820619
O O2 0.375738 0.895647 0.736890
O O3 0.134408 0.900465 0.807464
O O4 0.335285 0.890782 0.924023
O O5 0.379228 0.750000 0.031540
O O6 0.527776 0.891426 0.054027
O O7 0.278420 0.897711 0.108719
O O8 0.500000 0.500000 0.500000
O O9 0.534121 0.346896 0.432474
O O10 0.708554 0.399770 0.555695
O O11 0.471968 0.370258 0.619740
O O12 0.492308 0.250000 0.279736
O O13 0.667853 0.750000 0.100449
O O14 0.658789 0.893265 0.215342
O O15 0.311687 0.250000 0.683519
#
# Coordination Sequence:
#
# PCOD9463741 Si02
#       6
#     8   8   8   8   8   8
#     4   9  18  32  56  88 113 141 187 239 297 355
#     4   9  17  32  57  89 116 140 188 256 310 350
#     4  12  25  41  56  89 129 167 201 243 316 383
#     4  10  20  37  61  84 113 153 200 251 292 350
#     4  10  21  37  65  94 116 154 211 268 308 358
#     4  10  19  39  66  88 116 158 211 268 315 356
#
# _framework density 23.077317000000001
#
# number of rings (size 3 to 8) (size 9 to 14) (size 15 to 20)
#    0.000    2.000    1.667    2.500    2.333    2.667 
#    3.000    0.833    0.000    0.000    0.000    0.000 
#    0.000    0.000    0.000    0.000    0.000    0.000 
#
# Total GULP energy -268442.674993 kJ/mol
# GULP energy per Si atom -5592.555729 kJ/mol
# Density = 2.302479 g / cm^3
# Si number density = 23.077317 Si / 1000 Ang^3
#
#
#
# Elastic Constant Matrix: (Units=GPa)
#
#
# Indices 1 2 3 4 5 6 
#
# 1 215.7180 -4.7109 88.2064 0.0000 0.0000 0.0000
# 2 -4.7109 50.6687 0.0408 0.0000 0.0000 0.0000
# 3 88.2064 0.0408 106.5696 0.0000 0.0000 0.0000
# 4 0.0000 0.0000 0.0000 0.2320 0.0000 0.0000
# 5 0.0000 0.0000 0.0000 0.0000 39.9541 0.0000
# 6 0.0000 0.0000 0.0000 0.0000 0.0000 16.1657
#
#
#
# Elastic Compliance Matrix: (Units=1/GPa)
#
#
# Indices 1 2 3 4 5 6 
#
# 1 0.007029 0.000658 -0.005818 0.000000 0.000000 0.000000
# 2 0.000658 0.019798 -0.000552 0.000000 0.000000 0.000000
# 3 -0.005818 -0.000552 0.014199 0.000000 0.000000 0.000000
# 4 0.000000 0.000000 0.000000 4.309758 0.000000 0.000000
# 5 0.000000 0.000000 0.000000 0.000000 0.025029 0.000000
# 6 0.000000 0.000000 0.000000 0.000000 0.000000 0.061859
#
#
# Mechanical properties :
#
#
# Convention : Reuss Voigt Hill
#
# Bulk Modulus (GPa) = 33.78208 60.00322 46.89265
# Shear Modulus (GPa) = 1.12134 30.56504 15.84319
#
# Velocity S-wave (km/s) = 0.69782 3.64326 2.62301
# Velocity P-wave (km/s) = 3.91404 6.61477 5.43484
#
# Compressibility (1/GPa) = 0.02960150
#
# Stress axis : x y z
#
# Youngs Moduli (GPa) = 142.26631 50.51098 70.42578
#
# Poissons Ratio (x) = -0.03325 0.40975
# Poissons Ratio (y) = -0.09364 0.03890
# Poissons Ratio (z) = 0.82772 0.02790
#
# Static dielectric constant tensor:
#      x y z
#    x 1.824020 0.000000 0.000000 
#    y 0.000000 1.963820 0.000000 
#    z 0.000000 0.000000 1.774940 
# 
# From -- ./inp_files/16970.got.cif
#   From: 2010.05.17/outbox.cif.g08.bks.cpg/sg62_9_cif.got.tgz:16970.got - 2010.06.03 15:25:27.
