data_PCOD9463672
_publ_section_title
;
Structure prediction by ZEFSAII (Michael W. Deem and Ramdas Pophale) SiO2 
 PCOD9463672
Probable space group: P N M A
;
_chemical_formula_sum "Si O2"
_cell_formula_units_Z 40
_cell_length_a 16.258069
_cell_length_b 14.630251
_cell_length_c 6.983089
_cell_angle_alpha 90.000000
_cell_angle_beta 90.000000
_cell_angle_gamma 90.000000
_cell_volume 1660.994968
_symmetry_space_group_name_H-M "P N M A"
_symmetry_group_IT_number 62
_symmetry_cell_setting 'orthorhombic'
loop_
_space_group_symop_operation_xyz
x,y,z
1/2-x,-y,1/2+z
1/2+x,1/2-y,1/2-z
-x,1/2+y,-z
-x,-y,-z
1/2+x,y,1/2-z
1/2-x,1/2+y,1/2+z
x,1/2-y,z
loop_
_atom_site_type_symbol
_atom_site_label
_atom_site_fract_x
_atom_site_fract_y
_atom_site_fract_z
Si Si1 0.408149 0.645739 0.512336
Si Si2 0.937804 0.982066 0.671863
Si Si3 0.673192 0.050688 0.827989
Si Si4 0.719672 0.650333 0.831884
Si Si5 0.156074 0.851223 0.242373
O O1 0.433255 0.750000 0.484048
O O2 0.394536 0.594859 0.311595
O O3 0.314497 0.644932 0.598588
O O4 0.460504 0.594067 0.673445
O O5 0.858775 0.952428 0.544672
O O6 0.912153 0.072169 0.789059
O O7 0.000000 0.000000 0.500000
O O8 0.755529 0.111276 0.824443
O O9 0.692952 0.948315 0.752104
O O10 0.709747 0.750000 0.734021
O O11 0.666482 0.654545 0.027429
O O12 0.137431 0.750000 0.171740
#
# Coordination Sequence:
#
# PCOD9463672 Si02
#       5
#     8   8   8   8   8
#     4  10  21  37  58  85 119 160 206 252 305 370
#     4  11  24  39  61  93 129 164 202 261 325 379
#     4  10  19  37  63  88 119 160 209 258 304 374
#     4   8  15  30  56  87 115 148 199 253 300 352
#     4   9  18  35  59  87 119 161 206 256 304 363
#
# _framework density 24.081951
#
# number of rings (size 3 to 8) (size 9 to 14) (size 15 to 20)
#    0.000    2.400    2.000    1.800    0.000    3.200 
#    0.000    3.000    0.000    0.000    0.000    0.000 
#    0.000    0.000    0.000    0.000    0.000    0.000 
#
# Total GULP energy -223518.579244 kJ/mol
# GULP energy per Si atom -5587.964481 kJ/mol
# Density = 2.402714 g / cm^3
# Si number density = 24.081951 Si / 1000 Ang^3
#
#
#
# Elastic Constant Matrix: (Units=GPa)
#
#
# Indices 1 2 3 4 5 6 
#
# 1 48.0938 9.4020 7.8551 0.0000 0.0000 0.0000
# 2 9.4020 184.9018 51.2650 0.0000 0.0000 0.0000
# 3 7.8551 51.2650 92.9573 0.0000 0.0000 0.0000
# 4 0.0000 0.0000 0.0000 22.9319 0.0000 0.0000
# 5 0.0000 0.0000 0.0000 0.0000 36.6758 0.0000
# 6 0.0000 0.0000 0.0000 0.0000 0.0000 0.4754
#
#
#
# Elastic Compliance Matrix: (Units=1/GPa)
#
#
# Indices 1 2 3 4 5 6 
#
# 1 0.021157 -0.000685 -0.001410 0.000000 0.000000 0.000000
# 2 -0.000685 0.006407 -0.003475 0.000000 0.000000 0.000000
# 3 -0.001410 -0.003475 0.012793 0.000000 0.000000 0.000000
# 4 0.000000 0.000000 0.000000 0.043607 0.000000 0.000000
# 5 0.000000 0.000000 0.000000 0.000000 0.027266 0.000000
# 6 0.000000 0.000000 0.000000 0.000000 0.000000 2.103687
#
#
# Mechanical properties :
#
#
# Convention : Reuss Voigt Hill
#
# Bulk Modulus (GPa) = 34.22741 51.44412 42.83577
# Shear Modulus (GPa) = 2.23634 29.17867 15.70750
#
# Velocity S-wave (km/s) = 0.96470 3.48464 2.55669
# Velocity P-wave (km/s) = 3.93505 6.13178 5.15186
#
# Compressibility (1/GPa) = 0.02921635
#
# Stress axis : x y z
#
# Youngs Moduli (GPa) = 47.26594 156.08779 78.16535
#
# Poissons Ratio (x) = 0.10689 0.11022
# Poissons Ratio (y) = 0.03237 0.27165
# Poissons Ratio (z) = 0.06665 0.54246
#
# Static dielectric constant tensor:
#      x y z
#    x 1.960560 0.000000 0.000000 
#    y 0.000000 1.984370 0.000000 
#    z 0.000000 0.000000 1.927030 
# 
# From -- ./inp_files/7477.got.cif
#   From: 2010.05.17/outbox.cif.g08.bks.cpg/sg62_4_cif.got.tgz:7477.got - 2010.06.03 15:25:27.
