data_PCOD9463075
_publ_section_title
;
Structure prediction by ZEFSAII (Michael W. Deem and Ramdas Pophale) SiO2 
 PCOD9463075
Probable space group: P N M A
;
_chemical_formula_sum "Si O2"
_cell_formula_units_Z 40
_cell_length_a 8.115509
_cell_length_b 20.250990
_cell_length_c 11.235144
_cell_angle_alpha 90.000000
_cell_angle_beta 90.000000
_cell_angle_gamma 90.000000
_cell_volume 1846.463240
_symmetry_space_group_name_H-M "P N M A"
_symmetry_group_IT_number 62
_symmetry_cell_setting 'orthorhombic'
loop_
_space_group_symop_operation_xyz
x,y,z
1/2-x,-y,1/2+z
1/2+x,1/2-y,1/2-z
-x,1/2+y,-z
-x,-y,-z
1/2+x,y,1/2-z
1/2-x,1/2+y,1/2+z
x,1/2-y,z
loop_
_atom_site_type_symbol
_atom_site_label
_atom_site_fract_x
_atom_site_fract_y
_atom_site_fract_z
Si Si1 0.484097 0.325764 0.107177
Si Si2 0.818563 0.109273 0.176310
Si Si3 0.023108 0.927446 0.055393
Si Si4 0.340215 0.515579 0.156178
Si Si5 0.159756 0.916709 0.428066
O O1 0.535047 0.250000 0.105924
O O2 0.364905 0.340974 0.218348
O O3 0.637972 0.374265 0.129362
O O4 0.399622 0.348178 0.985225
O O5 0.939868 0.114914 0.063662
O O6 0.823177 0.035863 0.234264
O O7 0.189198 0.934153 0.132746
O O8 0.848535 0.909357 0.114460
O O9 0.000000 0.000000 0.000000
O O10 0.014795 0.552489 0.348756
O O11 0.334632 0.466763 0.041353
#
# Coordination Sequence:
#
# PCOD9463075 Si02
#       5
#     8   8   8   8   8
#     4  11  21  34  51  77 116 161 194 224 278 348
#     4  11  21  34  53  81 118 153 188 235 280 344
#     4  10  19  34  52  78 110 150 178 229 290 341
#     4   9  18  34  51  76 108 146 186 235 281 335
#     4   9  18  34  52  71 108 149 184 231 273 331
#
# _framework density 21.663035000000001
#
# number of rings (size 3 to 8) (size 9 to 14) (size 15 to 20)
#    0.000    2.000    2.000    4.200    2.800    0.000 
#    3.600    1.000    0.000    0.000    0.000    0.000 
#    0.000   32.000    0.000    0.000    0.000    0.000 
#
# Total GULP energy -223476.661564 kJ/mol
# GULP energy per Si atom -5586.916539 kJ/mol
# Density = 2.161373 g / cm^3
# Si number density = 21.663035 Si / 1000 Ang^3
#
#
#
# Elastic Constant Matrix: (Units=GPa)
#
#
# Indices 1 2 3 4 5 6 
#
# 1 174.6949 33.0827 48.9810 0.0000 0.0000 0.0000
# 2 33.0827 63.9661 33.4714 0.0000 0.0000 0.0000
# 3 48.9810 33.4714 73.0903 0.0000 0.0000 0.0000
# 4 0.0000 0.0000 0.0000 18.8695 0.0000 0.0000
# 5 0.0000 0.0000 0.0000 0.0000 44.5453 0.0000
# 6 0.0000 0.0000 0.0000 0.0000 0.0000 14.4975
#
#
#
# Elastic Compliance Matrix: (Units=1/GPa)
#
#
# Indices 1 2 3 4 5 6 
#
# 1 0.007167 -0.001570 -0.004084 0.000000 0.000000 0.000000
# 2 -0.001570 0.020904 -0.008521 0.000000 0.000000 0.000000
# 3 -0.004084 -0.008521 0.020321 0.000000 0.000000 0.000000
# 4 0.000000 0.000000 0.000000 0.052996 0.000000 0.000000
# 5 0.000000 0.000000 0.000000 0.000000 0.022449 0.000000
# 6 0.000000 0.000000 0.000000 0.000000 0.000000 0.068977
#
#
# Mechanical properties :
#
#
# Convention : Reuss Voigt Hill
#
# Bulk Modulus (GPa) = 49.89468 60.31350 55.10409
# Shear Modulus (GPa) = 21.94500 28.66354 25.30427
#
# Velocity S-wave (km/s) = 3.18624 3.64147 3.42143
# Velocity P-wave (km/s) = 6.05131 6.75148 6.41096
#
# Compressibility (1/GPa) = 0.02004222
#
# Stress axis : x y z
#
# Youngs Moduli (GPa) = 139.53774 47.83820 49.21108
#
# Poissons Ratio (x) = 0.07508 0.20097
# Poissons Ratio (y) = 0.21901 0.41933
# Poissons Ratio (z) = 0.56985 0.40763
#
# Static dielectric constant tensor:
#      x y z
#    x 1.858740 0.000000 0.000000 
#    y 0.000000 1.760430 0.000000 
#    z 0.000000 0.000000 1.925630 
# 
# From -- ./inp_files/11189.got.cif
#   From: 2010.05.17/outbox.cif.g08.bks.cpg/sg62_6_cif.got.tgz:11189.got - 2010.06.03 15:25:27.
