data_PCOD9463954
_publ_section_title
;
Structure prediction by ZEFSAII (Michael W. Deem and Ramdas Pophale) SiO2 
 PCOD9463954
Probable space group: P N M A
;
_chemical_formula_sum "Si O2"
_cell_formula_units_Z 64
_cell_length_a 30.846093
_cell_length_b 8.907114
_cell_length_c 14.659306
_cell_angle_alpha 90.000000
_cell_angle_beta 90.000000
_cell_angle_gamma 90.000000
_cell_volume 4027.639439
_symmetry_space_group_name_H-M "P N M A"
_symmetry_group_IT_number 62
_symmetry_cell_setting 'orthorhombic'
loop_
_space_group_symop_operation_xyz
x,y,z
1/2-x,-y,1/2+z
1/2+x,1/2-y,1/2-z
-x,1/2+y,-z
-x,-y,-z
1/2+x,y,1/2-z
1/2-x,1/2+y,1/2+z
x,1/2-y,z
loop_
_atom_site_type_symbol
_atom_site_label
_atom_site_fract_x
_atom_site_fract_y
_atom_site_fract_z
Si Si1 0.228565 0.569995 0.510958
Si Si2 0.552249 0.072016 0.596226
Si Si3 0.322506 0.076962 0.518525
Si Si4 0.132998 0.577070 0.820994
Si Si5 0.548612 0.572067 0.395685
Si Si6 0.798192 0.430040 0.693245
Si Si7 0.791731 0.569674 0.297915
Si Si8 0.371501 0.571725 0.685520
O O1 0.231439 0.750000 0.519739
O O2 0.276090 0.498078 0.506620
O O3 0.206474 0.535604 0.413940
O O4 0.207543 0.500466 0.601309
O O5 0.560014 0.250000 0.588239
O O6 0.502207 0.048245 0.624429
O O7 0.586466 0.000215 0.665587
O O8 0.556945 0.998777 0.495766
O O9 0.318077 0.250000 0.550094
O O10 0.346564 0.076647 0.422316
O O11 0.348647 0.982812 0.592376
O O12 0.128804 0.750000 0.791224
O O13 0.167140 0.490193 0.758119
O O14 0.557109 0.750000 0.401474
O O15 0.580704 0.498895 0.322474
O O16 0.802236 0.250000 0.703327
O O17 0.753636 0.473902 0.746795
O O18 0.839887 0.508538 0.736642
O O19 0.792423 0.750000 0.302097
O O20 0.373929 0.750000 0.689937
#
# Coordination Sequence:
#
# PCOD9463954 Si02
#       8
#     8   8   8   8   8   8   8   8
#     4  11  22  37  54  74 102 138 180 221 261 306
#     4  10  20  33  52  76 104 138 176 216 260 312
#     4  11  21  32  49  73 105 141 176 215 260 305
#     4  11  22  34  52  76 106 143 179 217 259 310
#     4  10  20  34  51  74 106 140 173 214 263 314
#     4  10  22  37  53  74 104 139 175 217 262 309
#     4  11  22  36  54  76 105 139 177 219 262 309
#     4  12  23  33  52  77 104 140 180 218 257 312
#
# _framework density 15.8902
#
# number of rings (size 3 to 8) (size 9 to 14) (size 15 to 20)
#    0.000    1.250    3.750    3.375    0.000    4.000 
#    0.000    0.000    0.000    0.000    0.000    0.875 
#    0.000    0.000    0.000    0.000    0.000    0.000 
#
# Total GULP energy -357429.523316 kJ/mol
# GULP energy per Si atom -5584.836302 kJ/mol
# Density = 1.585403 g / cm^3
# Si number density = 15.890200 Si / 1000 Ang^3
#
#
#
# Elastic Constant Matrix: (Units=GPa)
#
#
# Indices 1 2 3 4 5 6 
#
# 1 108.8780 64.2058 44.5634 0.0000 0.0000 0.0000
# 2 64.2058 84.3432 38.5116 0.0000 0.0000 0.0000
# 3 44.5634 38.5116 78.2263 0.0000 0.0000 0.0000
# 4 0.0000 0.0000 0.0000 24.7179 0.0000 0.0000
# 5 0.0000 0.0000 0.0000 0.0000 16.7719 0.0000
# 6 0.0000 0.0000 0.0000 0.0000 0.0000 26.3845
#
#
#
# Elastic Compliance Matrix: (Units=1/GPa)
#
#
# Indices 1 2 3 4 5 6 
#
# 1 0.017804 -0.011509 -0.004476 0.000000 0.000000 0.000000
# 2 -0.011509 0.022734 -0.004636 0.000000 0.000000 0.000000
# 3 -0.004476 -0.004636 0.017616 0.000000 0.000000 0.000000
# 4 0.000000 0.000000 0.000000 0.040457 0.000000 0.000000
# 5 0.000000 0.000000 0.000000 0.000000 0.059624 0.000000
# 6 0.000000 0.000000 0.000000 0.000000 0.000000 0.037901
#
#
# Mechanical properties :
#
#
# Convention : Reuss Voigt Hill
#
# Bulk Modulus (GPa) = 59.13225 62.88989 61.01107
# Shear Modulus (GPa) = 20.57493 21.85265 21.21379
#
# Velocity S-wave (km/s) = 3.60226 3.71243 3.65776
# Velocity P-wave (km/s) = 7.38888 7.61839 7.50451
#
# Compressibility (1/GPa) = 0.01691125
#
# Stress axis : x y z
#
# Youngs Moduli (GPa) = 56.16836 43.98640 56.76743
#
# Poissons Ratio (x) = 0.50624 0.25410
# Poissons Ratio (y) = 0.64644 0.26317
# Poissons Ratio (z) = 0.25142 0.20392
#
# Static dielectric constant tensor:
#      x y z
#    x 1.564270 0.000000 0.000000 
#    y 0.000000 1.535170 0.000000 
#    z 0.000000 0.000000 1.520530 
# 
# From -- ./inp_files/21260.got.cif
#   From: 2010.05.17/outbox.cif.g08.bks.cpg/sg62_11_cif.got.tgz:21260.got - 2010.06.03 15:25:27.
