data_PCOD9463645
_publ_section_title
;
Structure prediction by ZEFSAII (Michael W. Deem and Ramdas Pophale) SiO2 
 PCOD9463645
Probable space group: P N M A
;
_chemical_formula_sum "Si O2"
_cell_formula_units_Z 64
_cell_length_a 12.995288
_cell_length_b 22.727410
_cell_length_c 11.865516
_cell_angle_alpha 90.000000
_cell_angle_beta 90.000000
_cell_angle_gamma 90.000000
_cell_volume 3504.471114
_symmetry_space_group_name_H-M "P N M A"
_symmetry_group_IT_number 62
_symmetry_cell_setting 'orthorhombic'
loop_
_space_group_symop_operation_xyz
x,y,z
1/2-x,-y,1/2+z
1/2+x,1/2-y,1/2-z
-x,1/2+y,-z
-x,-y,-z
1/2+x,y,1/2-z
1/2-x,1/2+y,1/2+z
x,1/2-y,z
loop_
_atom_site_type_symbol
_atom_site_label
_atom_site_fract_x
_atom_site_fract_y
_atom_site_fract_z
Si Si1 0.408440 0.957338 0.727929
Si Si2 0.207152 0.005262 0.025798
Si Si3 0.819430 0.317340 0.715410
Si Si4 0.138561 0.393448 0.867262
Si Si5 0.776020 0.317592 0.983069
Si Si6 0.883938 0.914241 0.527697
Si Si7 0.951276 0.095144 0.035789
Si Si8 0.984414 0.081268 0.675013
O O1 0.393742 0.919435 0.839053
O O2 0.496195 0.928611 0.649257
O O3 0.309666 0.963463 0.645812
O O4 0.436567 0.021995 0.774292
O O5 0.306928 0.965740 0.013425
O O6 0.110042 0.960634 0.015664
O O7 0.198320 0.052016 0.924768
O O8 0.844003 0.250000 0.685014
O O9 0.717609 0.340510 0.651497
O O10 0.909751 0.363579 0.692158
O O11 0.799957 0.319603 0.849638
O O12 0.088671 0.408733 0.746943
O O13 0.041828 0.384291 0.951341
O O14 0.771412 0.250000 0.018614
O O15 0.670519 0.352644 0.000318
O O16 0.866481 0.353929 0.045226
O O17 0.986781 0.922868 0.455954
#
# Coordination Sequence:
#
# PCOD9463645 Si02
#       8
#     8   8   8   8   8   8   8   8
#     4  11  21  36  56  86 121 151 189 229 296 347
#     4  10  20  36  59  88 117 149 186 237 280 352
#     4  11  24  38  57  86 120 152 196 245 290 342
#     4  11  19  35  60  84 115 148 187 236 296 333
#     4  10  21  38  58  84 111 150 202 240 277 343
#     4  11  24  34  58  88 119 154 182 234 297 348
#     4  10  19  37  61  85 112 150 195 241 282 344
#     4  12  21  37  57  87 122 149 187 238 293 350
#
# _framework density 18.262384999999998
#
# number of rings (size 3 to 8) (size 9 to 14) (size 15 to 20)
#    0.000    1.250    5.000    2.625    1.750    1.500 
#    0.000    3.125    0.000    3.750    0.000    0.000 
#    0.000    0.000    0.000    0.000    0.000    0.000 
#
# Total GULP energy -357436.293124 kJ/mol
# GULP energy per Si atom -5584.942080 kJ/mol
# Density = 1.822082 g / cm^3
# Si number density = 18.262385 Si / 1000 Ang^3
#
#
#
# Elastic Constant Matrix: (Units=GPa)
#
#
# Indices 1 2 3 4 5 6 
#
# 1 31.1149 24.5175 17.5790 0.0000 0.0000 0.0000
# 2 24.5175 97.4860 18.5894 0.0000 0.0000 0.0000
# 3 17.5790 18.5894 91.5109 0.0000 0.0000 0.0000
# 4 0.0000 0.0000 0.0000 20.7161 0.0000 0.0000
# 5 0.0000 0.0000 0.0000 0.0000 20.9600 0.0000
# 6 0.0000 0.0000 0.0000 0.0000 0.0000 13.1647
#
#
#
# Elastic Compliance Matrix: (Units=1/GPa)
#
#
# Indices 1 2 3 4 5 6 
#
# 1 0.043373 -0.009695 -0.006362 0.000000 0.000000 0.000000
# 2 -0.009695 0.012838 -0.000746 0.000000 0.000000 0.000000
# 3 -0.006362 -0.000746 0.012301 0.000000 0.000000 0.000000
# 4 0.000000 0.000000 0.000000 0.048272 0.000000 0.000000
# 5 0.000000 0.000000 0.000000 0.000000 0.047710 0.000000
# 6 0.000000 0.000000 0.000000 0.000000 0.000000 0.075961
#
#
# Mechanical properties :
#
#
# Convention : Reuss Voigt Hill
#
# Bulk Modulus (GPa) = 28.64784 37.94263 33.29523
# Shear Modulus (GPa) = 17.50112 21.59656 19.54884
#
# Velocity S-wave (km/s) = 3.09903 3.44258 3.27531
# Velocity P-wave (km/s) = 5.34099 6.05172 5.70743
#
# Compressibility (1/GPa) = 0.03490664
#
# Stress axis : x y z
#
# Youngs Moduli (GPa) = 23.05590 77.89187 81.29214
#
# Poissons Ratio (x) = 0.75516 0.51721
# Poissons Ratio (y) = 0.22353 0.06061
# Poissons Ratio (z) = 0.14669 0.05808
#
# Static dielectric constant tensor:
#      x y z
#    x 1.644960 0.000000 0.000000 
#    y 0.000000 1.613870 0.000000 
#    z 0.000000 0.000000 1.635450 
# 
# From -- ./inp_files/12565.got.cif
#   From: 2010.05.17/outbox.cif.g08.bks.cpg/sg62_7_cif.got.tgz:12565.got - 2010.06.03 15:25:27.
