data_PCOD9463021
_publ_section_title
;
Structure prediction by ZEFSAII (Michael W. Deem and Ramdas Pophale) SiO2 
 PCOD9463021
Probable space group: P N M A
;
_chemical_formula_sum "Si O2"
_cell_formula_units_Z 32
_cell_length_a 17.569262
_cell_length_b 18.268734
_cell_length_c 5.142684
_cell_angle_alpha 90.000000
_cell_angle_beta 90.000000
_cell_angle_gamma 90.000000
_cell_volume 1650.637893
_symmetry_space_group_name_H-M "P N M A"
_symmetry_group_IT_number 62
_symmetry_cell_setting 'orthorhombic'
loop_
_space_group_symop_operation_xyz
x,y,z
1/2-x,-y,1/2+z
1/2+x,1/2-y,1/2-z
-x,1/2+y,-z
-x,-y,-z
1/2+x,y,1/2-z
1/2-x,1/2+y,1/2+z
x,1/2-y,z
loop_
_atom_site_type_symbol
_atom_site_label
_atom_site_fract_x
_atom_site_fract_y
_atom_site_fract_z
Si Si1 0.374715 0.112895 0.706737
Si Si2 0.570044 0.038860 0.143272
Si Si3 0.228627 0.044990 0.603446
Si Si4 0.462014 0.166466 0.220826
O O1 0.283262 0.110426 0.697703
O O2 0.409997 0.158047 0.473724
O O3 0.398845 0.026761 0.675480
O O4 0.411524 0.140130 0.974868
O O5 0.533533 0.111958 0.258725
O O6 0.640100 0.058603 0.953585
O O7 0.500000 0.000000 0.000000
O O8 0.261652 0.015870 0.327955
O O9 0.485701 0.250000 0.181511
#
# Coordination Sequence:
#
# PCOD9463021 Si02
#       4
#     8   8   8   8
#     4  10  20  37  57  80 109 145 183 226 273 325
#     4   9  19  35  59  83 107 139 182 228 272 320
#     4  10  19  33  56  85 108 136 181 231 272 319
#     4  11  22  37  55  80 112 148 184 225 275 328
#
# _framework density 19.386444999999998
#
# number of rings (size 3 to 8) (size 9 to 14) (size 15 to 20)
#    0.000    2.000    0.000    6.000    0.000    6.000 
#    0.000    2.500    0.000    0.000    0.000    0.000 
#    0.000    0.000    0.000    0.000    0.000    0.000 
#
# Total GULP energy -178406.167255 kJ/mol
# GULP energy per Si atom -5575.192727 kJ/mol
# Density = 1.934232 g / cm^3
# Si number density = 19.386445 Si / 1000 Ang^3
#
#
#
# Elastic Constant Matrix: (Units=GPa)
#
#
# Indices 1 2 3 4 5 6 
#
# 1 111.4382 14.7319 8.3997 0.0000 0.0000 0.0000
# 2 14.7319 91.7256 -4.6998 0.0000 0.0000 0.0000
# 3 8.3997 -4.6998 76.7980 0.0000 0.0000 0.0000
# 4 0.0000 0.0000 0.0000 172.1210 0.0000 0.0000
# 5 0.0000 0.0000 0.0000 0.0000 25.5505 0.0000
# 6 0.0000 0.0000 0.0000 0.0000 0.0000 14.9794
#
#
#
# Elastic Compliance Matrix: (Units=1/GPa)
#
#
# Indices 1 2 3 4 5 6 
#
# 1 0.009261 -0.001544 -0.001107 0.000000 0.000000 0.000000
# 2 -0.001544 0.011194 0.000854 0.000000 0.000000 0.000000
# 3 -0.001107 0.000854 0.013195 0.000000 0.000000 0.000000
# 4 0.000000 0.000000 0.000000 0.005810 0.000000 0.000000
# 5 0.000000 0.000000 0.000000 0.000000 0.039138 0.000000
# 6 0.000000 0.000000 0.000000 0.000000 0.000000 0.066758
#
#
# Mechanical properties :
#
#
# Convention : Reuss Voigt Hill
#
# Bulk Modulus (GPa) = 33.27318 35.20282 34.23800
# Shear Modulus (GPa) = 31.45262 59.96553 45.70907
#
# Velocity S-wave (km/s) = 4.03228 5.56766 4.86097
# Velocity P-wave (km/s) = 6.23533 7.71555 7.01459
#
# Compressibility (1/GPa) = 0.03005424
#
# Stress axis : x y z
#
# Youngs Moduli (GPa) = 107.97747 89.33487 75.78880
#
# Poissons Ratio (x) = 0.13795 0.08393
# Poissons Ratio (y) = 0.16674 -0.06472
# Poissons Ratio (z) = 0.11958 -0.07629
#
# Static dielectric constant tensor:
#      x y z
#    x 1.732660 0.000000 0.000000 
#    y 0.000000 1.698080 0.000000 
#    z 0.000000 0.000000 1.683820 
# 
# From -- ./inp_files/1527.got.cif
#   From: 2010.05.17/outbox.cif.g08.bks.cpg/sg62_1_cif.got.tgz:1527.got - 2010.06.03 15:25:27.
