data_PCOD9463599
_publ_section_title
;
Structure prediction by ZEFSAII (Michael W. Deem and Ramdas Pophale) SiO2 
 PCOD9463599
Probable space group: P N M A
;
_chemical_formula_sum "Si O2"
_cell_formula_units_Z 40
_cell_length_a 8.229791
_cell_length_b 26.890875
_cell_length_c 8.676872
_cell_angle_alpha 90.000000
_cell_angle_beta 90.000000
_cell_angle_gamma 90.000000
_cell_volume 1920.246274
_symmetry_space_group_name_H-M "P N M A"
_symmetry_group_IT_number 62
_symmetry_cell_setting 'orthorhombic'
loop_
_space_group_symop_operation_xyz
x,y,z
1/2-x,-y,1/2+z
1/2+x,1/2-y,1/2-z
-x,1/2+y,-z
-x,-y,-z
1/2+x,y,1/2-z
1/2-x,1/2+y,1/2+z
x,1/2-y,z
loop_
_atom_site_type_symbol
_atom_site_label
_atom_site_fract_x
_atom_site_fract_y
_atom_site_fract_z
Si Si1 0.660241 0.443507 0.425340
Si Si2 0.156669 0.308684 0.654242
Si Si3 0.466861 0.130036 0.619229
Si Si4 0.843545 0.527509 0.573335
Si Si5 0.532686 0.609834 0.047063
O O1 0.519823 0.407453 0.486924
O O2 0.694539 0.491642 0.532475
O O3 0.823796 0.409610 0.440512
O O4 0.641252 0.463053 0.253570
O O5 0.153648 0.250000 0.666678
O O6 0.118669 0.336677 0.816704
O O7 0.326105 0.330060 0.592979
O O8 0.012854 0.332107 0.549287
O O9 0.424560 0.098387 0.774223
O O10 0.865525 0.580927 0.492907
O O11 0.000000 0.500000 0.500000
#
# Coordination Sequence:
#
# PCOD9463599 Si02
#       5
#     8   8   8   8   8
#     4  11  21  40  63  93 132 175 216 274 325 401
#     4  10  20  36  65  96 129 168 225 275 322 387
#     4  10  19  36  63  94 131 163 220 269 328 383
#     4  10  23  40  64  94 131 171 219 264 338 392
#     4   9  20  40  58  92 130 166 222 268 323 390
#
# _framework density 20.830660999999999
#
# number of rings (size 3 to 8) (size 9 to 14) (size 15 to 20)
#    1.200    0.800    2.000    1.800    0.000    3.200 
#    0.000    9.000    0.000    6.000    0.000    0.000 
#    0.000    0.000    0.000    0.000    0.000    0.000 
#
# Total GULP energy -222933.812502 kJ/mol
# GULP energy per Si atom -5573.345313 kJ/mol
# Density = 2.078325 g / cm^3
# Si number density = 20.830661 Si / 1000 Ang^3
#
#
#
# Elastic Constant Matrix: (Units=GPa)
#
#
# Indices 1 2 3 4 5 6 
#
# 1 79.2468 25.8573 32.0091 0.0000 0.0000 0.0000
# 2 25.8573 127.6025 64.2205 0.0000 0.0000 0.0000
# 3 32.0091 64.2205 122.2162 0.0000 0.0000 0.0000
# 4 0.0000 0.0000 0.0000 21.4036 0.0000 0.0000
# 5 0.0000 0.0000 0.0000 0.0000 27.5562 0.0000
# 6 0.0000 0.0000 0.0000 0.0000 0.0000 38.2475
#
#
#
# Elastic Compliance Matrix: (Units=1/GPa)
#
#
# Indices 1 2 3 4 5 6 
#
# 1 0.014287 -0.001376 -0.003019 0.000000 0.000000 0.000000
# 2 -0.001376 0.010787 -0.005308 0.000000 0.000000 0.000000
# 3 -0.003019 -0.005308 0.011762 0.000000 0.000000 0.000000
# 4 0.000000 0.000000 0.000000 0.046721 0.000000 0.000000
# 5 0.000000 0.000000 0.000000 0.000000 0.036289 0.000000
# 6 0.000000 0.000000 0.000000 0.000000 0.000000 0.026145
#
#
# Mechanical properties :
#
#
# Convention : Reuss Voigt Hill
#
# Bulk Modulus (GPa) = 57.36926 63.69326 60.53126
# Shear Modulus (GPa) = 29.20430 31.24005 30.22217
#
# Velocity S-wave (km/s) = 3.74837 3.87682 3.81314
# Velocity P-wave (km/s) = 6.80693 7.11918 6.96480
#
# Compressibility (1/GPa) = 0.01743094
#
# Stress axis : x y z
#
# Youngs Moduli (GPa) = 69.99325 92.70418 85.01937
#
# Poissons Ratio (x) = 0.12754 0.25667
# Poissons Ratio (y) = 0.09629 0.45127
# Poissons Ratio (z) = 0.21131 0.49206
#
# Static dielectric constant tensor:
#      x y z
#    x 1.890260 0.000000 0.000000 
#    y 0.000000 1.765540 0.000000 
#    z 0.000000 0.000000 1.745140 
# 
# From -- ./inp_files/4268.got.cif
#   From: 2010.05.17/outbox.cif.g08.bks.cpg/sg62_3_cif.got.tgz:4268.got - 2010.06.03 15:25:27.
