data_PCOD9463080
_publ_section_title
;
Structure prediction by ZEFSAII (Michael W. Deem and Ramdas Pophale) SiO2 
 PCOD9463080
Probable space group: P N M A
;
_chemical_formula_sum "Si O2"
_cell_formula_units_Z 48
_cell_length_a 10.659372
_cell_length_b 7.869680
_cell_length_c 24.270094
_cell_angle_alpha 90.000000
_cell_angle_beta 90.000000
_cell_angle_gamma 90.000000
_cell_volume 2035.917383
_symmetry_space_group_name_H-M "P N M A"
_symmetry_group_IT_number 62
_symmetry_cell_setting 'orthorhombic'
loop_
_space_group_symop_operation_xyz
x,y,z
1/2-x,-y,1/2+z
1/2+x,1/2-y,1/2-z
-x,1/2+y,-z
-x,-y,-z
1/2+x,y,1/2-z
1/2-x,1/2+y,1/2+z
x,1/2-y,z
loop_
_atom_site_type_symbol
_atom_site_label
_atom_site_fract_x
_atom_site_fract_y
_atom_site_fract_z
Si Si1 0.451045 0.046662 0.584377
Si Si2 0.299382 0.442815 0.295045
Si Si3 0.934268 0.949295 0.309710
Si Si4 0.693635 0.043876 0.517157
Si Si5 0.651835 0.951237 0.305995
Si Si6 0.858017 0.445531 0.610484
O O1 0.461779 0.250000 0.589468
O O2 0.572002 0.981395 0.551693
O O3 0.436572 0.978444 0.646241
O O4 0.332469 0.009983 0.545050
O O5 0.309804 0.250000 0.312337
O O6 0.413214 0.490586 0.253803
O O7 0.180501 0.464860 0.252840
O O8 0.262290 0.551936 0.347930
O O9 0.964682 0.750000 0.304942
O O10 0.031194 0.027122 0.353265
O O11 0.792636 0.964497 0.332154
O O12 0.694019 0.250000 0.518618
O O13 0.812965 0.981794 0.552199
O O14 0.629746 0.750000 0.296851
O O15 0.893405 0.250000 0.600183
#
# Coordination Sequence:
#
# PCOD9463080 Si02
#       6
#     8   8   8   8   8   8
#     4   9  17  33  54  74 102 132 167 209 248 301
#     4  10  20  32  49  76 105 131 163 209 260 303
#     4   8  17  34  52  69  96 132 170 207 242 298
#     4   9  19  32  50  77 102 131 167 208 254 297
#     4   8  16  33  53  72  95 133 174 203 242 298
#     4  10  19  34  53  73 102 137 172 207 249 306
#
# _framework density 23.576595999999999
#
# number of rings (size 3 to 8) (size 9 to 14) (size 15 to 20)
#    1.000    2.000    0.000    1.000    0.000    3.333 
#    0.000    4.167    0.000    0.000    0.000    0.000 
#    0.000    0.000    0.000    0.000    0.000    0.000 
#
# Total GULP energy -267419.088570 kJ/mol
# GULP energy per Si atom -5571.231012 kJ/mol
# Density = 2.352294 g / cm^3
# Si number density = 23.576596 Si / 1000 Ang^3
#
#
#
# Elastic Constant Matrix: (Units=GPa)
#
#
# Indices 1 2 3 4 5 6 
#
# 1 23.2940 -8.3718 -8.8601 0.0000 0.0000 0.0000
# 2 -8.3718 43.4352 -4.6149 0.0000 0.0000 0.0000
# 3 -8.8601 -4.6149 88.6751 0.0000 0.0000 0.0000
# 4 0.0000 0.0000 0.0000 18.7732 0.0000 0.0000
# 5 0.0000 0.0000 0.0000 0.0000 31.6571 0.0000
# 6 0.0000 0.0000 0.0000 0.0000 0.0000 10.2408
#
#
#
# Elastic Compliance Matrix: (Units=1/GPa)
#
#
# Indices 1 2 3 4 5 6 
#
# 1 0.048538 0.009925 0.005366 0.000000 0.000000 0.000000
# 2 0.009925 0.025180 0.002302 0.000000 0.000000 0.000000
# 3 0.005366 0.002302 0.011933 0.000000 0.000000 0.000000
# 4 0.000000 0.000000 0.000000 0.053267 0.000000 0.000000
# 5 0.000000 0.000000 0.000000 0.000000 0.031589 0.000000
# 6 0.000000 0.000000 0.000000 0.000000 0.000000 0.097649
#
#
# Mechanical properties :
#
#
# Convention : Reuss Voigt Hill
#
# Bulk Modulus (GPa) = 8.27547 12.41229 10.34388
# Shear Modulus (GPa) = 18.29839 23.95095 21.12467
#
# Velocity S-wave (km/s) = 2.78892 3.19074 2.99658
# Velocity P-wave (km/s) = 3.72672 4.34172 4.04592
#
# Compressibility (1/GPa) = 0.12083912
#
# Stress axis : x y z
#
# Youngs Moduli (GPa) = 20.60249 39.71333 83.80037
#
# Poissons Ratio (x) = -0.39417 -0.44970
# Poissons Ratio (y) = -0.20449 -0.19292
# Poissons Ratio (z) = -0.11056 -0.09143
#
# Static dielectric constant tensor:
#      x y z
#    x 2.076420 0.000000 0.000000 
#    y 0.000000 1.851520 0.000000 
#    z 0.000000 0.000000 1.900690 
# 
# From -- ./inp_files/30996.got.cif
#   From: 2010.05.17/outbox.cif.g08.bks.cpg/sg62_16_cif.got.tgz:30996.got - 2010.06.03 15:25:27.
