data_PCOD9463710
_publ_section_title
;
Structure prediction by ZEFSAII (Michael W. Deem and Ramdas Pophale) SiO2 
 PCOD9463710
Probable space group: P N M A
;
_chemical_formula_sum "Si O2"
_cell_formula_units_Z 64
_cell_length_a 18.984737
_cell_length_b 19.164582
_cell_length_c 7.551630
_cell_angle_alpha 90.000000
_cell_angle_beta 90.000000
_cell_angle_gamma 90.000000
_cell_volume 2747.543895
_symmetry_space_group_name_H-M "P N M A"
_symmetry_group_IT_number 62
_symmetry_cell_setting 'orthorhombic'
loop_
_space_group_symop_operation_xyz
x,y,z
1/2-x,-y,1/2+z
1/2+x,1/2-y,1/2-z
-x,1/2+y,-z
-x,-y,-z
1/2+x,y,1/2-z
1/2-x,1/2+y,1/2+z
x,1/2-y,z
loop_
_atom_site_type_symbol
_atom_site_label
_atom_site_fract_x
_atom_site_fract_y
_atom_site_fract_z
Si Si1 0.858834 0.830889 0.404863
Si Si2 0.505678 0.933527 0.684062
Si Si3 0.381617 0.831700 0.669547
Si Si4 0.507107 0.673564 0.273397
Si Si5 0.765514 0.402433 0.375432
Si Si6 0.593349 0.673402 0.909600
Si Si7 0.089493 0.957446 0.125354
Si Si8 0.746200 0.555807 0.465564
O O1 0.836516 0.750000 0.374125
O O2 0.879210 0.835187 0.614369
O O3 0.927758 0.844319 0.286495
O O4 0.798406 0.888225 0.378021
O O5 0.449460 0.875750 0.611991
O O6 0.555443 0.888351 0.806270
O O7 0.560718 0.980317 0.568164
O O8 0.450126 0.990931 0.759520
O O9 0.382767 0.750000 0.622624
O O10 0.311652 0.869368 0.596987
O O11 0.507375 0.750000 0.357397
O O12 0.553380 0.617258 0.372859
O O13 0.550899 0.678378 0.090561
O O14 0.825888 0.348933 0.431782
O O15 0.775830 0.477363 0.466982
O O16 0.769764 0.417105 0.163733
O O17 0.589134 0.750000 0.821644
O O18 0.171952 0.952321 0.134433
#
# Coordination Sequence:
#
# PCOD9463710 Si02
#       8
#     8   8   8   8   8   8   8   8
#     4   9  20  39  62  88 116 156 206 249 298 368
#     4  11  22  40  63  89 123 160 203 257 308 369
#     4  10  19  38  64  88 117 155 205 253 298 358
#     4  10  23  41  62  91 125 160 205 258 312 372
#     4  11  24  41  62  93 124 163 206 255 306 368
#     4  11  23  41  65  92 123 163 211 258 307 369
#     4  11  25  41  59  93 131 160 205 256 315 372
#     4  11  24  41  63  89 123 164 202 254 308 370
#
# _framework density 23.293530000000001
#
# number of rings (size 3 to 8) (size 9 to 14) (size 15 to 20)
#    0.000    1.500    3.750    0.750    3.500    2.500 
#    0.000    0.000    0.000    0.000    0.000    0.000 
#    0.000    0.000    0.000    0.000    0.000    0.000 
#
# Total GULP energy -357578.254118 kJ/mol
# GULP energy per Si atom -5587.160221 kJ/mol
# Density = 2.324051 g / cm^3
# Si number density = 23.293530 Si / 1000 Ang^3
#
#
#
# Elastic Constant Matrix: (Units=GPa)
#
#
# Indices 1 2 3 4 5 6 
#
# 1 98.7095 19.7642 9.8948 0.0000 0.0000 0.0000
# 2 19.7642 86.5314 -0.2848 0.0000 0.0000 0.0000
# 3 9.8948 -0.2848 10.9096 0.0000 0.0000 0.0000
# 4 0.0000 0.0000 0.0000 12.6410 0.0000 0.0000
# 5 0.0000 0.0000 0.0000 0.0000 16.3477 0.0000
# 6 0.0000 0.0000 0.0000 0.0000 0.0000 34.8326
#
#
#
# Elastic Compliance Matrix: (Units=1/GPa)
#
#
# Indices 1 2 3 4 5 6 
#
# 1 0.011751 -0.002719 -0.010729 0.000000 0.000000 0.000000
# 2 -0.002719 0.012187 0.002784 0.000000 0.000000 0.000000
# 3 -0.010729 0.002784 0.101465 0.000000 0.000000 0.000000
# 4 0.000000 0.000000 0.000000 0.079108 0.000000 0.000000
# 5 0.000000 0.000000 0.000000 0.000000 0.061171 0.000000
# 6 0.000000 0.000000 0.000000 0.000000 0.000000 0.028709
#
#
# Mechanical properties :
#
#
# Convention : Reuss Voigt Hill
#
# Bulk Modulus (GPa) = 9.60836 28.32212 18.96524
# Shear Modulus (GPa) = 14.26905 23.88268 19.07587
#
# Velocity S-wave (km/s) = 2.47771 3.20549 2.86481
# Velocity P-wave (km/s) = 3.50988 5.08777 4.37062
#
# Compressibility (1/GPa) = 0.10407602
#
# Stress axis : x y z
#
# Youngs Moduli (GPa) = 85.10168 82.05640 9.85557
#
# Poissons Ratio (x) = 0.22313 0.10574
# Poissons Ratio (y) = 0.23141 -0.02744
# Poissons Ratio (z) = 0.91302 -0.22848
#
# Static dielectric constant tensor:
#      x y z
#    x 1.826160 0.000000 0.000000 
#    y 0.000000 1.928050 0.000000 
#    z 0.000000 0.000000 2.013600 
# 
# From -- ./inp_files/8110.got.cif
#   From: 2010.05.17/outbox.cif.g08.bks.cpg/sg62_5_cif.got.tgz:8110.got - 2010.06.03 15:25:27.
