data_PCOD9463537
_publ_section_title
;
Structure prediction by ZEFSAII (Michael W. Deem and Ramdas Pophale) SiO2 
 PCOD9463537
Probable space group: P N M A
;
_chemical_formula_sum "Si O2"
_cell_formula_units_Z 48
_cell_length_a 13.925985
_cell_length_b 17.472124
_cell_length_c 7.564415
_cell_angle_alpha 90.000000
_cell_angle_beta 90.000000
_cell_angle_gamma 90.000000
_cell_volume 1840.547260
_symmetry_space_group_name_H-M "P N M A"
_symmetry_group_IT_number 62
_symmetry_cell_setting 'orthorhombic'
loop_
_space_group_symop_operation_xyz
x,y,z
1/2-x,-y,1/2+z
1/2+x,1/2-y,1/2-z
-x,1/2+y,-z
-x,-y,-z
1/2+x,y,1/2-z
1/2-x,1/2+y,1/2+z
x,1/2-y,z
loop_
_atom_site_type_symbol
_atom_site_label
_atom_site_fract_x
_atom_site_fract_y
_atom_site_fract_z
Si Si1 0.395715 0.341182 0.828620
Si Si2 0.815371 0.836255 0.500756
Si Si3 0.012722 0.078115 0.385212
Si Si4 0.231615 0.423288 0.021399
Si Si5 0.853512 0.423053 0.120764
Si Si6 0.427100 0.836776 0.373410
O O1 0.372577 0.250000 0.811785
O O2 0.305413 0.394868 0.868563
O O3 0.470176 0.372688 0.679947
O O4 0.459659 0.353376 0.006968
O O5 0.831812 0.750000 0.564424
O O6 0.876002 0.900043 0.605143
O O7 0.702314 0.854354 0.520981
O O8 0.861508 0.840957 0.304841
O O9 0.962150 0.075655 0.194186
O O10 0.000000 0.000000 0.500000
O O11 0.177192 0.501253 0.980805
O O12 0.145451 0.363034 0.021913
O O13 0.297028 0.428188 0.191838
O O14 0.453428 0.750000 0.407488
#
# Coordination Sequence:
#
# PCOD9463537 Si02
#       6
#     8   8   8   8   8   8
#     4   9  18  33  56  81 106 146 192 225 268 343
#     4  10  21  38  58  84 116 148 187 238 295 348
#     4  10  19  36  60  83 113 153 196 233 278 347
#     4  11  21  36  56  81 112 144 189 238 283 333
#     4  11  23  36  58  84 111 148 191 238 283 340
#     4   9  18  35  58  81 109 145 183 228 280 337
#
# _framework density 26.079198999999999
#
# number of rings (size 3 to 8) (size 9 to 14) (size 15 to 20)
#    0.000    2.000    0.000    7.000    0.000    4.000 
#    0.000    5.000    0.000    0.000    0.000    0.000 
#    0.000    0.000    0.000    0.000    0.000    0.000 
#
# Total GULP energy -268344.808422 kJ/mol
# GULP energy per Si atom -5590.516842 kJ/mol
# Density = 2.601984 g / cm^3
# Si number density = 26.079199 Si / 1000 Ang^3
#
#
#
# Elastic Constant Matrix: (Units=GPa)
#
#
# Indices 1 2 3 4 5 6 
#
# 1 115.6089 6.6306 -17.2900 0.0000 0.0000 0.0000
# 2 6.6306 71.7795 -1.9972 0.0000 0.0000 0.0000
# 3 -17.2900 -1.9972 51.9825 0.0000 0.0000 0.0000
# 4 0.0000 0.0000 0.0000 14.3817 0.0000 0.0000
# 5 0.0000 0.0000 0.0000 0.0000 58.7612 0.0000
# 6 0.0000 0.0000 0.0000 0.0000 0.0000 31.9983
#
#
#
# Elastic Compliance Matrix: (Units=1/GPa)
#
#
# Indices 1 2 3 4 5 6 
#
# 1 0.009144 -0.000761 0.003012 0.000000 0.000000 0.000000
# 2 -0.000761 0.014010 0.000285 0.000000 0.000000 0.000000
# 3 0.003012 0.000285 0.020250 0.000000 0.000000 0.000000
# 4 0.000000 0.000000 0.000000 0.069533 0.000000 0.000000
# 5 0.000000 0.000000 0.000000 0.000000 0.017018 0.000000
# 6 0.000000 0.000000 0.000000 0.000000 0.000000 0.031252
#
#
# Mechanical properties :
#
#
# Convention : Reuss Voigt Hill
#
# Bulk Modulus (GPa) = 20.62843 23.78421 22.20632
# Shear Modulus (GPa) = 29.02043 37.83007 33.42525
#
# Velocity S-wave (km/s) = 3.33946 3.81279 3.58394
# Velocity P-wave (km/s) = 4.77455 5.34068 5.06553
#
# Compressibility (1/GPa) = 0.04847679
#
# Stress axis : x y z
#
# Youngs Moduli (GPa) = 109.36161 71.37873 49.38252
#
# Poissons Ratio (x) = 0.05431 -0.14875
# Poissons Ratio (y) = 0.08321 -0.01408
# Poissons Ratio (z) = -0.32941 -0.02036
#
# Static dielectric constant tensor:
#      x y z
#    x 2.089630 0.000000 0.000000 
#    y 0.000000 2.001070 0.000000 
#    z 0.000000 0.000000 2.174480 
# 
# From -- ./inp_files/6441.got.cif
#   From: 2010.05.17/outbox.cif.g08.bks.cpg/sg62_4_cif.got.tgz:6441.got - 2010.06.03 15:25:27.
