data_PCOD9463360
_publ_section_title
;
Structure prediction by ZEFSAII (Michael W. Deem and Ramdas Pophale) SiO2 
 PCOD9463360
Probable space group: P N M A
;
_chemical_formula_sum "Si O2"
_cell_formula_units_Z 32
_cell_length_a 8.893587
_cell_length_b 18.757138
_cell_length_c 7.707036
_cell_angle_alpha 90.000000
_cell_angle_beta 90.000000
_cell_angle_gamma 90.000000
_cell_volume 1285.674171
_symmetry_space_group_name_H-M "P N M A"
_symmetry_group_IT_number 62
_symmetry_cell_setting 'orthorhombic'
loop_
_space_group_symop_operation_xyz
x,y,z
1/2-x,-y,1/2+z
1/2+x,1/2-y,1/2-z
-x,1/2+y,-z
-x,-y,-z
1/2+x,y,1/2-z
1/2-x,1/2+y,1/2+z
x,1/2-y,z
loop_
_atom_site_type_symbol
_atom_site_label
_atom_site_fract_x
_atom_site_fract_y
_atom_site_fract_z
Si Si1 0.866720 0.750000 0.646282
Si Si2 0.974269 0.250000 0.990494
Si Si3 0.285206 0.997489 0.228461
Si Si4 0.471033 0.401979 0.579208
Si Si5 0.977454 0.902228 0.667846
O O1 0.691688 0.750000 0.586538
O O2 0.945012 0.824543 0.590572
O O3 0.897612 0.750000 0.856686
O O4 0.987029 0.180220 0.871561
O O5 0.400639 0.953810 0.348105
O O6 0.180734 0.937915 0.143581
O O7 0.385135 0.049158 0.102822
O O8 0.172746 0.051764 0.322628
O O9 0.480494 0.395255 0.371529
#
# Coordination Sequence:
#
# PCOD9463360 Si02
#       5
#     4   4   8   8   8
#     4  10  20  38  62  84 110 150 186 238 286 328
#     4  10  22  42  60  82 118 146 188 236 284 336
#     4  10  19  35  58  83 116 152 187 230 286 339
#     4  10  22  39  58  83 116 153 187 238 282 330
#     4  10  20  37  58  84 115 147 191 239 281 332
#
# _framework density 24.889664
#
# number of rings (size 3 to 8) (size 9 to 14) (size 15 to 20)
#    0.000    2.000    0.000    6.000    0.000    1.000 
#    0.000   41.250    0.000    0.000    0.000    0.000 
#    0.000    0.000    0.000    0.000    0.000    0.000 
#
# Total GULP energy -178938.130958 kJ/mol
# GULP energy per Si atom -5591.816592 kJ/mol
# Density = 2.483301 g / cm^3
# Si number density = 24.889664 Si / 1000 Ang^3
#
#
#
# Elastic Constant Matrix: (Units=GPa)
#
#
# Indices 1 2 3 4 5 6 
#
# 1 92.1569 23.0618 -1.2107 0.0000 0.0000 0.0000
# 2 23.0618 222.0379 -1.2407 0.0000 0.0000 0.0000
# 3 -1.2107 -1.2407 36.7458 0.0000 0.0000 0.0000
# 4 0.0000 0.0000 0.0000 29.7496 0.0000 0.0000
# 5 0.0000 0.0000 0.0000 0.0000 34.9985 0.0000
# 6 0.0000 0.0000 0.0000 0.0000 0.0000 32.8346
#
#
#
# Elastic Compliance Matrix: (Units=1/GPa)
#
#
# Indices 1 2 3 4 5 6 
#
# 1 0.011145 -0.001156 0.000328 0.000000 0.000000 0.000000
# 2 -0.001156 0.004624 0.000118 0.000000 0.000000 0.000000
# 3 0.000328 0.000118 0.027229 0.000000 0.000000 0.000000
# 4 0.000000 0.000000 0.000000 0.033614 0.000000 0.000000
# 5 0.000000 0.000000 0.000000 0.000000 0.028573 0.000000
# 6 0.000000 0.000000 0.000000 0.000000 0.000000 0.030456
#
#
# Mechanical properties :
#
#
# Convention : Reuss Voigt Hill
#
# Bulk Modulus (GPa) = 24.05065 43.57348 33.81207
# Shear Modulus (GPa) = 33.13043 41.53855 37.33449
#
# Velocity S-wave (km/s) = 3.65237 4.08966 3.87718
# Velocity P-wave (km/s) = 5.24121 6.31229 5.80152
#
# Compressibility (1/GPa) = 0.04157891
#
# Stress axis : x y z
#
# Youngs Moduli (GPa) = 89.72980 216.24283 36.72578
#
# Poissons Ratio (x) = 0.24991 -0.01205
# Poissons Ratio (y) = 0.10370 -0.00434
# Poissons Ratio (z) = -0.02945 -0.02553
#
# Static dielectric constant tensor:
#      x y z
#    x 1.945260 0.000000 0.000000 
#    y 0.000000 2.060400 0.000000 
#    z 0.000000 0.000000 2.066730 
# 
# From -- ./inp_files/4145.got.cif
#   From: 2010.05.17/outbox.cif.g08.bks.cpg/sg62_3_cif.got.tgz:4145.got - 2010.06.03 15:25:27.
