data_PCOD9463476
_publ_section_title
;
Structure prediction by ZEFSAII (Michael W. Deem and Ramdas Pophale) SiO2 
 PCOD9463476
Probable space group: P N M A
;
_chemical_formula_sum "Si O2"
_cell_formula_units_Z 64
_cell_length_a 5.523712
_cell_length_b 19.165581
_cell_length_c 29.961092
_cell_angle_alpha 90.000000
_cell_angle_beta 90.000000
_cell_angle_gamma 90.000000
_cell_volume 3171.835491
_symmetry_space_group_name_H-M "P N M A"
_symmetry_group_IT_number 62
_symmetry_cell_setting 'orthorhombic'
loop_
_space_group_symop_operation_xyz
x,y,z
1/2-x,-y,1/2+z
1/2+x,1/2-y,1/2-z
-x,1/2+y,-z
-x,-y,-z
1/2+x,y,1/2-z
1/2-x,1/2+y,1/2+z
x,1/2-y,z
loop_
_atom_site_type_symbol
_atom_site_label
_atom_site_fract_x
_atom_site_fract_y
_atom_site_fract_z
Si Si1 0.372928 0.826728 0.471848
Si Si2 0.370768 0.673764 0.972804
Si Si3 0.383188 0.670051 0.635852
Si Si4 0.537555 0.525278 0.448579
Si Si5 0.690171 0.958660 0.641147
Si Si6 0.417106 0.435688 0.084749
Si Si7 0.367374 0.356796 0.227733
Si Si8 0.613340 0.484297 0.737437
O O1 0.371286 0.750000 0.449517
O O2 0.107763 0.833734 0.494984
O O3 0.439046 0.896351 0.445271
O O4 0.607013 0.824978 0.504713
O O5 0.401795 0.750000 0.950401
O O6 0.380373 0.606091 0.942288
O O7 0.438019 0.750000 0.625993
O O8 0.610419 0.621573 0.648297
O O9 0.266766 0.627797 0.594693
O O10 0.199836 0.664611 0.677597
O O11 0.500000 0.500000 0.500000
O O12 0.428060 0.489564 0.403845
O O13 0.816031 0.501794 0.441374
O O14 0.612319 0.998293 0.685158
O O15 0.974433 0.961119 0.631314
O O16 0.630883 0.332186 0.244136
O O17 0.377040 0.440935 0.235911
O O18 0.365267 0.448085 0.750948
#
# Coordination Sequence:
#
# PCOD9463476 Si02
#       8
#     8   8   8   8   8   8   8   8
#     4  10  22  40  60  85 115 154 199 248 299 358
#     4  10  21  37  58  80 111 156 202 245 301 357
#     4  11  24  37  51  78 111 153 205 258 309 359
#     4  11  23  39  60  89 123 161 207 253 309 372
#     4  11  24  38  58  85 115 161 202 265 312 371
#     4  11  23  37  56  78 117 155 208 253 310 354
#     4  10  19  36  55  74 104 143 198 247 306 349
#     4  10  19  37  61  78 113 150 197 248 310 361
#
# _framework density 20.177591
#
# number of rings (size 3 to 8) (size 9 to 14) (size 15 to 20)
#    0.000    1.500    3.750    2.625    5.250    2.500 
#    0.000    0.000    0.000    0.000    0.000    0.000 
#    0.000    1.000    0.000    0.000    0.000    0.000 
#
# Total GULP energy -356666.059722 kJ/mol
# GULP energy per Si atom -5572.907183 kJ/mol
# Density = 2.013167 g / cm^3
# Si number density = 20.177591 Si / 1000 Ang^3
#
#
#
# Elastic Constant Matrix: (Units=GPa)
#
#
# Indices 1 2 3 4 5 6 
#
# 1 100.2705 1.0547 22.7305 0.0000 0.0000 0.0000
# 2 1.0547 70.7218 30.5061 0.0000 0.0000 0.0000
# 3 22.7305 30.5061 77.1924 0.0000 0.0000 0.0000
# 4 0.0000 0.0000 0.0000 14.4509 0.0000 0.0000
# 5 0.0000 0.0000 0.0000 0.0000 37.9914 0.0000
# 6 0.0000 0.0000 0.0000 0.0000 0.0000 14.8592
#
#
#
# Elastic Compliance Matrix: (Units=1/GPa)
#
#
# Indices 1 2 3 4 5 6 
#
# 1 0.010810 0.001461 -0.003761 0.000000 0.000000 0.000000
# 2 0.001461 0.017243 -0.007245 0.000000 0.000000 0.000000
# 3 -0.003761 -0.007245 0.016925 0.000000 0.000000 0.000000
# 4 0.000000 0.000000 0.000000 0.069200 0.000000 0.000000
# 5 0.000000 0.000000 0.000000 0.000000 0.026322 0.000000
# 6 0.000000 0.000000 0.000000 0.000000 0.000000 0.067299
#
#
# Mechanical properties :
#
#
# Convention : Reuss Voigt Hill
#
# Bulk Modulus (GPa) = 38.62524 39.64082 39.13303
# Shear Modulus (GPa) = 21.22990 26.38652 23.80821
#
# Velocity S-wave (km/s) = 3.24721 3.62016 3.43874
# Velocity P-wave (km/s) = 5.76570 6.09612 5.93321
#
# Compressibility (1/GPa) = 0.02588981
#
# Stress axis : x y z
#
# Youngs Moduli (GPa) = 92.50572 57.99419 59.08410
#
# Poissons Ratio (x) = -0.08473 0.22219
# Poissons Ratio (y) = -0.13514 0.42804
# Poissons Ratio (z) = 0.34787 0.42014
#
# Static dielectric constant tensor:
#      x y z
#    x 1.941740 0.000000 0.000000 
#    y 0.000000 1.714740 0.000000 
#    z 0.000000 0.000000 1.757050 
# 
# From -- ./inp_files/30546.got.cif
#   From: 2010.05.17/outbox.cif.g08.bks.cpg/sg62_16_cif.got.tgz:30546.got - 2010.06.03 15:25:27.
