data_PCOD9463451
_publ_section_title
;
Structure prediction by ZEFSAII (Michael W. Deem and Ramdas Pophale) SiO2 
 PCOD9463451
Probable space group: P N M A
;
_chemical_formula_sum "Si O2"
_cell_formula_units_Z 56
_cell_length_a 14.875871
_cell_length_b 7.835533
_cell_length_c 21.354034
_cell_angle_alpha 90.000000
_cell_angle_beta 90.000000
_cell_angle_gamma 90.000000
_cell_volume 2489.034278
_symmetry_space_group_name_H-M "P N M A"
_symmetry_group_IT_number 62
_symmetry_cell_setting 'orthorhombic'
loop_
_space_group_symop_operation_xyz
x,y,z
1/2-x,-y,1/2+z
1/2+x,1/2-y,1/2-z
-x,1/2+y,-z
-x,-y,-z
1/2+x,y,1/2-z
1/2-x,1/2+y,1/2+z
x,1/2-y,z
loop_
_atom_site_type_symbol
_atom_site_label
_atom_site_fract_x
_atom_site_fract_y
_atom_site_fract_z
Si Si1 0.604456 0.454921 0.735943
Si Si2 0.715638 0.054273 0.997612
Si Si3 0.201154 0.541484 0.289466
Si Si4 0.881607 0.444087 0.380871
Si Si5 0.424087 0.052608 0.902771
Si Si6 0.918167 0.458807 0.824811
Si Si7 0.906785 0.044300 0.967290
O O1 0.602832 0.250000 0.730215
O O2 0.696488 0.517593 0.704129
O O3 0.610082 0.495629 0.809485
O O4 0.512816 0.517812 0.704643
O O5 0.714299 0.250000 0.019273
O O6 0.641360 0.958277 0.038086
O O7 0.816517 0.982646 0.001963
O O8 0.685205 0.048201 0.925175
O O9 0.201756 0.750000 0.291774
O O10 0.133594 0.485955 0.343869
O O11 0.160874 0.490341 0.222422
O O12 0.850750 0.250000 0.381934
O O13 0.981993 0.457541 0.409371
O O14 0.447941 0.250000 0.890369
O O15 0.919020 0.250000 0.825443
O O16 0.907228 0.517814 0.895682
O O17 0.899009 0.250000 0.965534
O O18 0.000000 0.000000 0.000000
#
# Coordination Sequence:
#
# PCOD9463451 Si02
#       7
#     8   8   8   8   8   8   8
#     4  10  19  35  62  89 117 154 201 249 295 358
#     4  11  24  42  62  87 124 167 208 255 307 363
#     4   9  18  33  59  91 116 151 201 250 296 353
#     4  12  24  40  61  91 126 161 201 252 315 375
#     4  11  22  39  64  92 121 158 207 259 310 370
#     4   9  17  34  59  87 116 152 199 243 288 351
#     4  10  23  41  64  91 124 163 206 254 301 358
#
# _framework density 22.498684999999998
#
# number of rings (size 3 to 8) (size 9 to 14) (size 15 to 20)
#    0.000    1.714    1.429    3.429    2.000    3.429 
#    0.000    2.143    0.000    0.000    0.000    0.000 
#    0.000    0.000    0.000    0.000    0.000    0.000 
#
# Total GULP energy -313177.721405 kJ/mol
# GULP energy per Si atom -5592.459311 kJ/mol
# Density = 2.244748 g / cm^3
# Si number density = 22.498685 Si / 1000 Ang^3
#
#
#
# Elastic Constant Matrix: (Units=GPa)
#
#
# Indices 1 2 3 4 5 6 
#
# 1 112.0568 -1.8986 -4.4173 0.0000 0.0000 0.0000
# 2 -1.8986 34.8911 -9.4702 0.0000 0.0000 0.0000
# 3 -4.4173 -9.4702 51.7401 0.0000 0.0000 0.0000
# 4 0.0000 0.0000 0.0000 11.4925 0.0000 0.0000
# 5 0.0000 0.0000 0.0000 0.0000 19.1386 0.0000
# 6 0.0000 0.0000 0.0000 0.0000 0.0000 15.7056
#
#
#
# Elastic Compliance Matrix: (Units=1/GPa)
#
#
# Indices 1 2 3 4 5 6 
#
# 1 0.008972 0.000732 0.000900 0.000000 0.000000 0.000000
# 2 0.000732 0.030219 0.005594 0.000000 0.000000 0.000000
# 3 0.000900 0.005594 0.020428 0.000000 0.000000 0.000000
# 4 0.000000 0.000000 0.000000 0.087013 0.000000 0.000000
# 5 0.000000 0.000000 0.000000 0.000000 0.052251 0.000000
# 6 0.000000 0.000000 0.000000 0.000000 0.000000 0.063672
#
#
# Mechanical properties :
#
#
# Convention : Reuss Voigt Hill
#
# Bulk Modulus (GPa) = 13.50060 18.56844 16.03452
# Shear Modulus (GPa) = 18.32896 23.56559 20.94728
#
# Velocity S-wave (km/s) = 2.85734 3.23990 3.05461
# Velocity P-wave (km/s) = 4.11090 4.71879 4.42529
#
# Compressibility (1/GPa) = 0.07407080
#
# Stress axis : x y z
#
# Youngs Moduli (GPa) = 111.45868 33.09212 48.95242
#
# Poissons Ratio (x) = -0.02424 -0.04406
# Poissons Ratio (y) = -0.08164 -0.27382
# Poissons Ratio (z) = -0.10032 -0.18510
#
# Static dielectric constant tensor:
#      x y z
#    x 1.825860 0.000000 0.000000 
#    y 0.000000 1.821380 0.000000 
#    z 0.000000 0.000000 1.808330 
# 
# From -- ./inp_files/27152.got.cif
#   From: 2010.05.17/outbox.cif.g08.bks.cpg/sg62_14_cif.got.tgz:27152.got - 2010.06.03 15:25:27.
