data_PCOD9463917
_publ_section_title
;
Structure prediction by ZEFSAII (Michael W. Deem and Ramdas Pophale) SiO2 
 PCOD9463917
Probable space group: P N M A
;
_chemical_formula_sum "Si O2"
_cell_formula_units_Z 48
_cell_length_a 14.929734
_cell_length_b 14.425973
_cell_length_c 9.215425
_cell_angle_alpha 90.000000
_cell_angle_beta 90.000000
_cell_angle_gamma 90.000000
_cell_volume 1984.780818
_symmetry_space_group_name_H-M "P N M A"
_symmetry_group_IT_number 62
_symmetry_cell_setting 'orthorhombic'
loop_
_space_group_symop_operation_xyz
x,y,z
1/2-x,-y,1/2+z
1/2+x,1/2-y,1/2-z
-x,1/2+y,-z
-x,-y,-z
1/2+x,y,1/2-z
1/2-x,1/2+y,1/2+z
x,1/2-y,z
loop_
_atom_site_type_symbol
_atom_site_label
_atom_site_fract_x
_atom_site_fract_y
_atom_site_fract_z
Si Si1 0.006343 0.356432 0.082769
Si Si2 0.843530 0.935408 0.103066
Si Si3 0.599119 0.140847 0.140651
Si Si4 0.456270 0.856384 0.163311
Si Si5 0.751860 0.535737 0.823913
Si Si6 0.369564 0.357165 0.663512
O O1 0.041732 0.250000 0.058733
O O2 0.013183 0.368837 0.254312
O O3 0.074164 0.430213 0.010582
O O4 0.914598 0.357680 0.995519
O O5 0.879494 0.858308 0.214675
O O6 0.831864 0.019860 0.216628
O O7 0.759096 0.928891 0.991422
O O8 0.619957 0.250000 0.123772
O O9 0.680746 0.096535 0.227487
O O10 0.579065 0.098671 0.983857
O O11 0.477129 0.750000 0.128258
O O12 0.549216 0.891134 0.231962
O O13 0.791229 0.430977 0.831784
O O14 0.345296 0.250000 0.696489
#
# Coordination Sequence:
#
# PCOD9463917 Si02
#       6
#     8   8   8   8   8   8
#     4   8  16  33  55  77 104 139 176 214 263 323
#     4  10  20  33  50  74 105 140 180 218 262 315
#     4   9  18  33  54  78 105 139 178 219 265 321
#     4   9  18  35  58  81 106 139 177 216 267 329
#     4  11  22  35  53  78 108 142 183 227 266 310
#     4   9  19  35  55  81 108 136 174 218 265 317
#
# _framework density 24.184031999999998
#
# number of rings (size 3 to 8) (size 9 to 14) (size 15 to 20)
#    0.000    2.667    0.000    2.500    0.000    8.667 
#    0.000    2.500    0.000    0.000    0.000    4.667 
#    0.000    0.000    0.000    0.000    0.000    0.000 
#
# Total GULP energy -267443.930952 kJ/mol
# GULP energy per Si atom -5571.748562 kJ/mol
# Density = 2.412899 g / cm^3
# Si number density = 24.184032 Si / 1000 Ang^3
#
#
#
# Elastic Constant Matrix: (Units=GPa)
#
#
# Indices 1 2 3 4 5 6 
#
# 1 30.5290 28.6774 2.7548 0.0000 0.0000 0.0000
# 2 28.6774 67.1906 14.2543 0.0000 0.0000 0.0000
# 3 2.7548 14.2543 156.9681 0.0000 0.0000 0.0000
# 4 0.0000 0.0000 0.0000 34.5049 0.0000 0.0000
# 5 0.0000 0.0000 0.0000 0.0000 23.1210 0.0000
# 6 0.0000 0.0000 0.0000 0.0000 0.0000 32.1551
#
#
#
# Elastic Compliance Matrix: (Units=1/GPa)
#
#
# Indices 1 2 3 4 5 6 
#
# 1 0.054893 -0.023680 0.001187 0.000000 0.000000 0.000000
# 2 -0.023680 0.025391 -0.001890 0.000000 0.000000 0.000000
# 3 0.001187 -0.001890 0.006522 0.000000 0.000000 0.000000
# 4 0.000000 0.000000 0.000000 0.028981 0.000000 0.000000
# 5 0.000000 0.000000 0.000000 0.000000 0.043251 0.000000
# 6 0.000000 0.000000 0.000000 0.000000 0.000000 0.031099
#
#
# Mechanical properties :
#
#
# Convention : Reuss Voigt Hill
#
# Bulk Modulus (GPa) = 26.28937 38.45121 32.37029
# Shear Modulus (GPa) = 19.87416 31.88963 25.88190
#
# Velocity S-wave (km/s) = 2.86980 3.63522 3.27495
# Velocity P-wave (km/s) = 4.67708 5.79256 5.26445
#
# Compressibility (1/GPa) = 0.03803819
#
# Stress axis : x y z
#
# Youngs Moduli (GPa) = 18.21736 39.38409 153.33816
#
# Poissons Ratio (x) = 0.93263 -0.18202
# Poissons Ratio (y) = 0.43139 0.28984
# Poissons Ratio (z) = -0.02163 0.07444
#
# Static dielectric constant tensor:
#      x y z
#    x 2.035080 0.000000 0.000000 
#    y 0.000000 1.959470 0.000000 
#    z 0.000000 0.000000 2.051370 
# 
# From -- ./inp_files/7609.got.cif
#   From: 2010.05.17/outbox.cif.g08.bks.cpg/sg62_4_cif.got.tgz:7609.got - 2010.06.03 15:25:27.
