data_PCOD9463857
_publ_section_title
;
Structure prediction by ZEFSAII (Michael W. Deem and Ramdas Pophale) SiO2 
 PCOD9463857
Probable space group: P N M A
;
_chemical_formula_sum "Si O2"
_cell_formula_units_Z 40
_cell_length_a 5.384577
_cell_length_b 11.543115
_cell_length_c 27.984096
_cell_angle_alpha 90.000000
_cell_angle_beta 90.000000
_cell_angle_gamma 90.000000
_cell_volume 1739.345653
_symmetry_space_group_name_H-M "P N M A"
_symmetry_group_IT_number 62
_symmetry_cell_setting 'orthorhombic'
loop_
_space_group_symop_operation_xyz
x,y,z
1/2-x,-y,1/2+z
1/2+x,1/2-y,1/2-z
-x,1/2+y,-z
-x,-y,-z
1/2+x,y,1/2-z
1/2-x,1/2+y,1/2+z
x,1/2-y,z
loop_
_atom_site_type_symbol
_atom_site_label
_atom_site_fract_x
_atom_site_fract_y
_atom_site_fract_z
Si Si1 0.174481 0.087975 0.233217
Si Si2 0.101205 0.494706 0.946228
Si Si3 0.308275 0.454230 0.644622
Si Si4 0.220607 0.750000 0.963337
Si Si5 0.817845 0.376408 0.693298
Si Si6 0.283837 0.250000 0.972520
O O1 0.913084 0.140921 0.243681
O O2 0.209693 0.068962 0.177260
O O3 0.156220 0.967914 0.264098
O O4 0.872716 0.478553 0.909785
O O5 0.223367 0.622689 0.937038
O O6 0.258303 0.373678 0.944616
O O7 0.000000 0.500000 0.000000
O O8 0.052633 0.390927 0.657708
O O9 0.558477 0.394802 0.665694
O O10 0.457994 0.750000 0.998587
O O11 0.957978 0.750000 0.992249
O O12 0.824026 0.250000 0.714721
#
# Coordination Sequence:
#
# PCOD9463857 Si02
#       6
#     8   8   8   4   8   4
#     4   8  16  30  46  71 107 151 180 224 282 353
#     4  10  23  42  61  88 118 156 200 253 299 350
#     4  10  21  33  51  79 110 151 191 235 282 354
#     4  10  22  42  62  78 114 156 194 232 302 354
#     4  10  20  32  50  79 118 153 184 231 298 358
#     4  10  22  38  62  88 110 146 194 252 294 338
#
# _framework density 22.997156
#
# number of rings (size 3 to 8) (size 9 to 14) (size 15 to 20)
#    0.000    2.400    0.000    1.200    2.800   13.600 
#    0.000    0.000    0.000    0.000    0.000   12.600 
#    0.000    0.000    0.000    0.000    0.000    0.000 
#
# Total GULP energy -222916.052105 kJ/mol
# GULP energy per Si atom -5572.901303 kJ/mol
# Density = 2.294481 g / cm^3
# Si number density = 22.997156 Si / 1000 Ang^3
#
#
#
# Elastic Constant Matrix: (Units=GPa)
#
#
# Indices 1 2 3 4 5 6 
#
# 1 134.8435 -1.9609 4.2050 0.0000 0.0000 0.0000
# 2 -1.9609 180.2790 3.5374 0.0000 0.0000 0.0000
# 3 4.2050 3.5374 98.6885 0.0000 0.0000 0.0000
# 4 0.0000 0.0000 0.0000 43.0211 0.0000 0.0000
# 5 0.0000 0.0000 0.0000 0.0000 40.2439 0.0000
# 6 0.0000 0.0000 0.0000 0.0000 0.0000 -108.1284
#
#
#
# Elastic Compliance Matrix: (Units=1/GPa)
#
#
# Indices 1 2 3 4 5 6 
#
# 1 0.007427 0.000087 -0.000320 0.000000 0.000000 0.000000
# 2 0.000087 0.005552 -0.000203 0.000000 0.000000 0.000000
# 3 -0.000320 -0.000203 0.010154 0.000000 0.000000 0.000000
# 4 0.000000 0.000000 0.000000 0.023244 0.000000 0.000000
# 5 0.000000 0.000000 0.000000 0.000000 0.024848 0.000000
# 6 0.000000 0.000000 0.000000 0.000000 0.000000 -0.009248
#
#
# Mechanical properties :
#
#
# Convention : Reuss Voigt Hill
#
# Bulk Modulus (GPa) = 44.91876 47.26377 46.09127
# Shear Modulus (GPa) = 71.15530 22.22928 46.69229
#
# Velocity S-wave (km/s) = 5.56849 3.11241 4.51083
# Velocity P-wave (km/s) = 7.80505 5.78902 6.87137
#
# Compressibility (1/GPa) = 0.02226242
#
# Stress axis : x y z
#
# Youngs Moduli (GPa) = 134.63957 180.11906 98.48558
#
# Poissons Ratio (x) = -0.01568 0.03147
# Poissons Ratio (y) = -0.01172 0.01996
# Poissons Ratio (z) = 0.04303 0.03651
#
# Static dielectric constant tensor:
#      x y z
#    x 1.919510 0.000000 0.000000 
#    y 0.000000 2.087720 0.000000 
#    z 0.000000 0.000000 1.843850 
# 
# From -- ./inp_files/30264.got.cif
#   From: 2010.05.17/outbox.cif.g08.bks.cpg/sg62_16_cif.got.tgz:30264.got - 2010.06.03 15:25:27.
