data_PCOD9463887
_publ_section_title
;
Structure prediction by ZEFSAII (Michael W. Deem and Ramdas Pophale) SiO2 
 PCOD9463887
Probable space group: P N M A
;
_chemical_formula_sum "Si O2"
_cell_formula_units_Z 60
_cell_length_a 9.367623
_cell_length_b 26.601167
_cell_length_c 9.642129
_cell_angle_alpha 90.000000
_cell_angle_beta 90.000000
_cell_angle_gamma 90.000000
_cell_volume 2402.719270
_symmetry_space_group_name_H-M "P N M A"
_symmetry_group_IT_number 62
_symmetry_cell_setting 'orthorhombic'
loop_
_space_group_symop_operation_xyz
x,y,z
1/2-x,-y,1/2+z
1/2+x,1/2-y,1/2-z
-x,1/2+y,-z
-x,-y,-z
1/2+x,y,1/2-z
1/2-x,1/2+y,1/2+z
x,1/2-y,z
loop_
_atom_site_type_symbol
_atom_site_label
_atom_site_fract_x
_atom_site_fract_y
_atom_site_fract_z
Si Si1 0.074277 0.810891 0.225915
Si Si2 0.374477 0.921244 0.654294
Si Si3 0.540329 0.250000 0.419363
Si Si4 0.850257 0.481855 0.168678
Si Si5 0.871948 0.964808 0.439805
Si Si6 0.772278 0.661939 0.017576
Si Si7 0.337004 0.653750 0.076511
Si Si8 0.510849 0.670187 0.818858
O O1 0.084387 0.750000 0.216768
O O2 0.166351 0.831190 0.356714
O O3 0.169330 0.834454 0.100259
O O4 0.921269 0.829309 0.284193
O O5 0.237361 0.941676 0.735930
O O6 0.491702 0.963880 0.637151
O O7 0.336779 0.892711 0.512177
O O8 0.453544 0.881264 0.753627
O O9 0.611238 0.294397 0.516323
O O10 0.491228 0.207575 0.307650
O O11 0.858056 0.527599 0.275423
O O12 0.760351 0.485221 0.029188
O O13 0.873886 0.904495 0.455558
O O14 0.000000 0.000000 0.500000
O O15 0.668839 0.669448 0.883108
O O16 0.402579 0.683573 0.945112
#
# Coordination Sequence:
#
# PCOD9463887 Si02
#       8
#     8   8   4   8   8   8   8   8
#     4  11  25  46  72 104 148 195 242 300 372 448
#     4  11  22  42  71 100 135 187 231 299 357 443
#     4  10  20  32  62  98 130 178 234 286 352 436
#     4  12  25  47  75 105 149 187 249 300 387 439
#     4  12  28  50  76 112 150 196 249 320 379 454
#     4  10  21  39  64 100 141 178 234 291 364 427
#     4  11  26  45  73  99 144 192 246 296 373 442
#     4  10  20  39  65  93 133 179 231 286 364 418
#
# _framework density 24.971703999999999
#
# number of rings (size 3 to 8) (size 9 to 14) (size 15 to 20)
#    0.000    1.067    4.667    0.800    7.467    1.600 
#    0.000    0.000    0.000    0.000    0.000    0.000 
#    0.000    0.000    0.000    0.000    0.000    0.000 
#
# Total GULP energy -334739.808218 kJ/mol
# GULP energy per Si atom -5578.996804 kJ/mol
# Density = 2.491487 g / cm^3
# Si number density = 24.971704 Si / 1000 Ang^3
#
#
#
# Elastic Constant Matrix: (Units=GPa)
#
#
# Indices 1 2 3 4 5 6 
#
# 1 104.0794 20.3995 10.3148 0.0000 0.0000 0.0000
# 2 20.3995 84.7205 24.1596 0.0000 0.0000 0.0000
# 3 10.3148 24.1596 65.7496 0.0000 0.0000 0.0000
# 4 0.0000 0.0000 0.0000 26.6367 0.0000 0.0000
# 5 0.0000 0.0000 0.0000 0.0000 41.2647 0.0000
# 6 0.0000 0.0000 0.0000 0.0000 0.0000 -52.5918
#
#
#
# Elastic Compliance Matrix: (Units=1/GPa)
#
#
# Indices 1 2 3 4 5 6 
#
# 1 0.010119 -0.002216 -0.000773 0.000000 0.000000 0.000000
# 2 -0.002216 0.013670 -0.004676 0.000000 0.000000 0.000000
# 3 -0.000773 -0.004676 0.017049 0.000000 0.000000 0.000000
# 4 0.000000 0.000000 0.000000 0.037542 0.000000 0.000000
# 5 0.000000 0.000000 0.000000 0.000000 0.024234 0.000000
# 6 0.000000 0.000000 0.000000 0.000000 0.000000 -0.019014
#
#
# Mechanical properties :
#
#
# Convention : Reuss Voigt Hill
#
# Bulk Modulus (GPa) = 39.20267 40.47749 39.84008
# Shear Modulus (GPa) = 46.54112 16.37363 31.45738
#
# Velocity S-wave (km/s) = 4.32181 2.56342 3.55311
# Velocity P-wave (km/s) = 6.37471 5.00060 5.72900
#
# Compressibility (1/GPa) = 0.02550847
#
# Stress axis : x y z
#
# Youngs Moduli (GPa) = 98.82380 73.15067 58.65607
#
# Poissons Ratio (x) = 0.16210 0.04535
# Poissons Ratio (y) = 0.21900 0.27425
# Poissons Ratio (z) = 0.07641 0.34202
#
# Static dielectric constant tensor:
#      x y z
#    x 2.001920 0.000000 0.000000 
#    y 0.000000 1.954650 0.000000 
#    z 0.000000 0.000000 2.111580 
# 
# From -- ./inp_files/11466.got.cif
#   From: 2010.05.17/outbox.cif.g08.bks.cpg/sg62_6_cif.got.tgz:11466.got - 2010.06.03 15:25:27.
