data_PCOD9463985
_publ_section_title
;
Structure prediction by ZEFSAII (Michael W. Deem and Ramdas Pophale) SiO2 
 PCOD9463985
Probable space group: P N M A
;
_chemical_formula_sum "Si O2"
_cell_formula_units_Z 56
_cell_length_a 15.651743
_cell_length_b 8.746314
_cell_length_c 21.750843
_cell_angle_alpha 90.000000
_cell_angle_beta 90.000000
_cell_angle_gamma 90.000000
_cell_volume 2977.582934
_symmetry_space_group_name_H-M "P N M A"
_symmetry_group_IT_number 62
_symmetry_cell_setting 'orthorhombic'
loop_
_space_group_symop_operation_xyz
x,y,z
1/2-x,-y,1/2+z
1/2+x,1/2-y,1/2-z
-x,1/2+y,-z
-x,-y,-z
1/2+x,y,1/2-z
1/2-x,1/2+y,1/2+z
x,1/2-y,z
loop_
_atom_site_type_symbol
_atom_site_label
_atom_site_fract_x
_atom_site_fract_y
_atom_site_fract_z
Si Si1 0.524914 0.426050 0.100491
Si Si2 0.551850 0.925591 0.445750
Si Si3 0.220722 0.572751 0.978111
Si Si4 0.998220 0.564182 0.187690
Si Si5 0.389545 0.427552 0.014008
Si Si6 0.313278 0.066999 0.334525
Si Si7 0.631953 0.931028 0.206922
O O1 0.534825 0.250000 0.119778
O O2 0.426553 0.458014 0.082240
O O3 0.573536 0.532868 0.147628
O O4 0.568936 0.456855 0.034891
O O5 0.524818 0.750000 0.441902
O O6 0.647309 0.930377 0.470943
O O7 0.532296 0.990457 0.378849
O O8 0.500000 0.000000 0.500000
O O9 0.251578 0.750000 0.974025
O O10 0.191644 0.531402 0.908410
O O11 0.291188 0.457701 0.002805
O O12 0.994727 0.750000 0.190605
O O13 0.900953 0.502873 0.193127
O O14 0.070199 0.516466 0.237266
O O15 0.410803 0.250000 0.000326
O O16 0.316964 0.250000 0.328863
O O17 0.224763 0.008077 0.303794
O O18 0.646383 0.750000 0.213062
#
# Coordination Sequence:
#
# PCOD9463985 Si02
#       7
#     8   8   8   8   8   8   8
#     4  10  20  35  55  82 116 151 194 243 293 347
#     4  10  20  37  60  86 115 147 185 238 296 348
#     4  10  20  34  56  86 118 148 186 235 290 352
#     4  10  23  42  63  87 118 155 199 249 296 353
#     4  10  20  33  54  83 115 151 192 240 291 345
#     4  11  22  38  63  91 117 152 196 242 298 357
#     4  11  23  40  62  87 118 160 207 247 294 354
#
# _framework density 18.807200000000002
#
# number of rings (size 3 to 8) (size 9 to 14) (size 15 to 20)
#    0.000    1.714    2.857    1.714    0.000    4.000 
#    2.571    0.000    0.000    0.000    0.000    0.000 
#    0.000    0.000    0.000    0.000    0.000    0.000 
#
# Total GULP energy -311959.813965 kJ/mol
# GULP energy per Si atom -5570.710964 kJ/mol
# Density = 1.876439 g / cm^3
# Si number density = 18.807200 Si / 1000 Ang^3
#
#
#
# Elastic Constant Matrix: (Units=GPa)
#
#
# Indices 1 2 3 4 5 6 
#
# 1 99.9648 37.7388 62.6171 0.0000 0.0000 0.0000
# 2 37.7388 32.7029 13.8386 0.0000 0.0000 0.0000
# 3 62.6171 13.8386 88.0926 0.0000 0.0000 0.0000
# 4 0.0000 0.0000 0.0000 19.7353 0.0000 0.0000
# 5 0.0000 0.0000 0.0000 0.0000 28.4730 0.0000
# 6 0.0000 0.0000 0.0000 0.0000 0.0000 33.9644
#
#
#
# Elastic Compliance Matrix: (Units=1/GPa)
#
#
# Indices 1 2 3 4 5 6 
#
# 1 0.033384 -0.030511 -0.018937 0.000000 0.000000 0.000000
# 2 -0.030511 0.060642 0.012161 0.000000 0.000000 0.000000
# 3 -0.018937 0.012161 0.022902 0.000000 0.000000 0.000000
# 4 0.000000 0.000000 0.000000 0.050671 0.000000 0.000000
# 5 0.000000 0.000000 0.000000 0.000000 0.035121 0.000000
# 6 0.000000 0.000000 0.000000 0.000000 0.000000 0.029443
#
#
# Mechanical properties :
#
#
# Convention : Reuss Voigt Hill
#
# Bulk Modulus (GPa) = 23.61034 49.90551 36.75792
# Shear Modulus (GPa) = 15.58348 23.53891 19.56119
#
# Velocity S-wave (km/s) = 2.88165 3.54162 3.22854
# Velocity P-wave (km/s) = 4.86344 6.58157 5.78662
#
# Compressibility (1/GPa) = 0.04235432
#
# Stress axis : x y z
#
# Youngs Moduli (GPa) = 29.95456 16.49027 43.66526
#
# Poissons Ratio (x) = 0.50314 0.82687
# Poissons Ratio (y) = 0.91396 -0.53103
# Poissons Ratio (z) = 0.56724 -0.20055
#
# Static dielectric constant tensor:
#      x y z
#    x 2.270140 0.000000 0.000000 
#    y 0.000000 1.690670 0.000000 
#    z 0.000000 0.000000 1.790880 
# 
# From -- ./inp_files/27297.got.cif
#   From: 2010.05.17/outbox.cif.g08.bks.cpg/sg62_14_cif.got.tgz:27297.got - 2010.06.03 15:25:27.
