data_PCOD9463398
_publ_section_title
;
Structure prediction by ZEFSAII (Michael W. Deem and Ramdas Pophale) SiO2 
 PCOD9463398
Probable space group: P N M A
;
_chemical_formula_sum "Si O2"
_cell_formula_units_Z 56
_cell_length_a 15.395308
_cell_length_b 9.333200
_cell_length_c 20.675656
_cell_angle_alpha 90.000000
_cell_angle_beta 90.000000
_cell_angle_gamma 90.000000
_cell_volume 2970.833086
_symmetry_space_group_name_H-M "P N M A"
_symmetry_group_IT_number 62
_symmetry_cell_setting 'orthorhombic'
loop_
_space_group_symop_operation_xyz
x,y,z
1/2-x,-y,1/2+z
1/2+x,1/2-y,1/2-z
-x,1/2+y,-z
-x,-y,-z
1/2+x,y,1/2-z
1/2-x,1/2+y,1/2+z
x,1/2-y,z
loop_
_atom_site_type_symbol
_atom_site_label
_atom_site_fract_x
_atom_site_fract_y
_atom_site_fract_z
Si Si1 0.549885 0.088309 0.553195
Si Si2 0.180171 0.421006 0.170820
Si Si3 0.502542 0.576633 0.302936
Si Si4 0.878224 0.078191 0.300158
Si Si5 0.880095 0.590728 0.538496
Si Si6 0.226542 0.087268 0.021741
Si Si7 0.980556 0.589385 0.405015
O O1 0.515861 0.250000 0.550699
O O2 0.533941 0.038501 0.625766
O O3 0.648537 0.089193 0.529448
O O4 0.500000 0.000000 0.500000
O O5 0.162275 0.250000 0.176872
O O6 0.100089 0.511740 0.198978
O O7 0.274580 0.450452 0.202617
O O8 0.192028 0.451053 0.093577
O O9 0.503098 0.750000 0.295332
O O10 0.437577 0.501296 0.252654
O O11 0.890037 0.250000 0.298146
O O12 0.914557 0.012460 0.366915
O O13 0.863904 0.750000 0.564560
O O14 0.796320 0.520086 0.506789
O O15 0.945204 0.604293 0.477704
O O16 0.926538 0.487956 0.590119
O O17 0.262591 0.250000 0.027393
O O18 0.984894 0.750000 0.376842
#
# Coordination Sequence:
#
# PCOD9463398 Si02
#       7
#     8   8   8   8   8   8   8
#     4  10  21  37  60  88 118 152 192 244 303 359
#     4  10  21  39  65  90 115 156 203 249 303 362
#     4  11  24  41  62  90 122 158 200 251 308 366
#     4  11  23  41  64  88 119 161 208 251 301 366
#     4  10  20  33  54  86 120 155 197 245 296 355
#     4  10  19  35  59  86 118 153 194 245 300 356
#     4  10  20  35  57  84 118 156 196 246 301 352
#
# _framework density 18.849931999999999
#
# number of rings (size 3 to 8) (size 9 to 14) (size 15 to 20)
#    0.000    1.714    2.857    1.714    0.000    4.000 
#    2.571    0.000    0.000    0.000    0.000    0.000 
#    0.000    0.000    0.000    0.000    0.000    0.000 
#
# Total GULP energy -312330.533083 kJ/mol
# GULP energy per Si atom -5577.330948 kJ/mol
# Density = 1.880703 g / cm^3
# Si number density = 18.849932 Si / 1000 Ang^3
#
#
#
# Elastic Constant Matrix: (Units=GPa)
#
#
# Indices 1 2 3 4 5 6 
#
# 1 104.6973 67.3100 36.9004 0.0000 0.0000 0.0000
# 2 67.3100 102.8961 30.5582 0.0000 0.0000 0.0000
# 3 36.9004 30.5582 41.0532 0.0000 0.0000 0.0000
# 4 0.0000 0.0000 0.0000 27.4357 0.0000 0.0000
# 5 0.0000 0.0000 0.0000 0.0000 30.9528 0.0000
# 6 0.0000 0.0000 0.0000 0.0000 0.0000 29.2190
#
#
#
# Elastic Compliance Matrix: (Units=1/GPa)
#
#
# Indices 1 2 3 4 5 6 
#
# 1 0.019334 -0.009611 -0.010224 0.000000 0.000000 0.000000
# 2 -0.009611 0.017254 -0.004205 0.000000 0.000000 0.000000
# 3 -0.010224 -0.004205 0.036678 0.000000 0.000000 0.000000
# 4 0.000000 0.000000 0.000000 0.036449 0.000000 0.000000
# 5 0.000000 0.000000 0.000000 0.000000 0.032307 0.000000
# 6 0.000000 0.000000 0.000000 0.000000 0.000000 0.034224
#
#
# Mechanical properties :
#
#
# Convention : Reuss Voigt Hill
#
# Bulk Modulus (GPa) = 39.70302 57.57598 48.63950
# Shear Modulus (GPa) = 21.48496 25.11336 23.29916
#
# Velocity S-wave (km/s) = 3.37974 3.65400 3.51954
# Velocity P-wave (km/s) = 6.02815 6.95794 6.50967
#
# Compressibility (1/GPa) = 0.02518700
#
# Stress axis : x y z
#
# Youngs Moduli (GPa) = 51.72350 57.95684 27.26422
#
# Poissons Ratio (x) = 0.55701 0.27875
# Poissons Ratio (y) = 0.49711 0.11464
# Poissons Ratio (z) = 0.52882 0.24369
#
# Static dielectric constant tensor:
#      x y z
#    x 1.658080 0.000000 0.000000 
#    y 0.000000 1.674730 0.000000 
#    z 0.000000 0.000000 1.673150 
# 
# From -- ./inp_files/27222.got.cif
#   From: 2010.05.17/outbox.cif.g08.bks.cpg/sg62_14_cif.got.tgz:27222.got - 2010.06.03 15:25:27.
