data_PCOD9463632
_publ_section_title
;
Structure prediction by ZEFSAII (Michael W. Deem and Ramdas Pophale) SiO2 
 PCOD9463632
Probable space group: P N M A
;
_chemical_formula_sum "Si O2"
_cell_formula_units_Z 48
_cell_length_a 18.628065
_cell_length_b 7.695672
_cell_length_c 14.587632
_cell_angle_alpha 90.000000
_cell_angle_beta 90.000000
_cell_angle_gamma 90.000000
_cell_volume 2091.216962
_symmetry_space_group_name_H-M "P N M A"
_symmetry_group_IT_number 62
_symmetry_cell_setting 'orthorhombic'
loop_
_space_group_symop_operation_xyz
x,y,z
1/2-x,-y,1/2+z
1/2+x,1/2-y,1/2-z
-x,1/2+y,-z
-x,-y,-z
1/2+x,y,1/2-z
1/2-x,1/2+y,1/2+z
x,1/2-y,z
loop_
_atom_site_type_symbol
_atom_site_label
_atom_site_fract_x
_atom_site_fract_y
_atom_site_fract_z
Si Si1 0.503037 0.039462 0.672664
Si Si2 0.893142 0.456297 0.551712
Si Si3 0.367496 0.963416 0.439480
Si Si4 0.839619 0.951148 0.858836
Si Si5 0.235682 0.955990 0.324350
Si Si6 0.954306 0.540678 0.371319
O O1 0.497071 0.250000 0.671861
O O2 0.552541 0.980926 0.588431
O O3 0.545054 0.989851 0.765596
O O4 0.422358 0.970319 0.673357
O O5 0.894924 0.250000 0.568659
O O6 0.827177 0.528464 0.609739
O O7 0.893555 0.482752 0.442516
O O8 0.969140 0.525855 0.589198
O O9 0.369994 0.750000 0.442358
O O10 0.340293 0.025954 0.538345
O O11 0.311813 0.020096 0.361063
O O12 0.821163 0.750000 0.867261
O O13 0.787522 0.021777 0.780506
O O14 0.238240 0.750000 0.340427
O O15 0.953860 0.750000 0.374109
#
# Coordination Sequence:
#
# PCOD9463632 Si02
#       6
#     8   8   8   8   8   8
#     4  10  19  37  60  83 111 151 193 229 275 340
#     4   9  17  30  49  75 106 141 179 219 270 325
#     4   9  21  38  59  84 113 147 189 234 279 333
#     4  11  22  37  58  87 115 145 186 237 284 329
#     4  10  20  39  60  80 111 155 191 225 282 348
#     4   9  17  29  49  78 106 135 180 227 266 317
#
# _framework density 22.953144000000002
#
# number of rings (size 3 to 8) (size 9 to 14) (size 15 to 20)
#    0.000    2.333    1.667    1.000    0.000    2.667 
#    0.000    3.333    0.000    0.000    0.000    0.000 
#    0.000    0.000    0.000    0.000    0.000    0.000 
#
# Total GULP energy -267956.071638 kJ/mol
# GULP energy per Si atom -5582.418159 kJ/mol
# Density = 2.290090 g / cm^3
# Si number density = 22.953144 Si / 1000 Ang^3
#
#
#
# Elastic Constant Matrix: (Units=GPa)
#
#
# Indices 1 2 3 4 5 6 
#
# 1 41.5206 -8.1407 35.4711 0.0000 0.0000 0.0000
# 2 -8.1407 27.4598 -13.7211 0.0000 0.0000 0.0000
# 3 35.4711 -13.7211 118.7083 0.0000 0.0000 0.0000
# 4 0.0000 0.0000 0.0000 8.9487 0.0000 0.0000
# 5 0.0000 0.0000 0.0000 0.0000 16.5693 0.0000
# 6 0.0000 0.0000 0.0000 0.0000 0.0000 0.9057
#
#
#
# Elastic Compliance Matrix: (Units=1/GPa)
#
#
# Indices 1 2 3 4 5 6 
#
# 1 0.033014 0.005156 -0.009269 0.000000 0.000000 0.000000
# 2 0.005156 0.039454 0.003020 0.000000 0.000000 0.000000
# 3 -0.009269 0.003020 0.011543 0.000000 0.000000 0.000000
# 4 0.000000 0.000000 0.000000 0.111748 0.000000 0.000000
# 5 0.000000 0.000000 0.000000 0.000000 0.060352 0.000000
# 6 0.000000 0.000000 0.000000 0.000000 0.000000 1.104113
#
#
# Mechanical properties :
#
#
# Convention : Reuss Voigt Hill
#
# Bulk Modulus (GPa) = 12.22133 23.87858 18.04996
# Shear Modulus (GPa) = 3.59794 16.89004 10.24399
#
# Velocity S-wave (km/s) = 1.25336 2.71560 2.11487
# Velocity P-wave (km/s) = 2.72591 4.50093 3.72082
#
# Compressibility (1/GPa) = 0.08182414
#
# Stress axis : x y z
#
# Youngs Moduli (GPa) = 30.29045 25.34577 86.63505
#
# Poissons Ratio (x) = -0.13068 0.80301
# Poissons Ratio (y) = -0.15617 -0.26162
# Poissons Ratio (z) = 0.28076 -0.07654
#
# Static dielectric constant tensor:
#      x y z
#    x 1.849830 0.000000 0.000000 
#    y 0.000000 1.851170 0.000000 
#    z 0.000000 0.000000 1.889790 
# 
# From -- ./inp_files/20034.got.cif
#   From: 2010.05.17/outbox.cif.g08.bks.cpg/sg62_11_cif.got.tgz:20034.got - 2010.06.03 15:25:27.
