data_PCOD9463308
_publ_section_title
;
Structure prediction by ZEFSAII (Michael W. Deem and Ramdas Pophale) SiO2 
 PCOD9463308
Probable space group: P N M A
;
_chemical_formula_sum "Si O2"
_cell_formula_units_Z 56
_cell_length_a 15.089446
_cell_length_b 7.584162
_cell_length_c 21.783674
_cell_angle_alpha 90.000000
_cell_angle_beta 90.000000
_cell_angle_gamma 90.000000
_cell_volume 2492.941144
_symmetry_space_group_name_H-M "P N M A"
_symmetry_group_IT_number 62
_symmetry_cell_setting 'orthorhombic'
loop_
_space_group_symop_operation_xyz
x,y,z
1/2-x,-y,1/2+z
1/2+x,1/2-y,1/2-z
-x,1/2+y,-z
-x,-y,-z
1/2+x,y,1/2-z
1/2-x,1/2+y,1/2+z
x,1/2-y,z
loop_
_atom_site_type_symbol
_atom_site_label
_atom_site_fract_x
_atom_site_fract_y
_atom_site_fract_z
Si Si1 0.274590 0.045132 0.491442
Si Si2 0.113258 0.463922 0.740210
Si Si3 0.926148 0.542919 0.678476
Si Si4 0.805611 0.455520 0.791606
Si Si5 0.607982 0.036559 0.617766
Si Si6 0.913407 0.537700 0.539344
Si Si7 0.413085 0.466163 0.590728
O O1 0.267108 0.250000 0.509359
O O2 0.176177 0.968595 0.492518
O O3 0.349607 0.970175 0.536275
O O4 0.311306 0.032447 0.422487
O O5 0.114125 0.250000 0.740154
O O6 0.206415 0.529567 0.712660
O O7 0.109007 0.518901 0.811410
O O8 0.025358 0.518337 0.704320
O O9 0.906858 0.750000 0.676685
O O10 0.856379 0.465681 0.726936
O O11 0.919892 0.471397 0.609336
O O12 0.794101 0.250000 0.806858
O O13 0.868745 0.525794 0.845270
O O14 0.611958 0.250000 0.616480
O O15 0.514920 0.976722 0.588191
O O16 0.905334 0.750000 0.543044
O O17 0.000000 0.500000 0.500000
O O18 0.416871 0.250000 0.590142
#
# Coordination Sequence:
#
# PCOD9463308 Si02
#       7
#     8   8   8   8   8   8   8
#     4  10  21  37  58  83 113 154 194 233 289 346
#     4  10  21  36  61  88 113 152 197 241 289 348
#     4  11  23  39  58  86 123 155 187 241 301 351
#     4  10  20  37  61  87 114 152 200 244 289 345
#     4  10  19  35  56  85 118 145 185 240 287 341
#     4  10  24  42  60  84 116 154 198 241 285 344
#     4   9  18  34  56  83 115 144 188 245 283 334
#
# _framework density 22.463426999999999
#
# number of rings (size 3 to 8) (size 9 to 14) (size 15 to 20)
#    0.000    2.000    1.429    1.714    2.000    2.857 
#    0.000    0.714    0.000    0.000    0.000    0.000 
#    0.000    0.000    0.000    0.000    0.000    0.000 
#
# Total GULP energy -313001.986234 kJ/mol
# GULP energy per Si atom -5589.321183 kJ/mol
# Density = 2.241230 g / cm^3
# Si number density = 22.463427 Si / 1000 Ang^3
#
#
#
# Elastic Constant Matrix: (Units=GPa)
#
#
# Indices 1 2 3 4 5 6 
#
# 1 118.4185 -4.5048 -9.3592 0.0000 0.0000 0.0000
# 2 -4.5048 44.8697 -7.9470 0.0000 0.0000 0.0000
# 3 -9.3592 -7.9470 45.7290 0.0000 0.0000 0.0000
# 4 0.0000 0.0000 0.0000 10.2610 0.0000 0.0000
# 5 0.0000 0.0000 0.0000 0.0000 25.6695 0.0000
# 6 0.0000 0.0000 0.0000 0.0000 0.0000 18.3178
#
#
#
# Elastic Compliance Matrix: (Units=1/GPa)
#
#
# Indices 1 2 3 4 5 6 
#
# 1 0.008648 0.001219 0.001982 0.000000 0.000000 0.000000
# 2 0.001219 0.023166 0.004275 0.000000 0.000000 0.000000
# 3 0.001982 0.004275 0.023017 0.000000 0.000000 0.000000
# 4 0.000000 0.000000 0.000000 0.097457 0.000000 0.000000
# 5 0.000000 0.000000 0.000000 0.000000 0.038957 0.000000
# 6 0.000000 0.000000 0.000000 0.000000 0.000000 0.054592
#
#
# Mechanical properties :
#
#
# Convention : Reuss Voigt Hill
#
# Bulk Modulus (GPa) = 14.33004 18.37725 16.35365
# Shear Modulus (GPa) = 19.67387 26.23819 22.95603
#
# Velocity S-wave (km/s) = 2.96263 3.42137 3.20023
# Velocity P-wave (km/s) = 4.25395 4.87918 4.57725
#
# Compressibility (1/GPa) = 0.06978345
#
# Stress axis : x y z
#
# Youngs Moduli (GPa) = 115.63858 43.16595 43.44699
#
# Poissons Ratio (x) = -0.05263 -0.08610
# Poissons Ratio (y) = -0.14099 -0.18576
# Poissons Ratio (z) = -0.22917 -0.18456
#
# Static dielectric constant tensor:
#      x y z
#    x 1.807840 0.000000 0.000000 
#    y 0.000000 1.814480 0.000000 
#    z 0.000000 0.000000 1.807550 
# 
# From -- ./inp_files/27231.got.cif
#   From: 2010.05.17/outbox.cif.g08.bks.cpg/sg62_14_cif.got.tgz:27231.got - 2010.06.03 15:25:27.
