data_PCOD9463691
_publ_section_title
;
Structure prediction by ZEFSAII (Michael W. Deem and Ramdas Pophale) SiO2 
 PCOD9463691
Probable space group: P N M A
;
_chemical_formula_sum "Si O2"
_cell_formula_units_Z 48
_cell_length_a 5.339605
_cell_length_b 15.035180
_cell_length_c 26.639962
_cell_angle_alpha 90.000000
_cell_angle_beta 90.000000
_cell_angle_gamma 90.000000
_cell_volume 2138.707359
_symmetry_space_group_name_H-M "P N M A"
_symmetry_group_IT_number 62
_symmetry_cell_setting 'orthorhombic'
loop_
_space_group_symop_operation_xyz
x,y,z
1/2-x,-y,1/2+z
1/2+x,1/2-y,1/2-z
-x,1/2+y,-z
-x,-y,-z
1/2+x,y,1/2-z
1/2-x,1/2+y,1/2+z
x,1/2-y,z
loop_
_atom_site_type_symbol
_atom_site_label
_atom_site_fract_x
_atom_site_fract_y
_atom_site_fract_z
Si Si1 0.961607 0.250000 0.067600
Si Si2 0.040868 0.750000 0.632355
Si Si3 0.425854 0.250000 0.623339
Si Si4 0.050991 0.940976 0.634088
Si Si5 0.579304 0.750000 0.187108
Si Si6 0.258687 0.570365 0.967152
Si Si7 0.842250 0.051085 0.720801
Si Si8 0.138096 0.562718 0.072365
O O1 0.744543 0.250000 0.110928
O O2 0.913673 0.159471 0.036939
O O3 0.238189 0.250000 0.090555
O O4 0.083196 0.844832 0.659456
O O5 0.705493 0.250000 0.644900
O O6 0.394040 0.338679 0.591490
O O7 0.202287 0.250000 0.664822
O O8 0.950632 0.917714 0.578339
O O9 0.874681 0.003567 0.667175
O O10 0.286234 0.001652 0.619633
O O11 0.631394 0.842092 0.215666
O O12 0.102255 0.483514 0.951721
O O13 0.333117 0.564523 0.025445
O O14 0.082522 0.024873 0.753923
#
# Coordination Sequence:
#
# PCOD9463691 Si02
#       8
#     4   4   4   8   4   8   8   8
#     4  10  19  38  58  91 128 165 223 257 316 395
#     4  10  22  38  67  91 119 173 210 264 332 396
#     4  12  25  41  68 104 137 191 216 289 328 410
#     4  11  23  43  67  93 135 173 229 280 348 404
#     4  12  24  47  71  96 144 175 229 270 354 403
#     4  10  22  38  64  95 134 182 223 279 330 412
#     4  12  27  45  73 102 131 175 229 286 343 409
#     4  11  22  39  62  96 137 179 229 270 337 405
#
# _framework density 22.443466000000001
#
# number of rings (size 3 to 8) (size 9 to 14) (size 15 to 20)
#    0.000    1.000    3.333    3.500    2.333    0.000 
#    0.000    2.500    0.000    0.000    0.000    0.000 
#    0.000    0.000    0.000    0.000    0.000    0.000 
#
# Total GULP energy -268075.489470 kJ/mol
# GULP energy per Si atom -5584.906031 kJ/mol
# Density = 2.239238 g / cm^3
# Si number density = 22.443466 Si / 1000 Ang^3
#
#
#
# Elastic Constant Matrix: (Units=GPa)
#
#
# Indices 1 2 3 4 5 6 
#
# 1 49.2219 33.6480 22.1643 0.0000 0.0000 0.0000
# 2 33.6480 141.2291 17.8707 0.0000 0.0000 0.0000
# 3 22.1643 17.8707 55.1649 0.0000 0.0000 0.0000
# 4 0.0000 0.0000 0.0000 41.6121 0.0000 0.0000
# 5 0.0000 0.0000 0.0000 0.0000 37.5875 0.0000
# 6 0.0000 0.0000 0.0000 0.0000 0.0000 18.0992
#
#
#
# Elastic Compliance Matrix: (Units=1/GPa)
#
#
# Indices 1 2 3 4 5 6 
#
# 1 0.028454 -0.005561 -0.009631 0.000000 0.000000 0.000000
# 2 -0.005561 0.008470 -0.000510 0.000000 0.000000 0.000000
# 3 -0.009631 -0.000510 0.022162 0.000000 0.000000 0.000000
# 4 0.000000 0.000000 0.000000 0.024031 0.000000 0.000000
# 5 0.000000 0.000000 0.000000 0.000000 0.026605 0.000000
# 6 0.000000 0.000000 0.000000 0.000000 0.000000 0.055251
#
#
# Mechanical properties :
#
#
# Convention : Reuss Voigt Hill
#
# Bulk Modulus (GPa) = 36.12237 43.66467 39.89352
# Shear Modulus (GPa) = 24.31860 30.92197 27.62029
#
# Velocity S-wave (km/s) = 3.29530 3.71586 3.51188
# Velocity P-wave (km/s) = 5.53249 6.15693 5.85304
#
# Compressibility (1/GPa) = 0.02768368
#
# Stress axis : x y z
#
# Youngs Moduli (GPa) = 35.14428 118.06377 45.12189
#
# Poissons Ratio (x) = 0.65650 0.43457
# Poissons Ratio (y) = 0.19542 0.02300
# Poissons Ratio (z) = 0.33848 0.06018
#
# Static dielectric constant tensor:
#      x y z
#    x 1.881390 0.000000 0.000000 
#    y 0.000000 0.552160 0.000000 
#    z 0.000000 0.000000 1.849710 
# 
# From -- ./inp_files/30444.got.cif
#   From: 2010.05.17/outbox.cif.g08.bks.cpg/sg62_16_cif.got.tgz:30444.got - 2010.06.03 15:25:27.
