data_PCOD9463865
_publ_section_title
;
Structure prediction by ZEFSAII (Michael W. Deem and Ramdas Pophale) SiO2 
 PCOD9463865
Probable space group: P N M A
;
_chemical_formula_sum "Si O2"
_cell_formula_units_Z 48
_cell_length_a 12.415714
_cell_length_b 7.491043
_cell_length_c 23.992540
_cell_angle_alpha 90.000000
_cell_angle_beta 90.000000
_cell_angle_gamma 90.000000
_cell_volume 2231.465709
_symmetry_space_group_name_H-M "P N M A"
_symmetry_group_IT_number 62
_symmetry_cell_setting 'orthorhombic'
loop_
_space_group_symop_operation_xyz
x,y,z
1/2-x,-y,1/2+z
1/2+x,1/2-y,1/2-z
-x,1/2+y,-z
-x,-y,-z
1/2+x,y,1/2-z
1/2-x,1/2+y,1/2+z
x,1/2-y,z
loop_
_atom_site_type_symbol
_atom_site_label
_atom_site_fract_x
_atom_site_fract_y
_atom_site_fract_z
Si Si1 0.266445 0.956593 0.579760
Si Si2 0.837903 0.467985 0.640497
Si Si3 0.077137 0.457702 0.659435
Si Si4 0.506886 0.965372 0.375821
Si Si5 0.153343 0.032114 0.778009
Si Si6 0.822410 0.967873 0.042692
O O1 0.240840 0.750000 0.571024
O O2 0.299669 0.032674 0.519502
O O3 0.162822 0.034851 0.609908
O O4 0.371598 0.972096 0.618419
O O5 0.837932 0.250000 0.639333
O O6 0.765198 0.523555 0.693307
O O7 0.772608 0.521110 0.585128
O O8 0.960072 0.532788 0.644263
O O9 0.056882 0.250000 0.672069
O O10 0.129340 0.533121 0.715995
O O11 0.508983 0.750000 0.375959
O O12 0.442428 0.019564 0.320411
O O13 0.434409 0.025207 0.428638
O O14 0.156882 0.250000 0.777560
O O15 0.826149 0.750000 0.041607
#
# Coordination Sequence:
#
# PCOD9463865 Si02
#       6
#     8   8   8   8   8   8
#     4  11  22  33  47  73 109 142 168 201 249 302
#     4   8  15  30  51  75 100 127 164 210 257 298
#     4  10  20  32  52  78 100 129 170 212 251 296
#     4   9  17  33  57  80  99 127 171 218 256 294
#     4   8  16  30  53  80 100 121 160 217 265 294
#     4   8  16  32  52  74 103 136 167 206 256 301
#
# _framework density 21.510525999999999
#
# number of rings (size 3 to 8) (size 9 to 14) (size 15 to 20)
#    0.000    3.000    0.000    3.000    2.333    0.667 
#    0.000    1.667    0.000    5.000    0.000    0.000 
#    0.000    0.000    0.000    0.000    0.000    0.000 
#
# Total GULP energy -267911.654225 kJ/mol
# GULP energy per Si atom -5581.492796 kJ/mol
# Density = 2.146157 g / cm^3
# Si number density = 21.510526 Si / 1000 Ang^3
#
#
#
# Elastic Constant Matrix: (Units=GPa)
#
#
# Indices 1 2 3 4 5 6 
#
# 1 141.5964 -4.9702 8.9575 0.0000 0.0000 0.0000
# 2 -4.9702 51.6979 0.5255 0.0000 0.0000 0.0000
# 3 8.9575 0.5255 25.3185 0.0000 0.0000 0.0000
# 4 0.0000 0.0000 0.0000 6.2060 0.0000 0.0000
# 5 0.0000 0.0000 0.0000 0.0000 12.1543 0.0000
# 6 0.0000 0.0000 0.0000 0.0000 0.0000 -4.3314
#
#
#
# Elastic Compliance Matrix: (Units=1/GPa)
#
#
# Indices 1 2 3 4 5 6 
#
# 1 0.007251 0.000723 -0.002580 0.000000 0.000000 0.000000
# 2 0.000723 0.019419 -0.000659 0.000000 0.000000 0.000000
# 3 -0.002580 -0.000659 0.040423 0.000000 0.000000 0.000000
# 4 0.000000 0.000000 0.000000 0.161135 0.000000 0.000000
# 5 0.000000 0.000000 0.000000 0.000000 0.082276 0.000000
# 6 0.000000 0.000000 0.000000 0.000000 0.000000 -0.230872
#
#
# Mechanical properties :
#
#
# Convention : Reuss Voigt Hill
#
# Bulk Modulus (GPa) = 16.11297 25.29313 20.70305
# Shear Modulus (GPa) = 47.45990 17.07910 32.26950
#
# Velocity S-wave (km/s) = 4.70228 2.82084 3.87741
# Velocity P-wave (km/s) = 6.08185 4.73218 5.44897
#
# Compressibility (1/GPa) = 0.06206182
#
# Stress axis : x y z
#
# Youngs Moduli (GPa) = 137.91296 51.49494 24.73815
#
# Poissons Ratio (x) = -0.03725 0.06383
# Poissons Ratio (y) = -0.09976 0.01630
# Poissons Ratio (z) = 0.35586 0.03393
#
# Static dielectric constant tensor:
#      x y z
#    x 1.740060 0.000000 0.000000 
#    y 0.000000 1.852080 0.000000 
#    z 0.000000 0.000000 1.769930 
# 
# From -- ./inp_files/29221.got.cif
#   From: 2010.05.17/outbox.cif.g08.bks.cpg/sg62_15_cif.got.tgz:29221.got - 2010.06.03 15:25:27.
