data_PCOD9463150
_publ_section_title
;
Structure prediction by ZEFSAII (Michael W. Deem and Ramdas Pophale) SiO2 
 PCOD9463150
Probable space group: P N M A
;
_chemical_formula_sum "Si O2"
_cell_formula_units_Z 64
_cell_length_a 18.970648
_cell_length_b 31.092733
_cell_length_c 5.024691
_cell_angle_alpha 90.000000
_cell_angle_beta 90.000000
_cell_angle_gamma 90.000000
_cell_volume 2963.810434
_symmetry_space_group_name_H-M "P N M A"
_symmetry_group_IT_number 62
_symmetry_cell_setting 'orthorhombic'
loop_
_space_group_symop_operation_xyz
x,y,z
1/2-x,-y,1/2+z
1/2+x,1/2-y,1/2-z
-x,1/2+y,-z
-x,-y,-z
1/2+x,y,1/2-z
1/2-x,1/2+y,1/2+z
x,1/2-y,z
loop_
_atom_site_type_symbol
_atom_site_label
_atom_site_fract_x
_atom_site_fract_y
_atom_site_fract_z
Si Si1 0.825286 0.433167 0.692266
Si Si2 0.096365 0.488372 0.186937
Si Si3 0.910354 0.878601 0.195407
Si Si4 0.172765 0.299819 0.648060
Si Si5 0.176352 0.044133 0.687629
Si Si6 0.648214 0.882227 0.698199
Si Si7 0.731154 0.699781 0.847236
Si Si8 0.010199 0.411204 0.302041
O O1 0.895330 0.462385 0.724716
O O2 0.758822 0.462179 0.775268
O O3 0.813657 0.415592 0.398039
O O4 0.832048 0.394201 0.898363
O O5 0.148691 0.464120 0.392954
O O6 0.024313 0.461599 0.228681
O O7 0.127586 0.482664 0.891766
O O8 0.890907 0.830647 0.273517
O O9 0.839697 0.906540 0.236798
O O10 0.965723 0.899911 0.400108
O O11 0.937938 0.886003 0.899909
O O12 0.151660 0.250000 0.657867
O O13 0.205295 0.309251 0.359716
O O14 0.235905 0.305606 0.861002
O O15 0.670892 0.834519 0.780562
O O16 0.566945 0.893594 0.746357
O O17 0.710378 0.750000 0.812346
#
# Coordination Sequence:
#
# PCOD9463150 Si02
#       8
#     8   8   8   8   8   8   8   8
#     4  12  23  35  58  83 111 144 186 239 279 330
#     4  10  21  37  55  80 112 146 182 234 289 326
#     4  10  19  36  57  78 108 144 179 225 278 323
#     4  10  20  36  62  92 114 135 175 230 287 339
#     4  10  19  34  56  81 108 140 183 230 289 341
#     4  12  24  38  55  81 111 150 196 224 264 331
#     4  10  21  38  59  84 114 141 172 224 281 328
#     4  10  23  38  55  77 112 154 190 224 263 324
#
# _framework density 21.593824000000001
#
# number of rings (size 3 to 8) (size 9 to 14) (size 15 to 20)
#    0.000    1.500    0.000    6.000    0.000    3.000 
#    0.000    1.250    0.000    0.000    0.000    0.000 
#    0.000    0.000    0.000    0.000    0.000    0.000 
#
# Total GULP energy -357968.889425 kJ/mol
# GULP energy per Si atom -5593.263897 kJ/mol
# Density = 2.154468 g / cm^3
# Si number density = 21.593824 Si / 1000 Ang^3
#
#
#
# Elastic Constant Matrix: (Units=GPa)
#
#
# Indices 1 2 3 4 5 6 
#
# 1 61.6999 16.3390 -1.0868 0.0000 0.0000 0.0000
# 2 16.3390 69.4729 -0.5813 0.0000 0.0000 0.0000
# 3 -1.0868 -0.5813 56.2049 0.0000 0.0000 0.0000
# 4 0.0000 0.0000 0.0000 25.2798 0.0000 0.0000
# 5 0.0000 0.0000 0.0000 0.0000 20.3579 0.0000
# 6 0.0000 0.0000 0.0000 0.0000 0.0000 30.9528
#
#
#
# Elastic Compliance Matrix: (Units=1/GPa)
#
#
# Indices 1 2 3 4 5 6 
#
# 1 0.017289 -0.004064 0.000292 0.000000 0.000000 0.000000
# 2 -0.004064 0.015350 0.000080 0.000000 0.000000 0.000000
# 3 0.000292 0.000080 0.017799 0.000000 0.000000 0.000000
# 4 0.000000 0.000000 0.000000 0.039557 0.000000 0.000000
# 5 0.000000 0.000000 0.000000 0.000000 0.049121 0.000000
# 6 0.000000 0.000000 0.000000 0.000000 0.000000 0.032307
#
#
# Mechanical properties :
#
#
# Convention : Reuss Voigt Hill
#
# Bulk Modulus (GPa) = 23.22588 24.07995 23.65291
# Shear Modulus (GPa) = 25.88565 26.83190 26.35878
#
# Velocity S-wave (km/s) = 3.46606 3.52884 3.49759
# Velocity P-wave (km/s) = 5.17660 5.27059 5.22381
#
# Compressibility (1/GPa) = 0.04305543
#
# Stress axis : x y z
#
# Youngs Moduli (GPa) = 57.84120 65.14461 56.18443
#
# Poissons Ratio (x) = 0.26472 -0.01642
# Poissons Ratio (y) = 0.23504 -0.00451
# Poissons Ratio (z) = -0.01691 -0.00522
#
# Static dielectric constant tensor:
#      x y z
#    x 1.778300 0.000000 0.000000 
#    y 0.000000 1.796120 0.000000 
#    z 0.000000 0.000000 1.771740 
# 
# From -- ./inp_files/1900.got.cif
#   From: 2010.05.17/outbox.cif.g08.bks.cpg/sg62_1_cif.got.tgz:1900.got - 2010.06.03 15:25:27.
