data_PCOD9463417
_publ_section_title
;
Structure prediction by ZEFSAII (Michael W. Deem and Ramdas Pophale) SiO2 
 PCOD9463417
Probable space group: P N M A
;
_chemical_formula_sum "Si O2"
_cell_formula_units_Z 64
_cell_length_a 12.959023
_cell_length_b 9.460958
_cell_length_c 28.383501
_cell_angle_alpha 90.000000
_cell_angle_beta 90.000000
_cell_angle_gamma 90.000000
_cell_volume 3479.952678
_symmetry_space_group_name_H-M "P N M A"
_symmetry_group_IT_number 62
_symmetry_cell_setting 'orthorhombic'
loop_
_space_group_symop_operation_xyz
x,y,z
1/2-x,-y,1/2+z
1/2+x,1/2-y,1/2-z
-x,1/2+y,-z
-x,-y,-z
1/2+x,y,1/2-z
1/2-x,1/2+y,1/2+z
x,1/2-y,z
loop_
_atom_site_type_symbol
_atom_site_label
_atom_site_fract_x
_atom_site_fract_y
_atom_site_fract_z
Si Si1 0.568860 0.594532 0.199141
Si Si2 0.137672 0.591839 0.406103
Si Si3 0.747759 0.419927 0.407476
Si Si4 0.634351 0.913059 0.814528
Si Si5 0.170170 0.582902 0.888872
Si Si6 0.751698 0.409768 0.215622
Si Si7 0.464608 0.418861 0.046238
Si Si8 0.970061 0.579492 0.951461
O O1 0.547920 0.750000 0.218858
O O2 0.627227 0.609720 0.149517
O O3 0.464688 0.511802 0.188324
O O4 0.652526 0.504702 0.227093
O O5 0.129726 0.750000 0.427891
O O6 0.245504 0.514057 0.415279
O O7 0.044592 0.486352 0.417391
O O8 0.737378 0.250000 0.405759
O O9 0.783808 0.461799 0.354560
O O10 0.847056 0.452939 0.439818
O O11 0.640156 0.470281 0.429892
O O12 0.605623 0.750000 0.827039
O O13 0.679693 0.912205 0.762120
O O14 0.193081 0.750000 0.895840
O O15 0.184642 0.555162 0.832490
O O16 0.058778 0.556364 0.911907
O O17 0.713198 0.250000 0.207624
O O18 0.475061 0.250000 0.043243
O O19 0.500000 0.500000 0.000000
O O20 0.965121 0.750000 0.960141
O O21 0.000000 0.500000 0.000000
#
# Coordination Sequence:
#
# PCOD9463417 Si02
#       8
#     8   8   8   8   8   8   8   8
#     4  10  20  34  53  79 114 150 182 230 288 345
#     4  10  20  35  56  81 110 147 187 230 283 342
#     4   9  20  38  59  84 116 149 184 235 293 343
#     4  10  19  35  60  86 112 148 191 236 287 349
#     4   9  19  36  57  83 114 148 188 242 293 340
#     4   9  19  34  57  86 112 147 195 239 286 348
#     4  11  22  36  56  84 116 148 183 233 290 347
#     4  10  22  40  59  81 113 154 197 239 290 344
#
# _framework density 18.391055000000001
#
# number of rings (size 3 to 8) (size 9 to 14) (size 15 to 20)
#    0.000    2.250    1.250    1.125    1.750    3.000 
#    0.000    5.000    0.000    1.500    0.000    0.000 
#    0.000    0.000    0.000    0.000    0.000    0.000 
#
# Total GULP energy -356301.040904 kJ/mol
# GULP energy per Si atom -5567.203764 kJ/mol
# Density = 1.834920 g / cm^3
# Si number density = 18.391055 Si / 1000 Ang^3
#
#
#
# Elastic Constant Matrix: (Units=GPa)
#
#
# Indices 1 2 3 4 5 6 
#
# 1 149.6615 71.9790 47.4153 0.0000 0.0000 0.0000
# 2 71.9790 84.1704 36.3054 0.0000 0.0000 0.0000
# 3 47.4153 36.3054 64.6692 0.0000 0.0000 0.0000
# 4 0.0000 0.0000 0.0000 16.8962 0.0000 0.0000
# 5 0.0000 0.0000 0.0000 0.0000 16.1873 0.0000
# 6 0.0000 0.0000 0.0000 0.0000 0.0000 14.4907
#
#
#
# Elastic Compliance Matrix: (Units=1/GPa)
#
#
# Indices 1 2 3 4 5 6 
#
# 1 0.012100 -0.008605 -0.004041 0.000000 0.000000 0.000000
# 2 -0.008605 0.021796 -0.005927 0.000000 0.000000 0.000000
# 3 -0.004041 -0.005927 0.021754 0.000000 0.000000 0.000000
# 4 0.000000 0.000000 0.000000 0.059185 0.000000 0.000000
# 5 0.000000 0.000000 0.000000 0.000000 0.061777 0.000000
# 6 0.000000 0.000000 0.000000 0.000000 0.000000 0.069010
#
#
# Mechanical properties :
#
#
# Convention : Reuss Voigt Hill
#
# Bulk Modulus (GPa) = 54.04342 67.76671 60.90507
# Shear Modulus (GPa) = 17.30488 19.03493 18.16991
#
# Velocity S-wave (km/s) = 3.07080 3.22065 3.14662
# Velocity P-wave (km/s) = 6.48248 7.12445 6.81103
#
# Compressibility (1/GPa) = 0.01850364
#
# Stress axis : x y z
#
# Youngs Moduli (GPa) = 82.64132 45.88090 45.96864
#
# Poissons Ratio (x) = 0.39479 0.18578
# Poissons Ratio (y) = 0.71110 0.27246
# Poissons Ratio (z) = 0.33399 0.27194
#
# Static dielectric constant tensor:
#      x y z
#    x 1.617470 0.000000 0.000000 
#    y 0.000000 1.684740 0.000000 
#    z 0.000000 0.000000 1.554790 
# 
# From -- ./inp_files/32541.got.cif
#   From: 2010.05.17/outbox.cif.g08.bks.cpg/sg62_17_cif.got.tgz:32541.got - 2010.06.03 15:25:27.
