data_PCOD9463578
_publ_section_title
;
Structure prediction by ZEFSAII (Michael W. Deem and Ramdas Pophale) SiO2 
 PCOD9463578
Probable space group: P N M A
;
_chemical_formula_sum "Si O2"
_cell_formula_units_Z 56
_cell_length_a 15.223945
_cell_length_b 7.947996
_cell_length_c 21.492435
_cell_angle_alpha 90.000000
_cell_angle_beta 90.000000
_cell_angle_gamma 90.000000
_cell_volume 2600.581496
_symmetry_space_group_name_H-M "P N M A"
_symmetry_group_IT_number 62
_symmetry_cell_setting 'orthorhombic'
loop_
_space_group_symop_operation_xyz
x,y,z
1/2-x,-y,1/2+z
1/2+x,1/2-y,1/2-z
-x,1/2+y,-z
-x,-y,-z
1/2+x,y,1/2-z
1/2-x,1/2+y,1/2+z
x,1/2-y,z
loop_
_atom_site_type_symbol
_atom_site_label
_atom_site_fract_x
_atom_site_fract_y
_atom_site_fract_z
Si Si1 0.499187 0.440615 0.724406
Si Si2 0.050305 0.062655 0.346527
Si Si3 0.571885 0.451248 0.949196
Si Si4 0.267623 0.452795 0.517311
Si Si5 0.694387 0.045143 0.747950
Si Si6 0.728220 0.948558 0.113185
Si Si7 0.662462 0.542996 0.350975
O O1 0.517822 0.250000 0.703216
O O2 0.444542 0.438773 0.788598
O O3 0.593348 0.515935 0.743520
O O4 0.431512 0.516964 0.675178
O O5 0.051290 0.250000 0.321140
O O6 0.133990 0.038695 0.390913
O O7 0.963158 0.027946 0.385366
O O8 0.573983 0.250000 0.942220
O O9 0.668126 0.510087 0.967846
O O10 0.500000 0.500000 0.000000
O O11 0.268767 0.250000 0.516366
O O12 0.286702 0.511117 0.447159
O O13 0.322609 0.507394 0.577538
O O14 0.691625 0.250000 0.753712
O O15 0.733643 0.001958 0.680250
O O16 0.757947 0.989014 0.804484
O O17 0.712751 0.750000 0.113955
O O18 0.662274 0.750000 0.348737
#
# Coordination Sequence:
#
# PCOD9463578 Si02
#       7
#     8   8   8   8   8   8   8
#     4  10  19  36  62  84 108 144 192 240 281 332
#     4  12  23  35  53  81 116 149 185 229 286 344
#     4  11  21  33  52  78 111 146 184 227 275 334
#     4  10  21  36  55  81 115 149 187 233 284 341
#     4   9  18  34  59  88 108 140 195 241 279 334
#     4  11  21  36  58  81 111 148 191 234 280 334
#     4   9  17  33  57  84 111 144 186 234 283 335
#
# _framework density 21.533646999999998
#
# number of rings (size 3 to 8) (size 9 to 14) (size 15 to 20)
#    0.000    1.714    2.857    3.000    0.000    2.857 
#    0.000    2.857    0.000    0.000    0.000    0.000 
#    0.000    0.000    0.000    0.000    0.000    0.000 
#
# Total GULP energy -312532.544377 kJ/mol
# GULP energy per Si atom -5580.938292 kJ/mol
# Density = 2.148464 g / cm^3
# Si number density = 21.533647 Si / 1000 Ang^3
#
#
#
# Elastic Constant Matrix: (Units=GPa)
#
#
# Indices 1 2 3 4 5 6 
#
# 1 51.6546 3.0208 -1.5870 0.0000 0.0000 0.0000
# 2 3.0208 35.2424 4.8278 0.0000 0.0000 0.0000
# 3 -1.5870 4.8278 89.4171 0.0000 0.0000 0.0000
# 4 0.0000 0.0000 0.0000 22.0004 0.0000 0.0000
# 5 0.0000 0.0000 0.0000 0.0000 32.4472 0.0000
# 6 0.0000 0.0000 0.0000 0.0000 0.0000 5.1394
#
#
#
# Elastic Compliance Matrix: (Units=1/GPa)
#
#
# Indices 1 2 3 4 5 6 
#
# 1 0.019474 -0.001729 0.000439 0.000000 0.000000 0.000000
# 2 -0.001729 0.028740 -0.001582 0.000000 0.000000 0.000000
# 3 0.000439 -0.001582 0.011277 0.000000 0.000000 0.000000
# 4 0.000000 0.000000 0.000000 0.045454 0.000000 0.000000
# 5 0.000000 0.000000 0.000000 0.000000 0.030819 0.000000
# 6 0.000000 0.000000 0.000000 0.000000 0.000000 0.194576
#
#
# Mechanical properties :
#
#
# Convention : Reuss Voigt Hill
#
# Bulk Modulus (GPa) = 18.60633 20.98192 19.79413
# Shear Modulus (GPa) = 14.12428 23.25421 18.68925
#
# Velocity S-wave (km/s) = 2.56387 3.28975 2.94923
# Velocity P-wave (km/s) = 4.17419 4.91883 4.56173
#
# Compressibility (1/GPa) = 0.05374514
#
# Stress axis : x y z
#
# Youngs Moduli (GPa) = 51.35056 34.79482 88.67781
#
# Poissons Ratio (x) = 0.06017 -0.03893
# Poissons Ratio (y) = 0.08880 0.14033
# Poissons Ratio (z) = -0.02254 0.05506
#
# Static dielectric constant tensor:
#      x y z
#    x 1.806220 0.000000 0.000000 
#    y 0.000000 1.785470 0.000000 
#    z 0.000000 0.000000 1.809160 
# 
# From -- ./inp_files/27299.got.cif
#   From: 2010.05.17/outbox.cif.g08.bks.cpg/sg62_14_cif.got.tgz:27299.got - 2010.06.03 15:25:27.
