data_PCOD9463572
_publ_section_title
;
Structure prediction by ZEFSAII (Michael W. Deem and Ramdas Pophale) SiO2 
 PCOD9463572
Probable space group: P N M A
;
_chemical_formula_sum "Si O2"
_cell_formula_units_Z 64
_cell_length_a 13.650801
_cell_length_b 12.684390
_cell_length_c 19.753284
_cell_angle_alpha 90.000000
_cell_angle_beta 90.000000
_cell_angle_gamma 90.000000
_cell_volume 3420.322284
_symmetry_space_group_name_H-M "P N M A"
_symmetry_group_IT_number 62
_symmetry_cell_setting 'orthorhombic'
loop_
_space_group_symop_operation_xyz
x,y,z
1/2-x,-y,1/2+z
1/2+x,1/2-y,1/2-z
-x,1/2+y,-z
-x,-y,-z
1/2+x,y,1/2-z
1/2-x,1/2+y,1/2+z
x,1/2-y,z
loop_
_atom_site_type_symbol
_atom_site_label
_atom_site_fract_x
_atom_site_fract_y
_atom_site_fract_z
Si Si1 0.691296 0.622774 0.619786
Si Si2 0.251892 0.528274 0.736215
Si Si3 0.981305 0.533423 0.923474
Si Si4 0.780759 0.632595 0.905047
Si Si5 0.588846 0.629917 0.316286
Si Si6 0.510134 0.869407 0.068029
Si Si7 0.331703 0.975114 0.994283
Si Si8 0.918212 0.865832 0.287829
O O1 0.687031 0.750000 0.620215
O O2 0.737828 0.580618 0.690450
O O3 0.582221 0.574164 0.609899
O O4 0.757577 0.581771 0.557081
O O5 0.265671 0.610136 0.674691
O O6 0.339422 0.443361 0.728240
O O7 0.156600 0.459950 0.718707
O O8 0.896159 0.620473 0.919714
O O9 0.933978 0.433591 0.884500
O O10 0.000000 0.500000 0.000000
O O11 0.746301 0.750000 0.922327
O O12 0.725647 0.544064 0.949550
O O13 0.624581 0.750000 0.326423
O O14 0.486735 0.635747 0.277131
O O15 0.538398 0.750000 0.052450
O O16 0.486576 0.879434 0.147049
O O17 0.407967 0.896794 0.030740
O O18 0.596405 0.946534 0.046279
O O19 0.869869 0.750000 0.294532
#
# Coordination Sequence:
#
# PCOD9463572 Si02
#       8
#     8   8   8   8   8   8   8   8
#     4  12  25  43  66  92 126 170 212 262 321 379
#     4  11  22  41  62  89 125 161 210 257 305 376
#     4  11  23  43  62  93 131 165 209 266 310 383
#     4  11  23  41  64  91 124 169 210 255 315 372
#     4  10  22  39  64  93 125 162 206 256 317 375
#     4  10  21  38  62  92 125 159 198 253 312 365
#     4  11  22  40  63  91 128 162 207 257 303 378
#     4  10  19  36  61  89 119 154 194 248 309 362
#
# _framework density 18.711686
#
# number of rings (size 3 to 8) (size 9 to 14) (size 15 to 20)
#    0.000    1.250    3.750    2.625    0.000    1.000 
#    0.000    1.875    0.000    0.000    0.000    0.000 
#    0.000    0.000    0.000    0.000    0.000    0.000 
#
# Total GULP energy -357261.953077 kJ/mol
# GULP energy per Si atom -5582.218017 kJ/mol
# Density = 1.866910 g / cm^3
# Si number density = 18.711686 Si / 1000 Ang^3
#
#
#
# Elastic Constant Matrix: (Units=GPa)
#
#
# Indices 1 2 3 4 5 6 
#
# 1 73.0211 20.5965 11.3824 0.0000 0.0000 0.0000
# 2 20.5965 102.3967 32.7253 0.0000 0.0000 0.0000
# 3 11.3824 32.7253 88.3360 0.0000 0.0000 0.0000
# 4 0.0000 0.0000 0.0000 -19.6837 0.0000 0.0000
# 5 0.0000 0.0000 0.0000 0.0000 27.5296 0.0000
# 6 0.0000 0.0000 0.0000 0.0000 0.0000 41.0003
#
#
#
# Elastic Compliance Matrix: (Units=1/GPa)
#
#
# Indices 1 2 3 4 5 6 
#
# 1 0.014581 -0.002646 -0.000899 0.000000 0.000000 0.000000
# 2 -0.002646 0.011558 -0.003941 0.000000 0.000000 0.000000
# 3 -0.000899 -0.003941 0.012896 0.000000 0.000000 0.000000
# 4 0.000000 0.000000 0.000000 -0.050803 0.000000 0.000000
# 5 0.000000 0.000000 0.000000 0.000000 0.036325 0.000000
# 6 0.000000 0.000000 0.000000 0.000000 0.000000 0.024390
#
#
# Mechanical properties :
#
#
# Convention : Reuss Voigt Hill
#
# Bulk Modulus (GPa) = 41.55505 43.68467 42.61986
# Shear Modulus (GPa) = 69.50467 23.03920 46.27194
#
# Velocity S-wave (km/s) = 6.10129 3.51276 4.97821
# Velocity P-wave (km/s) = 8.47883 6.31265 7.47463
#
# Compressibility (1/GPa) = 0.02406446
#
# Stress axis : x y z
#
# Youngs Moduli (GPa) = 68.58238 86.52362 77.54266
#
# Poissons Ratio (x) = 0.22891 0.06969
# Poissons Ratio (y) = 0.18145 0.30558
# Poissons Ratio (z) = 0.06163 0.34097
#
# Static dielectric constant tensor:
#      x y z
#    x 1.639030 0.000000 0.000000 
#    y 0.000000 1.229440 0.000000 
#    z 0.000000 0.000000 1.628050 
# 
# From -- ./inp_files/24060.got.cif
#   From: 2010.05.17/outbox.cif.g08.bks.cpg/sg62_13_cif.got.tgz:24060.got - 2010.06.03 15:25:27.
