data_PCOD9463755
_publ_section_title
;
Structure prediction by ZEFSAII (Michael W. Deem and Ramdas Pophale) SiO2 
 PCOD9463755
Probable space group: P N M A
;
_chemical_formula_sum "Si O2"
_cell_formula_units_Z 56
_cell_length_a 13.348267
_cell_length_b 14.729382
_cell_length_c 11.564752
_cell_angle_alpha 90.000000
_cell_angle_beta 90.000000
_cell_angle_gamma 90.000000
_cell_volume 2273.765825
_symmetry_space_group_name_H-M "P N M A"
_symmetry_group_IT_number 62
_symmetry_cell_setting 'orthorhombic'
loop_
_space_group_symop_operation_xyz
x,y,z
1/2-x,-y,1/2+z
1/2+x,1/2-y,1/2-z
-x,1/2+y,-z
-x,-y,-z
1/2+x,y,1/2-z
1/2-x,1/2+y,1/2+z
x,1/2-y,z
loop_
_atom_site_type_symbol
_atom_site_label
_atom_site_fract_x
_atom_site_fract_y
_atom_site_fract_z
Si Si1 0.249723 0.472234 0.546474
Si Si2 0.023541 0.353390 0.199739
Si Si3 0.537845 0.558398 0.230611
Si Si4 0.234820 0.853166 0.275483
Si Si5 0.947804 0.902735 0.489162
Si Si6 0.634144 0.846900 0.873027
Si Si7 0.408359 0.592658 0.445777
O O1 0.264628 0.417326 0.663708
O O2 0.167594 0.413153 0.476718
O O3 0.199506 0.568282 0.586728
O O4 0.349513 0.499623 0.478822
O O5 0.058251 0.250000 0.231668
O O6 0.057101 0.449308 0.260699
O O7 0.906749 0.355567 0.241342
O O8 0.053845 0.365067 0.065869
O O9 0.631263 0.609108 0.172606
O O10 0.449528 0.601145 0.150356
O O11 0.500912 0.581882 0.358806
O O12 0.223912 0.750000 0.237723
O O13 0.322438 0.858869 0.369440
O O14 0.027932 0.843728 0.557047
O O15 0.000000 0.000000 0.500000
O O16 0.686245 0.750000 0.889534
#
# Coordination Sequence:
#
# PCOD9463755 Si02
#       7
#     8   8   8   8   8   8   8
#     4  11  23  42  69 100 147 185 236 297 368 429
#     4  11  23  42  70 103 139 184 243 300 366 442
#     4  12  24  47  71 103 147 195 239 306 372 434
#     4  12  27  46  69 104 145 192 251 304 363 439
#     4  10  19  40  70  96 135 188 233 290 360 429
#     4  10  22  42  72 107 142 190 246 301 367 446
#     4  12  26  46  76 106 148 194 242 305 369 443
#
# _framework density 24.628746
#
# number of rings (size 3 to 8) (size 9 to 14) (size 15 to 20)
#    0.000    0.857    5.714    2.571    0.000    4.571 
#    0.000    0.000    0.000    0.000    0.000    0.000 
#    0.000    0.000    0.000    0.000    0.000    0.000 
#
# Total GULP energy -312118.897269 kJ/mol
# GULP energy per Si atom -5573.551737 kJ/mol
# Density = 2.457269 g / cm^3
# Si number density = 24.628746 Si / 1000 Ang^3
#
#
#
# Elastic Constant Matrix: (Units=GPa)
#
#
# Indices 1 2 3 4 5 6 
#
# 1 64.3145 17.1825 22.4909 0.0000 0.0000 0.0000
# 2 17.1825 150.5259 36.7812 0.0000 0.0000 0.0000
# 3 22.4909 36.7812 121.2352 0.0000 0.0000 0.0000
# 4 0.0000 0.0000 0.0000 12.9204 0.0000 0.0000
# 5 0.0000 0.0000 0.0000 0.0000 39.9546 0.0000
# 6 0.0000 0.0000 0.0000 0.0000 0.0000 15.5300
#
#
#
# Elastic Compliance Matrix: (Units=1/GPa)
#
#
# Indices 1 2 3 4 5 6 
#
# 1 0.016843 -0.001252 -0.002745 0.000000 0.000000 0.000000
# 2 -0.001252 0.007268 -0.001973 0.000000 0.000000 0.000000
# 3 -0.002745 -0.001973 0.009356 0.000000 0.000000 0.000000
# 4 0.000000 0.000000 0.000000 0.077397 0.000000 0.000000
# 5 0.000000 0.000000 0.000000 0.000000 0.025028 0.000000
# 6 0.000000 0.000000 0.000000 0.000000 0.000000 0.064391
#
#
# Mechanical properties :
#
#
# Convention : Reuss Voigt Hill
#
# Bulk Modulus (GPa) = 46.45054 54.33164 50.39109
# Shear Modulus (GPa) = 22.78946 30.98906 26.88926
#
# Velocity S-wave (km/s) = 3.04521 3.55103 3.30780
# Velocity P-wave (km/s) = 5.59157 6.23869 5.92397
#
# Compressibility (1/GPa) = 0.02152827
#
# Stress axis : x y z
#
# Youngs Moduli (GPa) = 59.37212 137.58265 106.88134
#
# Poissons Ratio (x) = 0.17224 0.29337
# Poissons Ratio (y) = 0.07433 0.21086
# Poissons Ratio (z) = 0.16296 0.27143
#
# Static dielectric constant tensor:
#      x y z
#    x 2.081380 0.000000 0.000000 
#    y 0.000000 1.943470 0.000000 
#    z 0.000000 0.000000 2.501780 
# 
# From -- ./inp_files/13352.got.cif
#   From: 2010.05.17/outbox.cif.g08.bks.cpg/sg62_7_cif.got.tgz:13352.got - 2010.06.03 15:25:27.
