data_PCOD9463926
_publ_section_title
;
Structure prediction by ZEFSAII (Michael W. Deem and Ramdas Pophale) SiO2 
 PCOD9463926
Probable space group: P N M A
;
_chemical_formula_sum "Si O2"
_cell_formula_units_Z 56
_cell_length_a 15.212418
_cell_length_b 7.635200
_cell_length_c 21.193350
_cell_angle_alpha 90.000000
_cell_angle_beta 90.000000
_cell_angle_gamma 90.000000
_cell_volume 2461.604506
_symmetry_space_group_name_H-M "P N M A"
_symmetry_group_IT_number 62
_symmetry_cell_setting 'orthorhombic'
loop_
_space_group_symop_operation_xyz
x,y,z
1/2-x,-y,1/2+z
1/2+x,1/2-y,1/2-z
-x,1/2+y,-z
-x,-y,-z
1/2+x,y,1/2-z
1/2-x,1/2+y,1/2+z
x,1/2-y,z
loop_
_atom_site_type_symbol
_atom_site_label
_atom_site_fract_x
_atom_site_fract_y
_atom_site_fract_z
Si Si1 0.737777 0.043360 0.121880
Si Si2 0.155518 0.541548 0.147654
Si Si3 0.494027 0.949952 0.280307
Si Si4 0.951854 0.538061 0.649816
Si Si5 0.270216 0.959025 0.514391
Si Si6 0.806308 0.951451 0.257197
Si Si7 0.421783 0.040159 0.047987
O O1 0.740914 0.250000 0.133956
O O2 0.635779 0.991910 0.111129
O O3 0.765710 0.955066 0.186937
O O4 0.791018 0.007800 0.057865
O O5 0.151883 0.750000 0.160738
O O6 0.171944 0.516220 0.073674
O O7 0.237274 0.472779 0.191174
O O8 0.059919 0.469696 0.168385
O O9 0.472383 0.750000 0.299662
O O10 0.402634 0.034034 0.256471
O O11 0.553374 0.953441 0.217762
O O12 0.953767 0.750000 0.655787
O O13 0.039677 0.478011 0.614597
O O14 0.267594 0.750000 0.515826
O O15 0.172504 0.032278 0.529589
O O16 0.821282 0.750000 0.277202
O O17 0.413776 0.250000 0.051523
O O18 0.500000 0.000000 0.000000
#
# Coordination Sequence:
#
# PCOD9463926 Si02
#       7
#     8   8   8   8   8   8   8
#     4  11  22  37  59  85 117 155 193 236 290 345
#     4  10  21  38  59  85 119 153 189 238 293 346
#     4  10  21  37  60  87 113 149 193 237 288 345
#     4  10  20  34  54  82 115 149 186 233 284 343
#     4  11  23  37  57  84 117 156 196 240 290 346
#     4  10  21  39  62  88 118 152 195 242 288 343
#     4  10  20  33  50  78 113 147 183 226 279 341
#
# _framework density 22.749390999999999
#
# number of rings (size 3 to 8) (size 9 to 14) (size 15 to 20)
#    0.000    1.714    2.857    1.714    0.000    3.429 
#    0.000    0.714    0.000    0.000    0.000    0.000 
#    0.000    0.000    0.000    0.000    0.000    0.000 
#
# Total GULP energy -312478.442254 kJ/mol
# GULP energy per Si atom -5579.972183 kJ/mol
# Density = 2.269761 g / cm^3
# Si number density = 22.749391 Si / 1000 Ang^3
#
#
#
# Elastic Constant Matrix: (Units=GPa)
#
#
# Indices 1 2 3 4 5 6 
#
# 1 52.5043 4.0682 -9.3950 0.0000 0.0000 0.0000
# 2 4.0682 52.2742 -7.9763 0.0000 0.0000 0.0000
# 3 -9.3950 -7.9763 82.0466 0.0000 0.0000 0.0000
# 4 0.0000 0.0000 0.0000 25.4412 0.0000 0.0000
# 5 0.0000 0.0000 0.0000 0.0000 33.6112 0.0000
# 6 0.0000 0.0000 0.0000 0.0000 0.0000 4.0425
#
#
#
# Elastic Compliance Matrix: (Units=1/GPa)
#
#
# Indices 1 2 3 4 5 6 
#
# 1 0.019518 -0.001196 0.002119 0.000000 0.000000 0.000000
# 2 -0.001196 0.019491 0.001758 0.000000 0.000000 0.000000
# 3 0.002119 0.001758 0.012602 0.000000 0.000000 0.000000
# 4 0.000000 0.000000 0.000000 0.039306 0.000000 0.000000
# 5 0.000000 0.000000 0.000000 0.000000 0.029752 0.000000
# 6 0.000000 0.000000 0.000000 0.000000 0.000000 0.247370
#
#
# Mechanical properties :
#
#
# Convention : Reuss Voigt Hill
#
# Bulk Modulus (GPa) = 17.55227 17.80210 17.67719
# Shear Modulus (GPa) = 13.10039 25.96086 19.53062
#
# Velocity S-wave (km/s) = 2.40230 3.38178 2.93322
# Velocity P-wave (km/s) = 3.92772 4.80530 4.38850
#
# Compressibility (1/GPa) = 0.05697269
#
# Stress axis : x y z
#
# Youngs Moduli (GPa) = 51.23525 51.30523 79.35435
#
# Poissons Ratio (x) = 0.06134 -0.16813
# Poissons Ratio (y) = 0.06126 -0.13950
# Poissons Ratio (z) = -0.10855 -0.09019
#
# Static dielectric constant tensor:
#      x y z
#    x 1.919320 0.000000 0.000000 
#    y 0.000000 1.835900 0.000000 
#    z 0.000000 0.000000 1.864680 
# 
# From -- ./inp_files/27069.got.cif
#   From: 2010.05.17/outbox.cif.g08.bks.cpg/sg62_14_cif.got.tgz:27069.got - 2010.06.03 15:25:27.
