data_PCOD9463613
_publ_section_title
;
Structure prediction by ZEFSAII (Michael W. Deem and Ramdas Pophale) SiO2 
 PCOD9463613
Probable space group: P N M A
;
_chemical_formula_sum "Si O2"
_cell_formula_units_Z 40
_cell_length_a 29.273449
_cell_length_b 12.572648
_cell_length_c 5.211408
_cell_angle_alpha 90.000000
_cell_angle_beta 90.000000
_cell_angle_gamma 90.000000
_cell_volume 1918.031459
_symmetry_space_group_name_H-M "P N M A"
_symmetry_group_IT_number 62
_symmetry_cell_setting 'orthorhombic'
loop_
_space_group_symop_operation_xyz
x,y,z
1/2-x,-y,1/2+z
1/2+x,1/2-y,1/2-z
-x,1/2+y,-z
-x,-y,-z
1/2+x,y,1/2-z
1/2-x,1/2+y,1/2+z
x,1/2-y,z
loop_
_atom_site_type_symbol
_atom_site_label
_atom_site_fract_x
_atom_site_fract_y
_atom_site_fract_z
Si Si1 0.904263 0.574346 0.721784
Si Si2 0.742843 0.636631 0.319622
Si Si3 0.553899 0.872883 0.034983
Si Si4 0.300420 0.913254 0.679930
Si Si5 0.042093 0.077038 0.768520
O O1 0.853493 0.609650 0.786220
O O2 0.924090 0.618512 0.455241
O O3 0.907941 0.445749 0.675493
O O4 0.937943 0.600795 0.955003
O O5 0.719381 0.750000 0.298459
O O6 0.771127 0.630170 0.582889
O O7 0.707993 0.539830 0.311634
O O8 0.778543 0.624554 0.086073
O O9 0.564905 0.750000 0.983835
O O10 0.508025 0.880606 0.206301
O O11 0.542392 0.948745 0.789066
#
# Coordination Sequence:
#
# PCOD9463613 Si02
#       5
#     8   8   8   8   8
#     4  10  19  37  55  78 109 142 182 228 275 310
#     4  10  21  39  59  85 113 150 186 222 287 348
#     4   9  20  35  56  79 108 149 184 222 276 324
#     4  10  21  37  63  81 115 150 179 241 280 324
#     4   9  20  36  54  75 114 145 172 235 265 326
#
# _framework density 20.854716
#
# number of rings (size 3 to 8) (size 9 to 14) (size 15 to 20)
#    1.200    1.200    0.000    2.400    0.000    1.600 
#    0.000    6.000    0.000    0.000    0.000    0.000 
#    0.000    0.000    0.000    0.000    0.000    0.000 
#
# Total GULP energy -223061.725987 kJ/mol
# GULP energy per Si atom -5576.543150 kJ/mol
# Density = 2.080725 g / cm^3
# Si number density = 20.854716 Si / 1000 Ang^3
#
#
#
# Elastic Constant Matrix: (Units=GPa)
#
#
# Indices 1 2 3 4 5 6 
#
# 1 42.8408 -19.8900 -12.8907 0.0000 0.0000 0.0000
# 2 -19.8900 106.3537 0.3415 0.0000 0.0000 0.0000
# 3 -12.8907 0.3415 66.6420 0.0000 0.0000 0.0000
# 4 0.0000 0.0000 0.0000 8.4512 0.0000 0.0000
# 5 0.0000 0.0000 0.0000 0.0000 8.9071 0.0000
# 6 0.0000 0.0000 0.0000 0.0000 0.0000 -6.5262
#
#
#
# Elastic Compliance Matrix: (Units=1/GPa)
#
#
# Indices 1 2 3 4 5 6 
#
# 1 0.027284 0.005086 0.005251 0.000000 0.000000 0.000000
# 2 0.005086 0.010351 0.000931 0.000000 0.000000 0.000000
# 3 0.005251 0.000931 0.016017 0.000000 0.000000 0.000000
# 4 0.000000 0.000000 0.000000 0.118327 0.000000 0.000000
# 5 0.000000 0.000000 0.000000 0.000000 0.112270 0.000000
# 6 0.000000 0.000000 0.000000 0.000000 0.000000 -0.153228
#
#
# Mechanical properties :
#
#
# Convention : Reuss Voigt Hill
#
# Bulk Modulus (GPa) = 13.12572 16.77313 14.94942
# Shear Modulus (GPa) = 37.34714 18.71813 28.03264
#
# Velocity S-wave (km/s) = 4.23640 2.99916 3.67029
# Velocity P-wave (km/s) = 5.49882 4.47813 5.01451
#
# Compressibility (1/GPa) = 0.07618632
#
# Stress axis : x y z
#
# Youngs Moduli (GPa) = 36.65216 96.61187 62.43530
#
# Poissons Ratio (x) = -0.49133 -0.32788
# Poissons Ratio (y) = -0.18640 -0.05811
# Poissons Ratio (z) = -0.19248 -0.08992
#
# Static dielectric constant tensor:
#      x y z
#    x 1.683760 0.000000 0.000000 
#    y 0.000000 1.981910 0.000000 
#    z 0.000000 0.000000 1.737350 
# 
# From -- ./inp_files/3112.got.cif
#   From: 2010.05.17/outbox.cif.g08.bks.cpg/sg62_2_cif.got.tgz:3112.got - 2010.06.03 15:25:27.
