data_PCOD9463982
_publ_section_title
;
Structure prediction by ZEFSAII (Michael W. Deem and Ramdas Pophale) SiO2 
 PCOD9463982
Probable space group: P N M A
;
_chemical_formula_sum "Si O2"
_cell_formula_units_Z 56
_cell_length_a 21.863409
_cell_length_b 7.921312
_cell_length_c 15.417425
_cell_angle_alpha 90.000000
_cell_angle_beta 90.000000
_cell_angle_gamma 90.000000
_cell_volume 2670.095796
_symmetry_space_group_name_H-M "P N M A"
_symmetry_group_IT_number 62
_symmetry_cell_setting 'orthorhombic'
loop_
_space_group_symop_operation_xyz
x,y,z
1/2-x,-y,1/2+z
1/2+x,1/2-y,1/2-z
-x,1/2+y,-z
-x,-y,-z
1/2+x,y,1/2-z
1/2-x,1/2+y,1/2+z
x,1/2-y,z
loop_
_atom_site_type_symbol
_atom_site_label
_atom_site_fract_x
_atom_site_fract_y
_atom_site_fract_z
Si Si1 0.097296 0.550060 0.035735
Si Si2 0.227476 0.054148 0.093491
Si Si3 0.398045 0.543077 0.209998
Si Si4 0.930357 0.549237 0.482216
Si Si5 0.309821 0.046876 0.937662
Si Si6 0.766894 0.947045 0.225320
Si Si7 0.522232 0.045905 0.632436
O O1 0.106642 0.750000 0.046809
O O2 0.161297 0.460694 0.050259
O O3 0.045342 0.490495 0.103741
O O4 0.068778 0.516585 0.941417
O O5 0.241646 0.250000 0.110155
O O6 0.229974 0.961858 0.185149
O O7 0.276542 0.983406 0.025047
O O8 0.395755 0.750000 0.207580
O O9 0.408810 0.482395 0.112216
O O10 0.334193 0.482651 0.252210
O O11 0.453113 0.494408 0.273984
O O12 0.927601 0.750000 0.478245
O O13 0.881270 0.493134 0.554144
O O14 0.000000 0.500000 0.500000
O O15 0.304409 0.250000 0.937523
O O16 0.272481 0.981088 0.854301
O O17 0.776892 0.750000 0.204722
O O18 0.522437 0.250000 0.628635
#
# Coordination Sequence:
#
# PCOD9463982 Si02
#       7
#     8   8   8   8   8   8   8
#     4  10  20  33  53  84 118 152 190 236 292 351
#     4  11  22  37  58  84 117 153 191 242 296 351
#     4   9  18  36  61  84 110 153 200 242 293 355
#     4  11  23  40  63  88 120 158 202 251 303 363
#     4  10  22  40  62  87 119 157 200 251 308 362
#     4  10  20  37  61  86 112 150 199 247 299 361
#     4   9  18  35  57  80 110 150 195 238 286 345
#
# _framework density 20.973030000000001
#
# number of rings (size 3 to 8) (size 9 to 14) (size 15 to 20)
#    0.000    2.000    1.429    2.143    0.000    5.143 
#    0.000    6.429    0.000    0.000    0.000    0.000 
#    0.000    0.000    0.000    0.000    0.000    0.000 
#
# Total GULP energy -312736.190919 kJ/mol
# GULP energy per Si atom -5584.574838 kJ/mol
# Density = 2.092529 g / cm^3
# Si number density = 20.973030 Si / 1000 Ang^3
#
#
#
# Elastic Constant Matrix: (Units=GPa)
#
#
# Indices 1 2 3 4 5 6 
#
# 1 118.8898 -1.3133 50.1985 0.0000 0.0000 0.0000
# 2 -1.3133 24.5685 5.6618 0.0000 0.0000 0.0000
# 3 50.1985 5.6618 100.9294 0.0000 0.0000 0.0000
# 4 0.0000 0.0000 0.0000 9.5834 0.0000 0.0000
# 5 0.0000 0.0000 0.0000 0.0000 23.9926 0.0000
# 6 0.0000 0.0000 0.0000 0.0000 0.0000 -3.2657
#
#
#
# Elastic Compliance Matrix: (Units=1/GPa)
#
#
# Indices 1 2 3 4 5 6 
#
# 1 0.010727 0.001827 -0.005438 0.000000 0.000000 0.000000
# 2 0.001827 0.041547 -0.003239 0.000000 0.000000 0.000000
# 3 -0.005438 -0.003239 0.012794 0.000000 0.000000 0.000000
# 4 0.000000 0.000000 0.000000 0.104347 0.000000 0.000000
# 5 0.000000 0.000000 0.000000 0.000000 0.041680 0.000000
# 6 0.000000 0.000000 0.000000 0.000000 0.000000 -0.306211
#
#
# Mechanical properties :
#
#
# Convention : Reuss Voigt Hill
#
# Bulk Modulus (GPa) = 19.46762 39.27576 29.37169
# Shear Modulus (GPa) = -77.76852 18.71810 -29.52521
#
# Velocity S-wave (km/s) = -6.09596 2.99069 -3.75610
# Velocity P-wave (km/s) = 6.34392 5.54013 2.18543
#
# Compressibility (1/GPa) = 0.05136735
#
# Stress axis : x y z
#
# Youngs Moduli (GPa) = 93.21983 24.06938 78.16041
#
# Poissons Ratio (x) = -0.04396 0.42502
# Poissons Ratio (y) = -0.17027 0.25317
# Poissons Ratio (z) = 0.50691 0.07796
#
# Static dielectric constant tensor:
#      x y z
#    x 1.756730 0.000000 0.000000 
#    y 0.000000 1.763460 0.000000 
#    z 0.000000 0.000000 1.755030 
# 
# From -- ./inp_files/20367.got.cif
#   From: 2010.05.17/outbox.cif.g08.bks.cpg/sg62_11_cif.got.tgz:20367.got - 2010.06.03 15:25:27.
