data_PCOD9463592
_publ_section_title
;
Structure prediction by ZEFSAII (Michael W. Deem and Ramdas Pophale) SiO2 
 PCOD9463592
Probable space group: P N M A
;
_chemical_formula_sum "Si O2"
_cell_formula_units_Z 64
_cell_length_a 24.234528
_cell_length_b 8.719617
_cell_length_c 15.761046
_cell_angle_alpha 90.000000
_cell_angle_beta 90.000000
_cell_angle_gamma 90.000000
_cell_volume 3330.558081
_symmetry_space_group_name_H-M "P N M A"
_symmetry_group_IT_number 62
_symmetry_cell_setting 'orthorhombic'
loop_
_space_group_symop_operation_xyz
x,y,z
1/2-x,-y,1/2+z
1/2+x,1/2-y,1/2-z
-x,1/2+y,-z
-x,-y,-z
1/2+x,y,1/2-z
1/2-x,1/2+y,1/2+z
x,1/2-y,z
loop_
_atom_site_type_symbol
_atom_site_label
_atom_site_fract_x
_atom_site_fract_y
_atom_site_fract_z
Si Si1 0.136025 0.564748 0.577700
Si Si2 0.249557 0.565526 0.847233
Si Si3 0.125845 0.435551 0.095360
Si Si4 0.137870 0.432911 0.904988
Si Si5 0.248320 0.063954 0.149511
Si Si6 0.430183 0.066457 0.248348
Si Si7 0.625077 0.066756 0.102463
Si Si8 0.947380 0.067511 0.754402
O O1 0.135824 0.750000 0.569466
O O2 0.199154 0.512556 0.595065
O O3 0.100863 0.524348 0.660991
O O4 0.113391 0.491306 0.492063
O O5 0.242574 0.750000 0.853753
O O6 0.201710 0.482894 0.899123
O O7 0.243704 0.522377 0.748052
O O8 0.311222 0.526563 0.876492
O O9 0.124136 0.250000 0.103285
O O10 0.188306 0.486352 0.118190
O O11 0.083855 0.505860 0.162253
O O12 0.114870 0.475941 0.997602
O O13 0.134130 0.250000 0.896362
O O14 0.105574 0.511436 0.828302
O O15 0.248301 0.250000 0.146494
O O16 0.434253 0.250000 0.250583
O O17 0.490567 0.994554 0.251824
O O18 0.619856 0.250000 0.107841
O O19 0.585985 0.992696 0.172724
O O20 0.947472 0.250000 0.754977
#
# Coordination Sequence:
#
# PCOD9463592 Si02
#       8
#     8   8   8   8   8   8   8   8
#     4  10  21  39  64  92 121 159 204 249 302 359
#     4  10  19  36  62  90 124 166 204 242 299 368
#     4  10  21  40  64  90 125 165 200 245 306 367
#     4  11  23  38  63  96 127 159 201 254 305 358
#     4   9  16  34  62  89 122 161 200 243 297 360
#     4  11  24  44  67  87 119 166 207 252 308 366
#     4  11  23  40  64  92 126 164 201 247 306 367
#     4  12  26  43  64  90 120 156 207 264 305 358
#
# _framework density 19.215999
#
# number of rings (size 3 to 8) (size 9 to 14) (size 15 to 20)
#    0.000    1.500    2.500    3.000    0.000    5.000 
#    0.000    0.625    0.000    0.000    0.000    0.000 
#    0.000    0.000    0.000    0.000    0.000    0.000 
#
# Total GULP energy -357786.582369 kJ/mol
# GULP energy per Si atom -5590.415350 kJ/mol
# Density = 1.917226 g / cm^3
# Si number density = 19.215999 Si / 1000 Ang^3
#
#
#
# Elastic Constant Matrix: (Units=GPa)
#
#
# Indices 1 2 3 4 5 6 
#
# 1 116.0372 41.8866 43.1279 0.0000 0.0000 0.0000
# 2 41.8866 47.7996 45.1863 0.0000 0.0000 0.0000
# 3 43.1279 45.1863 118.7110 0.0000 0.0000 0.0000
# 4 0.0000 0.0000 0.0000 27.1387 0.0000 0.0000
# 5 0.0000 0.0000 0.0000 0.0000 -0.0912 0.0000
# 6 0.0000 0.0000 0.0000 0.0000 0.0000 19.7890
#
#
#
# Elastic Compliance Matrix: (Units=1/GPa)
#
#
# Indices 1 2 3 4 5 6 
#
# 1 0.012631 -0.010514 -0.000587 0.000000 0.000000 0.000000
# 2 -0.010514 0.041432 -0.011951 0.000000 0.000000 0.000000
# 3 -0.000587 -0.011951 0.013186 0.000000 0.000000 0.000000
# 4 0.000000 0.000000 0.000000 0.036848 0.000000 0.000000
# 5 0.000000 0.000000 0.000000 0.000000-10.963804 0.000000
# 6 0.000000 0.000000 0.000000 0.000000 0.000000 0.050533
#
#
# Mechanical properties :
#
#
# Convention : Reuss Voigt Hill
#
# Bulk Modulus (GPa) = 47.29148 60.32772 53.80960
# Shear Modulus (GPa) = -0.46486 19.52375 9.52945
#
# Velocity S-wave (km/s) = -0.49238 3.19096 2.22932
# Velocity P-wave (km/s) = 4.93362 6.71111 5.88981
#
# Compressibility (1/GPa) = 0.02114546
#
# Stress axis : x y z
#
# Youngs Moduli (GPa) = 79.16804 24.13622 75.83780
#
# Poissons Ratio (x) = 0.25377 0.04451
# Poissons Ratio (y) = 0.83237 0.90632
# Poissons Ratio (z) = 0.04647 0.28845
#
# Static dielectric constant tensor:
#      x y z
#    x 1.646270 0.000000 0.000000 
#    y 0.000000 1.641510 0.000000 
#    z 0.000000 0.000000 1.656960 
# 
# From -- ./inp_files/20807.got.cif
#   From: 2010.05.17/outbox.cif.g08.bks.cpg/sg62_11_cif.got.tgz:20807.got - 2010.06.03 15:25:27.
