data_PCOD9463200
_publ_section_title
;
Structure prediction by ZEFSAII (Michael W. Deem and Ramdas Pophale) SiO2 
 PCOD9463200
Probable space group: P N M A
;
_chemical_formula_sum "Si O2"
_cell_formula_units_Z 64
_cell_length_a 20.023150
_cell_length_b 8.780452
_cell_length_c 20.545221
_cell_angle_alpha 90.000000
_cell_angle_beta 90.000000
_cell_angle_gamma 90.000000
_cell_volume 3612.102711
_symmetry_space_group_name_H-M "P N M A"
_symmetry_group_IT_number 62
_symmetry_cell_setting 'orthorhombic'
loop_
_space_group_symop_operation_xyz
x,y,z
1/2-x,-y,1/2+z
1/2+x,1/2-y,1/2-z
-x,1/2+y,-z
-x,-y,-z
1/2+x,y,1/2-z
1/2-x,1/2+y,1/2+z
x,1/2-y,z
loop_
_atom_site_type_symbol
_atom_site_label
_atom_site_fract_x
_atom_site_fract_y
_atom_site_fract_z
Si Si1 0.405968 0.429558 0.304105
Si Si2 0.561977 0.431140 0.337736
Si Si3 0.560991 0.431738 0.830264
Si Si4 0.929498 0.933585 0.476913
Si Si5 0.094459 0.931455 0.298573
Si Si6 0.571025 0.568078 0.477408
Si Si7 0.678754 0.432943 0.085322
Si Si8 0.174457 0.069049 0.919801
O O1 0.392425 0.250000 0.309850
O O2 0.482186 0.456771 0.328299
O O3 0.404502 0.482491 0.229381
O O4 0.356727 0.521765 0.350337
O O5 0.572668 0.250000 0.341495
O O6 0.596584 0.499798 0.273781
O O7 0.583502 0.511554 0.404076
O O8 0.571024 0.250000 0.822507
O O9 0.583499 0.479395 0.902194
O O10 0.481204 0.459765 0.824343
O O11 0.934837 0.750000 0.477491
O O12 0.871425 0.977684 0.526855
O O13 0.000000 0.000000 0.500000
O O14 0.104750 0.750000 0.296934
O O15 0.145503 0.009088 0.347939
O O16 0.500000 0.500000 0.500000
O O17 0.567692 0.750000 0.480262
O O18 0.627592 0.507433 0.525828
O O19 0.684146 0.250000 0.086289
O O20 0.750821 0.506258 0.075710
O O21 0.172951 0.250000 0.927262
#
# Coordination Sequence:
#
# PCOD9463200 Si02
#       8
#     8   8   8   8   8   8   8   8
#     4  10  20  35  57  85 116 149 191 241 293 348
#     4  10  20  35  58  88 120 151 192 243 292 344
#     4   9  18  33  55  85 118 149 190 240 290 345
#     4  10  20  35  58  87 119 155 195 244 293 346
#     4  10  19  34  57  85 118 153 194 241 292 350
#     4  12  23  38  61  90 121 154 196 246 299 357
#     4  11  23  39  59  85 120 159 201 247 301 360
#     4  12  25  41  61  84 117 159 201 245 301 363
#
# _framework density 17.718211
#
# number of rings (size 3 to 8) (size 9 to 14) (size 15 to 20)
#    0.000    1.500    2.500    3.750    0.000    2.500 
#    0.000    1.250    0.000    1.500    0.000    0.000 
#    0.000    0.000    0.000    0.000    0.000    0.000 
#
# Total GULP energy -357631.342866 kJ/mol
# GULP energy per Si atom -5587.989732 kJ/mol
# Density = 1.767788 g / cm^3
# Si number density = 17.718211 Si / 1000 Ang^3
#
#
#
# Elastic Constant Matrix: (Units=GPa)
#
#
# Indices 1 2 3 4 5 6 
#
# 1 102.7000 62.5289 77.5109 0.0000 0.0000 0.0000
# 2 62.5289 97.7137 67.3131 0.0000 0.0000 0.0000
# 3 77.5109 67.3131 168.3411 0.0000 0.0000 0.0000
# 4 0.0000 0.0000 0.0000 33.1547 0.0000 0.0000
# 5 0.0000 0.0000 0.0000 0.0000 20.1055 0.0000
# 6 0.0000 0.0000 0.0000 0.0000 0.0000 27.7373
#
#
#
# Elastic Compliance Matrix: (Units=1/GPa)
#
#
# Indices 1 2 3 4 5 6 
#
# 1 0.018881 -0.008410 -0.005331 0.000000 0.000000 0.000000
# 2 -0.008410 0.017871 -0.003274 0.000000 0.000000 0.000000
# 3 -0.005331 -0.003274 0.009704 0.000000 0.000000 0.000000
# 4 0.000000 0.000000 0.000000 0.030162 0.000000 0.000000
# 5 0.000000 0.000000 0.000000 0.000000 0.049738 0.000000
# 6 0.000000 0.000000 0.000000 0.000000 0.000000 0.036053
#
#
# Mechanical properties :
#
#
# Convention : Reuss Voigt Hill
#
# Bulk Modulus (GPa) = 80.47036 87.05117 83.76077
# Shear Modulus (GPa) = 24.92802 26.95962 25.94382
#
# Velocity S-wave (km/s) = 3.75496 3.90497 3.83070
# Velocity P-wave (km/s) = 8.01966 8.34082 8.18182
#
# Compressibility (1/GPa) = 0.01242694
#
# Stress axis : x y z
#
# Youngs Moduli (GPa) = 52.96421 55.95729 103.05346
#
# Poissons Ratio (x) = 0.47060 0.54934
# Poissons Ratio (y) = 0.44543 0.33735
# Poissons Ratio (z) = 0.28233 0.18318
#
# Static dielectric constant tensor:
#      x y z
#    x 1.574110 0.000000 0.000000 
#    y 0.000000 1.586570 0.000000 
#    z 0.000000 0.000000 1.600680 
# 
# From -- ./inp_files/27704.got.cif
#   From: 2010.05.17/outbox.cif.g08.bks.cpg/sg62_14_cif.got.tgz:27704.got - 2010.06.03 15:25:27.
