data_PCOD9463571
_publ_section_title
;
Structure prediction by ZEFSAII (Michael W. Deem and Ramdas Pophale) SiO2 
 PCOD9463571
Probable space group: P N M A
;
_chemical_formula_sum "Si O2"
_cell_formula_units_Z 64
_cell_length_a 12.267513
_cell_length_b 8.276790
_cell_length_c 31.446589
_cell_angle_alpha 90.000000
_cell_angle_beta 90.000000
_cell_angle_gamma 90.000000
_cell_volume 3192.949192
_symmetry_space_group_name_H-M "P N M A"
_symmetry_group_IT_number 62
_symmetry_cell_setting 'orthorhombic'
loop_
_space_group_symop_operation_xyz
x,y,z
1/2-x,-y,1/2+z
1/2+x,1/2-y,1/2-z
-x,1/2+y,-z
-x,-y,-z
1/2+x,y,1/2-z
1/2-x,1/2+y,1/2+z
x,1/2-y,z
loop_
_atom_site_type_symbol
_atom_site_label
_atom_site_fract_x
_atom_site_fract_y
_atom_site_fract_z
Si Si1 0.555747 0.945424 0.043249
Si Si2 0.508985 0.053147 0.304001
Si Si3 0.451444 0.556209 0.791402
Si Si4 0.487946 0.561687 0.547743
Si Si5 0.330083 0.554081 0.620976
Si Si6 0.731091 0.556235 0.663974
Si Si7 0.580832 0.057093 0.874395
Si Si8 0.782571 0.937755 0.073267
O O1 0.557884 0.750000 0.044873
O O2 0.489573 0.003427 0.084960
O O3 0.682063 0.998738 0.045021
O O4 0.500000 0.000000 0.000000
O O5 0.514216 0.250000 0.303046
O O6 0.522950 0.994586 0.255788
O O7 0.600895 0.999748 0.337591
O O8 0.389008 0.010928 0.320585
O O9 0.466101 0.750000 0.791057
O O10 0.325407 0.523307 0.802269
O O11 0.525113 0.492642 0.829990
O O12 0.500000 0.500000 0.500000
O O13 0.465383 0.750000 0.544592
O O14 0.394269 0.493208 0.578822
O O15 0.605209 0.532606 0.569059
O O16 0.333842 0.750000 0.620686
O O17 0.204945 0.502894 0.622681
O O18 0.732180 0.750000 0.655082
O O19 0.757278 0.459480 0.621385
O O20 0.581463 0.250000 0.876592
O O21 0.804328 0.750000 0.063598
#
# Coordination Sequence:
#
# PCOD9463571 Si02
#       8
#     8   8   8   8   8   8   8   8
#     4  10  24  42  61  86 117 156 198 245 297 350
#     4   9  19  37  61  90 120 151 198 252 294 344
#     4  10  21  36  63  92 116 156 203 247 295 352
#     4  11  24  42  64  92 122 157 199 247 299 353
#     4  10  22  41  63  86 118 159 201 246 292 348
#     4  10  19  36  61  89 117 153 200 249 298 348
#     4  11  24  42  59  85 125 160 193 243 302 359
#     4  11  22  40  63  88 120 157 197 245 299 356
#
# _framework density 20.044163999999999
#
# number of rings (size 3 to 8) (size 9 to 14) (size 15 to 20)
#    0.000    1.750    2.500    1.125    3.500    3.000 
#    0.000    1.250    0.000    0.000    0.000    0.000 
#    0.000    0.000    0.000    0.000    0.000    0.000 
#
# Total GULP energy -357393.169396 kJ/mol
# GULP energy per Si atom -5584.268272 kJ/mol
# Density = 1.999854 g / cm^3
# Si number density = 20.044164 Si / 1000 Ang^3
#
#
#
# Elastic Constant Matrix: (Units=GPa)
#
#
# Indices 1 2 3 4 5 6 
#
# 1 101.2701 4.1963 22.9917 0.0000 0.0000 0.0000
# 2 4.1963 5.6370 8.3998 0.0000 0.0000 0.0000
# 3 22.9917 8.3998 103.8728 0.0000 0.0000 0.0000
# 4 0.0000 0.0000 0.0000 25.4287 0.0000 0.0000
# 5 0.0000 0.0000 0.0000 0.0000 33.3555 0.0000
# 6 0.0000 0.0000 0.0000 0.0000 0.0000 22.6881
#
#
#
# Elastic Compliance Matrix: (Units=1/GPa)
#
#
# Indices 1 2 3 4 5 6 
#
# 1 0.010518 -0.004958 -0.001927 0.000000 0.000000 0.000000
# 2 -0.004958 0.204041 -0.015403 0.000000 0.000000 0.000000
# 3 -0.001927 -0.015403 0.011299 0.000000 0.000000 0.000000
# 4 0.000000 0.000000 0.000000 0.039326 0.000000 0.000000
# 5 0.000000 0.000000 0.000000 0.000000 0.029980 0.000000
# 6 0.000000 0.000000 0.000000 0.000000 0.000000 0.044076
#
#
# Mechanical properties :
#
#
# Convention : Reuss Voigt Hill
#
# Bulk Modulus (GPa) = 5.51625 31.32840 18.42232
# Shear Modulus (GPa) = 11.25513 27.97392 19.61452
#
# Velocity S-wave (km/s) = 2.37220 3.73984 3.13160
# Velocity P-wave (km/s) = 3.20330 5.85766 4.72088
#
# Compressibility (1/GPa) = 0.18128247
#
# Stress axis : x y z
#
# Youngs Moduli (GPa) = 95.07934 4.90098 88.50125
#
# Poissons Ratio (x) = 0.02430 0.17055
# Poissons Ratio (y) = 0.47138 1.36316
# Poissons Ratio (z) = 0.18323 0.07549
#
# Static dielectric constant tensor:
#      x y z
#    x 1.708290 0.000000 0.000000 
#    y 0.000000 1.711770 0.000000 
#    z 0.000000 0.000000 1.729380 
# 
# From -- ./inp_files/32520.got.cif
#   From: 2010.05.17/outbox.cif.g08.bks.cpg/sg62_17_cif.got.tgz:32520.got - 2010.06.03 15:25:27.
