data_PCOD9463722
_publ_section_title
;
Structure prediction by ZEFSAII (Michael W. Deem and Ramdas Pophale) SiO2 
 PCOD9463722
Probable space group: P N M A
;
_chemical_formula_sum "Si O2"
_cell_formula_units_Z 64
_cell_length_a 17.889992
_cell_length_b 19.077764
_cell_length_c 9.819778
_cell_angle_alpha 90.000000
_cell_angle_beta 90.000000
_cell_angle_gamma 90.000000
_cell_volume 3351.500496
_symmetry_space_group_name_H-M "P N M A"
_symmetry_group_IT_number 62
_symmetry_cell_setting 'orthorhombic'
loop_
_space_group_symop_operation_xyz
x,y,z
1/2-x,-y,1/2+z
1/2+x,1/2-y,1/2-z
-x,1/2+y,-z
-x,-y,-z
1/2+x,y,1/2-z
1/2-x,1/2+y,1/2+z
x,1/2-y,z
loop_
_atom_site_type_symbol
_atom_site_label
_atom_site_fract_x
_atom_site_fract_y
_atom_site_fract_z
Si Si1 0.718991 0.068721 0.098830
Si Si2 0.508773 0.670342 0.200659
Si Si3 0.865475 0.060613 0.707592
Si Si4 0.653873 0.172026 0.886473
Si Si5 0.744935 0.170740 0.628187
Si Si6 0.330789 0.667288 0.653942
Si Si7 0.386565 0.470078 0.474284
Si Si8 0.031076 0.114347 0.992971
O O1 0.698413 0.119969 0.223593
O O2 0.806034 0.045066 0.093263
O O3 0.664071 0.002483 0.115175
O O4 0.698037 0.112613 0.965286
O O5 0.538689 0.750000 0.183163
O O6 0.561720 0.604812 0.166943
O O7 0.434801 0.664518 0.109011
O O8 0.488547 0.660558 0.360934
O O9 0.801980 0.119045 0.697545
O O10 0.874801 0.033207 0.861805
O O11 0.675242 0.250000 0.937311
O O12 0.674026 0.170772 0.727256
O O13 0.774321 0.250000 0.624283
O O14 0.720339 0.150608 0.477593
O O15 0.325027 0.750000 0.683600
O O16 0.415036 0.650340 0.603398
O O17 0.452373 0.413705 0.445931
O O18 0.422731 0.545520 0.442370
#
# Coordination Sequence:
#
# PCOD9463722 Si02
#       8
#     8   8   8   8   8   8   8   8
#     4  12  24  38  59  93 129 163 195 254 317 367
#     4  10  21  39  64  91 117 156 210 258 299 360
#     4  11  22  37  61  91 121 157 203 261 302 360
#     4  10  21  39  61  85 119 161 205 249 303 366
#     4  10  20  37  61  87 117 159 209 254 297 359
#     4  11  22  39  61  89 124 167 209 247 307 370
#     4  10  22  38  60  90 126 156 205 256 306 365
#     4  10  19  39  62  88 117 160 208 259 298 357
#
# _framework density 19.095925000000001
#
# number of rings (size 3 to 8) (size 9 to 14) (size 15 to 20)
#    0.000    1.500    3.750    1.875    0.000    0.500 
#    0.000    3.125    0.000    1.500    0.000    0.000 
#    0.000    0.000    0.000    0.000    0.000    0.000 
#
# Total GULP energy -357046.210777 kJ/mol
# GULP energy per Si atom -5578.847043 kJ/mol
# Density = 1.905246 g / cm^3
# Si number density = 19.095925 Si / 1000 Ang^3
#
#
#
# Elastic Constant Matrix: (Units=GPa)
#
#
# Indices 1 2 3 4 5 6 
#
# 1 74.3991 25.7376 5.7072 0.0000 0.0000 0.0000
# 2 25.7376 45.5275 11.8506 0.0000 0.0000 0.0000
# 3 5.7072 11.8506 39.7496 0.0000 0.0000 0.0000
# 4 0.0000 0.0000 0.0000 20.1856 0.0000 0.0000
# 5 0.0000 0.0000 0.0000 0.0000 24.9706 0.0000
# 6 0.0000 0.0000 0.0000 0.0000 0.0000 26.5919
#
#
#
# Elastic Compliance Matrix: (Units=1/GPa)
#
#
# Indices 1 2 3 4 5 6 
#
# 1 0.016716 -0.009568 0.000452 0.000000 0.000000 0.000000
# 2 -0.009568 0.029289 -0.007358 0.000000 0.000000 0.000000
# 3 0.000452 -0.007358 0.027286 0.000000 0.000000 0.000000
# 4 0.000000 0.000000 0.000000 0.049540 0.000000 0.000000
# 5 0.000000 0.000000 0.000000 0.000000 0.040047 0.000000
# 6 0.000000 0.000000 0.000000 0.000000 0.000000 0.037605
#
#
# Mechanical properties :
#
#
# Convention : Reuss Voigt Hill
#
# Bulk Modulus (GPa) = 24.78674 27.36298 26.07486
# Shear Modulus (GPa) = 20.25283 22.10835 21.18059
#
# Velocity S-wave (km/s) = 3.26019 3.40627 3.33403
# Velocity P-wave (km/s) = 5.21346 5.46173 5.33904
#
# Compressibility (1/GPa) = 0.04034415
#
# Stress axis : x y z
#
# Youngs Moduli (GPa) = 59.82231 34.14272 36.64853
#
# Poissons Ratio (x) = 0.32667 -0.01658
# Poissons Ratio (y) = 0.57236 0.26967
# Poissons Ratio (z) = -0.02706 0.25123
#
# Static dielectric constant tensor:
#      x y z
#    x 1.686520 0.000000 0.000000 
#    y 0.000000 1.693830 0.000000 
#    z 0.000000 0.000000 1.640990 
# 
# From -- ./inp_files/8090.got.cif
#   From: 2010.05.17/outbox.cif.g08.bks.cpg/sg62_5_cif.got.tgz:8090.got - 2010.06.03 15:25:27.
