data_PCOD9463435
_publ_section_title
;
Structure prediction by ZEFSAII (Michael W. Deem and Ramdas Pophale) SiO2 
 PCOD9463435
Probable space group: P N M A
;
_chemical_formula_sum "Si O2"
_cell_formula_units_Z 52
_cell_length_a 12.316919
_cell_length_b 7.527553
_cell_length_c 23.692143
_cell_angle_alpha 90.000000
_cell_angle_beta 90.000000
_cell_angle_gamma 90.000000
_cell_volume 2196.646904
_symmetry_space_group_name_H-M "P N M A"
_symmetry_group_IT_number 62
_symmetry_cell_setting 'orthorhombic'
loop_
_space_group_symop_operation_xyz
x,y,z
1/2-x,-y,1/2+z
1/2+x,1/2-y,1/2-z
-x,1/2+y,-z
-x,-y,-z
1/2+x,y,1/2-z
1/2-x,1/2+y,1/2+z
x,1/2-y,z
loop_
_atom_site_type_symbol
_atom_site_label
_atom_site_fract_x
_atom_site_fract_y
_atom_site_fract_z
Si Si1 0.455639 0.960222 0.360114
Si Si2 0.083379 0.536253 0.639086
Si Si3 0.844236 0.547172 0.027234
Si Si4 0.759865 0.448138 0.212112
Si Si5 0.358363 0.960892 0.905445
Si Si6 0.179373 0.463567 0.096957
Si Si7 0.343042 0.750000 0.215532
O O1 0.429587 0.750000 0.354891
O O2 0.412374 0.030642 0.420849
O O3 0.382737 0.050984 0.313114
O O4 0.583740 0.984078 0.360930
O O5 0.082070 0.750000 0.650676
O O6 0.200451 0.479549 0.614350
O O7 0.074537 0.408158 0.692365
O O8 0.985255 0.497724 0.596181
O O9 0.882791 0.750000 0.022144
O O10 0.719917 0.547810 0.048782
O O11 0.849728 0.465395 0.965457
O O12 0.730058 0.250000 0.231126
O O13 0.688525 0.498542 0.157218
O O14 0.761568 0.594502 0.259602
O O15 0.345877 0.750000 0.913711
O O16 0.183315 0.250000 0.093999
#
# Coordination Sequence:
#
# PCOD9463435 Si02
#       7
#     8   8   8   8   8   8   4
#     4  10  19  35  60  93 128 163 210 265 312 378
#     4  10  24  44  61  88 129 165 208 262 313 374
#     4   9  19  34  61  93 123 166 213 254 313 374
#     4  10  21  41  66  92 120 156 212 262 315 378
#     4   9  20  40  64  90 121 160 205 261 308 373
#     4  10  21  38  57  87 133 172 203 257 319 375
#     4  12  24  42  66  90 116 170 212 258 324 368
#
# _framework density 23.672443000000001
#
# number of rings (size 3 to 8) (size 9 to 14) (size 15 to 20)
#    0.000    2.154    0.769    1.385    3.231    1.846 
#    5.538    0.000    0.000    0.000    0.000    0.000 
#    0.000    0.000    0.000    0.000    0.000    0.000 
#
# Total GULP energy -289496.965781 kJ/mol
# GULP energy per Si atom -5567.249342 kJ/mol
# Density = 2.361856 g / cm^3
# Si number density = 23.672443 Si / 1000 Ang^3
#
#
#
# Elastic Constant Matrix: (Units=GPa)
#
#
# Indices 1 2 3 4 5 6 
#
# 1 120.0528 3.6625 9.9885 0.0000 0.0000 0.0000
# 2 3.6625 84.0629 11.5132 0.0000 0.0000 0.0000
# 3 9.9885 11.5132 36.4370 0.0000 0.0000 0.0000
# 4 0.0000 0.0000 0.0000 6.8962 0.0000 0.0000
# 5 0.0000 0.0000 0.0000 0.0000 8.3296 0.0000
# 6 0.0000 0.0000 0.0000 0.0000 0.0000 22.0228
#
#
#
# Elastic Compliance Matrix: (Units=1/GPa)
#
#
# Indices 1 2 3 4 5 6 
#
# 1 0.008524 -0.000054 -0.002320 0.000000 0.000000 0.000000
# 2 -0.000054 0.012434 -0.003914 0.000000 0.000000 0.000000
# 3 -0.002320 -0.003914 0.029317 0.000000 0.000000 0.000000
# 4 0.000000 0.000000 0.000000 0.145008 0.000000 0.000000
# 5 0.000000 0.000000 0.000000 0.000000 0.120053 0.000000
# 6 0.000000 0.000000 0.000000 0.000000 0.000000 0.045408
#
#
# Mechanical properties :
#
#
# Convention : Reuss Voigt Hill
#
# Bulk Modulus (GPa) = 26.52481 32.32012 29.42247
# Shear Modulus (GPa) = 12.95715 21.80895 17.38305
#
# Velocity S-wave (km/s) = 2.34209 3.03855 2.71277
# Velocity P-wave (km/s) = 4.30617 5.09834 4.71891
#
# Compressibility (1/GPa) = 0.03770055
#
# Stress axis : x y z
#
# Youngs Moduli (GPa) = 117.31151 80.42281 34.10947
#
# Poissons Ratio (x) = 0.00432 0.07913
# Poissons Ratio (y) = 0.00630 0.13351
# Poissons Ratio (z) = 0.27214 0.31479
#
# Static dielectric constant tensor:
#      x y z
#    x 1.915420 0.000000 0.000000 
#    y 0.000000 1.886930 0.000000 
#    z 0.000000 0.000000 1.991840 
# 
# From -- ./inp_files/31051.got.cif
#   From: 2010.05.17/outbox.cif.g08.bks.cpg/sg62_16_cif.got.tgz:31051.got - 2010.06.03 15:25:27.
