data_PCOD9463025
_publ_section_title
;
Structure prediction by ZEFSAII (Michael W. Deem and Ramdas Pophale) SiO2 
 PCOD9463025
Probable space group: P N M A
;
_chemical_formula_sum "Si O2"
_cell_formula_units_Z 64
_cell_length_a 10.088849
_cell_length_b 13.865822
_cell_length_c 22.092789
_cell_angle_alpha 90.000000
_cell_angle_beta 90.000000
_cell_angle_gamma 90.000000
_cell_volume 3090.564328
_symmetry_space_group_name_H-M "P N M A"
_symmetry_group_IT_number 62
_symmetry_cell_setting 'orthorhombic'
loop_
_space_group_symop_operation_xyz
x,y,z
1/2-x,-y,1/2+z
1/2+x,1/2-y,1/2-z
-x,1/2+y,-z
-x,-y,-z
1/2+x,y,1/2-z
1/2-x,1/2+y,1/2+z
x,1/2-y,z
loop_
_atom_site_type_symbol
_atom_site_label
_atom_site_fract_x
_atom_site_fract_y
_atom_site_fract_z
Si Si1 0.051464 0.367225 0.474557
Si Si2 0.815108 0.549259 0.301085
Si Si3 0.450579 0.643124 0.597102
Si Si4 0.967435 0.366389 0.608253
Si Si5 0.349317 0.360756 0.128458
Si Si6 0.557236 0.939460 0.368648
Si Si7 0.698642 0.361548 0.672593
Si Si8 0.657390 0.862743 0.491166
O O1 0.044839 0.250000 0.473872
O O2 0.990711 0.398989 0.539064
O O3 0.965053 0.395424 0.416532
O O4 0.206957 0.392663 0.475406
O O5 0.831093 0.436407 0.317365
O O6 0.665632 0.580970 0.317768
O O7 0.835771 0.578060 0.232280
O O8 0.915628 0.601701 0.346904
O O9 0.483914 0.750000 0.621463
O O10 0.290927 0.639632 0.592459
O O11 0.487442 0.550523 0.636634
O O12 0.531555 0.631898 0.535193
O O13 0.966386 0.250000 0.606327
O O14 0.827932 0.397455 0.637193
O O15 0.373985 0.250000 0.147450
O O16 0.431256 0.871180 0.368445
O O17 0.632542 0.925751 0.432148
O O18 0.720149 0.250000 0.689773
O O19 0.674174 0.750000 0.472861
#
# Coordination Sequence:
#
# PCOD9463025 Si02
#       8
#     8   8   8   8   8   8   8   8
#     4   9  18  34  56  85 120 154 190 235 292 354
#     4  11  22  39  59  83 114 157 199 243 292 344
#     4   9  20  37  57  83 117 154 191 237 290 343
#     4  10  21  37  56  85 121 156 191 235 291 355
#     4   9  20  38  60  85 117 154 195 244 294 349
#     4  11  22  38  58  85 115 153 199 242 286 347
#     4  11  25  40  60  86 117 154 195 245 294 351
#     4  10  19  33  56  86 120 154 189 234 289 351
#
# _framework density 20.708192
#
# number of rings (size 3 to 8) (size 9 to 14) (size 15 to 20)
#    0.000    2.000    1.250    1.875    1.750    4.000 
#    0.000    0.625    0.000    2.250    0.000    0.000 
#    0.000    0.000    0.000    0.000    0.000    0.000 
#
# Total GULP energy -357341.122184 kJ/mol
# GULP energy per Si atom -5583.455034 kJ/mol
# Density = 2.066106 g / cm^3
# Si number density = 20.708192 Si / 1000 Ang^3
#
#
#
# Elastic Constant Matrix: (Units=GPa)
#
#
# Indices 1 2 3 4 5 6 
#
# 1 65.7281 22.4418 16.4570 0.0000 0.0000 0.0000
# 2 22.4418 61.5265 14.3692 0.0000 0.0000 0.0000
# 3 16.4570 14.3692 35.6501 0.0000 0.0000 0.0000
# 4 0.0000 0.0000 0.0000 24.1691 0.0000 0.0000
# 5 0.0000 0.0000 0.0000 0.0000 17.7591 0.0000
# 6 0.0000 0.0000 0.0000 0.0000 0.0000 22.8771
#
#
#
# Elastic Compliance Matrix: (Units=1/GPa)
#
#
# Indices 1 2 3 4 5 6 
#
# 1 0.018640 -0.005287 -0.006474 0.000000 0.000000 0.000000
# 2 -0.005287 0.019442 -0.005396 0.000000 0.000000 0.000000
# 3 -0.006474 -0.005396 0.033214 0.000000 0.000000 0.000000
# 4 0.000000 0.000000 0.000000 0.041375 0.000000 0.000000
# 5 0.000000 0.000000 0.000000 0.000000 0.056309 0.000000
# 6 0.000000 0.000000 0.000000 0.000000 0.000000 0.043712
#
#
# Mechanical properties :
#
#
# Convention : Reuss Voigt Hill
#
# Bulk Modulus (GPa) = 27.03967 29.93787 28.48877
# Shear Modulus (GPa) = 19.28029 20.27018 19.77523
#
# Velocity S-wave (km/s) = 3.05462 3.13205 3.09357
# Velocity P-wave (km/s) = 5.05240 5.25053 5.15242
#
# Compressibility (1/GPa) = 0.03698270
#
# Stress axis : x y z
#
# Youngs Moduli (GPa) = 53.64719 51.43570 30.10815
#
# Poissons Ratio (x) = 0.27195 0.19491
# Poissons Ratio (y) = 0.28364 0.16245
# Poissons Ratio (z) = 0.34730 0.27752
#
# Static dielectric constant tensor:
#      x y z
#    x 1.764830 0.000000 0.000000 
#    y 0.000000 1.788760 0.000000 
#    z 0.000000 0.000000 1.752880 
# 
# From -- ./inp_files/29012.got.cif
#   From: 2010.05.17/outbox.cif.g08.bks.cpg/sg62_15_cif.got.tgz:29012.got - 2010.06.03 15:25:27.
