data_PCOD9463032
_publ_section_title
;
Structure prediction by ZEFSAII (Michael W. Deem and Ramdas Pophale) SiO2 
 PCOD9463032
Probable space group: P N M A
;
_chemical_formula_sum "Si O2"
_cell_formula_units_Z 32
_cell_length_a 5.272346
_cell_length_b 15.581649
_cell_length_c 16.181893
_cell_angle_alpha 90.000000
_cell_angle_beta 90.000000
_cell_angle_gamma 90.000000
_cell_volume 1329.372362
_symmetry_space_group_name_H-M "P N M A"
_symmetry_group_IT_number 62
_symmetry_cell_setting 'orthorhombic'
loop_
_space_group_symop_operation_xyz
x,y,z
1/2-x,-y,1/2+z
1/2+x,1/2-y,1/2-z
-x,1/2+y,-z
-x,-y,-z
1/2+x,y,1/2-z
1/2-x,1/2+y,1/2+z
x,1/2-y,z
loop_
_atom_site_type_symbol
_atom_site_label
_atom_site_fract_x
_atom_site_fract_y
_atom_site_fract_z
Si Si1 0.867063 0.455393 0.166306
Si Si2 0.385715 0.884178 0.215619
Si Si3 0.349316 0.074888 0.953821
Si Si4 0.145595 0.848892 0.625063
O O1 0.849695 0.520486 0.243734
O O2 0.882261 0.525252 0.090957
O O3 0.613784 0.399300 0.148538
O O4 0.106230 0.392684 0.164762
O O5 0.612572 0.844405 0.269175
O O6 0.696263 0.857782 0.973753
O O7 0.516740 0.110420 0.877712
O O8 0.500000 0.000000 0.000000
O O9 0.122402 0.750000 0.648954
#
# Coordination Sequence:
#
# PCOD9463032 Si02
#       4
#     8   8   8   8
#     4  10  20  37  58  83 112 153 198 235 281 344
#     4  10  19  33  57  83 107 138 188 241 275 319
#     4   9  19  35  60  84 108 149 199 242 278 333
#     4  11  22  37  59  88 122 154 187 238 302 352
#
# _framework density 24.071508999999999
#
# number of rings (size 3 to 8) (size 9 to 14) (size 15 to 20)
#    0.000    2.000    0.000    6.000    0.000    6.000 
#    0.000    0.000    0.000  108.000    0.000    0.000 
#    0.000    0.000    0.000    0.000    0.000    0.000 
#
# Total GULP energy -178677.518073 kJ/mol
# GULP energy per Si atom -5583.672440 kJ/mol
# Density = 2.401672 g / cm^3
# Si number density = 24.071509 Si / 1000 Ang^3
#
#
#
# Elastic Constant Matrix: (Units=GPa)
#
#
# Indices 1 2 3 4 5 6 
#
# 1 144.6776 55.7631 -18.7180 0.0000 0.0000 0.0000
# 2 55.7631 132.1694 24.5450 0.0000 0.0000 0.0000
# 3 -18.7180 24.5450 111.7577 0.0000 0.0000 0.0000
# 4 0.0000 0.0000 0.0000 0.1181 0.0000 0.0000
# 5 0.0000 0.0000 0.0000 0.0000 34.1340 0.0000
# 6 0.0000 0.0000 0.0000 0.0000 0.0000 -15.8085
#
#
#
# Elastic Compliance Matrix: (Units=1/GPa)
#
#
# Indices 1 2 3 4 5 6 
#
# 1 0.008829 -0.004170 0.002394 0.000000 0.000000 0.000000
# 2 -0.004170 0.009857 -0.002863 0.000000 0.000000 0.000000
# 3 0.002394 -0.002863 0.009978 0.000000 0.000000 0.000000
# 4 0.000000 0.000000 0.000000 8.468273 0.000000 0.000000
# 5 0.000000 0.000000 0.000000 0.000000 0.029296 0.000000
# 6 0.000000 0.000000 0.000000 0.000000 0.000000 -0.063257
#
#
# Mechanical properties :
#
#
# Convention : Reuss Voigt Hill
#
# Bulk Modulus (GPa) = 51.58123 56.86496 54.22310
# Shear Modulus (GPa) = 0.58971 25.48969 13.03970
#
# Velocity S-wave (km/s) = 0.49549 3.25763 2.32998
# Velocity P-wave (km/s) = 4.66928 6.15013 5.46014
#
# Compressibility (1/GPa) = 0.01938690
#
# Stress axis : x y z
#
# Youngs Moduli (GPa) = 113.26563 101.45124 100.22238
#
# Poissons Ratio (x) = 0.42301 -0.23998
# Poissons Ratio (y) = 0.47227 0.28696
# Poissons Ratio (z) = -0.27121 0.29048
#
# Static dielectric constant tensor:
#      x y z
#    x 2.036410 0.000000 0.000000 
#    y 0.000000 1.939180 0.000000 
#    z 0.000000 0.000000 2.016610 
# 
# From -- ./inp_files/16073.got.cif
#   From: 2010.05.17/outbox.cif.g08.bks.cpg/sg62_9_cif.got.tgz:16073.got - 2010.06.03 15:25:27.
