data_PCOD9463135
_publ_section_title
;
Structure prediction by ZEFSAII (Michael W. Deem and Ramdas Pophale) SiO2 
 PCOD9463135
Probable space group: P N M A
;
_chemical_formula_sum "Si O2"
_cell_formula_units_Z 56
_cell_length_a 5.509765
_cell_length_b 24.270744
_cell_length_c 20.842568
_cell_angle_alpha 90.000000
_cell_angle_beta 90.000000
_cell_angle_gamma 90.000000
_cell_volume 2787.195245
_symmetry_space_group_name_H-M "P N M A"
_symmetry_group_IT_number 62
_symmetry_cell_setting 'orthorhombic'
loop_
_space_group_symop_operation_xyz
x,y,z
1/2-x,-y,1/2+z
1/2+x,1/2-y,1/2-z
-x,1/2+y,-z
-x,-y,-z
1/2+x,y,1/2-z
1/2-x,1/2+y,1/2+z
x,1/2-y,z
loop_
_atom_site_type_symbol
_atom_site_label
_atom_site_fract_x
_atom_site_fract_y
_atom_site_fract_z
Si Si1 0.953370 0.750000 0.034416
Si Si2 0.863751 0.618051 0.282234
Si Si3 0.259596 0.979480 0.914140
Si Si4 0.313731 0.358690 0.578286
Si Si5 0.135935 0.433951 0.993243
Si Si6 0.331725 0.492978 0.267718
Si Si7 0.551011 0.250000 0.048111
Si Si8 0.000072 0.633924 0.551428
O O1 0.014525 0.695250 0.075932
O O2 0.177027 0.750000 0.982540
O O3 0.682016 0.750000 0.002747
O O4 0.620373 0.638168 0.245715
O O5 0.830724 0.634007 0.356133
O O6 0.858953 0.551614 0.269357
O O7 0.218727 0.999481 0.842760
O O8 0.407551 0.922444 0.916091
O O9 0.345407 0.030408 0.958765
O O10 0.009898 0.965346 0.951390
O O11 0.472950 0.412868 0.565176
O O12 0.143721 0.357511 0.515508
O O13 0.229989 0.379846 0.029103
O O14 0.592013 0.464368 0.260032
O O15 0.523402 0.307647 0.085498
#
# Coordination Sequence:
#
# PCOD9463135 Si02
#       8
#     4   8   8   8   8   8   4   8
#     4  10  20  36  56  85 112 151 194 252 285 346
#     4  10  22  36  54  77 104 153 202 240 278 338
#     4  10  22  34  52  88 118 152 196 237 303 353
#     4  10  21  35  57  81 113 155 203 241 303 347
#     4  10  19  34  55  83 119 153 184 244 297 368
#     4  10  22  37  55  77 111 157 193 237 276 348
#     4  10  20  38  58  87 116 149 196 226 307 350
#     4  10  21  34  59  84 117 151 186 249 293 367
#
# _framework density 20.091881999999998
#
# number of rings (size 3 to 8) (size 9 to 14) (size 15 to 20)
#    0.000    2.000    1.429    2.143    8.000    0.000 
#    0.000    0.714    0.000    0.000    0.000    1.000 
#    0.000    0.000    0.000    0.000    0.000    0.000 
#
# Total GULP energy -311787.387977 kJ/mol
# GULP energy per Si atom -5567.631928 kJ/mol
# Density = 2.004615 g / cm^3
# Si number density = 20.091882 Si / 1000 Ang^3
#
#
#
# Elastic Constant Matrix: (Units=GPa)
#
#
# Indices 1 2 3 4 5 6 
#
# 1 64.8874 -4.9235 3.7803 0.0000 0.0000 0.0000
# 2 -4.9235 77.1807 4.3226 0.0000 0.0000 0.0000
# 3 3.7803 4.3226 49.2719 0.0000 0.0000 0.0000
# 4 0.0000 0.0000 0.0000 14.2740 0.0000 0.0000
# 5 0.0000 0.0000 0.0000 0.0000 11.7114 0.0000
# 6 0.0000 0.0000 0.0000 0.0000 0.0000 24.8833
#
#
#
# Elastic Compliance Matrix: (Units=1/GPa)
#
#
# Indices 1 2 3 4 5 6 
#
# 1 0.015567 0.001065 -0.001288 0.000000 0.000000 0.000000
# 2 0.001065 0.013093 -0.001230 0.000000 0.000000 0.000000
# 3 -0.001288 -0.001230 0.020502 0.000000 0.000000 0.000000
# 4 0.000000 0.000000 0.000000 0.070057 0.000000 0.000000
# 5 0.000000 0.000000 0.000000 0.000000 0.085387 0.000000
# 6 0.000000 0.000000 0.000000 0.000000 0.000000 0.040188
#
#
# Mechanical properties :
#
#
# Convention : Reuss Voigt Hill
#
# Bulk Modulus (GPa) = 21.61841 21.96653 21.79247
# Shear Modulus (GPa) = 19.00276 22.71779 20.86028
#
# Velocity S-wave (km/s) = 3.07871 3.36623 3.22568
# Velocity P-wave (km/s) = 4.83953 5.10543 4.97426
#
# Compressibility (1/GPa) = 0.04625686
#
# Stress axis : x y z
#
# Youngs Moduli (GPa) = 64.23781 76.37392 48.77502
#
# Poissons Ratio (x) = -0.08135 0.06281
# Poissons Ratio (y) = -0.06843 0.06001
# Poissons Ratio (z) = 0.08273 0.09397
#
# Static dielectric constant tensor:
#      x y z
#    x 1.854470 0.000000 0.000000 
#    y 0.000000 1.844920 0.000000 
#    z 0.000000 0.000000 1.698400 
# 
# From -- ./inp_files/25398.got.cif
#   From: 2010.05.17/outbox.cif.g08.bks.cpg/sg62_13_cif.got.tgz:25398.got - 2010.06.03 15:25:27.
