data_PCOD9463282
_publ_section_title
;
Structure prediction by ZEFSAII (Michael W. Deem and Ramdas Pophale) SiO2 
 PCOD9463282
Probable space group: P N M A
;
_chemical_formula_sum "Si O2"
_cell_formula_units_Z 56
_cell_length_a 11.473842
_cell_length_b 15.974484
_cell_length_c 16.800419
_cell_angle_alpha 90.000000
_cell_angle_beta 90.000000
_cell_angle_gamma 90.000000
_cell_volume 3079.327049
_symmetry_space_group_name_H-M "P N M A"
_symmetry_group_IT_number 62
_symmetry_cell_setting 'orthorhombic'
loop_
_space_group_symop_operation_xyz
x,y,z
1/2-x,-y,1/2+z
1/2+x,1/2-y,1/2-z
-x,1/2+y,-z
-x,-y,-z
1/2+x,y,1/2-z
1/2-x,1/2+y,1/2+z
x,1/2-y,z
loop_
_atom_site_type_symbol
_atom_site_label
_atom_site_fract_x
_atom_site_fract_y
_atom_site_fract_z
Si Si1 0.920776 0.347744 0.325191
Si Si2 0.555615 0.909667 0.233756
Si Si3 0.931959 0.978289 0.580143
Si Si4 0.322687 0.524682 0.437516
Si Si5 0.319864 0.844610 0.579544
Si Si6 0.010657 0.569973 0.831105
Si Si7 0.308424 0.845884 0.291694
O O1 0.947326 0.250000 0.313901
O O2 0.803308 0.354519 0.376439
O O3 0.018662 0.396655 0.375610
O O4 0.909418 0.394322 0.240165
O O5 0.431329 0.862445 0.245578
O O6 0.680012 0.863275 0.247001
O O7 0.554552 0.947217 0.144667
O O8 0.552485 0.988954 0.293450
O O9 0.796852 0.973584 0.558500
O O10 0.000000 0.000000 0.500000
O O11 0.335171 0.582428 0.514702
O O12 0.421987 0.461139 0.409311
O O13 0.314156 0.589908 0.364573
O O14 0.326500 0.750000 0.546447
O O15 0.419221 0.859759 0.644724
O O16 0.308599 0.750000 0.317783
#
# Coordination Sequence:
#
# PCOD9463282 Si02
#       7
#     8   8   8   8   8   8   8
#     4  10  22  37  57  87 117 149 194 242 288 339
#     4   9  21  32  56  80 108 148 193 238 283 348
#     4  10  19  36  58  79 112 147 190 234 284 336
#     4  10  21  37  58  84 110 153 189 235 283 352
#     4  11  22  37  59  85 115 150 190 240 291 344
#     4  10  22  37  58  82 115 152 194 232 291 347
#     4  10  19  35  53  80 112 146 190 242 290 336
#
# _framework density 18.185790000000001
#
# number of rings (size 3 to 8) (size 9 to 14) (size 15 to 20)
#    0.000    2.000    1.429    1.714   10.000    0.000 
#    0.000    1.429    0.000    0.000    0.000    0.000 
#    0.000    0.000    0.000    0.000    0.000    0.000 
#
# Total GULP energy -312017.631741 kJ/mol
# GULP energy per Si atom -5571.743424 kJ/mol
# Density = 1.814440 g / cm^3
# Si number density = 18.185790 Si / 1000 Ang^3
#
#
#
# Elastic Constant Matrix: (Units=GPa)
#
#
# Indices 1 2 3 4 5 6 
#
# 1 107.2331 36.3215 23.3184 0.0000 0.0000 0.0000
# 2 36.3215 80.3256 5.2656 0.0000 0.0000 0.0000
# 3 23.3184 5.2656 50.9690 0.0000 0.0000 0.0000
# 4 0.0000 0.0000 0.0000 15.2560 0.0000 0.0000
# 5 0.0000 0.0000 0.0000 0.0000 23.4102 0.0000
# 6 0.0000 0.0000 0.0000 0.0000 0.0000 17.5871
#
#
#
# Elastic Compliance Matrix: (Units=1/GPa)
#
#
# Indices 1 2 3 4 5 6 
#
# 1 0.012173 -0.005174 -0.005035 0.000000 0.000000 0.000000
# 2 -0.005174 0.014734 0.000845 0.000000 0.000000 0.000000
# 3 -0.005035 0.000845 0.021836 0.000000 0.000000 0.000000
# 4 0.000000 0.000000 0.000000 0.065548 0.000000 0.000000
# 5 0.000000 0.000000 0.000000 0.000000 0.042716 0.000000
# 6 0.000000 0.000000 0.000000 0.000000 0.000000 0.056860
#
#
# Mechanical properties :
#
#
# Convention : Reuss Voigt Hill
#
# Bulk Modulus (GPa) = 33.31683 40.92651 37.12167
# Shear Modulus (GPa) = 20.61016 22.82549 21.71783
#
# Velocity S-wave (km/s) = 3.37012 3.54662 3.45950
# Velocity P-wave (km/s) = 5.78823 6.27096 6.03442
#
# Compressibility (1/GPa) = 0.03001486
#
# Stress axis : x y z
#
# Youngs Moduli (GPa) = 82.14981 67.87193 45.79638
#
# Poissons Ratio (x) = 0.35119 0.23056
# Poissons Ratio (y) = 0.42507 -0.03870
# Poissons Ratio (z) = 0.41359 -0.05736
#
# Static dielectric constant tensor:
#      x y z
#    x 1.655690 0.000000 0.000000 
#    y 0.000000 1.604680 0.000000 
#    z 0.000000 0.000000 1.618650 
# 
# From -- ./inp_files/18119.got.cif
#   From: 2010.05.17/outbox.cif.g08.bks.cpg/sg62_10_cif.got.tgz:18119.got - 2010.06.03 15:25:27.
