data_PCOD9463448
_publ_section_title
;
Structure prediction by ZEFSAII (Michael W. Deem and Ramdas Pophale) SiO2 
 PCOD9463448
Probable space group: P N M A
;
_chemical_formula_sum "Si O2"
_cell_formula_units_Z 48
_cell_length_a 15.448197
_cell_length_b 7.832805
_cell_length_c 19.283088
_cell_angle_alpha 90.000000
_cell_angle_beta 90.000000
_cell_angle_gamma 90.000000
_cell_volume 2333.305996
_symmetry_space_group_name_H-M "P N M A"
_symmetry_group_IT_number 62
_symmetry_cell_setting 'orthorhombic'
loop_
_space_group_symop_operation_xyz
x,y,z
1/2-x,-y,1/2+z
1/2+x,1/2-y,1/2-z
-x,1/2+y,-z
-x,-y,-z
1/2+x,y,1/2-z
1/2-x,1/2+y,1/2+z
x,1/2-y,z
loop_
_atom_site_type_symbol
_atom_site_label
_atom_site_fract_x
_atom_site_fract_y
_atom_site_fract_z
Si Si1 0.510303 0.040710 0.285854
Si Si2 0.365379 0.040676 0.175505
Si Si3 0.300464 0.546901 0.756333
Si Si4 0.902205 0.044155 0.479964
Si Si5 0.242953 0.547470 0.413098
Si Si6 0.060005 0.953567 0.934888
O O1 0.510756 0.250000 0.286596
O O2 0.440310 0.988376 0.228625
O O3 0.604878 0.979655 0.262737
O O4 0.481486 0.983251 0.362366
O O5 0.364952 0.250000 0.175137
O O6 0.274396 0.979982 0.206180
O O7 0.382395 0.982520 0.097615
O O8 0.304458 0.750000 0.745133
O O9 0.272722 0.520946 0.835779
O O10 0.895466 0.250000 0.478952
O O11 0.830777 0.979735 0.534687
O O12 0.000000 0.000000 0.500000
O O13 0.232350 0.750000 0.408809
O O14 0.340416 0.512836 0.438950
O O15 0.062849 0.750000 0.930643
O O16 0.000000 0.000000 0.000000
#
# Coordination Sequence:
#
# PCOD9463448 Si02
#       6
#     8   8   8   8   8   8
#     4   9  18  33  59  87 108 141 194 245 286 342
#     4   9  17  33  56  84 109 141 193 240 280 339
#     4  10  19  35  62  85 108 149 198 243 287 346
#     4  10  22  38  60  87 118 154 196 243 295 354
#     4  11  23  39  59  89 126 158 190 243 307 361
#     4  11  23  40  61  87 119 160 207 251 298 357
#
# _framework density 20.571670999999998
#
# number of rings (size 3 to 8) (size 9 to 14) (size 15 to 20)
#    0.000    2.000    1.667    2.000    2.333    2.667 
#    0.000    2.500    0.000    0.000    0.000    0.000 
#    0.000    0.000    0.000    0.000    0.000    0.000 
#
# Total GULP energy -268163.090711 kJ/mol
# GULP energy per Si atom -5586.731056 kJ/mol
# Density = 2.052485 g / cm^3
# Si number density = 20.571671 Si / 1000 Ang^3
#
#
#
# Elastic Constant Matrix: (Units=GPa)
#
#
# Indices 1 2 3 4 5 6 
#
# 1 170.8151 -3.1353 58.1571 0.0000 0.0000 0.0000
# 2 -3.1353 17.4029 -7.0999 0.0000 0.0000 0.0000
# 3 58.1571 -7.0999 126.3331 0.0000 0.0000 0.0000
# 4 0.0000 0.0000 0.0000 22.0231 0.0000 0.0000
# 5 0.0000 0.0000 0.0000 0.0000 43.0862 0.0000
# 6 0.0000 0.0000 0.0000 0.0000 0.0000 15.0737
#
#
#
# Elastic Compliance Matrix: (Units=1/GPa)
#
#
# Indices 1 2 3 4 5 6 
#
# 1 0.006942 -0.000054 -0.003199 0.000000 0.000000 0.000000
# 2 -0.000054 0.058810 0.003330 0.000000 0.000000 0.000000
# 3 -0.003199 0.003330 0.009575 0.000000 0.000000 0.000000
# 4 0.000000 0.000000 0.000000 0.045407 0.000000 0.000000
# 5 0.000000 0.000000 0.000000 0.000000 0.023209 0.000000
# 6 0.000000 0.000000 0.000000 0.000000 0.000000 0.066341
#
#
# Mechanical properties :
#
#
# Convention : Reuss Voigt Hill
#
# Bulk Modulus (GPa) = 13.24822 45.59942 29.42382
# Shear Modulus (GPa) = 21.25020 33.81189 27.53105
#
# Velocity S-wave (km/s) = 3.21749 4.05855 3.66225
# Velocity P-wave (km/s) = 4.50078 6.64655 5.67599
#
# Compressibility (1/GPa) = 0.07548183
#
# Stress axis : x y z
#
# Youngs Moduli (GPa) = 144.04159 17.00380 104.43449
#
# Poissons Ratio (x) = 0.00092 0.33408
# Poissons Ratio (y) = 0.00783 -0.34778
# Poissons Ratio (z) = 0.46079 -0.05663
#
# Static dielectric constant tensor:
#      x y z
#    x 1.773460 0.000000 0.000000 
#    y 0.000000 1.750740 0.000000 
#    z 0.000000 0.000000 1.681600 
# 
# From -- ./inp_files/23698.got.cif
#   From: 2010.05.17/outbox.cif.g08.bks.cpg/sg62_12_cif.got.tgz:23698.got - 2010.06.03 15:25:27.
