data_PCOD9463192
_publ_section_title
;
Structure prediction by ZEFSAII (Michael W. Deem and Ramdas Pophale) SiO2 
 PCOD9463192
Probable space group: P N M A
;
_chemical_formula_sum "Si O2"
_cell_formula_units_Z 64
_cell_length_a 20.681426
_cell_length_b 7.696337
_cell_length_c 19.050548
_cell_angle_alpha 90.000000
_cell_angle_beta 90.000000
_cell_angle_gamma 90.000000
_cell_volume 3032.299046
_symmetry_space_group_name_H-M "P N M A"
_symmetry_group_IT_number 62
_symmetry_cell_setting 'orthorhombic'
loop_
_space_group_symop_operation_xyz
x,y,z
1/2-x,-y,1/2+z
1/2+x,1/2-y,1/2-z
-x,1/2+y,-z
-x,-y,-z
1/2+x,y,1/2-z
1/2-x,1/2+y,1/2+z
x,1/2-y,z
loop_
_atom_site_type_symbol
_atom_site_label
_atom_site_fract_x
_atom_site_fract_y
_atom_site_fract_z
Si Si1 0.347697 0.039939 0.298467
Si Si2 0.944206 0.458684 0.445072
Si Si3 0.094644 0.050556 0.202178
Si Si4 0.442957 0.054295 0.552214
Si Si5 0.739810 0.037354 0.312209
Si Si6 0.474107 0.036448 0.212896
Si Si7 0.299714 0.038166 0.037954
Si Si8 0.823809 0.954479 0.041023
O O1 0.348037 0.250000 0.298843
O O2 0.287686 0.983855 0.249992
O O3 0.414359 0.982925 0.262140
O O4 0.340157 0.980398 0.377973
O O5 0.939575 0.250000 0.440303
O O6 0.961504 0.520349 0.366703
O O7 0.873295 0.523830 0.467962
O O8 0.000000 0.500000 0.500000
O O9 0.103908 0.250000 0.224662
O O10 0.166526 0.973299 0.197556
O O11 0.041763 0.973940 0.254818
O O12 0.064763 0.050574 0.123954
O O13 0.455478 0.250000 0.574951
O O14 0.500000 0.000000 0.500000
O O15 0.376884 0.042575 0.508290
O O16 0.738537 0.250000 0.313698
O O17 0.769931 0.985456 0.386909
O O18 0.474705 0.250000 0.213731
O O19 0.301836 0.250000 0.037008
O O20 0.248231 0.984323 0.979009
O O21 0.827914 0.750000 0.024139
#
# Coordination Sequence:
#
# PCOD9463192 Si02
#       8
#     8   8   8   8   8   8   8   8
#     4  10  19  34  57  84 112 149 195 240 287 342
#     4  10  20  37  60  86 114 151 197 238 287 345
#     4  10  19  34  57  84 111 147 195 243 289 340
#     4  12  24  38  56  82 116 154 191 236 291 353
#     4   9  16  31  57  80 104 149 197 232 277 347
#     4   9  18  33  56  81 109 146 190 235 280 340
#     4   9  17  34  59  80 108 155 198 231 279 352
#     4  11  22  37  58  85 116 152 196 244 295 351
#
# _framework density 21.106096000000001
#
# number of rings (size 3 to 8) (size 9 to 14) (size 15 to 20)
#    0.000    2.000    2.500    2.250    0.000    2.000 
#    0.000    4.375    0.000    0.000    0.000    0.000 
#    0.000    0.000    0.000    0.000    0.000    0.000 
#
# Total GULP energy -357549.098405 kJ/mol
# GULP energy per Si atom -5586.704663 kJ/mol
# Density = 2.105806 g / cm^3
# Si number density = 21.106096 Si / 1000 Ang^3
#
#
#
# Elastic Constant Matrix: (Units=GPa)
#
#
# Indices 1 2 3 4 5 6 
#
# 1 185.1858 4.2694 57.2576 0.0000 0.0000 0.0000
# 2 4.2694 39.6561 -7.5113 0.0000 0.0000 0.0000
# 3 57.2576 -7.5113 101.1260 0.0000 0.0000 0.0000
# 4 0.0000 0.0000 0.0000 14.2412 0.0000 0.0000
# 5 0.0000 0.0000 0.0000 0.0000 43.1138 0.0000
# 6 0.0000 0.0000 0.0000 0.0000 0.0000 10.0459
#
#
#
# Elastic Compliance Matrix: (Units=1/GPa)
#
#
# Indices 1 2 3 4 5 6 
#
# 1 0.006627 -0.001444 -0.003859 0.000000 0.000000 0.000000
# 2 -0.001444 0.025891 0.002741 0.000000 0.000000 0.000000
# 3 -0.003859 0.002741 0.012277 0.000000 0.000000 0.000000
# 4 0.000000 0.000000 0.000000 0.070219 0.000000 0.000000
# 5 0.000000 0.000000 0.000000 0.000000 0.023194 0.000000
# 6 0.000000 0.000000 0.000000 0.000000 0.000000 0.099543
#
#
# Mechanical properties :
#
#
# Convention : Reuss Voigt Hill
#
# Bulk Modulus (GPa) = 25.20794 48.22212 36.71503
# Shear Modulus (GPa) = 19.52360 31.61032 25.56696
#
# Velocity S-wave (km/s) = 3.04472 3.87419 3.48423
# Velocity P-wave (km/s) = 4.93252 6.55054 5.79825
#
# Compressibility (1/GPa) = 0.03967004
#
# Stress axis : x y z
#
# Youngs Moduli (GPa) = 150.90891 38.62272 81.45089
#
# Poissons Ratio (x) = 0.05579 0.31434
# Poissons Ratio (y) = 0.21797 -0.22325
# Poissons Ratio (z) = 0.58239 -0.10586
#
# Static dielectric constant tensor:
#      x y z
#    x 1.764830 0.000000 0.000000 
#    y 0.000000 1.792400 0.000000 
#    z 0.000000 0.000000 1.742590 
# 
# From -- ./inp_files/24753.got.cif
#   From: 2010.05.17/outbox.cif.g08.bks.cpg/sg62_13_cif.got.tgz:24753.got - 2010.06.03 15:25:27.
