data_PCOD9463905
_publ_section_title
;
Structure prediction by ZEFSAII (Michael W. Deem and Ramdas Pophale) SiO2 
 PCOD9463905
Probable space group: P N M A
;
_chemical_formula_sum "Si O2"
_cell_formula_units_Z 48
_cell_length_a 12.807522
_cell_length_b 17.630918
_cell_length_c 8.519783
_cell_angle_alpha 90.000000
_cell_angle_beta 90.000000
_cell_angle_gamma 90.000000
_cell_volume 1923.838313
_symmetry_space_group_name_H-M "P N M A"
_symmetry_group_IT_number 62
_symmetry_cell_setting 'orthorhombic'
loop_
_space_group_symop_operation_xyz
x,y,z
1/2-x,-y,1/2+z
1/2+x,1/2-y,1/2-z
-x,1/2+y,-z
-x,-y,-z
1/2+x,y,1/2-z
1/2-x,1/2+y,1/2+z
x,1/2-y,z
loop_
_atom_site_type_symbol
_atom_site_label
_atom_site_fract_x
_atom_site_fract_y
_atom_site_fract_z
Si Si1 0.505026 0.660174 0.510231
Si Si2 0.695243 0.562792 0.075485
Si Si3 0.856951 0.664378 0.616584
Si Si4 0.365167 0.660648 0.237424
Si Si5 0.853738 0.540777 0.843516
Si Si6 0.395844 0.166074 0.192210
O O1 0.469372 0.750000 0.536500
O O2 0.477739 0.653208 0.324973
O O3 0.447055 0.583158 0.569294
O O4 0.609135 0.656382 0.616488
O O5 0.774621 0.510537 0.973818
O O6 0.633228 0.606290 0.941228
O O7 0.775349 0.619219 0.163761
O O8 0.628776 0.518805 0.205418
O O9 0.817511 0.750000 0.615853
O O10 0.862336 0.633472 0.440751
O O11 0.803366 0.612114 0.747145
O O12 0.977493 0.668209 0.672112
O O13 0.341879 0.750000 0.233713
O O14 0.355561 0.250000 0.148860
#
# Coordination Sequence:
#
# PCOD9463905 Si02
#       6
#     8   8   8   8   8   8
#     4   8  16  32  52  73  98 130 166 202 250 309
#     4  11  21  33  51  74 103 134 172 215 249 289
#     4   9  18  34  55  76 100 132 168 204 252 312
#     4   9  17  32  53  74 100 135 167 201 252 309
#     4  10  20  33  49  70 100 136 169 201 248 302
#     4   9  18  33  54  78  99 124 164 211 251 290
#
# _framework density 24.950120999999999
#
# number of rings (size 3 to 8) (size 9 to 14) (size 15 to 20)
#    0.000    2.667    0.000    3.000    0.000    4.667 
#    0.000    3.333    0.000   12.000    0.000    0.000 
#    0.000    0.000    0.000    0.000    0.000    0.000 
#
# Total GULP energy -267206.329361 kJ/mol
# GULP energy per Si atom -5566.798528 kJ/mol
# Density = 2.489333 g / cm^3
# Si number density = 24.950121 Si / 1000 Ang^3
#
#
#
# Elastic Constant Matrix: (Units=GPa)
#
#
# Indices 1 2 3 4 5 6 
#
# 1 21.1553 3.0741 -5.0140 0.0000 0.0000 0.0000
# 2 3.0741 77.7960 16.4175 0.0000 0.0000 0.0000
# 3 -5.0140 16.4175 92.4774 0.0000 0.0000 0.0000
# 4 0.0000 0.0000 0.0000 38.4014 0.0000 0.0000
# 5 0.0000 0.0000 0.0000 0.0000 20.2489 0.0000
# 6 0.0000 0.0000 0.0000 0.0000 0.0000 21.7407
#
#
#
# Elastic Compliance Matrix: (Units=1/GPa)
#
#
# Indices 1 2 3 4 5 6 
#
# 1 0.048371 -0.002561 0.003077 0.000000 0.000000 0.000000
# 2 -0.002561 0.013490 -0.002534 0.000000 0.000000 0.000000
# 3 0.003077 -0.002534 0.011430 0.000000 0.000000 0.000000
# 4 0.000000 0.000000 0.000000 0.026041 0.000000 0.000000
# 5 0.000000 0.000000 0.000000 0.000000 0.049385 0.000000
# 6 0.000000 0.000000 0.000000 0.000000 0.000000 0.045997
#
#
# Mechanical properties :
#
#
# Convention : Reuss Voigt Hill
#
# Bulk Modulus (GPa) = 14.43905 24.48710 19.46307
# Shear Modulus (GPa) = 22.53937 27.87493 25.20715
#
# Velocity S-wave (km/s) = 3.00888 3.34612 3.18197
# Velocity P-wave (km/s) = 4.22740 4.97639 4.61711
#
# Compressibility (1/GPa) = 0.06925662
#
# Stress axis : x y z
#
# Youngs Moduli (GPa) = 20.67353 74.12888 87.48821
#
# Poissons Ratio (x) = 0.18983 -0.26922
# Poissons Ratio (y) = 0.05294 0.22167
# Poissons Ratio (z) = -0.06362 0.18782
#
# Static dielectric constant tensor:
#      x y z
#    x 2.102740 0.000000 0.000000 
#    y 0.000000 1.984390 0.000000 
#    z 0.000000 0.000000 2.035280 
# 
# From -- ./inp_files/7646.got.cif
#   From: 2010.05.17/outbox.cif.g08.bks.cpg/sg62_4_cif.got.tgz:7646.got - 2010.06.03 15:25:27.
