data_PCOD9463151
_publ_section_title
;
Structure prediction by ZEFSAII (Michael W. Deem and Ramdas Pophale) SiO2 
 PCOD9463151
Probable space group: P N M A
;
_chemical_formula_sum "Si O2"
_cell_formula_units_Z 40
_cell_length_a 12.681694
_cell_length_b 17.859977
_cell_length_c 7.583885
_cell_angle_alpha 90.000000
_cell_angle_beta 90.000000
_cell_angle_gamma 90.000000
_cell_volume 1717.710237
_symmetry_space_group_name_H-M "P N M A"
_symmetry_group_IT_number 62
_symmetry_cell_setting 'orthorhombic'
loop_
_space_group_symop_operation_xyz
x,y,z
1/2-x,-y,1/2+z
1/2+x,1/2-y,1/2-z
-x,1/2+y,-z
-x,-y,-z
1/2+x,y,1/2-z
1/2-x,1/2+y,1/2+z
x,1/2-y,z
loop_
_atom_site_type_symbol
_atom_site_label
_atom_site_fract_x
_atom_site_fract_y
_atom_site_fract_z
Si Si1 0.038472 0.044613 0.825987
Si Si2 0.393613 0.110179 0.276757
Si Si3 0.897206 0.831744 0.965620
Si Si4 0.697008 0.166527 0.081320
Si Si5 0.464196 0.335968 0.918113
O O1 0.955560 0.097905 0.725207
O O2 0.079402 0.974399 0.716556
O O3 0.125686 0.102768 0.897294
O O4 0.000000 0.000000 0.000000
O O5 0.486137 0.150372 0.389002
O O6 0.294374 0.110389 0.409141
O O7 0.392007 0.154028 0.090959
O O8 0.891137 0.750000 0.048065
O O9 0.830982 0.832200 0.788766
O O10 0.733618 0.250000 0.029026
O O11 0.586200 0.152799 0.985187
O O12 0.452041 0.250000 0.855801
#
# Coordination Sequence:
#
# PCOD9463151 Si02
#       5
#     8   8   8   8   8
#     4  10  21  35  53  80 114 150 186 231 283 335
#     4  10  19  34  56  81 109 140 184 239 288 331
#     4   9  18  34  53  74 106 144 182 229 279 329
#     4   9  18  33  55  80 105 142 191 235 281 335
#     4  10  20  36  58  81 111 152 194 234 280 340
#
# _framework density 23.286815000000001
#
# number of rings (size 3 to 8) (size 9 to 14) (size 15 to 20)
#    0.000    2.400    0.000    4.200    0.000    1.600 
#    0.000    4.000    0.000    7.200    0.000    0.000 
#    0.000    0.000    0.000    0.000    0.000    0.000 
#
# Total GULP energy -222760.139381 kJ/mol
# GULP energy per Si atom -5569.003485 kJ/mol
# Density = 2.323381 g / cm^3
# Si number density = 23.286815 Si / 1000 Ang^3
#
#
#
# Elastic Constant Matrix: (Units=GPa)
#
#
# Indices 1 2 3 4 5 6 
#
# 1 48.6016 10.7056 -0.7799 0.0000 0.0000 0.0000
# 2 10.7056 129.7228 9.7185 0.0000 0.0000 0.0000
# 3 -0.7799 9.7185 67.2726 0.0000 0.0000 0.0000
# 4 0.0000 0.0000 0.0000 33.0540 0.0000 0.0000
# 5 0.0000 0.0000 0.0000 0.0000 13.3319 0.0000
# 6 0.0000 0.0000 0.0000 0.0000 0.0000 5.6261
#
#
#
# Elastic Compliance Matrix: (Units=1/GPa)
#
#
# Indices 1 2 3 4 5 6 
#
# 1 0.020973 -0.001768 0.000499 0.000000 0.000000 0.000000
# 2 -0.001768 0.007942 -0.001168 0.000000 0.000000 0.000000
# 3 0.000499 -0.001168 0.015039 0.000000 0.000000 0.000000
# 4 0.000000 0.000000 0.000000 0.030253 0.000000 0.000000
# 5 0.000000 0.000000 0.000000 0.000000 0.075008 0.000000
# 6 0.000000 0.000000 0.000000 0.000000 0.000000 0.177744
#
#
# Mechanical properties :
#
#
# Convention : Reuss Voigt Hill
#
# Bulk Modulus (GPa) = 25.58881 31.65392 28.62136
# Shear Modulus (GPa) = 14.49858 25.46592 19.98225
#
# Velocity S-wave (km/s) = 2.49792 3.31051 2.93250
# Velocity P-wave (km/s) = 4.39680 5.31369 4.87684
#
# Compressibility (1/GPa) = 0.03907959
#
# Stress axis : x y z
#
# Youngs Moduli (GPa) = 47.68051 125.91029 66.49205
#
# Poissons Ratio (x) = 0.22263 -0.03315
# Poissons Ratio (y) = 0.08431 0.07765
# Poissons Ratio (z) = -0.02377 0.14705
#
# Static dielectric constant tensor:
#      x y z
#    x 1.929280 0.000000 0.000000 
#    y 0.000000 1.961340 0.000000 
#    z 0.000000 0.000000 1.938870 
# 
# From -- ./inp_files/6258.got.cif
#   From: 2010.05.17/outbox.cif.g08.bks.cpg/sg62_4_cif.got.tgz:6258.got - 2010.06.03 15:25:27.
