data_PCOD9463701
_publ_section_title
;
Structure prediction by ZEFSAII (Michael W. Deem and Ramdas Pophale) SiO2 
 PCOD9463701
Probable space group: P N M A
;
_chemical_formula_sum "Si O2"
_cell_formula_units_Z 56
_cell_length_a 15.504984
_cell_length_b 15.314929
_cell_length_c 11.001659
_cell_angle_alpha 90.000000
_cell_angle_beta 90.000000
_cell_angle_gamma 90.000000
_cell_volume 2612.428963
_symmetry_space_group_name_H-M "P N M A"
_symmetry_group_IT_number 62
_symmetry_cell_setting 'orthorhombic'
loop_
_space_group_symop_operation_xyz
x,y,z
1/2-x,-y,1/2+z
1/2+x,1/2-y,1/2-z
-x,1/2+y,-z
-x,-y,-z
1/2+x,y,1/2-z
1/2-x,1/2+y,1/2+z
x,1/2-y,z
loop_
_atom_site_type_symbol
_atom_site_label
_atom_site_fract_x
_atom_site_fract_y
_atom_site_fract_z
Si Si1 0.611815 0.345167 0.035586
Si Si2 0.956923 0.356845 0.184751
Si Si3 0.183334 0.849954 0.012225
Si Si4 0.861853 0.886348 0.803091
Si Si5 0.734568 0.941143 0.254097
Si Si6 0.901966 0.487859 0.390996
Si Si7 0.281518 0.150483 0.993277
O O1 0.585091 0.250000 0.984239
O O2 0.607907 0.337881 0.181042
O O3 0.715174 0.355466 0.017237
O O4 0.566384 0.428309 0.970457
O O5 0.948976 0.250000 0.207875
O O6 0.952032 0.423956 0.298645
O O7 0.048485 0.381073 0.123246
O O8 0.877150 0.382567 0.096358
O O9 0.159034 0.750000 0.025889
O O10 0.178320 0.893560 0.142584
O O11 0.822210 0.972240 0.740299
O O12 0.787602 0.855434 0.895927
O O13 0.825785 0.969345 0.309885
O O14 0.752176 0.882898 0.136468
O O15 0.855887 0.418638 0.478724
O O16 0.311428 0.250000 0.986683
#
# Coordination Sequence:
#
# PCOD9463701 Si02
#       7
#     8   8   8   8   8   8   8
#     4  10  19  38  62  87 119 162 214 262 305 360
#     4  11  23  39  61  92 128 165 205 252 311 375
#     4   9  19  36  61  87 118 164 207 250 309 370
#     4  11  23  38  61  91 125 163 204 256 312 368
#     4  10  21  38  60  89 121 156 208 259 309 364
#     4  10  22  37  61  88 119 162 212 252 305 372
#     4  11  21  38  64  93 121 157 210 266 303 355
#
# _framework density 21.435987999999998
#
# number of rings (size 3 to 8) (size 9 to 14) (size 15 to 20)
#    0.000    1.714    1.429    3.857    4.000    2.857 
#    0.000    0.000    0.000    0.857    0.000    0.000 
#    0.000    0.000    0.000    0.000    0.000    0.000 
#
# Total GULP energy -311793.816125 kJ/mol
# GULP energy per Si atom -5567.746717 kJ/mol
# Density = 2.138720 g / cm^3
# Si number density = 21.435988 Si / 1000 Ang^3
#
#
#
# Elastic Constant Matrix: (Units=GPa)
#
#
# Indices 1 2 3 4 5 6 
#
# 1 34.6927 28.7796 9.7306 0.0000 0.0000 0.0000
# 2 28.7796 140.8670 72.2527 0.0000 0.0000 0.0000
# 3 9.7306 72.2527 91.0078 0.0000 0.0000 0.0000
# 4 0.0000 0.0000 0.0000 -41.3628 0.0000 0.0000
# 5 0.0000 0.0000 0.0000 0.0000 17.3346 0.0000
# 6 0.0000 0.0000 0.0000 0.0000 0.0000 10.4659
#
#
#
# Elastic Compliance Matrix: (Units=1/GPa)
#
#
# Indices 1 2 3 4 5 6 
#
# 1 0.035281 -0.008896 0.003290 0.000000 0.000000 0.000000
# 2 -0.008896 0.014218 -0.010337 0.000000 0.000000 0.000000
# 3 0.003290 -0.010337 0.018843 0.000000 0.000000 0.000000
# 4 0.000000 0.000000 0.000000 -0.024176 0.000000 0.000000
# 5 0.000000 0.000000 0.000000 0.000000 0.057688 0.000000
# 6 0.000000 0.000000 0.000000 0.000000 0.000000 0.095549
#
#
# Mechanical properties :
#
#
# Convention : Reuss Voigt Hill
#
# Bulk Modulus (GPa) = 27.42928 54.23259 40.83094
# Shear Modulus (GPa) = 20.70904 7.67450 14.19177
#
# Velocity S-wave (km/s) = 3.11157 1.89419 2.57583
# Velocity P-wave (km/s) = 5.07275 5.48987 5.28543
#
# Compressibility (1/GPa) = 0.03645739
#
# Stress axis : x y z
#
# Youngs Moduli (GPa) = 28.34378 70.33188 53.06996
#
# Poissons Ratio (x) = 0.62564 -0.17460
# Poissons Ratio (y) = 0.25213 0.54859
# Poissons Ratio (z) = -0.09325 0.72702
#
# Static dielectric constant tensor:
#      x y z
#    x 1.804120 0.000000 0.000000 
#    y 0.000000 2.147470 0.000000 
#    z 0.000000 0.000000 1.869000 
# 
# From -- ./inp_files/13361.got.cif
#   From: 2010.05.17/outbox.cif.g08.bks.cpg/sg62_7_cif.got.tgz:13361.got - 2010.06.03 15:25:27.
