data_PCOD9463464
_publ_section_title
;
Structure prediction by ZEFSAII (Michael W. Deem and Ramdas Pophale) SiO2 
 PCOD9463464
Probable space group: P N M A
;
_chemical_formula_sum "Si O2"
_cell_formula_units_Z 40
_cell_length_a 9.095545
_cell_length_b 10.811467
_cell_length_c 21.619493
_cell_angle_alpha 90.000000
_cell_angle_beta 90.000000
_cell_angle_gamma 90.000000
_cell_volume 2125.978455
_symmetry_space_group_name_H-M "P N M A"
_symmetry_group_IT_number 62
_symmetry_cell_setting 'orthorhombic'
loop_
_space_group_symop_operation_xyz
x,y,z
1/2-x,-y,1/2+z
1/2+x,1/2-y,1/2-z
-x,1/2+y,-z
-x,-y,-z
1/2+x,y,1/2-z
1/2-x,1/2+y,1/2+z
x,1/2-y,z
loop_
_atom_site_type_symbol
_atom_site_label
_atom_site_fract_x
_atom_site_fract_y
_atom_site_fract_z
Si Si1 0.370971 0.983980 0.550087
Si Si2 0.889277 0.250000 0.923453
Si Si3 0.276269 0.750000 0.188024
Si Si4 0.779885 0.750000 0.017875
Si Si5 0.916992 0.250000 0.636088
Si Si6 0.000990 0.398376 0.182487
Si Si7 0.711808 0.534530 0.221507
O O1 0.273507 0.872669 0.524125
O O2 0.433608 0.945534 0.617093
O O3 0.500000 0.000000 0.500000
O O4 0.312524 0.123362 0.555553
O O5 0.877993 0.250000 0.848865
O O6 0.058293 0.250000 0.947743
O O7 0.408329 0.750000 0.139942
O O8 0.286140 0.870811 0.229932
O O9 0.656564 0.750000 0.069585
O O10 0.862784 0.372573 0.672639
O O11 0.002468 0.250000 0.183221
O O12 0.098197 0.452919 0.238774
O O13 0.836900 0.451288 0.190514
#
# Coordination Sequence:
#
# PCOD9463464 Si02
#       7
#     8   4   4   4   4   8   8
#     4  10  20  36  61  92 117 159 210 257 301 363
#     4  10  19  35  64  87 120 158 204 261 300 361
#     4  11  21  37  60  90 122 155 202 258 313 361
#     4  10  21  39  62  91 120 163 218 255 311 363
#     4  11  23  39  64  88 128 160 208 268 300 377
#     4  12  23  40  62  90 131 163 202 261 319 381
#     4  11  23  38  60  93 122 164 203 254 323 369
#
# _framework density 18.814867
#
# number of rings (size 3 to 8) (size 9 to 14) (size 15 to 20)
#    0.000    1.200    5.000    3.000    0.000    0.800 
#    0.000    1.000    0.000    0.000    0.000    0.000 
#    0.000    0.000    0.000    0.000    0.000    0.000 
#
# Total GULP energy -223207.847186 kJ/mol
# GULP energy per Si atom -5580.196180 kJ/mol
# Density = 1.877204 g / cm^3
# Si number density = 18.814867 Si / 1000 Ang^3
#
#
#
# Elastic Constant Matrix: (Units=GPa)
#
#
# Indices 1 2 3 4 5 6 
#
# 1 50.4455 28.5922 14.2186 0.0000 0.0000 0.0000
# 2 28.5922 184.7634 43.0530 0.0000 0.0000 0.0000
# 3 14.2186 43.0530 81.6897 0.0000 0.0000 0.0000
# 4 0.0000 0.0000 0.0000 28.1768 0.0000 0.0000
# 5 0.0000 0.0000 0.0000 0.0000 35.3481 0.0000
# 6 0.0000 0.0000 0.0000 0.0000 0.0000 10.5746
#
#
#
# Elastic Compliance Matrix: (Units=1/GPa)
#
#
# Indices 1 2 3 4 5 6 
#
# 1 0.022112 -0.002879 -0.002332 0.000000 0.000000 0.000000
# 2 -0.002879 0.006545 -0.002948 0.000000 0.000000 0.000000
# 3 -0.002332 -0.002948 0.014201 0.000000 0.000000 0.000000
# 4 0.000000 0.000000 0.000000 0.035490 0.000000 0.000000
# 5 0.000000 0.000000 0.000000 0.000000 0.028290 0.000000
# 6 0.000000 0.000000 0.000000 0.000000 0.000000 0.094567
#
#
# Mechanical properties :
#
#
# Convention : Reuss Voigt Hill
#
# Bulk Modulus (GPa) = 37.67751 54.29180 45.98466
# Shear Modulus (GPa) = 22.08785 30.22222 26.15503
#
# Velocity S-wave (km/s) = 3.43002 4.01221 3.73248
# Velocity P-wave (km/s) = 5.97960 7.09804 6.56269
#
# Compressibility (1/GPa) = 0.02654103
#
# Stress axis : x y z
#
# Youngs Moduli (GPa) = 45.22409 152.79351 70.41696
#
# Poissons Ratio (x) = 0.43982 0.16419
# Poissons Ratio (y) = 0.13018 0.20761
# Poissons Ratio (z) = 0.10545 0.45048
#
# Static dielectric constant tensor:
#      x y z
#    x 1.856830 0.000000 0.000000 
#    y 0.000000 1.680570 0.000000 
#    z 0.000000 0.000000 1.664270 
# 
# From -- ./inp_files/21971.got.cif
#   From: 2010.05.17/outbox.cif.g08.bks.cpg/sg62_11_cif.got.tgz:21971.got - 2010.06.03 15:25:27.
