data_PCOD9463673
_publ_section_title
;
Structure prediction by ZEFSAII (Michael W. Deem and Ramdas Pophale) SiO2 
 PCOD9463673
Probable space group: P N M A
;
_chemical_formula_sum "Si O2"
_cell_formula_units_Z 48
_cell_length_a 14.751391
_cell_length_b 8.598104
_cell_length_c 20.565900
_cell_angle_alpha 90.000000
_cell_angle_beta 90.000000
_cell_angle_gamma 90.000000
_cell_volume 2608.455236
_symmetry_space_group_name_H-M "P N M A"
_symmetry_group_IT_number 62
_symmetry_cell_setting 'orthorhombic'
loop_
_space_group_symop_operation_xyz
x,y,z
1/2-x,-y,1/2+z
1/2+x,1/2-y,1/2-z
-x,1/2+y,-z
-x,-y,-z
1/2+x,y,1/2-z
1/2-x,1/2+y,1/2+z
x,1/2-y,z
loop_
_atom_site_type_symbol
_atom_site_label
_atom_site_fract_x
_atom_site_fract_y
_atom_site_fract_z
Si Si1 0.022227 0.439106 0.271497
Si Si2 0.725017 0.062397 0.196937
Si Si3 0.829070 0.566217 0.072374
Si Si4 0.485215 0.563920 0.620491
Si Si5 0.833757 0.062638 0.329579
Si Si6 0.798198 0.433428 0.934712
O O1 0.022264 0.250000 0.270927
O O2 0.120396 0.487706 0.297265
O O3 0.009970 0.485767 0.196222
O O4 0.936330 0.488183 0.314122
O O5 0.728774 0.250000 0.188651
O O6 0.774882 0.027668 0.264987
O O7 0.776650 0.984939 0.137285
O O8 0.824051 0.750000 0.063305
O O9 0.933483 0.515060 0.081393
O O10 0.788473 0.482000 0.009473
O O11 0.497085 0.750000 0.617657
O O12 0.387470 0.519291 0.592820
O O13 0.832245 0.250000 0.337997
O O14 0.786446 0.984906 0.390932
O O15 0.812248 0.250000 0.929415
#
# Coordination Sequence:
#
# PCOD9463673 Si02
#       6
#     8   8   8   8   8   8
#     4   9  18  34  61  92 119 153 195 238 290 351
#     4  10  19  37  63  89 119 157 199 241 291 355
#     4  12  25  40  58  87 122 160 200 247 300 354
#     4  11  20  38  63  90 121 157 194 240 299 360
#     4  10  19  37  63  89 119 157 199 241 291 355
#     4  12  25  40  58  87 122 160 200 247 300 354
#
# _framework density 18.401696999999999
#
# number of rings (size 3 to 8) (size 9 to 14) (size 15 to 20)
#    0.000    1.333    3.333    4.000    0.000    0.667 
#    0.000    1.667    0.000    0.000    0.000    0.000 
#    0.000    0.000    0.000    0.000    0.000    0.000 
#
# Total GULP energy -268315.046286 kJ/mol
# GULP energy per Si atom -5589.896798 kJ/mol
# Density = 1.835981 g / cm^3
# Si number density = 18.401697 Si / 1000 Ang^3
#
#
#
# Elastic Constant Matrix: (Units=GPa)
#
#
# Indices 1 2 3 4 5 6 
#
# 1 73.4064 1.1351 -17.0925 0.0000 0.0000 0.0000
# 2 1.1351 13.5752 -1.3647 0.0000 0.0000 0.0000
# 3 -17.0925 -1.3647 34.1599 0.0000 0.0000 0.0000
# 4 0.0000 0.0000 0.0000 21.7115 0.0000 0.0000
# 5 0.0000 0.0000 0.0000 0.0000 24.0259 0.0000
# 6 0.0000 0.0000 0.0000 0.0000 0.0000 25.9529
#
#
#
# Elastic Compliance Matrix: (Units=1/GPa)
#
#
# Indices 1 2 3 4 5 6 
#
# 1 0.015423 -0.000516 0.007697 0.000000 0.000000 0.000000
# 2 -0.000516 0.073978 0.002697 0.000000 0.000000 0.000000
# 3 0.007697 0.002697 0.033233 0.000000 0.000000 0.000000
# 4 0.000000 0.000000 0.000000 0.046059 0.000000 0.000000
# 5 0.000000 0.000000 0.000000 0.000000 0.041622 0.000000
# 6 0.000000 0.000000 0.000000 0.000000 0.000000 0.038531
#
#
# Mechanical properties :
#
#
# Convention : Reuss Voigt Hill
#
# Bulk Modulus (GPa) = 7.02295 9.61079 8.31687
# Shear Modulus (GPa) = 18.07975 23.56898 20.82436
#
# Velocity S-wave (km/s) = 3.13789 3.58272 3.36766
# Velocity P-wave (km/s) = 4.11743 4.72743 4.43294
#
# Compressibility (1/GPa) = 0.14239022
#
# Stress axis : x y z
#
# Youngs Moduli (GPa) = 64.83870 13.51752 30.09066
#
# Poissons Ratio (x) = 0.00697 -0.23159
# Poissons Ratio (y) = 0.03344 -0.08117
# Poissons Ratio (z) = -0.49903 -0.03646
#
# Static dielectric constant tensor:
#      x y z
#    x 1.622750 0.000000 0.000000 
#    y 0.000000 1.620830 0.000000 
#    z 0.000000 0.000000 1.610730 
# 
# From -- ./inp_files/23767.got.cif
#   From: 2010.05.17/outbox.cif.g08.bks.cpg/sg62_12_cif.got.tgz:23767.got - 2010.06.03 15:25:27.
