data_PCOD9463117
_publ_section_title
;
Structure prediction by ZEFSAII (Michael W. Deem and Ramdas Pophale) SiO2 
 PCOD9463117
Probable space group: P N M A
;
_chemical_formula_sum "Si O2"
_cell_formula_units_Z 48
_cell_length_a 7.937323
_cell_length_b 7.833710
_cell_length_c 28.687154
_cell_angle_alpha 90.000000
_cell_angle_beta 90.000000
_cell_angle_gamma 90.000000
_cell_volume 1783.729557
_symmetry_space_group_name_H-M "P N M A"
_symmetry_group_IT_number 62
_symmetry_cell_setting 'orthorhombic'
loop_
_space_group_symop_operation_xyz
x,y,z
1/2-x,-y,1/2+z
1/2+x,1/2-y,1/2-z
-x,1/2+y,-z
-x,-y,-z
1/2+x,y,1/2-z
1/2-x,1/2+y,1/2+z
x,1/2-y,z
loop_
_atom_site_type_symbol
_atom_site_label
_atom_site_fract_x
_atom_site_fract_y
_atom_site_fract_z
Si Si1 0.524072 0.959177 0.095404
Si Si2 0.177948 0.055915 0.679097
Si Si3 0.785648 0.452022 0.508413
Si Si4 0.548566 0.043678 0.432073
Si Si5 0.521935 0.061940 0.257016
Si Si6 0.647861 0.451317 0.654501
O O1 0.516660 0.750000 0.094112
O O2 0.376820 0.021739 0.129611
O O3 0.567151 0.021561 0.042877
O O4 0.690758 0.006506 0.125032
O O5 0.233015 0.250000 0.671850
O O6 0.014873 0.058884 0.713529
O O7 0.314921 0.966874 0.711299
O O8 0.813417 0.250000 0.503822
O O9 0.614006 0.474919 0.539339
O O10 0.716468 0.522582 0.458942
O O11 0.548195 0.250000 0.434358
O O12 0.510529 0.987492 0.379653
O O13 0.519865 0.250000 0.237155
O O14 0.377869 0.040622 0.296443
O O15 0.657637 0.250000 0.662726
#
# Coordination Sequence:
#
# PCOD9463117 Si02
#       6
#     8   8   8   8   8   8
#     4   8  16  31  54  80 105 137 179 221 259 311
#     4  11  22  39  61  82 106 141 182 220 267 328
#     4   8  14  26  44  70 105 142 179 219 263 313
#     4   9  15  24  43  73 107 140 175 220 270 314
#     4  12  25  40  57  81 111 140 176 225 276 322
#     4  10  19  34  55  79 108 143 183 224 269 325
#
# _framework density 26.90991
#
# number of rings (size 3 to 8) (size 9 to 14) (size 15 to 20)
#    0.000    2.333    0.000    5.000    0.000    2.000 
#    0.000    7.500    0.000    1.000    0.000    0.000 
#    0.000    0.000    0.000    0.000    0.000    0.000 
#
# Total GULP energy -268592.694202 kJ/mol
# GULP energy per Si atom -5595.681129 kJ/mol
# Density = 2.684866 g / cm^3
# Si number density = 26.909910 Si / 1000 Ang^3
#
#
#
# Elastic Constant Matrix: (Units=GPa)
#
#
# Indices 1 2 3 4 5 6 
#
# 1 81.3381 11.6658 13.9485 0.0000 0.0000 0.0000
# 2 11.6658 89.2739 4.4802 0.0000 0.0000 0.0000
# 3 13.9485 4.4802 196.7194 0.0000 0.0000 0.0000
# 4 0.0000 0.0000 0.0000 30.5237 0.0000 0.0000
# 5 0.0000 0.0000 0.0000 0.0000 52.3879 0.0000
# 6 0.0000 0.0000 0.0000 0.0000 0.0000 29.1200
#
#
#
# Elastic Compliance Matrix: (Units=1/GPa)
#
#
# Indices 1 2 3 4 5 6 
#
# 1 0.012673 -0.001613 -0.000862 0.000000 0.000000 0.000000
# 2 -0.001613 0.011420 -0.000146 0.000000 0.000000 0.000000
# 3 -0.000862 -0.000146 0.005148 0.000000 0.000000 0.000000
# 4 0.000000 0.000000 0.000000 0.032761 0.000000 0.000000
# 5 0.000000 0.000000 0.000000 0.000000 0.019088 0.000000
# 6 0.000000 0.000000 0.000000 0.000000 0.000000 0.034341
#
#
# Mechanical properties :
#
#
# Convention : Reuss Voigt Hill
#
# Bulk Modulus (GPa) = 41.66675 47.50227 44.58451
# Shear Modulus (GPa) = 38.85844 44.88878 41.87361
#
# Velocity S-wave (km/s) = 3.80415 4.08869 3.94898
# Velocity P-wave (km/s) = 5.90024 6.32301 6.11528
#
# Compressibility (1/GPa) = 0.02399995
#
# Stress axis : x y z
#
# Youngs Moduli (GPa) = 78.90484 87.56906 194.25726
#
# Poissons Ratio (x) = 0.14124 0.16743
# Poissons Ratio (y) = 0.12726 0.02831
# Poissons Ratio (z) = 0.06801 0.01276
#
# Static dielectric constant tensor:
#      x y z
#    x 2.298140 0.000000 0.000000 
#    y 0.000000 1.915110 0.000000 
#    z 0.000000 0.000000 2.092250 
# 
# From -- ./inp_files/31991.got.cif
#   From: 2010.05.17/outbox.cif.g08.bks.cpg/sg62_16_cif.got.tgz:31991.got - 2010.06.03 15:25:27.
