data_PCOD9463861
_publ_section_title
;
Structure prediction by ZEFSAII (Michael W. Deem and Ramdas Pophale) SiO2 
 PCOD9463861
Probable space group: P N M A
;
_chemical_formula_sum "Si O2"
_cell_formula_units_Z 56
_cell_length_a 14.525090
_cell_length_b 8.754157
_cell_length_c 23.665768
_cell_angle_alpha 90.000000
_cell_angle_beta 90.000000
_cell_angle_gamma 90.000000
_cell_volume 3009.218797
_symmetry_space_group_name_H-M "P N M A"
_symmetry_group_IT_number 62
_symmetry_cell_setting 'orthorhombic'
loop_
_space_group_symop_operation_xyz
x,y,z
1/2-x,-y,1/2+z
1/2+x,1/2-y,1/2-z
-x,1/2+y,-z
-x,-y,-z
1/2+x,y,1/2-z
1/2-x,1/2+y,1/2+z
x,1/2-y,z
loop_
_atom_site_type_symbol
_atom_site_label
_atom_site_fract_x
_atom_site_fract_y
_atom_site_fract_z
Si Si1 0.102680 0.566559 0.001743
Si Si2 0.390820 0.428659 0.716747
Si Si3 0.397823 0.934569 0.839572
Si Si4 0.607375 0.566039 0.839166
Si Si5 0.611187 0.071947 0.716555
Si Si6 0.207013 0.067841 0.108893
Si Si7 0.712844 0.566230 0.609043
O O1 0.097087 0.750000 0.000791
O O2 0.160381 0.512649 0.946930
O O3 0.155271 0.513539 0.057832
O O4 0.000000 0.500000 0.000000
O O5 0.365408 0.250000 0.713967
O O6 0.371682 0.495081 0.778858
O O7 0.501018 0.440947 0.708474
O O8 0.341216 0.521265 0.667583
O O9 0.397160 0.750000 0.834361
O O10 0.502710 0.981966 0.852982
O O11 0.319743 0.979677 0.884353
O O12 0.608551 0.750000 0.834983
O O13 0.631912 0.500213 0.777543
O O14 0.685983 0.521904 0.883577
O O15 0.636000 0.250000 0.717233
O O16 0.661313 0.990590 0.664997
O O17 0.201295 0.250000 0.101233
O O18 0.709945 0.750000 0.608422
#
# Coordination Sequence:
#
# PCOD9463861 Si02
#       7
#     8   8   8   8   8   8   8
#     4  11  24  41  59  80 106 138 176 220 265 314
#     4  10  20  33  51  80 113 143 175 216 266 317
#     4   9  18  35  56  78 106 140 176 216 261 315
#     4   9  19  35  55  78 107 141 176 213 258 313
#     4  10  20  32  51  80 112 141 172 214 264 313
#     4  11  22  36  55  79 106 141 181 219 261 312
#     4  10  21  36  55  77 103 138 179 218 262 314
#
# _framework density 18.609482
#
# number of rings (size 3 to 8) (size 9 to 14) (size 15 to 20)
#    0.000    2.000    0.000    3.429    0.000   10.286 
#    0.000    0.714    0.000    0.000    0.000    0.000 
#    0.000    0.000    0.000    0.000    0.000    0.000 
#
# Total GULP energy -312747.113266 kJ/mol
# GULP energy per Si atom -5584.769880 kJ/mol
# Density = 1.856713 g / cm^3
# Si number density = 18.609482 Si / 1000 Ang^3
#
#
#
# Elastic Constant Matrix: (Units=GPa)
#
#
# Indices 1 2 3 4 5 6 
#
# 1 127.1544 34.2301 97.1423 0.0000 0.0000 0.0000
# 2 34.2301 25.0053 24.2591 0.0000 0.0000 0.0000
# 3 97.1423 24.2591 95.9390 0.0000 0.0000 0.0000
# 4 0.0000 0.0000 0.0000 26.6404 0.0000 0.0000
# 5 0.0000 0.0000 0.0000 0.0000 33.8886 0.0000
# 6 0.0000 0.0000 0.0000 0.0000 0.0000 21.0573
#
#
#
# Elastic Compliance Matrix: (Units=1/GPa)
#
#
# Indices 1 2 3 4 5 6 
#
# 1 0.041943 -0.021485 -0.037036 0.000000 0.000000 0.000000
# 2 -0.021485 0.063997 0.005572 0.000000 0.000000 0.000000
# 3 -0.037036 0.005572 0.046515 0.000000 0.000000 0.000000
# 4 0.000000 0.000000 0.000000 0.037537 0.000000 0.000000
# 5 0.000000 0.000000 0.000000 0.000000 0.029508 0.000000
# 6 0.000000 0.000000 0.000000 0.000000 0.000000 0.047490
#
#
# Mechanical properties :
#
#
# Convention : Reuss Voigt Hill
#
# Bulk Modulus (GPa) = 21.47922 62.15129 41.81526
# Shear Modulus (GPa) = 12.87313 22.48173 17.67743
#
# Velocity S-wave (km/s) = 2.63297 3.47951 3.08541
# Velocity P-wave (km/s) = 4.56185 7.04364 5.93394
#
# Compressibility (1/GPa) = 0.04655662
#
# Stress axis : x y z
#
# Youngs Moduli (GPa) = 23.84197 15.62584 21.49846
#
# Poissons Ratio (x) = 0.33572 0.79622
# Poissons Ratio (y) = 0.51225 -0.11980
# Poissons Ratio (z) = 0.88302 -0.08707
#
# Static dielectric constant tensor:
#      x y z
#    x 1.682130 0.000000 0.000000 
#    y 0.000000 1.626130 0.000000 
#    z 0.000000 0.000000 1.597360 
# 
# From -- ./inp_files/27169.got.cif
#   From: 2010.05.17/outbox.cif.g08.bks.cpg/sg62_14_cif.got.tgz:27169.got - 2010.06.03 15:25:27.
