data_PCOD9463624
_publ_section_title
;
Structure prediction by ZEFSAII (Michael W. Deem and Ramdas Pophale) SiO2 
 PCOD9463624
Probable space group: P N M A
;
_chemical_formula_sum "Si O2"
_cell_formula_units_Z 48
_cell_length_a 15.159005
_cell_length_b 18.520382
_cell_length_c 9.142983
_cell_angle_alpha 90.000000
_cell_angle_beta 90.000000
_cell_angle_gamma 90.000000
_cell_volume 2566.897628
_symmetry_space_group_name_H-M "P N M A"
_symmetry_group_IT_number 62
_symmetry_cell_setting 'orthorhombic'
loop_
_space_group_symop_operation_xyz
x,y,z
1/2-x,-y,1/2+z
1/2+x,1/2-y,1/2-z
-x,1/2+y,-z
-x,-y,-z
1/2+x,y,1/2-z
1/2-x,1/2+y,1/2+z
x,1/2-y,z
loop_
_atom_site_type_symbol
_atom_site_label
_atom_site_fract_x
_atom_site_fract_y
_atom_site_fract_z
Si Si1 0.750265 0.902548 0.565515
Si Si2 0.598199 0.582043 0.093398
Si Si3 0.905543 0.334270 0.893738
Si Si4 0.441521 0.909921 0.884701
Si Si5 0.753403 0.547925 0.894405
Si Si6 0.459088 0.576162 0.557267
O O1 0.671180 0.852372 0.511590
O O2 0.848413 0.870394 0.587685
O O3 0.732958 0.939205 0.723836
O O4 0.756281 0.964774 0.442159
O O5 0.611391 0.620300 0.246912
O O6 0.582530 0.495821 0.112166
O O7 0.511598 0.608412 0.008398
O O8 0.683080 0.590737 0.991289
O O9 0.907438 0.250000 0.863312
O O10 0.998293 0.363535 0.955465
O O11 0.482863 0.902832 0.724023
O O12 0.853370 0.569315 0.935529
O O13 0.500000 0.500000 0.500000
#
# Coordination Sequence:
#
# PCOD9463624 Si02
#       6
#     8   8   8   8   8   8
#     4  10  19  37  59  93 117 154 197 249 311 357
#     4  10  20  36  55  92 119 156 199 251 304 356
#     4  12  25  40  57  85 128 167 199 250 319 373
#     4   9  19  35  63  89 115 146 204 263 297 347
#     4  10  20  33  65  91 118 147 205 259 293 351
#     4  11  19  37  61  91 118 156 203 255 301 361
#
# _framework density 18.699615999999999
#
# number of rings (size 3 to 8) (size 9 to 14) (size 15 to 20)
#    0.000    1.667    3.333    3.000    0.000    2.667 
#    0.000   10.000    0.000    0.000    0.000    0.000 
#    0.000    0.000    0.000    0.000    0.000    0.000 
#
# Total GULP energy -267731.726111 kJ/mol
# GULP energy per Si atom -5577.744294 kJ/mol
# Density = 1.865705 g / cm^3
# Si number density = 18.699616 Si / 1000 Ang^3
#
#
#
# Elastic Constant Matrix: (Units=GPa)
#
#
# Indices 1 2 3 4 5 6 
#
# 1 73.7282 23.8080 41.3608 0.0000 0.0000 0.0000
# 2 23.8080 36.0218 17.4157 0.0000 0.0000 0.0000
# 3 41.3608 17.4157 116.3957 0.0000 0.0000 0.0000
# 4 0.0000 0.0000 0.0000 6.3136 0.0000 0.0000
# 5 0.0000 0.0000 0.0000 0.0000 37.9123 0.0000
# 6 0.0000 0.0000 0.0000 0.0000 0.0000 13.1523
#
#
#
# Elastic Compliance Matrix: (Units=1/GPa)
#
#
# Indices 1 2 3 4 5 6 
#
# 1 0.020104 -0.010601 -0.005558 0.000000 0.000000 0.000000
# 2 -0.010601 0.035515 -0.001547 0.000000 0.000000 0.000000
# 3 -0.005558 -0.001547 0.010798 0.000000 0.000000 0.000000
# 4 0.000000 0.000000 0.000000 0.158388 0.000000 0.000000
# 5 0.000000 0.000000 0.000000 0.000000 0.026377 0.000000
# 6 0.000000 0.000000 0.000000 0.000000 0.000000 0.076032
#
#
# Mechanical properties :
#
#
# Convention : Reuss Voigt Hill
#
# Bulk Modulus (GPa) = 32.25148 43.47942 37.86545
# Shear Modulus (GPa) = 13.40621 21.04637 17.22629
#
# Velocity S-wave (km/s) = 2.68045 3.35848 3.03844
# Velocity P-wave (km/s) = 5.18308 6.19203 5.70988
#
# Compressibility (1/GPa) = 0.03100633
#
# Stress axis : x y z
#
# Youngs Moduli (GPa) = 49.74048 28.15696 92.61096
#
# Poissons Ratio (x) = 0.29848 0.51472
# Poissons Ratio (y) = 0.52727 0.14328
# Poissons Ratio (z) = 0.27645 0.04356
#
# Static dielectric constant tensor:
#      x y z
#    x 1.686600 0.000000 0.000000 
#    y 0.000000 1.625740 0.000000 
#    z 0.000000 0.000000 1.671160 
# 
# From -- ./inp_files/6606.got.cif
#   From: 2010.05.17/outbox.cif.g08.bks.cpg/sg62_4_cif.got.tgz:6606.got - 2010.06.03 15:25:27.
