data_PCOD9463033
_publ_section_title
;
Structure prediction by ZEFSAII (Michael W. Deem and Ramdas Pophale) SiO2 
 PCOD9463033
Probable space group: P N M A
;
_chemical_formula_sum "Si O2"
_cell_formula_units_Z 48
_cell_length_a 20.367355
_cell_length_b 8.735917
_cell_length_c 15.338313
_cell_angle_alpha 90.000000
_cell_angle_beta 90.000000
_cell_angle_gamma 90.000000
_cell_volume 2729.108036
_symmetry_space_group_name_H-M "P N M A"
_symmetry_group_IT_number 62
_symmetry_cell_setting 'orthorhombic'
loop_
_space_group_symop_operation_xyz
x,y,z
1/2-x,-y,1/2+z
1/2+x,1/2-y,1/2-z
-x,1/2+y,-z
-x,-y,-z
1/2+x,y,1/2-z
1/2-x,1/2+y,1/2+z
x,1/2-y,z
loop_
_atom_site_type_symbol
_atom_site_label
_atom_site_fract_x
_atom_site_fract_y
_atom_site_fract_z
Si Si1 0.483976 0.066190 0.723401
Si Si2 0.160968 0.066602 0.197617
Si Si3 0.039154 0.566332 0.419185
Si Si4 0.191990 0.065480 0.004135
Si Si5 0.555507 0.567608 0.564065
Si Si6 0.187820 0.935067 0.381047
O O1 0.485304 0.250000 0.715156
O O2 0.491366 0.024532 0.825132
O O3 0.411794 0.006771 0.695866
O O4 0.536941 0.991881 0.660036
O O5 0.154523 0.250000 0.202964
O O6 0.195410 0.004356 0.284616
O O7 0.196373 0.027451 0.106763
O O8 0.038389 0.750000 0.424937
O O9 0.115610 0.517982 0.415176
O O10 0.000000 0.500000 0.500000
O O11 0.185529 0.250000 0.998089
O O12 0.254954 0.019603 0.947370
O O13 0.126159 0.991260 0.966331
O O14 0.500000 0.500000 0.500000
O O15 0.552680 0.750000 0.560683
O O16 0.187592 0.750000 0.373443
#
# Coordination Sequence:
#
# PCOD9463033 Si02
#       6
#     8   8   8   8   8   8
#     4  10  20  36  57  81 113 148 185 228 279 337
#     4  10  19  33  57  83 108 144 189 231 278 334
#     4   9  19  36  59  83 110 146 186 229 278 331
#     4  10  21  38  58  80 113 150 187 234 286 335
#     4  12  23  35  56  86 116 147 186 231 281 339
#     4   9  20  39  58  78 111 152 187 229 284 337
#
# _framework density 17.588163999999999
#
# number of rings (size 3 to 8) (size 9 to 14) (size 15 to 20)
#    0.000    2.000    1.667    3.500    0.000    4.667 
#    3.000    0.000    0.000    0.000    0.000    0.000 
#    0.000    0.000    0.000    0.000    0.000    0.000 
#
# Total GULP energy -267940.629362 kJ/mol
# GULP energy per Si atom -5582.096445 kJ/mol
# Density = 1.754813 g / cm^3
# Si number density = 17.588164 Si / 1000 Ang^3
#
#
#
# Elastic Constant Matrix: (Units=GPa)
#
#
# Indices 1 2 3 4 5 6 
#
# 1 99.8246 38.4297 103.1442 0.0000 0.0000 0.0000
# 2 38.4297 43.2405 56.5736 0.0000 0.0000 0.0000
# 3 103.1442 56.5736 191.0176 0.0000 0.0000 0.0000
# 4 0.0000 0.0000 0.0000 33.2421 0.0000 0.0000
# 5 0.0000 0.0000 0.0000 0.0000 35.5548 0.0000
# 6 0.0000 0.0000 0.0000 0.0000 0.0000 25.0669
#
#
#
# Elastic Compliance Matrix: (Units=1/GPa)
#
#
# Indices 1 2 3 4 5 6 
#
# 1 0.023932 -0.007122 -0.010814 0.000000 0.000000 0.000000
# 2 -0.007122 0.039876 -0.007965 0.000000 0.000000 0.000000
# 3 -0.010814 -0.007965 0.013433 0.000000 0.000000 0.000000
# 4 0.000000 0.000000 0.000000 0.030082 0.000000 0.000000
# 5 0.000000 0.000000 0.000000 0.000000 0.028126 0.000000
# 6 0.000000 0.000000 0.000000 0.000000 0.000000 0.039893
#
#
# Mechanical properties :
#
#
# Convention : Reuss Voigt Hill
#
# Bulk Modulus (GPa) = 39.30536 81.15307 60.22921
# Shear Modulus (GPa) = 21.22029 27.83513 24.52771
#
# Velocity S-wave (km/s) = 3.47725 3.98251 3.73843
# Velocity P-wave (km/s) = 6.20628 8.20903 7.27688
#
# Compressibility (1/GPa) = 0.02544182
#
# Stress axis : x y z
#
# Youngs Moduli (GPa) = 41.78423 25.07750 74.44347
#
# Poissons Ratio (x) = 0.17860 0.80500
# Poissons Ratio (y) = 0.29758 0.59291
# Poissons Ratio (z) = 0.45184 0.19973
#
# Static dielectric constant tensor:
#      x y z
#    x 1.571750 0.000000 0.000000 
#    y 0.000000 1.593410 0.000000 
#    z 0.000000 0.000000 1.606750 
# 
# From -- ./inp_files/19606.got.cif
#   From: 2010.05.17/outbox.cif.g08.bks.cpg/sg62_10_cif.got.tgz:19606.got - 2010.06.03 15:25:27.
