data_PCOD9463597
_publ_section_title
;
Structure prediction by ZEFSAII (Michael W. Deem and Ramdas Pophale) SiO2 
 PCOD9463597
Probable space group: P N M A
;
_chemical_formula_sum "Si O2"
_cell_formula_units_Z 56
_cell_length_a 8.664932
_cell_length_b 19.399782
_cell_length_c 17.269840
_cell_angle_alpha 90.000000
_cell_angle_beta 90.000000
_cell_angle_gamma 90.000000
_cell_volume 2903.021970
_symmetry_space_group_name_H-M "P N M A"
_symmetry_group_IT_number 62
_symmetry_cell_setting 'orthorhombic'
loop_
_space_group_symop_operation_xyz
x,y,z
1/2-x,-y,1/2+z
1/2+x,1/2-y,1/2-z
-x,1/2+y,-z
-x,-y,-z
1/2+x,y,1/2-z
1/2-x,1/2+y,1/2+z
x,1/2-y,z
loop_
_atom_site_type_symbol
_atom_site_label
_atom_site_fract_x
_atom_site_fract_y
_atom_site_fract_z
Si Si1 0.293343 0.536469 0.079949
Si Si2 0.164588 0.830379 0.522646
Si Si3 0.360788 0.595477 0.637390
Si Si4 0.328929 0.438322 0.283804
Si Si5 0.086477 0.436994 0.419677
Si Si6 0.107275 0.405617 0.728909
Si Si7 0.315366 0.167971 0.841451
O O1 0.165609 0.479201 0.097774
O O2 0.462991 0.499547 0.085222
O O3 0.291524 0.591543 0.149236
O O4 0.293894 0.558665 0.991201
O O5 0.132747 0.750000 0.526155
O O6 0.314603 0.849697 0.572809
O O7 0.023194 0.872831 0.559423
O O8 0.187508 0.849750 0.432615
O O9 0.232112 0.596349 0.705310
O O10 0.527051 0.598811 0.676146
O O11 0.184399 0.437386 0.341895
O O12 0.380446 0.516645 0.262600
O O13 0.943373 0.379110 0.699775
O O14 0.163793 0.353619 0.794773
O O15 0.345662 0.250000 0.834698
#
# Coordination Sequence:
#
# PCOD9463597 Si02
#       7
#     8   8   8   8   8   8   8
#     4   9  18  33  58  88 116 155 191 249 300 352
#     4  10  22  42  63  83 118 166 206 245 295 361
#     4  10  21  38  57  90 123 151 197 247 302 360
#     4  11  22  37  63  92 123 153 193 256 313 362
#     4  10  19  36  63  87 119 152 202 247 304 357
#     4  11  20  37  59  88 118 157 194 246 299 361
#     4  11  23  39  59  84 120 165 204 239 287 359
#
# _framework density 19.290244999999999
#
# number of rings (size 3 to 8) (size 9 to 14) (size 15 to 20)
#    0.000    1.714    1.429    5.571    4.000    0.571 
#    2.571    3.571    0.000    0.000    0.000    0.000 
#    0.000    0.000    0.000    0.000    0.000    0.000 
#
# Total GULP energy -312511.569087 kJ/mol
# GULP energy per Si atom -5580.563734 kJ/mol
# Density = 1.924634 g / cm^3
# Si number density = 19.290245 Si / 1000 Ang^3
#
#
#
# Elastic Constant Matrix: (Units=GPa)
#
#
# Indices 1 2 3 4 5 6 
#
# 1 37.2926 16.9508 27.3918 0.0000 0.0000 0.0000
# 2 16.9508 41.7375 38.0741 0.0000 0.0000 0.0000
# 3 27.3918 38.0741 134.3068 0.0000 0.0000 0.0000
# 4 0.0000 0.0000 0.0000 29.1624 0.0000 0.0000
# 5 0.0000 0.0000 0.0000 0.0000 32.0754 0.0000
# 6 0.0000 0.0000 0.0000 0.0000 0.0000 15.9973
#
#
#
# Elastic Compliance Matrix: (Units=1/GPa)
#
#
# Indices 1 2 3 4 5 6 
#
# 1 0.034507 -0.010243 -0.004134 0.000000 0.000000 0.000000
# 2 -0.010243 0.035357 -0.007934 0.000000 0.000000 0.000000
# 3 -0.004134 -0.007934 0.010538 0.000000 0.000000 0.000000
# 4 0.000000 0.000000 0.000000 0.034291 0.000000 0.000000
# 5 0.000000 0.000000 0.000000 0.000000 0.031177 0.000000
# 6 0.000000 0.000000 0.000000 0.000000 0.000000 0.062510
#
#
# Mechanical properties :
#
#
# Convention : Reuss Voigt Hill
#
# Bulk Modulus (GPa) = 27.94885 42.01893 34.98389
# Shear Modulus (GPa) = 18.87296 24.17505 21.52400
#
# Velocity S-wave (km/s) = 3.13128 3.54393 3.34398
# Velocity P-wave (km/s) = 5.25293 6.21094 5.75191
#
# Compressibility (1/GPa) = 0.03577964
#
# Stress axis : x y z
#
# Youngs Moduli (GPa) = 28.97935 28.28284 94.89503
#
# Poissons Ratio (x) = 0.28971 0.39229
# Poissons Ratio (y) = 0.29685 0.75291
# Poissons Ratio (z) = 0.11980 0.22440
#
# Static dielectric constant tensor:
#      x y z
#    x 1.695230 0.000000 0.000000 
#    y 0.000000 1.666780 0.000000 
#    z 0.000000 0.000000 1.717230 
# 
# From -- ./inp_files/22517.got.cif
#   From: 2010.05.17/outbox.cif.g08.bks.cpg/sg62_12_cif.got.tgz:22517.got - 2010.06.03 15:25:27.
