data_PCOD9463859
_publ_section_title
;
Structure prediction by ZEFSAII (Michael W. Deem and Ramdas Pophale) SiO2 
 PCOD9463859
Probable space group: P N M A
;
_chemical_formula_sum "Si O2"
_cell_formula_units_Z 48
_cell_length_a 8.767591
_cell_length_b 22.789652
_cell_length_c 13.236976
_cell_angle_alpha 90.000000
_cell_angle_beta 90.000000
_cell_angle_gamma 90.000000
_cell_volume 2644.884778
_symmetry_space_group_name_H-M "P N M A"
_symmetry_group_IT_number 62
_symmetry_cell_setting 'orthorhombic'
loop_
_space_group_symop_operation_xyz
x,y,z
1/2-x,-y,1/2+z
1/2+x,1/2-y,1/2-z
-x,1/2+y,-z
-x,-y,-z
1/2+x,y,1/2-z
1/2-x,1/2+y,1/2+z
x,1/2-y,z
loop_
_atom_site_type_symbol
_atom_site_label
_atom_site_fract_x
_atom_site_fract_y
_atom_site_fract_z
Si Si1 0.256795 0.530542 0.951767
Si Si2 0.630654 0.505616 0.758767
Si Si3 0.419619 0.420349 0.045055
Si Si4 0.383563 0.430546 0.635811
Si Si5 0.105744 0.681061 0.399323
Si Si6 0.770754 0.680461 0.301129
O O1 0.221858 0.533059 0.834232
O O2 0.402474 0.570037 0.978613
O O3 0.315024 0.465557 0.981052
O O4 0.114425 0.550979 0.018927
O O5 0.591594 0.556881 0.839180
O O6 0.506347 0.464309 0.703798
O O7 0.729771 0.460281 0.822271
O O8 0.379593 0.357139 0.000509
O O9 0.353620 0.361559 0.645769
O O10 0.110123 0.750000 0.421378
O O11 0.238731 0.667409 0.317564
O O12 0.941763 0.669476 0.343195
O O13 0.739629 0.750000 0.314902
#
# Coordination Sequence:
#
# PCOD9463859 Si02
#       6
#     8   8   8   8   8   8
#     4  10  20  34  52  82 108 142 175 219 276 316
#     4  11  21  34  54  80 109 143 179 222 270 318
#     4  10  20  36  55  79 111 138 180 223 269 326
#     4  11  20  32  54  78 113 141 177 220 267 326
#     4  10  20  36  57  80 107 144 180 219 267 318
#     4  10  20  32  51  79 109 140 173 214 264 319
#
# _framework density 18.148237999999999
#
# number of rings (size 3 to 8) (size 9 to 14) (size 15 to 20)
#    0.000    1.667    3.333    2.500    2.333    0.000 
#    0.000    0.000    0.000    2.000    0.000    0.000 
#    0.000    0.000    0.000    0.000    0.000    0.000 
#
# Total GULP energy -267389.640628 kJ/mol
# GULP energy per Si atom -5570.617513 kJ/mol
# Density = 1.810693 g / cm^3
# Si number density = 18.148238 Si / 1000 Ang^3
#
#
#
# Elastic Constant Matrix: (Units=GPa)
#
#
# Indices 1 2 3 4 5 6 
#
# 1 32.7048 5.6245 15.4790 0.0000 0.0000 0.0000
# 2 5.6245 52.0681 33.8587 0.0000 0.0000 0.0000
# 3 15.4790 33.8587 93.2554 0.0000 0.0000 0.0000
# 4 0.0000 0.0000 0.0000 30.2214 0.0000 0.0000
# 5 0.0000 0.0000 0.0000 0.0000 14.6446 0.0000
# 6 0.0000 0.0000 0.0000 0.0000 0.0000 7.4829
#
#
#
# Elastic Compliance Matrix: (Units=1/GPa)
#
#
# Indices 1 2 3 4 5 6 
#
# 1 0.033183 -0.000004 -0.005507 0.000000 0.000000 0.000000
# 2 -0.000004 0.025142 -0.009128 0.000000 0.000000 0.000000
# 3 -0.005507 -0.009128 0.014951 0.000000 0.000000 0.000000
# 4 0.000000 0.000000 0.000000 0.033089 0.000000 0.000000
# 5 0.000000 0.000000 0.000000 0.000000 0.068284 0.000000
# 6 0.000000 0.000000 0.000000 0.000000 0.000000 0.133637
#
#
# Mechanical properties :
#
#
# Convention : Reuss Voigt Hill
#
# Bulk Modulus (GPa) = 22.72712 31.99474 27.36093
# Shear Modulus (GPa) = 14.19528 18.67421 16.43475
#
# Velocity S-wave (km/s) = 2.79979 3.21125 3.01256
# Velocity P-wave (km/s) = 4.79604 5.60513 5.21630
#
# Compressibility (1/GPa) = 0.04400030
#
# Stress axis : x y z
#
# Youngs Moduli (GPa) = 30.13554 39.77483 66.88399
#
# Poissons Ratio (x) = 0.00015 0.36830
# Poissons Ratio (y) = 0.00011 0.61049
# Poissons Ratio (z) = 0.16594 0.36305
#
# Static dielectric constant tensor:
#      x y z
#    x 1.688990 0.000000 0.000000 
#    y 0.000000 1.631790 0.000000 
#    z 0.000000 0.000000 1.650890 
# 
# From -- ./inp_files/11298.got.cif
#   From: 2010.05.17/outbox.cif.g08.bks.cpg/sg62_6_cif.got.tgz:11298.got - 2010.06.03 15:25:27.
