data_PCOD9463128
_publ_section_title
;
Structure prediction by ZEFSAII (Michael W. Deem and Ramdas Pophale) SiO2 
 PCOD9463128
Probable space group: P N M A
;
_chemical_formula_sum "Si O2"
_cell_formula_units_Z 64
_cell_length_a 20.915215
_cell_length_b 8.805220
_cell_length_c 19.820335
_cell_angle_alpha 90.000000
_cell_angle_beta 90.000000
_cell_angle_gamma 90.000000
_cell_volume 3650.173731
_symmetry_space_group_name_H-M "P N M A"
_symmetry_group_IT_number 62
_symmetry_cell_setting 'orthorhombic'
loop_
_space_group_symop_operation_xyz
x,y,z
1/2-x,-y,1/2+z
1/2+x,1/2-y,1/2-z
-x,1/2+y,-z
-x,-y,-z
1/2+x,y,1/2-z
1/2-x,1/2+y,1/2+z
x,1/2-y,z
loop_
_atom_site_type_symbol
_atom_site_label
_atom_site_fract_x
_atom_site_fract_y
_atom_site_fract_z
Si Si1 0.563575 0.432772 0.967294
Si Si2 0.111775 0.932591 0.820952
Si Si3 0.813930 0.069614 0.541832
Si Si4 0.737958 0.069145 0.175006
Si Si5 0.193754 0.567535 0.036501
Si Si6 0.238753 0.568797 0.182870
Si Si7 0.611151 0.431852 0.822331
Si Si8 0.438541 0.067012 0.463634
O O1 0.561843 0.250000 0.968841
O O2 0.573398 0.481010 0.889075
O O3 0.500000 0.500000 0.000000
O O4 0.624915 0.490474 0.008510
O O5 0.109609 0.750000 0.817708
O O6 0.186670 0.973841 0.832157
O O7 0.071647 0.983198 0.886027
O O8 0.090904 0.997822 0.748953
O O9 0.820905 0.250000 0.538625
O O10 0.802538 0.014755 0.618211
O O11 0.751163 0.015921 0.501285
O O12 0.733146 0.250000 0.165997
O O13 0.719012 0.020151 0.250300
O O14 0.203195 0.750000 0.027868
O O15 0.198766 0.534421 0.115952
O O16 0.126024 0.526797 0.004124
O O17 0.235486 0.750000 0.195734
O O18 0.313392 0.531438 0.168196
O O19 0.606426 0.250000 0.817395
O O20 0.443037 0.250000 0.463558
O O21 0.500000 0.000000 0.500000
#
# Coordination Sequence:
#
# PCOD9463128 Si02
#       8
#     8   8   8   8   8   8   8   8
#     4  11  23  41  60  84 117 154 191 236 288 342
#     4   9  18  33  55  80 110 146 188 231 278 336
#     4  12  23  35  57  87 114 146 191 237 281 340
#     4  10  19  34  55  81 115 149 184 234 290 339
#     4  10  19  37  59  80 113 151 184 229 289 339
#     4   9  17  32  55  83 111 144 187 233 282 340
#     4   9  18  33  56  82 110 143 183 228 279 335
#     4  10  21  37  56  81 113 151 189 229 280 332
#
# _framework density 17.533411999999998
#
# number of rings (size 3 to 8) (size 9 to 14) (size 15 to 20)
#    0.000    2.000    2.500    1.875    0.000    3.000 
#    0.000    1.250    0.000    4.500    0.000    0.000 
#    0.000    0.000    0.000    0.000    0.000    0.000 
#
# Total GULP energy -357240.972332 kJ/mol
# GULP energy per Si atom -5581.890193 kJ/mol
# Density = 1.749350 g / cm^3
# Si number density = 17.533412 Si / 1000 Ang^3
#
#
#
# Elastic Constant Matrix: (Units=GPa)
#
#
# Indices 1 2 3 4 5 6 
#
# 1 103.7440 38.1609 77.2162 0.0000 0.0000 0.0000
# 2 38.1609 42.3176 48.5705 0.0000 0.0000 0.0000
# 3 77.2162 48.5705 173.6838 0.0000 0.0000 0.0000
# 4 0.0000 0.0000 0.0000 33.3716 0.0000 0.0000
# 5 0.0000 0.0000 0.0000 0.0000 26.4319 0.0000
# 6 0.0000 0.0000 0.0000 0.0000 0.0000 24.9064
#
#
#
# Elastic Compliance Matrix: (Units=1/GPa)
#
#
# Indices 1 2 3 4 5 6 
#
# 1 0.016705 -0.009631 -0.004733 0.000000 0.000000 0.000000
# 2 -0.009631 0.040354 -0.007003 0.000000 0.000000 0.000000
# 3 -0.004733 -0.007003 0.009820 0.000000 0.000000 0.000000
# 4 0.000000 0.000000 0.000000 0.029966 0.000000 0.000000
# 5 0.000000 0.000000 0.000000 0.000000 0.037833 0.000000
# 6 0.000000 0.000000 0.000000 0.000000 0.000000 0.040150
#
#
# Mechanical properties :
#
#
# Convention : Reuss Voigt Hill
#
# Bulk Modulus (GPa) = 41.41853 71.96008 56.68930
# Shear Modulus (GPa) = 22.16204 27.32851 24.74527
#
# Velocity S-wave (km/s) = 3.55912 3.95226 3.76083
# Velocity P-wave (km/s) = 6.36896 7.87134 7.15967
#
# Compressibility (1/GPa) = 0.02414379
#
# Stress axis : x y z
#
# Youngs Moduli (GPa) = 59.86306 24.78074 101.83023
#
# Poissons Ratio (x) = 0.23867 0.48198
# Poissons Ratio (y) = 0.57656 0.71312
# Poissons Ratio (z) = 0.28334 0.17354
#
# Static dielectric constant tensor:
#      x y z
#    x 1.567320 0.000000 0.000000 
#    y 0.000000 1.589820 0.000000 
#    z 0.000000 0.000000 1.604180 
# 
# From -- ./inp_files/24732.got.cif
#   From: 2010.05.17/outbox.cif.g08.bks.cpg/sg62_13_cif.got.tgz:24732.got - 2010.06.03 15:25:27.
