data_PCOD9463146
_publ_section_title
;
Structure prediction by ZEFSAII (Michael W. Deem and Ramdas Pophale) SiO2 
 PCOD9463146
Probable space group: P N M A
;
_chemical_formula_sum "Si O2"
_cell_formula_units_Z 56
_cell_length_a 19.722687
_cell_length_b 7.544158
_cell_length_c 14.517977
_cell_angle_alpha 90.000000
_cell_angle_beta 90.000000
_cell_angle_gamma 90.000000
_cell_volume 2160.145287
_symmetry_space_group_name_H-M "P N M A"
_symmetry_group_IT_number 62
_symmetry_cell_setting 'orthorhombic'
loop_
_space_group_symop_operation_xyz
x,y,z
1/2-x,-y,1/2+z
1/2+x,1/2-y,1/2-z
-x,1/2+y,-z
-x,-y,-z
1/2+x,y,1/2-z
1/2-x,1/2+y,1/2+z
x,1/2-y,z
loop_
_atom_site_type_symbol
_atom_site_label
_atom_site_fract_x
_atom_site_fract_y
_atom_site_fract_z
Si Si1 0.799746 0.034243 0.284345
Si Si2 0.496997 0.461686 0.725001
Si Si3 0.288713 0.458054 0.428187
Si Si4 0.065783 0.454689 0.602054
Si Si5 0.142543 0.466571 0.434659
Si Si6 0.931369 0.540466 0.052760
Si Si7 0.849157 0.537618 0.778635
O O1 0.804270 0.250000 0.288191
O O2 0.800650 0.975340 0.176602
O O3 0.723711 0.976966 0.315904
O O4 0.862583 0.960387 0.341791
O O5 0.506039 0.250000 0.730861
O O6 0.511531 0.535741 0.826940
O O7 0.552625 0.534906 0.654491
O O8 0.422754 0.491162 0.683031
O O9 0.277772 0.250000 0.416854
O O10 0.217775 0.525995 0.468004
O O11 0.358384 0.480989 0.482398
O O12 0.047312 0.250000 0.587091
O O13 0.084611 0.534460 0.503087
O O14 0.138457 0.250000 0.437063
O O15 0.142389 0.521482 0.328271
O O16 0.925653 0.750000 0.058329
O O17 0.000000 0.500000 0.000000
O O18 0.845167 0.750000 0.778801
#
# Coordination Sequence:
#
# PCOD9463146 Si02
#       7
#     8   8   8   8   8   8   8
#     4   9  18  33  54  78 105 138 181 228 272 323
#     4  10  22  37  53  79 112 144 181 225 272 324
#     4   9  17  34  57  78 103 137 177 221 272 324
#     4  10  19  34  56  80 109 144 183 223 272 326
#     4   8  17  34  56  81 108 142 180 223 273 324
#     4  11  23  38  55  79 110 144 183 225 274 326
#     4   9  19  36  56  79 110 147 184 222 270 327
#
# _framework density 25.924181000000001
#
# number of rings (size 3 to 8) (size 9 to 14) (size 15 to 20)
#    0.000    2.571    1.429    2.143    0.000    4.000 
#    0.000    7.857    0.000    0.000    0.000    0.000 
#    0.000    0.000    0.000    0.000    0.000    0.000 
#
# Total GULP energy -312833.400252 kJ/mol
# GULP energy per Si atom -5586.310719 kJ/mol
# Density = 2.586518 g / cm^3
# Si number density = 25.924181 Si / 1000 Ang^3
#
#
#
# Elastic Constant Matrix: (Units=GPa)
#
#
# Indices 1 2 3 4 5 6 
#
# 1 142.1402 -5.2241 8.1391 0.0000 0.0000 0.0000
# 2 -5.2241 71.7811 -2.5302 0.0000 0.0000 0.0000
# 3 8.1391 -2.5302 54.5998 0.0000 0.0000 0.0000
# 4 0.0000 0.0000 0.0000 5.3761 0.0000 0.0000
# 5 0.0000 0.0000 0.0000 0.0000 46.8946 0.0000
# 6 0.0000 0.0000 0.0000 0.0000 0.0000 15.9882
#
#
#
# Elastic Compliance Matrix: (Units=1/GPa)
#
#
# Indices 1 2 3 4 5 6 
#
# 1 0.007112 0.000481 -0.001038 0.000000 0.000000 0.000000
# 2 0.000481 0.013987 0.000576 0.000000 0.000000 0.000000
# 3 -0.001038 0.000576 0.018497 0.000000 0.000000 0.000000
# 4 0.000000 0.000000 0.000000 0.186010 0.000000 0.000000
# 5 0.000000 0.000000 0.000000 0.000000 0.021324 0.000000
# 6 0.000000 0.000000 0.000000 0.000000 0.000000 0.062546
#
#
# Mechanical properties :
#
#
# Convention : Reuss Voigt Hill
#
# Bulk Modulus (GPa) = 25.23050 29.92120 27.57585
# Shear Modulus (GPa) = 15.49675 31.52753 23.51214
#
# Velocity S-wave (km/s) = 2.44759 3.49111 3.01484
# Velocity P-wave (km/s) = 4.21202 5.27421 4.77276
#
# Compressibility (1/GPa) = 0.03963458
#
# Stress axis : x y z
#
# Youngs Moduli (GPa) = 140.59910 71.49720 54.06425
#
# Poissons Ratio (x) = -0.03439 0.05612
# Poissons Ratio (y) = -0.06763 -0.03117
# Poissons Ratio (z) = 0.14593 -0.04121
#
# Static dielectric constant tensor:
#      x y z
#    x 2.038580 0.000000 0.000000 
#    y 0.000000 1.956610 0.000000 
#    z 0.000000 0.000000 2.127680 
# 
# From -- ./inp_files/24651.got.cif
#   From: 2010.05.17/outbox.cif.g08.bks.cpg/sg62_13_cif.got.tgz:24651.got - 2010.06.03 15:25:27.
