data_PCOD9463232
_publ_section_title
;
Structure prediction by ZEFSAII (Michael W. Deem and Ramdas Pophale) SiO2 
 PCOD9463232
Probable space group: P N M A
;
_chemical_formula_sum "Si O2"
_cell_formula_units_Z 56
_cell_length_a 8.587684
_cell_length_b 13.773628
_cell_length_c 21.538268
_cell_angle_alpha 90.000000
_cell_angle_beta 90.000000
_cell_angle_gamma 90.000000
_cell_volume 2547.623119
_symmetry_space_group_name_H-M "P N M A"
_symmetry_group_IT_number 62
_symmetry_cell_setting 'orthorhombic'
loop_
_space_group_symop_operation_xyz
x,y,z
1/2-x,-y,1/2+z
1/2+x,1/2-y,1/2-z
-x,1/2+y,-z
-x,-y,-z
1/2+x,y,1/2-z
1/2-x,1/2+y,1/2+z
x,1/2-y,z
loop_
_atom_site_type_symbol
_atom_site_label
_atom_site_fract_x
_atom_site_fract_y
_atom_site_fract_z
Si Si1 0.948686 0.535204 0.828982
Si Si2 0.841723 0.367676 0.532224
Si Si3 0.017245 0.365872 0.900441
Si Si4 0.088411 0.359548 0.295441
Si Si5 0.805004 0.132857 0.103467
Si Si6 0.808919 0.868005 0.469736
Si Si7 0.810075 0.360514 0.387565
O O1 0.999411 0.425067 0.836877
O O2 0.973754 0.580255 0.761695
O O3 0.023462 0.591384 0.888801
O O4 0.771110 0.560026 0.844488
O O5 0.845085 0.250000 0.536174
O O6 0.681905 0.395461 0.567662
O O7 0.822424 0.390216 0.459135
O O8 0.017455 0.400401 0.552182
O O9 0.019112 0.250000 0.893917
O O10 0.856319 0.392118 0.937026
O O11 0.122791 0.250000 0.272032
O O12 0.975098 0.350502 0.353995
O O13 0.236375 0.402565 0.330691
O O14 0.806762 0.250000 0.104431
O O15 0.716075 0.102641 0.041628
O O16 0.814188 0.750000 0.468376
O O17 0.741193 0.250000 0.384872
#
# Coordination Sequence:
#
# PCOD9463232 Si02
#       7
#     8   8   8   8   8   8   8
#     4  12  23  34  53  85 121 161 200 239 289 351
#     4   9  17  35  61  86 117 155 196 244 300 357
#     4  10  23  41  59  84 118 160 208 252 295 343
#     4  10  20  37  60  88 125 160 188 231 296 369
#     4  10  19  34  58  89 121 153 189 234 299 370
#     4   9  17  35  61  86 117 155 196 244 300 357
#     4  10  19  34  58  89 121 153 189 234 299 370
#
# _framework density 21.981273999999999
#
# number of rings (size 3 to 8) (size 9 to 14) (size 15 to 20)
#    0.000    2.000    1.429    3.000    0.000    6.857 
#    2.571    1.429    0.000    3.429    0.000    0.000 
#    0.000    0.000    0.000    0.000    0.000    0.000 
#
# Total GULP energy -312148.322969 kJ/mol
# GULP energy per Si atom -5574.077196 kJ/mol
# Density = 2.193124 g / cm^3
# Si number density = 21.981274 Si / 1000 Ang^3
#
#
#
# Elastic Constant Matrix: (Units=GPa)
#
#
# Indices 1 2 3 4 5 6 
#
# 1 88.0029 17.7177 22.0751 0.0000 0.0000 0.0000
# 2 17.7177 72.9139 28.1045 0.0000 0.0000 0.0000
# 3 22.0751 28.1045 76.8607 0.0000 0.0000 0.0000
# 4 0.0000 0.0000 0.0000 22.9605 0.0000 0.0000
# 5 0.0000 0.0000 0.0000 0.0000 19.6340 0.0000
# 6 0.0000 0.0000 0.0000 0.0000 0.0000 11.1316
#
#
#
# Elastic Compliance Matrix: (Units=1/GPa)
#
#
# Indices 1 2 3 4 5 6 
#
# 1 0.012472 -0.001921 -0.002880 0.000000 0.000000 0.000000
# 2 -0.001921 0.016261 -0.005394 0.000000 0.000000 0.000000
# 3 -0.002880 -0.005394 0.015810 0.000000 0.000000 0.000000
# 4 0.000000 0.000000 0.000000 0.043553 0.000000 0.000000
# 5 0.000000 0.000000 0.000000 0.000000 0.050932 0.000000
# 6 0.000000 0.000000 0.000000 0.000000 0.000000 0.089834
#
#
# Mechanical properties :
#
#
# Convention : Reuss Voigt Hill
#
# Bulk Modulus (GPa) = 41.40154 41.50802 41.45478
# Shear Modulus (GPa) = 19.43235 22.07057 20.75146
#
# Velocity S-wave (km/s) = 2.97651 3.17213 3.07588
# Velocity P-wave (km/s) = 5.53973 5.68691 5.61380
#
# Compressibility (1/GPa) = 0.02415369
#
# Stress axis : x y z
#
# Youngs Moduli (GPa) = 80.17725 61.49794 63.25072
#
# Poissons Ratio (x) = 0.11812 0.18215
# Poissons Ratio (y) = 0.15399 0.34119
# Poissons Ratio (z) = 0.23090 0.33173
#
# Static dielectric constant tensor:
#      x y z
#    x 1.871930 0.000000 0.000000 
#    y 0.000000 1.864100 0.000000 
#    z 0.000000 0.000000 1.765330 
# 
# From -- ./inp_files/26007.got.cif
#   From: 2010.05.17/outbox.cif.g08.bks.cpg/sg62_14_cif.got.tgz:26007.got - 2010.06.03 15:25:27.
