data_PCOD9463791
_publ_section_title
;
Structure prediction by ZEFSAII (Michael W. Deem and Ramdas Pophale) SiO2 
 PCOD9463791
Probable space group: P N M A
;
_chemical_formula_sum "Si O2"
_cell_formula_units_Z 56
_cell_length_a 21.523224
_cell_length_b 7.515045
_cell_length_c 19.293713
_cell_angle_alpha 90.000000
_cell_angle_beta 90.000000
_cell_angle_gamma 90.000000
_cell_volume 3120.719431
_symmetry_space_group_name_H-M "P N M A"
_symmetry_group_IT_number 62
_symmetry_cell_setting 'orthorhombic'
loop_
_space_group_symop_operation_xyz
x,y,z
1/2-x,-y,1/2+z
1/2+x,1/2-y,1/2-z
-x,1/2+y,-z
-x,-y,-z
1/2+x,y,1/2-z
1/2-x,1/2+y,1/2+z
x,1/2-y,z
loop_
_atom_site_type_symbol
_atom_site_label
_atom_site_fract_x
_atom_site_fract_y
_atom_site_fract_z
Si Si1 0.501111 0.463362 0.918492
Si Si2 0.304730 0.537998 0.720760
Si Si3 0.754778 0.530683 0.076679
Si Si4 0.626232 0.536800 0.147947
Si Si5 0.872316 0.966266 0.347766
Si Si6 0.177138 0.048108 0.793368
Si Si7 0.241399 0.040226 0.079219
O O1 0.501537 0.250000 0.909614
O O2 0.438207 0.532154 0.882783
O O3 0.564656 0.529266 0.883628
O O4 0.500000 0.500000 0.000000
O O5 0.293056 0.750000 0.720353
O O6 0.362308 0.504170 0.771181
O O7 0.245640 0.449437 0.758200
O O8 0.303063 0.474136 0.641352
O O9 0.754890 0.750000 0.078161
O O10 0.687059 0.473643 0.105466
O O11 0.807410 0.469925 0.131332
O O12 0.764137 0.467941 0.998261
O O13 0.625774 0.750000 0.140719
O O14 0.872177 0.750000 0.345310
O O15 0.864086 0.031763 0.268394
O O16 0.811567 0.017727 0.392021
O O17 0.155115 0.250000 0.804379
O O18 0.229354 0.250000 0.072677
#
# Coordination Sequence:
#
# PCOD9463791 Si02
#       7
#     8   8   8   8   8   8   8
#     4  10  20  31  43  61  84 111 142 172 200 235
#     4   9  16  25  39  59  80 101 130 168 202 235
#     4   8  13  23  40  58  75 100 131 159 192 237
#     4   9  17  29  42  55  78 112 141 163 194 239
#     4   9  17  28  41  59  82 106 135 168 198 233
#     4   8  14  26  42  57  77 105 132 160 199 244
#     4   9  16  26  41  61  83 105 130 162 203 247
#
# _framework density 17.944579999999998
#
# number of rings (size 3 to 8) (size 9 to 14) (size 15 to 20)
#    0.000    3.143    0.000    2.143    0.000    2.857 
#    0.000    4.286    0.000    0.000    0.000    1.000 
#    0.000    0.000    0.000    0.000    0.000    0.000 
#
# Total GULP energy -311805.383252 kJ/mol
# GULP energy per Si atom -5567.953272 kJ/mol
# Density = 1.790374 g / cm^3
# Si number density = 17.944580 Si / 1000 Ang^3
#
#
#
# Elastic Constant Matrix: (Units=GPa)
#
#
# Indices 1 2 3 4 5 6 
#
# 1 77.7326 -5.2704 74.0550 0.0000 0.0000 0.0000
# 2 -5.2704 46.9715 -3.3823 0.0000 0.0000 0.0000
# 3 74.0550 -3.3823 203.1108 0.0000 0.0000 0.0000
# 4 0.0000 0.0000 0.0000 13.7485 0.0000 0.0000
# 5 0.0000 0.0000 0.0000 0.0000 31.5196 0.0000
# 6 0.0000 0.0000 0.0000 0.0000 0.0000 15.3338
#
#
#
# Elastic Compliance Matrix: (Units=1/GPa)
#
#
# Indices 1 2 3 4 5 6 
#
# 1 0.019847 0.001708 -0.007208 0.000000 0.000000 0.000000
# 2 0.001708 0.021462 -0.000265 0.000000 0.000000 0.000000
# 3 -0.007208 -0.000265 0.007547 0.000000 0.000000 0.000000
# 4 0.000000 0.000000 0.000000 0.072735 0.000000 0.000000
# 5 0.000000 0.000000 0.000000 0.000000 0.031726 0.000000
# 6 0.000000 0.000000 0.000000 0.000000 0.000000 0.065215
#
#
# Mechanical properties :
#
#
# Convention : Reuss Voigt Hill
#
# Bulk Modulus (GPa) = 26.79117 50.95772 38.87444
# Shear Modulus (GPa) = 20.61808 29.61458 25.11633
#
# Velocity S-wave (km/s) = 3.39335 4.06684 3.74526
# Velocity P-wave (km/s) = 5.50595 7.10712 6.35715
#
# Compressibility (1/GPa) = 0.03732574
#
# Stress axis : x y z
#
# Youngs Moduli (GPa) = 50.38448 46.59391 132.50191
#
# Poissons Ratio (x) = -0.07958 0.95507
# Poissons Ratio (y) = -0.08605 0.03516
# Poissons Ratio (z) = 0.36317 0.01236
#
# Static dielectric constant tensor:
#      x y z
#    x 1.592050 0.000000 0.000000 
#    y 0.000000 1.686730 0.000000 
#    z 0.000000 0.000000 1.664350 
# 
# From -- ./inp_files/24595.got.cif
#   From: 2010.05.17/outbox.cif.g08.bks.cpg/sg62_13_cif.got.tgz:24595.got - 2010.06.03 15:25:27.
