data_PCOD9463674
_publ_section_title
;
Structure prediction by ZEFSAII (Michael W. Deem and Ramdas Pophale) SiO2 
 PCOD9463674
Probable space group: P N M A
;
_chemical_formula_sum "Si O2"
_cell_formula_units_Z 64
_cell_length_a 15.458584
_cell_length_b 8.556989
_cell_length_c 24.012476
_cell_angle_alpha 90.000000
_cell_angle_beta 90.000000
_cell_angle_gamma 90.000000
_cell_volume 3176.344710
_symmetry_space_group_name_H-M "P N M A"
_symmetry_group_IT_number 62
_symmetry_cell_setting 'orthorhombic'
loop_
_space_group_symop_operation_xyz
x,y,z
1/2-x,-y,1/2+z
1/2+x,1/2-y,1/2-z
-x,1/2+y,-z
-x,-y,-z
1/2+x,y,1/2-z
1/2-x,1/2+y,1/2+z
x,1/2-y,z
loop_
_atom_site_type_symbol
_atom_site_label
_atom_site_fract_x
_atom_site_fract_y
_atom_site_fract_z
Si Si1 0.903621 0.935542 0.495840
Si Si2 0.996155 0.938340 0.289084
Si Si3 0.789849 0.070371 0.815858
Si Si4 0.811025 0.937423 0.697053
Si Si5 0.860573 0.068527 0.377454
Si Si6 0.995316 0.067650 0.835412
Si Si7 0.438728 0.435616 0.451151
Si Si8 0.251567 0.559273 0.924234
O O1 0.907969 0.750000 0.501776
O O2 0.835717 0.995376 0.541881
O O3 0.868844 0.981598 0.435627
O O4 0.000000 0.000000 0.500000
O O5 0.006146 0.750000 0.288849
O O6 0.972191 0.986086 0.225560
O O7 0.924851 0.992225 0.332601
O O8 0.087872 0.014496 0.305740
O O9 0.762554 0.250000 0.824844
O O10 0.891340 0.058910 0.829321
O O11 0.776173 0.022948 0.751795
O O12 0.735042 0.956544 0.854025
O O13 0.804813 0.750000 0.703702
O O14 0.762523 0.984390 0.640430
O O15 0.882153 0.250000 0.384281
O O16 0.018819 0.250000 0.842759
O O17 0.026026 0.976685 0.889640
O O18 0.500000 0.500000 0.500000
O O19 0.436684 0.250000 0.457905
O O20 0.338919 0.493579 0.451153
O O21 0.251395 0.750000 0.925657
#
# Coordination Sequence:
#
# PCOD9463674 Si02
#       8
#     8   8   8   8   8   8   8   8
#     4  11  23  43  67  93 127 169 211 259 317 380
#     4  10  21  39  62  92 127 165 203 248 313 380
#     4  10  22  40  61  88 124 165 204 252 313 377
#     4  10  19  37  63  93 125 159 204 255 311 374
#     4  12  25  39  60  92 126 161 209 262 313 372
#     4   9  21  41  63  88 121 159 202 253 311 369
#     4  11  24  42  63  89 121 162 211 261 313 370
#     4   9  22  41  63  90 125 166 205 254 316 372
#
# _framework density 20.148947
#
# number of rings (size 3 to 8) (size 9 to 14) (size 15 to 20)
#    0.000    1.750    0.000    4.500    3.500    4.000 
#    0.000    5.625    0.000    0.000    0.000    0.000 
#    0.000    0.000    0.000    0.000    0.000    0.000 
#
# Total GULP energy -357655.967851 kJ/mol
# GULP energy per Si atom -5588.374498 kJ/mol
# Density = 2.010309 g / cm^3
# Si number density = 20.148947 Si / 1000 Ang^3
#
#
#
# Elastic Constant Matrix: (Units=GPa)
#
#
# Indices 1 2 3 4 5 6 
#
# 1 67.9843 12.4455 39.9135 0.0000 0.0000 0.0000
# 2 12.4455 41.6703 4.2083 0.0000 0.0000 0.0000
# 3 39.9135 4.2083 80.1978 0.0000 0.0000 0.0000
# 4 0.0000 0.0000 0.0000 32.9014 0.0000 0.0000
# 5 0.0000 0.0000 0.0000 0.0000 28.2970 0.0000
# 6 0.0000 0.0000 0.0000 0.0000 0.0000 29.7796
#
#
#
# Elastic Compliance Matrix: (Units=1/GPa)
#
#
# Indices 1 2 3 4 5 6 
#
# 1 0.021961 -0.005484 -0.010642 0.000000 0.000000 0.000000
# 2 -0.005484 0.025495 0.001392 0.000000 0.000000 0.000000
# 3 -0.010642 0.001392 0.017693 0.000000 0.000000 0.000000
# 4 0.000000 0.000000 0.000000 0.030394 0.000000 0.000000
# 5 0.000000 0.000000 0.000000 0.000000 0.035339 0.000000
# 6 0.000000 0.000000 0.000000 0.000000 0.000000 0.033580
#
#
# Mechanical properties :
#
#
# Convention : Reuss Voigt Hill
#
# Bulk Modulus (GPa) = 28.02718 33.66524 30.84621
# Shear Modulus (GPa) = 24.29246 27.08127 25.68687
#
# Velocity S-wave (km/s) = 3.47601 3.67011 3.57438
# Velocity P-wave (km/s) = 5.48182 5.89102 5.69010
#
# Compressibility (1/GPa) = 0.03567965
#
# Stress axis : x y z
#
# Youngs Moduli (GPa) = 45.53486 39.22280 56.52092
#
# Poissons Ratio (x) = 0.21511 0.60150
# Poissons Ratio (y) = 0.24973 -0.07866
# Poissons Ratio (z) = 0.48458 -0.05458
#
# Static dielectric constant tensor:
#      x y z
#    x 1.704380 0.000000 0.000000 
#    y 0.000000 1.685310 0.000000 
#    z 0.000000 0.000000 1.675790 
# 
# From -- ./inp_files/29826.got.cif
#   From: 2010.05.17/outbox.cif.g08.bks.cpg/sg62_15_cif.got.tgz:29826.got - 2010.06.03 15:25:27.
