data_PCOD9463043
_publ_section_title
;
Structure prediction by ZEFSAII (Michael W. Deem and Ramdas Pophale) SiO2 
 PCOD9463043
Probable space group: P N M A
;
_chemical_formula_sum "Si O2"
_cell_formula_units_Z 64
_cell_length_a 34.080011
_cell_length_b 7.655291
_cell_length_c 11.414574
_cell_angle_alpha 90.000000
_cell_angle_beta 90.000000
_cell_angle_gamma 90.000000
_cell_volume 2977.975623
_symmetry_space_group_name_H-M "P N M A"
_symmetry_group_IT_number 62
_symmetry_cell_setting 'orthorhombic'
loop_
_space_group_symop_operation_xyz
x,y,z
1/2-x,-y,1/2+z
1/2+x,1/2-y,1/2-z
-x,1/2+y,-z
-x,-y,-z
1/2+x,y,1/2-z
1/2-x,1/2+y,1/2+z
x,1/2-y,z
loop_
_atom_site_type_symbol
_atom_site_label
_atom_site_fract_x
_atom_site_fract_y
_atom_site_fract_z
Si Si1 0.602940 0.538845 0.641524
Si Si2 0.513910 0.539553 0.633659
Si Si3 0.341129 0.547291 0.142679
Si Si4 0.672306 0.961943 0.491091
Si Si5 0.885506 0.535574 0.587012
Si Si6 0.813488 0.549083 0.732178
Si Si7 0.025020 0.039581 0.381212
Si Si8 0.772122 0.457394 0.200631
O O1 0.602445 0.750000 0.647003
O O2 0.558738 0.475145 0.643095
O O3 0.628752 0.476867 0.750470
O O4 0.628048 0.489887 0.527356
O O5 0.500000 0.500000 0.500000
O O6 0.513821 0.750000 0.640840
O O7 0.491589 0.478263 0.753281
O O8 0.334948 0.750000 0.119141
O O9 0.298586 0.480033 0.183019
O O10 0.363736 0.473777 0.030849
O O11 0.674322 0.750000 0.483464
O O12 0.701040 0.022258 0.594554
O O13 0.685224 0.042444 0.370877
O O14 0.888108 0.750000 0.585171
O O15 0.854750 0.477424 0.686149
O O16 0.930203 0.475540 0.601399
O O17 0.812883 0.750000 0.690472
O O18 0.771639 0.467310 0.698185
O O19 0.025640 0.250000 0.374057
O O20 0.000000 0.000000 0.500000
O O21 0.768428 0.250000 0.185554
#
# Coordination Sequence:
#
# PCOD9463043 Si02
#       8
#     8   8   8   8   8   8   8   8
#     4   9  19  37  56  77 112 148 179 220 280 335
#     4  10  22  37  58  86 116 153 192 237 290 347
#     4  10  19  33  58  84 105 139 186 227 264 321
#     4   9  19  35  54  75 104 139 174 220 270 318
#     4   9  20  36  55  81 113 144 177 224 279 326
#     4  10  21  36  55  77 106 145 181 219 271 326
#     4  10  21  39  61  87 117 150 190 237 290 345
#     4   9  20  37  55  76 108 146 178 219 278 326
#
# _framework density 21.491109000000002
#
# number of rings (size 3 to 8) (size 9 to 14) (size 15 to 20)
#    0.000    2.500    0.000    1.875    3.500    3.500 
#    0.000    2.500    0.000    0.000    0.000    0.000 
#    0.000    0.000    0.000    0.000    0.000    0.000 
#
# Total GULP energy -356774.384768 kJ/mol
# GULP energy per Si atom -5574.599762 kJ/mol
# Density = 2.144219 g / cm^3
# Si number density = 21.491109 Si / 1000 Ang^3
#
#
#
# Elastic Constant Matrix: (Units=GPa)
#
#
# Indices 1 2 3 4 5 6 
#
# 1 194.3088 8.5711 76.9448 0.0000 0.0000 0.0000
# 2 8.5711 35.0908 -0.5774 0.0000 0.0000 0.0000
# 3 76.9448 -0.5774 111.0526 0.0000 0.0000 0.0000
# 4 0.0000 0.0000 0.0000 14.6380 0.0000 0.0000
# 5 0.0000 0.0000 0.0000 0.0000 23.3077 0.0000
# 6 0.0000 0.0000 0.0000 0.0000 0.0000 12.0742
#
#
#
# Elastic Compliance Matrix: (Units=1/GPa)
#
#
# Indices 1 2 3 4 5 6 
#
# 1 0.007210 -0.001843 -0.005005 0.000000 0.000000 0.000000
# 2 -0.001843 0.028971 0.001428 0.000000 0.000000 0.000000
# 3 -0.005005 0.001428 0.012480 0.000000 0.000000 0.000000
# 4 0.000000 0.000000 0.000000 0.068315 0.000000 0.000000
# 5 0.000000 0.000000 0.000000 0.000000 0.042904 0.000000
# 6 0.000000 0.000000 0.000000 0.000000 0.000000 0.082821
#
#
# Mechanical properties :
#
#
# Convention : Reuss Voigt Hill
#
# Bulk Modulus (GPa) = 26.44108 56.70324 41.57216
# Shear Modulus (GPa) = 18.78646 27.03823 22.91234
#
# Velocity S-wave (km/s) = 2.95981 3.55084 3.26871
# Velocity P-wave (km/s) = 4.90006 6.57670 5.79930
#
# Compressibility (1/GPa) = 0.03781994
#
# Stress axis : x y z
#
# Youngs Moduli (GPa) = 138.70251 34.51695 80.12869
#
# Poissons Ratio (x) = 0.06363 0.40104
# Poissons Ratio (y) = 0.25568 -0.11441
# Poissons Ratio (z) = 0.69420 -0.04928
#
# Static dielectric constant tensor:
#      x y z
#    x 1.785140 0.000000 0.000000 
#    y 0.000000 1.800480 0.000000 
#    z 0.000000 0.000000 1.760010 
# 
# From -- ./inp_files/15813.got.cif
#   From: 2010.05.17/outbox.cif.g08.bks.cpg/sg62_8_cif.got.tgz:15813.got - 2010.06.03 15:25:27.
