data_PCOD9463124
_publ_section_title
;
Structure prediction by ZEFSAII (Michael W. Deem and Ramdas Pophale) SiO2 
 PCOD9463124
Probable space group: P N M A
;
_chemical_formula_sum "Si O2"
_cell_formula_units_Z 56
_cell_length_a 24.044796
_cell_length_b 8.213905
_cell_length_c 13.737205
_cell_angle_alpha 90.000000
_cell_angle_beta 90.000000
_cell_angle_gamma 90.000000
_cell_volume 2713.120930
_symmetry_space_group_name_H-M "P N M A"
_symmetry_group_IT_number 62
_symmetry_cell_setting 'orthorhombic'
loop_
_space_group_symop_operation_xyz
x,y,z
1/2-x,-y,1/2+z
1/2+x,1/2-y,1/2-z
-x,1/2+y,-z
-x,-y,-z
1/2+x,y,1/2-z
1/2-x,1/2+y,1/2+z
x,1/2-y,z
loop_
_atom_site_type_symbol
_atom_site_label
_atom_site_fract_x
_atom_site_fract_y
_atom_site_fract_z
Si Si1 0.620697 0.442224 0.278782
Si Si2 0.527780 0.944246 0.400268
Si Si3 0.333357 0.940588 0.215562
Si Si4 0.229505 0.440417 0.324016
Si Si5 0.040289 0.050713 0.706912
Si Si6 0.332726 0.057651 0.010896
Si Si7 0.441116 0.440206 0.911003
O O1 0.612066 0.250000 0.259779
O O2 0.589191 0.486204 0.377836
O O3 0.685848 0.476438 0.263867
O O4 0.590136 0.543499 0.193634
O O5 0.530941 0.750000 0.399492
O O6 0.489848 0.995729 0.307865
O O7 0.500000 0.000000 0.500000
O O8 0.336143 0.750000 0.237246
O O9 0.396427 0.006464 0.211952
O O10 0.291337 0.019627 0.291150
O O11 0.311306 0.970210 0.106708
O O12 0.224503 0.250000 0.345787
O O13 0.206846 0.532818 0.418394
O O14 0.040264 0.250000 0.701218
O O15 0.002116 0.991199 0.615837
O O16 0.337550 0.250000 0.030059
O O17 0.394330 0.988518 0.982625
O O18 0.447337 0.250000 0.934726
#
# Coordination Sequence:
#
# PCOD9463124 Si02
#       7
#     8   8   8   8   8   8   8
#     4   9  17  31  53  78 103 136 178 226 278 324
#     4  10  19  34  55  80 111 145 185 230 280 338
#     4  11  22  37  57  82 115 153 190 233 285 337
#     4  10  21  39  59  80 109 147 191 239 283 336
#     4   8  17  34  54  78 111 148 180 223 280 332
#     4  10  20  36  59  85 111 145 187 233 284 339
#     4   8  15  31  55  79 107 141 176 215 267 332
#
# _framework density 20.640435
#
# number of rings (size 3 to 8) (size 9 to 14) (size 15 to 20)
#    0.000    2.571    0.000    3.000    0.000    2.857 
#    2.571    7.143    0.000    0.000    0.000    0.000 
#    0.000    0.000    0.000    0.000    0.000    0.000 
#
# Total GULP energy -312312.815775 kJ/mol
# GULP energy per Si atom -5577.014567 kJ/mol
# Density = 2.059346 g / cm^3
# Si number density = 20.640435 Si / 1000 Ang^3
#
#
#
# Elastic Constant Matrix: (Units=GPa)
#
#
# Indices 1 2 3 4 5 6 
#
# 1 87.8219 4.1682 4.8741 0.0000 0.0000 0.0000
# 2 4.1682 37.3572 -2.7076 0.0000 0.0000 0.0000
# 3 4.8741 -2.7076 44.6962 0.0000 0.0000 0.0000
# 4 0.0000 0.0000 0.0000 23.6762 0.0000 0.0000
# 5 0.0000 0.0000 0.0000 0.0000 29.4658 0.0000
# 6 0.0000 0.0000 0.0000 0.0000 0.0000 22.4632
#
#
#
# Elastic Compliance Matrix: (Units=1/GPa)
#
#
# Indices 1 2 3 4 5 6 
#
# 1 0.011527 -0.001383 -0.001341 0.000000 0.000000 0.000000
# 2 -0.001383 0.027053 0.001790 0.000000 0.000000 0.000000
# 3 -0.001341 0.001790 0.022628 0.000000 0.000000 0.000000
# 4 0.000000 0.000000 0.000000 0.042236 0.000000 0.000000
# 5 0.000000 0.000000 0.000000 0.000000 0.033938 0.000000
# 6 0.000000 0.000000 0.000000 0.000000 0.000000 0.044517
#
#
# Mechanical properties :
#
#
# Convention : Reuss Voigt Hill
#
# Bulk Modulus (GPa) = 16.85250 20.28276 18.56763
# Shear Modulus (GPa) = 24.56433 26.02374 25.29403
#
# Velocity S-wave (km/s) = 3.45354 3.55465 3.50446
# Velocity P-wave (km/s) = 4.90765 5.16676 5.03887
#
# Compressibility (1/GPa) = 0.05933838
#
# Stress axis : x y z
#
# Youngs Moduli (GPa) = 86.75476 36.96494 44.19321
#
# Poissons Ratio (x) = 0.05113 0.05925
# Poissons Ratio (y) = 0.12001 -0.07909
# Poissons Ratio (z) = 0.11632 -0.06615
#
# Static dielectric constant tensor:
#      x y z
#    x 1.785440 0.000000 0.000000 
#    y 0.000000 1.718660 0.000000 
#    z 0.000000 0.000000 1.748180 
# 
# From -- ./inp_files/20433.got.cif
#   From: 2010.05.17/outbox.cif.g08.bks.cpg/sg62_11_cif.got.tgz:20433.got - 2010.06.03 15:25:27.
