data_PCOD9463847
_publ_section_title
;
Structure prediction by ZEFSAII (Michael W. Deem and Ramdas Pophale) SiO2 
 PCOD9463847
Probable space group: P N M A
;
_chemical_formula_sum "Si O2"
_cell_formula_units_Z 48
_cell_length_a 24.487274
_cell_length_b 7.421725
_cell_length_c 12.237516
_cell_angle_alpha 90.000000
_cell_angle_beta 90.000000
_cell_angle_gamma 90.000000
_cell_volume 2224.019402
_symmetry_space_group_name_H-M "P N M A"
_symmetry_group_IT_number 62
_symmetry_cell_setting 'orthorhombic'
loop_
_space_group_symop_operation_xyz
x,y,z
1/2-x,-y,1/2+z
1/2+x,1/2-y,1/2-z
-x,1/2+y,-z
-x,-y,-z
1/2+x,y,1/2-z
1/2-x,1/2+y,1/2+z
x,1/2-y,z
loop_
_atom_site_type_symbol
_atom_site_label
_atom_site_fract_x
_atom_site_fract_y
_atom_site_fract_z
Si Si1 0.144607 0.467040 0.836372
Si Si2 0.719621 0.030008 0.859312
Si Si3 0.955065 0.969794 0.315674
Si Si4 0.574542 0.542136 0.242313
Si Si5 0.879769 0.532139 0.511822
Si Si6 0.340161 0.461197 0.589035
O O1 0.144927 0.250000 0.836509
O O2 0.193765 0.525723 0.756561
O O3 0.088494 0.522955 0.777177
O O4 0.150258 0.526345 0.960205
O O5 0.719856 0.250000 0.860731
O O6 0.780582 0.964322 0.880688
O O7 0.676437 0.976062 0.953137
O O8 0.955746 0.750000 0.319411
O O9 0.929192 0.026149 0.431613
O O10 0.015518 0.036481 0.288855
O O11 0.562941 0.750000 0.271768
O O12 0.610854 0.536145 0.133107
O O13 0.609891 0.461062 0.340582
O O14 0.879987 0.750000 0.515889
O O15 0.337763 0.250000 0.618821
#
# Coordination Sequence:
#
# PCOD9463847 Si02
#       6
#     8   8   8   8   8   8
#     4   9  18  35  56  71  92 132 175 200 232 297
#     4   8  17  34  52  69  96 132 163 199 250 297
#     4   8  16  33  53  73  99 133 165 200 247 295
#     4  10  20  32  49  75 106 132 159 201 254 296
#     4   9  17  32  54  74  95 129 170 206 241 288
#     4  10  21  34  48  72 104 132 158 202 256 292
#
# _framework density 21.582545
#
# number of rings (size 3 to 8) (size 9 to 14) (size 15 to 20)
#    0.000    3.000    0.000    2.500    2.333    1.333 
#    0.000    5.000    0.000    0.000    0.000    0.000 
#    0.000    0.000    0.000    0.000    0.000    0.000 
#
# Total GULP energy -267966.453364 kJ/mol
# GULP energy per Si atom -5582.634445 kJ/mol
# Density = 2.153342 g / cm^3
# Si number density = 21.582545 Si / 1000 Ang^3
#
#
#
# Elastic Constant Matrix: (Units=GPa)
#
#
# Indices 1 2 3 4 5 6 
#
# 1 15.9871 -0.5171 17.0586 0.0000 0.0000 0.0000
# 2 -0.5171 66.2954 -15.7063 0.0000 0.0000 0.0000
# 3 17.0586 -15.7063 113.8741 0.0000 0.0000 0.0000
# 4 0.0000 0.0000 0.0000 20.3162 0.0000 0.0000
# 5 0.0000 0.0000 0.0000 0.0000 13.0768 0.0000
# 6 0.0000 0.0000 0.0000 0.0000 0.0000 -1.8796
#
#
#
# Elastic Compliance Matrix: (Units=1/GPa)
#
#
# Indices 1 2 3 4 5 6 
#
# 1 0.074743 -0.002140 -0.011492 0.000000 0.000000 0.000000
# 2 -0.002140 0.015655 0.002480 0.000000 0.000000 0.000000
# 3 -0.011492 0.002480 0.010845 0.000000 0.000000 0.000000
# 4 0.000000 0.000000 0.000000 0.049222 0.000000 0.000000
# 5 0.000000 0.000000 0.000000 0.000000 0.076471 0.000000
# 6 0.000000 0.000000 0.000000 0.000000 0.000000 -0.532033
#
#
# Mechanical properties :
#
#
# Convention : Reuss Voigt Hill
#
# Bulk Modulus (GPa) = 12.66790 21.98080 17.32435
# Shear Modulus (GPa) = -19.49468 19.32410 -0.08529
#
# Velocity S-wave (km/s) = -3.00869 2.99550 -0.19901
# Velocity P-wave (km/s) = 2.48744 4.70857 2.82695
#
# Compressibility (1/GPa) = 0.07893966
#
# Stress axis : x y z
#
# Youngs Moduli (GPa) = 13.37915 63.87820 92.20699
#
# Poissons Ratio (x) = 0.13668 1.05963
# Poissons Ratio (y) = 0.02863 -0.22865
# Poissons Ratio (z) = 0.15375 -0.15840
#
# Static dielectric constant tensor:
#      x y z
#    x 1.786130 0.000000 0.000000 
#    y 0.000000 1.813960 0.000000 
#    z 0.000000 0.000000 1.727920 
# 
# From -- ./inp_files/9294.got.cif
#   From: 2010.05.17/outbox.cif.g08.bks.cpg/sg62_5_cif.got.tgz:9294.got - 2010.06.03 15:25:27.
