data_PCOD9463348
_publ_section_title
;
Structure prediction by ZEFSAII (Michael W. Deem and Ramdas Pophale) SiO2 
 PCOD9463348
Probable space group: P N M A
;
_chemical_formula_sum "Si O2"
_cell_formula_units_Z 48
_cell_length_a 30.254566
_cell_length_b 8.552424
_cell_length_c 10.473086
_cell_angle_alpha 90.000000
_cell_angle_beta 90.000000
_cell_angle_gamma 90.000000
_cell_volume 2709.909708
_symmetry_space_group_name_H-M "P N M A"
_symmetry_group_IT_number 62
_symmetry_cell_setting 'orthorhombic'
loop_
_space_group_symop_operation_xyz
x,y,z
1/2-x,-y,1/2+z
1/2+x,1/2-y,1/2-z
-x,1/2+y,-z
-x,-y,-z
1/2+x,y,1/2-z
1/2-x,1/2+y,1/2+z
x,1/2-y,z
loop_
_atom_site_type_symbol
_atom_site_label
_atom_site_fract_x
_atom_site_fract_y
_atom_site_fract_z
Si Si1 0.523806 0.061023 0.875005
Si Si2 0.714650 0.937695 0.484364
Si Si3 0.617199 0.062697 0.476202
Si Si4 0.527705 0.937227 0.380128
Si Si5 0.115487 0.060452 0.727527
Si Si6 0.784726 0.939490 0.269716
O O1 0.524362 0.250000 0.878075
O O2 0.496387 0.012692 0.749693
O O3 0.574479 0.005621 0.857145
O O4 0.500000 0.000000 0.000000
O O5 0.714607 0.750000 0.488897
O O6 0.749926 0.988942 0.377407
O O7 0.665734 0.996959 0.448082
O O8 0.724931 0.000408 0.626720
O O9 0.618241 0.250000 0.468618
O O10 0.607141 0.019355 0.624150
O O11 0.577683 0.997591 0.391147
O O12 0.527396 0.750000 0.384860
O O13 0.500000 0.000000 0.500000
O O14 0.115674 0.250000 0.721693
O O15 0.165202 0.008625 0.695765
O O16 0.784617 0.750000 0.264420
#
# Coordination Sequence:
#
# PCOD9463348 Si02
#       6
#     8   8   8   8   8   8
#     4  10  21  37  54  77 112 146 180 223 270 323
#     4  10  20  35  56  84 114 144 182 230 277 326
#     4  10  19  35  58  82 108 144 185 228 277 328
#     4  11  21  35  57  84 112 142 182 230 273 323
#     4   8  15  33  56  75 102 142 180 217 267 321
#     4   9  19  36  58  80 109 145 181 226 277 329
#
# _framework density 17.712765999999998
#
# number of rings (size 3 to 8) (size 9 to 14) (size 15 to 20)
#    0.000    2.333    1.667    2.500    0.000    2.667 
#    3.000    0.833    0.000    0.000    0.000    0.000 
#    0.000    0.000    0.000    0.000    0.000    0.000 
#
# Total GULP energy -267741.935953 kJ/mol
# GULP energy per Si atom -5577.956999 kJ/mol
# Density = 1.767245 g / cm^3
# Si number density = 17.712766 Si / 1000 Ang^3
#
#
#
# Elastic Constant Matrix: (Units=GPa)
#
#
# Indices 1 2 3 4 5 6 
#
# 1 168.8737 31.7039 103.3633 0.0000 0.0000 0.0000
# 2 31.7039 25.0087 27.8517 0.0000 0.0000 0.0000
# 3 103.3633 27.8517 125.1440 0.0000 0.0000 0.0000
# 4 0.0000 0.0000 0.0000 28.1007 0.0000 0.0000
# 5 0.0000 0.0000 0.0000 0.0000 37.2768 0.0000
# 6 0.0000 0.0000 0.0000 0.0000 0.0000 27.5973
#
#
#
# Elastic Compliance Matrix: (Units=1/GPa)
#
#
# Indices 1 2 3 4 5 6 
#
# 1 0.012582 -0.005819 -0.009097 0.000000 0.000000 0.000000
# 2 -0.005819 0.055854 -0.007624 0.000000 0.000000 0.000000
# 3 -0.009097 -0.007624 0.017202 0.000000 0.000000 0.000000
# 4 0.000000 0.000000 0.000000 0.035586 0.000000 0.000000
# 5 0.000000 0.000000 0.000000 0.000000 0.026826 0.000000
# 6 0.000000 0.000000 0.000000 0.000000 0.000000 0.036235
#
#
# Mechanical properties :
#
#
# Convention : Reuss Voigt Hill
#
# Bulk Modulus (GPa) = 24.65695 71.65157 48.15426
# Shear Modulus (GPa) = 20.58571 29.00214 24.79392
#
# Velocity S-wave (km/s) = 3.41280 4.05082 3.74542
# Velocity P-wave (km/s) = 5.42957 7.90054 6.77860
#
# Compressibility (1/GPa) = 0.04055652
#
# Stress axis : x y z
#
# Youngs Moduli (GPa) = 79.47670 17.90367 58.13426
#
# Poissons Ratio (x) = 0.10419 0.52886
# Poissons Ratio (y) = 0.46250 0.44323
# Poissons Ratio (z) = 0.72302 0.13650
#
# Static dielectric constant tensor:
#      x y z
#    x 1.615930 0.000000 0.000000 
#    y 0.000000 1.605870 0.000000 
#    z 0.000000 0.000000 1.575580 
# 
# From -- ./inp_files/10271.got.cif
#   From: 2010.05.17/outbox.cif.g08.bks.cpg/sg62_6_cif.got.tgz:10271.got - 2010.06.03 15:25:27.
