data_PCOD9463659
_publ_section_title
;
Structure prediction by ZEFSAII (Michael W. Deem and Ramdas Pophale) SiO2 
 PCOD9463659
Probable space group: P N M A
;
_chemical_formula_sum "Si O2"
_cell_formula_units_Z 48
_cell_length_a 14.732758
_cell_length_b 8.716438
_cell_length_c 20.764783
_cell_angle_alpha 90.000000
_cell_angle_beta 90.000000
_cell_angle_gamma 90.000000
_cell_volume 2666.554703
_symmetry_space_group_name_H-M "P N M A"
_symmetry_group_IT_number 62
_symmetry_cell_setting 'orthorhombic'
loop_
_space_group_symop_operation_xyz
x,y,z
1/2-x,-y,1/2+z
1/2+x,1/2-y,1/2-z
-x,1/2+y,-z
-x,-y,-z
1/2+x,y,1/2-z
1/2-x,1/2+y,1/2+z
x,1/2-y,z
loop_
_atom_site_type_symbol
_atom_site_label
_atom_site_fract_x
_atom_site_fract_y
_atom_site_fract_z
Si Si1 0.983813 0.936437 0.121612
Si Si2 0.710548 0.066099 0.565585
Si Si3 0.277148 0.934561 0.203728
Si Si4 0.823412 0.064889 0.928955
Si Si5 0.833569 0.932079 0.675772
Si Si6 0.514995 0.065185 0.771218
O O1 0.983419 0.750000 0.121269
O O2 0.072088 0.985841 0.081777
O O3 0.993590 0.982467 0.196231
O O4 0.887848 0.987285 0.092849
O O5 0.712224 0.250000 0.567993
O O6 0.717230 0.008813 0.492715
O O7 0.787604 0.001825 0.612321
O O8 0.268778 0.750000 0.212207
O O9 0.231126 0.974694 0.135942
O O10 0.383541 0.972884 0.205951
O O11 0.225110 0.011338 0.262952
O O12 0.822142 0.250000 0.935194
O O13 0.831514 0.750000 0.672291
O O14 0.935443 0.990434 0.687746
O O15 0.504545 0.250000 0.773519
#
# Coordination Sequence:
#
# PCOD9463659 Si02
#       6
#     8   8   8   8   8   8
#     4   9  17  32  59  87 115 148 188 234 285 345
#     4  11  22  38  58  84 117 159 199 233 284 351
#     4  10  20  38  64  86 114 155 197 238 286 348
#     4  10  20  36  57  87 120 151 186 238 296 343
#     4  12  24  37  57  87 120 152 191 243 291 340
#     4  10  19  37  62  87 112 149 197 239 285 345
#
# _framework density 18.000755999999999
#
# number of rings (size 3 to 8) (size 9 to 14) (size 15 to 20)
#    0.000    1.667    3.333    2.500    0.000    1.333 
#    0.000    1.667    0.000    0.000    0.000    0.000 
#    0.000    0.000    0.000    0.000    0.000    0.000 
#
# Total GULP energy -268156.423301 kJ/mol
# GULP energy per Si atom -5586.592152 kJ/mol
# Density = 1.795979 g / cm^3
# Si number density = 18.000756 Si / 1000 Ang^3
#
#
#
# Elastic Constant Matrix: (Units=GPa)
#
#
# Indices 1 2 3 4 5 6 
#
# 1 72.3068 25.9813 2.9858 0.0000 0.0000 0.0000
# 2 25.9813 33.4611 18.3265 0.0000 0.0000 0.0000
# 3 2.9858 18.3265 50.9527 0.0000 0.0000 0.0000
# 4 0.0000 0.0000 0.0000 25.1833 0.0000 0.0000
# 5 0.0000 0.0000 0.0000 0.0000 26.9828 0.0000
# 6 0.0000 0.0000 0.0000 0.0000 0.0000 4.4078
#
#
#
# Elastic Compliance Matrix: (Units=1/GPa)
#
#
# Indices 1 2 3 4 5 6 
#
# 1 0.020390 -0.018901 0.005603 0.000000 0.000000 0.000000
# 2 -0.018901 0.054738 -0.018580 0.000000 0.000000 0.000000
# 3 0.005603 -0.018580 0.025981 0.000000 0.000000 0.000000
# 4 0.000000 0.000000 0.000000 0.039709 0.000000 0.000000
# 5 0.000000 0.000000 0.000000 0.000000 0.037061 0.000000
# 6 0.000000 0.000000 0.000000 0.000000 0.000000 0.226869
#
#
# Mechanical properties :
#
#
# Convention : Reuss Voigt Hill
#
# Bulk Modulus (GPa) = 26.77198 27.92310 27.34754
# Shear Modulus (GPa) = 10.39599 18.60991 14.50295
#
# Velocity S-wave (km/s) = 2.40579 3.21883 2.84154
# Velocity P-wave (km/s) = 4.75627 5.41852 5.09816
#
# Compressibility (1/GPa) = 0.03735249
#
# Stress axis : x y z
#
# Youngs Moduli (GPa) = 49.04321 18.26884 38.49026
#
# Poissons Ratio (x) = 0.34530 -0.21568
# Poissons Ratio (y) = 0.92698 0.71516
# Poissons Ratio (z) = -0.27481 0.33944
#
# Static dielectric constant tensor:
#      x y z
#    x 1.610290 0.000000 0.000000 
#    y 0.000000 1.607760 0.000000 
#    z 0.000000 0.000000 1.589340 
# 
# From -- ./inp_files/23680.got.cif
#   From: 2010.05.17/outbox.cif.g08.bks.cpg/sg62_12_cif.got.tgz:23680.got - 2010.06.03 15:25:27.
