data_PCOD9463603
_publ_section_title
;
Structure prediction by ZEFSAII (Michael W. Deem and Ramdas Pophale) SiO2 
 PCOD9463603
Probable space group: P N M A
;
_chemical_formula_sum "Si O2"
_cell_formula_units_Z 64
_cell_length_a 15.640143
_cell_length_b 8.655143
_cell_length_c 23.882066
_cell_angle_alpha 90.000000
_cell_angle_beta 90.000000
_cell_angle_gamma 90.000000
_cell_volume 3232.859730
_symmetry_space_group_name_H-M "P N M A"
_symmetry_group_IT_number 62
_symmetry_cell_setting 'orthorhombic'
loop_
_space_group_symop_operation_xyz
x,y,z
1/2-x,-y,1/2+z
1/2+x,1/2-y,1/2-z
-x,1/2+y,-z
-x,-y,-z
1/2+x,y,1/2-z
1/2-x,1/2+y,1/2+z
x,1/2-y,z
loop_
_atom_site_type_symbol
_atom_site_label
_atom_site_fract_x
_atom_site_fract_y
_atom_site_fract_z
Si Si1 0.585767 0.935410 0.130456
Si Si2 0.654197 0.568784 0.760948
Si Si3 0.892070 0.565766 0.380707
Si Si4 0.255397 0.068114 0.423438
Si Si5 0.839106 0.066354 0.748903
Si Si6 0.097299 0.934010 0.125456
Si Si7 0.740782 0.068296 0.454109
Si Si8 0.591039 0.066198 0.648868
O O1 0.593618 0.750000 0.123634
O O2 0.490915 0.980285 0.111455
O O3 0.599931 0.968993 0.196488
O O4 0.662038 0.015750 0.097310
O O5 0.645408 0.750000 0.771940
O O6 0.632718 0.475307 0.817005
O O7 0.751584 0.527919 0.744340
O O8 0.597148 0.516812 0.708676
O O9 0.884042 0.750000 0.388666
O O10 0.826587 0.480635 0.421446
O O11 0.265909 0.250000 0.414807
O O12 0.265461 0.023776 0.488110
O O13 0.327293 0.980813 0.387421
O O14 0.818586 0.250000 0.745914
O O15 0.879734 0.037121 0.809466
O O16 0.109036 0.750000 0.115595
O O17 0.997745 0.973494 0.118287
O O18 0.161617 0.025040 0.085930
O O19 0.741569 0.250000 0.465848
O O20 0.590999 0.250000 0.658767
#
# Coordination Sequence:
#
# PCOD9463603 Si02
#       8
#     8   8   8   8   8   8   8   8
#     4  10  22  41  67  96 126 166 211 257 313 373
#     4  12  23  36  60  97 133 169 207 253 311 372
#     4  11  23  42  67  95 128 167 209 257 315 376
#     4  12  26  44  66  92 125 166 212 263 316 371
#     4  10  19  36  64  93 127 167 205 251 309 374
#     4  10  22  41  67  96 126 166 211 257 313 373
#     4  12  26  44  66  92 125 166 212 263 316 371
#     4  11  23  42  67  95 128 167 209 257 315 376
#
# _framework density 19.796714999999999
#
# number of rings (size 3 to 8) (size 9 to 14) (size 15 to 20)
#    0.000    1.000    2.500    4.875    0.000    5.000 
#    0.000    1.250    0.000    0.000    0.000    0.000 
#    0.000    0.000    0.000    0.000    0.000    0.000 
#
# Total GULP energy -358082.397127 kJ/mol
# GULP energy per Si atom -5595.037455 kJ/mol
# Density = 1.975166 g / cm^3
# Si number density = 19.796715 Si / 1000 Ang^3
#
#
#
# Elastic Constant Matrix: (Units=GPa)
#
#
# Indices 1 2 3 4 5 6 
#
# 1 80.7680 15.0098 -13.3990 0.0000 0.0000 0.0000
# 2 15.0098 23.0606 -13.4420 0.0000 0.0000 0.0000
# 3 -13.3990 -13.4420 40.6897 0.0000 0.0000 0.0000
# 4 0.0000 0.0000 0.0000 31.6073 0.0000 0.0000
# 5 0.0000 0.0000 0.0000 0.0000 -1.3288 0.0000
# 6 0.0000 0.0000 0.0000 0.0000 0.0000 6.2568
#
#
#
# Elastic Compliance Matrix: (Units=1/GPa)
#
#
# Indices 1 2 3 4 5 6 
#
# 1 0.014217 -0.008081 0.002012 0.000000 0.000000 0.000000
# 2 -0.008081 0.058299 0.016598 0.000000 0.000000 0.000000
# 3 0.002012 0.016598 0.030722 0.000000 0.000000 0.000000
# 4 0.000000 0.000000 0.000000 0.031638 0.000000 0.000000
# 5 0.000000 0.000000 0.000000 0.000000 -0.752548 0.000000
# 6 0.000000 0.000000 0.000000 0.000000 0.000000 0.159826
#
#
# Mechanical properties :
#
#
# Convention : Reuss Voigt Hill
#
# Bulk Modulus (GPa) = 8.04527 13.42844 10.73686
# Shear Modulus (GPa) = -11.42927 17.73035 3.15054
#
# Velocity S-wave (km/s) = -2.40538 2.99594 1.26289
# Velocity P-wave (km/s) = 1.90832 4.33191 2.74988
#
# Compressibility (1/GPa) = 0.12429667
#
# Stress axis : x y z
#
# Youngs Moduli (GPa) = 70.34023 17.15309 32.54985
#
# Poissons Ratio (x) = 0.13861 -0.06549
# Poissons Ratio (y) = 0.56839 -0.54027
# Poissons Ratio (z) = -0.14153 -0.28471
#
# Static dielectric constant tensor:
#      x y z
#    x 1.691670 0.000000 0.000000 
#    y 0.000000 1.681220 0.000000 
#    z 0.000000 0.000000 1.669840 
# 
# From -- ./inp_files/29911.got.cif
#   From: 2010.05.17/outbox.cif.g08.bks.cpg/sg62_15_cif.got.tgz:29911.got - 2010.06.03 15:25:27.
