data_PCOD9463546
_publ_section_title
;
Structure prediction by ZEFSAII (Michael W. Deem and Ramdas Pophale) SiO2 
 PCOD9463546
Probable space group: P N M A
;
_chemical_formula_sum "Si O2"
_cell_formula_units_Z 40
_cell_length_a 10.386625
_cell_length_b 7.781162
_cell_length_c 27.982436
_cell_angle_alpha 90.000000
_cell_angle_beta 90.000000
_cell_angle_gamma 90.000000
_cell_volume 2261.540807
_symmetry_space_group_name_H-M "P N M A"
_symmetry_group_IT_number 62
_symmetry_cell_setting 'orthorhombic'
loop_
_space_group_symop_operation_xyz
x,y,z
1/2-x,-y,1/2+z
1/2+x,1/2-y,1/2-z
-x,1/2+y,-z
-x,-y,-z
1/2+x,y,1/2-z
1/2-x,1/2+y,1/2+z
x,1/2-y,z
loop_
_atom_site_type_symbol
_atom_site_label
_atom_site_fract_x
_atom_site_fract_y
_atom_site_fract_z
Si Si1 0.291832 0.750000 0.295356
Si Si2 0.879336 0.955964 0.466531
Si Si3 0.983474 0.057983 0.366102
Si Si4 0.985931 0.750000 0.293040
Si Si5 0.211822 0.548820 0.871325
Si Si6 0.367014 0.043882 0.475006
O O1 0.139540 0.750000 0.280967
O O2 0.391041 0.750000 0.251791
O O3 0.313675 0.581119 0.328131
O O4 0.872400 0.750000 0.461761
O O5 0.751611 0.020951 0.493078
O O6 0.901875 0.030309 0.413970
O O7 0.000000 0.000000 0.500000
O O8 0.962974 0.250000 0.347322
O O9 0.134188 0.042492 0.380604
O O10 0.959684 0.915343 0.326294
O O11 0.179711 0.750000 0.861434
O O12 0.144007 0.487142 0.920019
O O13 0.353202 0.250000 0.472732
O O14 0.500000 0.000000 0.500000
#
# Coordination Sequence:
#
# PCOD9463546 Si02
#       6
#     4   8   8   4   8   8
#     4  10  22  40  66  82 108 154 188 246 299 336
#     4  11  20  33  56  87 118 152 195 238 282 344
#     4  10  19  36  60  85 114 149 190 244 287 340
#     4  10  22  42  60  88 112 144 200 242 295 348
#     4   9  19  37  58  83 114 150 196 229 281 356
#     4  10  22  36  52  82 122 158 192 235 283 350
#
# _framework density 17.687056999999999
#
# number of rings (size 3 to 8) (size 9 to 14) (size 15 to 20)
#    0.000    2.000    3.000    0.600    1.400    2.400 
#    3.600    0.000    0.000    0.000    0.000    0.000 
#    0.000    0.000    0.000    0.000    0.000    0.000 
#
# Total GULP energy -223235.954509 kJ/mol
# GULP energy per Si atom -5580.898863 kJ/mol
# Density = 1.764680 g / cm^3
# Si number density = 17.687057 Si / 1000 Ang^3
#
#
#
# Elastic Constant Matrix: (Units=GPa)
#
#
# Indices 1 2 3 4 5 6 
#
# 1 109.1925 33.8696 83.5920 0.0000 0.0000 0.0000
# 2 33.8696 99.0612 61.5001 0.0000 0.0000 0.0000
# 3 83.5920 61.5001 148.1745 0.0000 0.0000 0.0000
# 4 0.0000 0.0000 0.0000 13.7209 0.0000 0.0000
# 5 0.0000 0.0000 0.0000 0.0000 38.4028 0.0000
# 6 0.0000 0.0000 0.0000 0.0000 0.0000 21.7320
#
#
#
# Elastic Compliance Matrix: (Units=1/GPa)
#
#
# Indices 1 2 3 4 5 6 
#
# 1 0.016122 0.000181 -0.009171 0.000000 0.000000 0.000000
# 2 0.000181 0.013601 -0.005747 0.000000 0.000000 0.000000
# 3 -0.009171 -0.005747 0.014308 0.000000 0.000000 0.000000
# 4 0.000000 0.000000 0.000000 0.072881 0.000000 0.000000
# 5 0.000000 0.000000 0.000000 0.000000 0.026040 0.000000
# 6 0.000000 0.000000 0.000000 0.000000 0.000000 0.046015
#
#
# Mechanical properties :
#
#
# Convention : Reuss Voigt Hill
#
# Bulk Modulus (GPa) = 68.69265 79.37241 74.03253
# Shear Modulus (GPa) = 22.39207 26.60224 24.49716
#
# Velocity S-wave (km/s) = 3.56197 3.88242 3.72564
# Velocity P-wave (km/s) = 7.47255 8.06666 7.77528
#
# Compressibility (1/GPa) = 0.01455760
#
# Stress axis : x y z
#
# Youngs Moduli (GPa) = 62.02520 73.52446 69.89240
#
# Poissons Ratio (x) = -0.01331 0.64095
# Poissons Ratio (y) = -0.01123 0.40168
# Poissons Ratio (z) = 0.56880 0.42256
#
# Static dielectric constant tensor:
#      x y z
#    x 1.578970 0.000000 0.000000 
#    y 0.000000 1.629070 0.000000 
#    z 0.000000 0.000000 1.577190 
# 
# From -- ./inp_files/28632.got.cif
#   From: 2010.05.17/outbox.cif.g08.bks.cpg/sg62_15_cif.got.tgz:28632.got - 2010.06.03 15:25:27.
