data_PCOD9463383
_publ_section_title
;
Structure prediction by ZEFSAII (Michael W. Deem and Ramdas Pophale) SiO2 
 PCOD9463383
Probable space group: P N M A
;
_chemical_formula_sum "Si O2"
_cell_formula_units_Z 64
_cell_length_a 21.168148
_cell_length_b 8.632153
_cell_length_c 20.000820
_cell_angle_alpha 90.000000
_cell_angle_beta 90.000000
_cell_angle_gamma 90.000000
_cell_volume 3654.683681
_symmetry_space_group_name_H-M "P N M A"
_symmetry_group_IT_number 62
_symmetry_cell_setting 'orthorhombic'
loop_
_space_group_symop_operation_xyz
x,y,z
1/2-x,-y,1/2+z
1/2+x,1/2-y,1/2-z
-x,1/2+y,-z
-x,-y,-z
1/2+x,y,1/2-z
1/2-x,1/2+y,1/2+z
x,1/2-y,z
loop_
_atom_site_type_symbol
_atom_site_label
_atom_site_fract_x
_atom_site_fract_y
_atom_site_fract_z
Si Si1 0.791099 0.929647 0.820550
Si Si2 0.560534 0.436507 0.462287
Si Si3 0.346891 0.061279 0.160924
Si Si4 0.544670 0.435292 0.058218
Si Si5 0.424172 0.066717 0.686094
Si Si6 0.484914 0.062593 0.200722
Si Si7 0.167057 0.938134 0.505329
Si Si8 0.803950 0.929790 0.982565
O O1 0.795699 0.750000 0.799368
O O2 0.720072 0.990223 0.807712
O O3 0.796123 0.930897 0.901757
O O4 0.852332 0.018893 0.794603
O O5 0.500000 0.500000 0.500000
O O6 0.561397 0.250000 0.464417
O O7 0.561230 0.488414 0.385257
O O8 0.626604 0.496467 0.494770
O O9 0.344688 0.250000 0.161181
O O10 0.411356 0.013699 0.196989
O O11 0.349259 0.016924 0.082283
O O12 0.544230 0.250000 0.054729
O O13 0.516926 0.480461 0.130084
O O14 0.500000 0.500000 0.000000
O O15 0.614417 0.497981 0.043791
O O16 0.427377 0.250000 0.678479
O O17 0.474456 0.008966 0.740066
O O18 0.486345 0.250000 0.206276
O O19 0.166759 0.750000 0.503708
O O20 0.238228 0.995686 0.490329
O O21 0.805704 0.750000 0.003635
#
# Coordination Sequence:
#
# PCOD9463383 Si02
#       8
#     8   8   8   8   8   8   8   8
#     4   8  14  29  53  75  96 127 169 211 254 306
#     4  10  19  35  59  84 107 134 171 213 263 317
#     4   8  14  28  52  77  98 130 173 213 256 305
#     4  11  21  32  49  74 105 140 177 216 256 302
#     4  11  22  35  52  78 108 137 172 215 264 314
#     4  10  20  35  53  73 102 141 180 215 259 312
#     4   9  15  29  50  73 102 134 170 211 252 299
#     4   7  13  26  49  76 101 131 164 200 250 305
#
# _framework density 17.511776000000001
#
# number of rings (size 3 to 8) (size 9 to 14) (size 15 to 20)
#    0.000    2.750    1.250    4.125    0.000    1.000 
#    0.000    6.875    2.750    0.000    0.000    0.000 
#    0.000    0.000    0.000    0.000    0.000    0.000 
#
# Total GULP energy -356498.784353 kJ/mol
# GULP energy per Si atom -5570.293506 kJ/mol
# Density = 1.747192 g / cm^3
# Si number density = 17.511776 Si / 1000 Ang^3
#
#
#
# Elastic Constant Matrix: (Units=GPa)
#
#
# Indices 1 2 3 4 5 6 
#
# 1 206.4257 36.9762 57.3874 0.0000 0.0000 0.0000
# 2 36.9762 35.0227 19.3581 0.0000 0.0000 0.0000
# 3 57.3874 19.3581 44.8259 0.0000 0.0000 0.0000
# 4 0.0000 0.0000 0.0000 19.8661 0.0000 0.0000
# 5 0.0000 0.0000 0.0000 0.0000 27.0581 0.0000
# 6 0.0000 0.0000 0.0000 0.0000 0.0000 22.9877
#
#
#
# Elastic Compliance Matrix: (Units=1/GPa)
#
#
# Indices 1 2 3 4 5 6 
#
# 1 0.007851 -0.003590 -0.008500 0.000000 0.000000 0.000000
# 2 -0.003590 0.039147 -0.012309 0.000000 0.000000 0.000000
# 3 -0.008500 -0.012309 0.038506 0.000000 0.000000 0.000000
# 4 0.000000 0.000000 0.000000 0.050337 0.000000 0.000000
# 5 0.000000 0.000000 0.000000 0.000000 0.036958 0.000000
# 6 0.000000 0.000000 0.000000 0.000000 0.000000 0.043502
#
#
# Mechanical properties :
#
#
# Convention : Reuss Voigt Hill
#
# Bulk Modulus (GPa) = 27.24446 57.07976 42.16211
# Shear Modulus (GPa) = 18.02879 25.48588 21.75734
#
# Velocity S-wave (km/s) = 3.21210 3.81905 3.52865
# Velocity P-wave (km/s) = 5.41741 7.21891 6.38205
#
# Compressibility (1/GPa) = 0.03670471
#
# Stress axis : x y z
#
# Youngs Moduli (GPa) = 127.38031 25.54463 25.96976
#
# Poissons Ratio (x) = 0.09171 0.22074
# Poissons Ratio (y) = 0.45732 0.31967
# Poissons Ratio (z) = 1.08274 0.31444
#
# Static dielectric constant tensor:
#      x y z
#    x 1.649240 0.000000 0.000000 
#    y 0.000000 1.594750 0.000000 
#    z 0.000000 0.000000 1.560590 
# 
# From -- ./inp_files/27921.got.cif
#   From: 2010.05.17/outbox.cif.g08.bks.cpg/sg62_14_cif.got.tgz:27921.got - 2010.06.03 15:25:27.
