data_PCOD9463407
_publ_section_title
;
Structure prediction by ZEFSAII (Michael W. Deem and Ramdas Pophale) SiO2 
 PCOD9463407
Probable space group: P N M A
;
_chemical_formula_sum "Si O2"
_cell_formula_units_Z 56
_cell_length_a 15.723847
_cell_length_b 8.840030
_cell_length_c 21.698469
_cell_angle_alpha 90.000000
_cell_angle_beta 90.000000
_cell_angle_gamma 90.000000
_cell_volume 3016.071551
_symmetry_space_group_name_H-M "P N M A"
_symmetry_group_IT_number 62
_symmetry_cell_setting 'orthorhombic'
loop_
_space_group_symop_operation_xyz
x,y,z
1/2-x,-y,1/2+z
1/2+x,1/2-y,1/2-z
-x,1/2+y,-z
-x,-y,-z
1/2+x,y,1/2-z
1/2-x,1/2+y,1/2+z
x,1/2-y,z
loop_
_atom_site_type_symbol
_atom_site_label
_atom_site_fract_x
_atom_site_fract_y
_atom_site_fract_z
Si Si1 0.062158 0.930477 0.949552
Si Si2 0.000766 0.934177 0.814439
Si Si3 0.876591 0.066675 0.296962
Si Si4 0.810334 0.565993 0.835941
Si Si5 0.991517 0.920637 0.401705
Si Si6 0.788709 0.928118 0.979358
Si Si7 0.623345 0.419344 0.023107
O O1 0.056382 0.750000 0.951020
O O2 0.034561 0.980808 0.881575
O O3 0.153483 0.985125 0.971807
O O4 0.000000 0.000000 0.000000
O O5 0.999350 0.750000 0.812989
O O6 0.068413 0.981566 0.762571
O O7 0.901740 0.983625 0.808624
O O8 0.876990 0.250000 0.299393
O O9 0.777365 0.018222 0.302324
O O10 0.928402 0.001751 0.354702
O O11 0.810557 0.750000 0.835082
O O12 0.804730 0.521706 0.908461
O O13 0.011992 0.750000 0.381031
O O14 0.942643 0.908194 0.466697
O O15 0.074626 0.018813 0.417077
O O16 0.807219 0.750000 0.981649
O O17 0.693407 0.964535 0.999267
O O18 0.658167 0.250000 0.033423
#
# Coordination Sequence:
#
# PCOD9463407 Si02
#       7
#     8   8   8   8   8   8   8
#     4  11  21  36  57  84 114 146 190 241 295 349
#     4   9  19  36  56  82 113 146 193 244 285 342
#     4  10  19  35  60  82 108 152 198 237 284 345
#     4   9  17  32  56  82 107 143 188 233 285 340
#     4  10  20  34  54  81 116 148 183 236 289 337
#     4  11  20  34  57  83 114 147 184 237 295 346
#     4  10  20  34  54  82 113 149 192 233 277 339
#
# _framework density 18.567198999999999
#
# number of rings (size 3 to 8) (size 9 to 14) (size 15 to 20)
#    0.000    2.000    2.857    1.714    0.000    1.143 
#    2.571    1.429    0.000    0.000    0.000    0.000 
#    0.000    0.000    0.000    0.000    0.000    0.000 
#
# Total GULP energy -312141.848546 kJ/mol
# GULP energy per Si atom -5573.961581 kJ/mol
# Density = 1.852494 g / cm^3
# Si number density = 18.567199 Si / 1000 Ang^3
#
#
#
# Elastic Constant Matrix: (Units=GPa)
#
#
# Indices 1 2 3 4 5 6 
#
# 1 107.1421 14.5308 70.0465 0.0000 0.0000 0.0000
# 2 14.5308 32.5580 25.9400 0.0000 0.0000 0.0000
# 3 70.0465 25.9400 92.3955 0.0000 0.0000 0.0000
# 4 0.0000 0.0000 0.0000 17.0877 0.0000 0.0000
# 5 0.0000 0.0000 0.0000 0.0000 30.3574 0.0000
# 6 0.0000 0.0000 0.0000 0.0000 0.0000 25.6802
#
#
#
# Elastic Compliance Matrix: (Units=1/GPa)
#
#
# Indices 1 2 3 4 5 6 
#
# 1 0.018870 0.003833 -0.015382 0.000000 0.000000 0.000000
# 2 0.003833 0.040343 -0.014232 0.000000 0.000000 0.000000
# 3 -0.015382 -0.014232 0.026480 0.000000 0.000000 0.000000
# 4 0.000000 0.000000 0.000000 0.058522 0.000000 0.000000
# 5 0.000000 0.000000 0.000000 0.000000 0.032941 0.000000
# 6 0.000000 0.000000 0.000000 0.000000 0.000000 0.038940
#
#
# Mechanical properties :
#
#
# Convention : Reuss Voigt Hill
#
# Bulk Modulus (GPa) = 29.29872 50.34779 39.82326
# Shear Modulus (GPa) = 17.91898 22.73027 20.32462
#
# Velocity S-wave (km/s) = 3.10996 3.50268 3.31214
# Velocity P-wave (km/s) = 5.35816 6.59801 6.01014
#
# Compressibility (1/GPa) = 0.03413119
#
# Stress axis : x y z
#
# Youngs Moduli (GPa) = 52.99549 24.78743 37.76468
#
# Poissons Ratio (x) = -0.09502 0.58088
# Poissons Ratio (y) = -0.20315 0.53748
# Poissons Ratio (z) = 0.81515 0.35279
#
# Static dielectric constant tensor:
#      x y z
#    x 1.795920 0.000000 0.000000 
#    y 0.000000 1.647500 0.000000 
#    z 0.000000 0.000000 1.514230 
# 
# From -- ./inp_files/27196.got.cif
#   From: 2010.05.17/outbox.cif.g08.bks.cpg/sg62_14_cif.got.tgz:27196.got - 2010.06.03 15:25:27.
