data_PCOD9463500
_publ_section_title
;
Structure prediction by ZEFSAII (Michael W. Deem and Ramdas Pophale) SiO2 
 PCOD9463500
Probable space group: P N M A
;
_chemical_formula_sum "Si O2"
_cell_formula_units_Z 64
_cell_length_a 24.550256
_cell_length_b 8.860792
_cell_length_c 15.481110
_cell_angle_alpha 90.000000
_cell_angle_beta 90.000000
_cell_angle_gamma 90.000000
_cell_volume 3367.678805
_symmetry_space_group_name_H-M "P N M A"
_symmetry_group_IT_number 62
_symmetry_cell_setting 'orthorhombic'
loop_
_space_group_symop_operation_xyz
x,y,z
1/2-x,-y,1/2+z
1/2+x,1/2-y,1/2-z
-x,1/2+y,-z
-x,-y,-z
1/2+x,y,1/2-z
1/2-x,1/2+y,1/2+z
x,1/2-y,z
loop_
_atom_site_type_symbol
_atom_site_label
_atom_site_fract_x
_atom_site_fract_y
_atom_site_fract_z
Si Si1 0.255726 0.428452 0.710878
Si Si2 0.122839 0.569064 0.159752
Si Si3 0.728854 0.575323 0.967198
Si Si4 0.450705 0.569211 0.802208
Si Si5 0.843673 0.430411 0.201902
Si Si6 0.386031 0.068877 0.960589
Si Si7 0.352959 0.925382 0.477570
Si Si8 0.927386 0.066881 0.350378
O O1 0.253524 0.250000 0.726384
O O2 0.319177 0.475049 0.704557
O O3 0.231667 0.470368 0.616619
O O4 0.217220 0.511219 0.778895
O O5 0.121185 0.750000 0.157639
O O6 0.074313 0.503080 0.216393
O O7 0.123674 0.505032 0.062784
O O8 0.720576 0.750000 0.937241
O O9 0.678348 0.539518 0.028648
O O10 0.787262 0.566715 0.012056
O O11 0.449880 0.750000 0.795125
O O12 0.413597 0.515887 0.881919
O O13 0.512495 0.519248 0.821824
O O14 0.843438 0.250000 0.198873
O O15 0.866089 0.495081 0.112277
O O16 0.882095 0.481492 0.281232
O O17 0.393144 0.250000 0.949110
O O18 0.412703 0.021866 0.052067
O O19 0.368592 0.750000 0.476484
O O20 0.926456 0.250000 0.350685
#
# Coordination Sequence:
#
# PCOD9463500 Si02
#       8
#     8   8   8   8   8   8   8   8
#     4  10  20  34  55  83 115 147 187 237 283 333
#     4  10  22  41  60  82 115 156 195 237 291 349
#     4   9  18  34  56  80 115 154 184 221 283 346
#     4  11  23  38  58  86 114 149 197 248 289 335
#     4  11  21  37  60  85 115 156 195 232 289 352
#     4  10  19  36  58  83 117 158 191 227 286 351
#     4  10  21  37  58  88 120 150 188 242 292 340
#     4   9  20  39  60  82 115 153 195 240 286 340
#
# _framework density 19.004187000000002
#
# number of rings (size 3 to 8) (size 9 to 14) (size 15 to 20)
#    0.000    2.000    1.250    2.250    1.750    2.500 
#    0.000    3.750    0.000    0.000    0.000    0.000 
#    0.000    0.000    0.000    0.000    0.000    0.000 
#
# Total GULP energy -357450.490266 kJ/mol
# GULP energy per Si atom -5585.163910 kJ/mol
# Density = 1.896093 g / cm^3
# Si number density = 19.004187 Si / 1000 Ang^3
#
#
#
# Elastic Constant Matrix: (Units=GPa)
#
#
# Indices 1 2 3 4 5 6 
#
# 1 12.4371 0.6615 -17.1611 0.0000 0.0000 0.0000
# 2 0.6615 42.2756 14.4286 0.0000 0.0000 0.0000
# 3 -17.1611 14.4286 66.8533 0.0000 0.0000 0.0000
# 4 0.0000 0.0000 0.0000 36.3294 0.0000 0.0000
# 5 0.0000 0.0000 0.0000 0.0000 11.1225 0.0000
# 6 0.0000 0.0000 0.0000 0.0000 0.0000 13.9141
#
#
#
# Elastic Compliance Matrix: (Units=1/GPa)
#
#
# Indices 1 2 3 4 5 6 
#
# 1 0.132533 -0.014773 0.037209 0.000000 0.000000 0.000000
# 2 -0.014773 0.027182 -0.009659 0.000000 0.000000 0.000000
# 3 0.037209 -0.009659 0.026594 0.000000 0.000000 0.000000
# 4 0.000000 0.000000 0.000000 0.027526 0.000000 0.000000
# 5 0.000000 0.000000 0.000000 0.000000 0.089908 0.000000
# 6 0.000000 0.000000 0.000000 0.000000 0.000000 0.071869
#
#
# Mechanical properties :
#
#
# Convention : Reuss Voigt Hill
#
# Bulk Modulus (GPa) = 4.72002 13.04711 8.88356
# Shear Modulus (GPa) = 11.88553 20.51566 16.20060
#
# Velocity S-wave (km/s) = 2.50355 3.28919 2.92289
# Velocity P-wave (km/s) = 3.29333 4.61577 4.00945
#
# Compressibility (1/GPa) = 0.21186366
#
# Stress axis : x y z
#
# Youngs Moduli (GPa) = 7.54529 36.78904 37.60207
#
# Poissons Ratio (x) = 0.54350 -1.39915
# Poissons Ratio (y) = 0.11147 0.36319
# Poissons Ratio (z) = -0.28076 0.35534
#
# Static dielectric constant tensor:
#      x y z
#    x 1.661530 0.000000 0.000000 
#    y 0.000000 1.643520 0.000000 
#    z 0.000000 0.000000 1.646730 
# 
# From -- ./inp_files/20997.got.cif
#   From: 2010.05.17/outbox.cif.g08.bks.cpg/sg62_11_cif.got.tgz:20997.got - 2010.06.03 15:25:27.
