data_PCOD9463233
_publ_section_title
;
Structure prediction by ZEFSAII (Michael W. Deem and Ramdas Pophale) SiO2 
 PCOD9463233
Probable space group: P N M A
;
_chemical_formula_sum "Si O2"
_cell_formula_units_Z 48
_cell_length_a 23.283111
_cell_length_b 7.532978
_cell_length_c 13.849575
_cell_angle_alpha 90.000000
_cell_angle_beta 90.000000
_cell_angle_gamma 90.000000
_cell_volume 2429.093065
_symmetry_space_group_name_H-M "P N M A"
_symmetry_group_IT_number 62
_symmetry_cell_setting 'orthorhombic'
loop_
_space_group_symop_operation_xyz
x,y,z
1/2-x,-y,1/2+z
1/2+x,1/2-y,1/2-z
-x,1/2+y,-z
-x,-y,-z
1/2+x,y,1/2-z
1/2-x,1/2+y,1/2+z
x,1/2-y,z
loop_
_atom_site_type_symbol
_atom_site_label
_atom_site_fract_x
_atom_site_fract_y
_atom_site_fract_z
Si Si1 0.102158 0.250000 0.874071
Si Si2 0.673451 0.460343 0.897357
Si Si3 0.898575 0.750000 0.896220
Si Si4 0.235490 0.250000 0.104842
Si Si5 0.940396 0.951849 0.294275
Si Si6 0.824774 0.955998 0.627983
Si Si7 0.264656 0.750000 0.371296
Si Si8 0.563039 0.960574 0.252128
O O1 0.074084 0.417596 0.818905
O O2 0.169020 0.250000 0.843740
O O3 0.095979 0.250000 0.988284
O O4 0.681907 0.250000 0.877855
O O5 0.727923 0.577281 0.866482
O O6 0.615293 0.528405 0.846112
O O7 0.666614 0.480660 0.012886
O O8 0.830994 0.750000 0.867639
O O9 0.926108 0.576770 0.847226
O O10 0.234315 0.250000 0.987979
O O11 0.944200 0.750000 0.335741
O O12 0.004152 0.026680 0.298434
O O13 0.812051 0.750000 0.644620
O O14 0.771952 0.079371 0.658902
O O15 0.882420 0.010069 0.683379
O O16 0.556830 0.750000 0.272256
#
# Coordination Sequence:
#
# PCOD9463233 Si02
#       8
#     4   8   4   4   8   8   4   8
#     4   9  20  41  61  79 111 152 191 245 292 320
#     4   9  18  36  60  85 121 149 177 226 284 343
#     4  11  24  39  59  83 111 148 199 241 286 330
#     4   9  20  35  54  89 115 144 190 227 277 350
#     4   8  19  38  57  82 110 146 191 232 278 337
#     4  10  19  34  58  90 118 150 181 220 285 351
#     4   9  18  35  60  81 119 150 178 237 283 332
#     4  11  22  39  57  84 117 146 193 239 275 336
#
# _framework density 19.760462
#
# number of rings (size 3 to 8) (size 9 to 14) (size 15 to 20)
#    0.500    2.000    1.667    0.000    0.000    4.000 
#    0.000    2.500    3.667    0.000    0.000    0.000 
#    0.000    0.000    0.000    0.000    0.000    0.000 
#
# Total GULP energy -267613.907879 kJ/mol
# GULP energy per Si atom -5575.289747 kJ/mol
# Density = 1.971549 g / cm^3
# Si number density = 19.760462 Si / 1000 Ang^3
#
#
#
# Elastic Constant Matrix: (Units=GPa)
#
#
# Indices 1 2 3 4 5 6 
#
# 1 77.2903 27.5831 -19.0494 0.0000 0.0000 0.0000
# 2 27.5831 92.6109 17.0193 0.0000 0.0000 0.0000
# 3 -19.0494 17.0193 62.1015 0.0000 0.0000 0.0000
# 4 0.0000 0.0000 0.0000 37.0585 0.0000 0.0000
# 5 0.0000 0.0000 0.0000 0.0000 9.5066 0.0000
# 6 0.0000 0.0000 0.0000 0.0000 0.0000 5.8259
#
#
#
# Elastic Compliance Matrix: (Units=1/GPa)
#
#
# Indices 1 2 3 4 5 6 
#
# 1 0.016889 -0.006299 0.006907 0.000000 0.000000 0.000000
# 2 -0.006299 0.013720 -0.005692 0.000000 0.000000 0.000000
# 3 0.006907 -0.005692 0.019781 0.000000 0.000000 0.000000
# 4 0.000000 0.000000 0.000000 0.026984 0.000000 0.000000
# 5 0.000000 0.000000 0.000000 0.000000 0.105190 0.000000
# 6 0.000000 0.000000 0.000000 0.000000 0.000000 0.171648
#
#
# Mechanical properties :
#
#
# Convention : Reuss Voigt Hill
#
# Bulk Modulus (GPa) = 24.86297 31.45651 28.15974
# Shear Modulus (GPa) = 13.23491 24.24152 18.73821
#
# Velocity S-wave (km/s) = 2.59079 3.50633 3.08274
# Velocity P-wave (km/s) = 4.64318 5.68735 5.19158
#
# Compressibility (1/GPa) = 0.04022046
#
# Stress axis : x y z
#
# Youngs Moduli (GPa) = 59.21129 72.88532 50.55258
#
# Poissons Ratio (x) = 0.45913 -0.34916
# Poissons Ratio (y) = 0.37300 0.28777
# Poissons Ratio (z) = -0.40897 0.41489
#
# Static dielectric constant tensor:
#      x y z
#    x 1.683050 0.000000 0.000000 
#    y 0.000000 1.707890 0.000000 
#    z 0.000000 0.000000 1.693350 
# 
# From -- ./inp_files/20071.got.cif
#   From: 2010.05.17/outbox.cif.g08.bks.cpg/sg62_11_cif.got.tgz:20071.got - 2010.06.03 15:25:27.
