data_PCOD9463410
_publ_section_title
;
Structure prediction by ZEFSAII (Michael W. Deem and Ramdas Pophale) SiO2 
 PCOD9463410
Probable space group: P N M A
;
_chemical_formula_sum "Si O2"
_cell_formula_units_Z 64
_cell_length_a 29.068247
_cell_length_b 7.660949
_cell_length_c 12.599843
_cell_angle_alpha 90.000000
_cell_angle_beta 90.000000
_cell_angle_gamma 90.000000
_cell_volume 2805.863546
_symmetry_space_group_name_H-M "P N M A"
_symmetry_group_IT_number 62
_symmetry_cell_setting 'orthorhombic'
loop_
_space_group_symop_operation_xyz
x,y,z
1/2-x,-y,1/2+z
1/2+x,1/2-y,1/2-z
-x,1/2+y,-z
-x,-y,-z
1/2+x,y,1/2-z
1/2-x,1/2+y,1/2+z
x,1/2-y,z
loop_
_atom_site_type_symbol
_atom_site_label
_atom_site_fract_x
_atom_site_fract_y
_atom_site_fract_z
Si Si1 0.473548 0.954877 0.223735
Si Si2 0.114597 0.453242 0.299726
Si Si3 0.191071 0.963505 0.852352
Si Si4 0.949267 0.048962 0.878517
Si Si5 0.569481 0.956483 0.987695
Si Si6 0.292365 0.961621 0.914953
Si Si7 0.907162 0.038605 0.091995
Si Si8 0.160562 0.544851 0.624400
O O1 0.482966 0.750000 0.212891
O O2 0.512043 0.033964 0.302638
O O3 0.469426 0.018798 0.102304
O O4 0.427654 0.983276 0.294326
O O5 0.119915 0.250000 0.274573
O O6 0.095994 0.545307 0.194965
O O7 0.076664 0.469650 0.394399
O O8 0.163470 0.520247 0.345218
O O9 0.192739 0.750000 0.853571
O O10 0.242007 0.022615 0.881203
O O11 0.146174 0.014468 0.920119
O O12 0.178457 0.025219 0.734514
O O13 0.963045 0.250000 0.897055
O O14 0.937872 0.972312 0.993724
O O15 0.573333 0.750000 0.004121
O O16 0.614142 0.031444 0.925413
O O17 0.293400 0.750000 0.912928
O O18 0.301867 0.023299 0.033740
O O19 0.908254 0.250000 0.090434
O O20 0.150586 0.750000 0.641626
#
# Coordination Sequence:
#
# PCOD9463410 Si02
#       8
#     8   8   8   8   8   8   8   8
#     4  11  22  36  56  85 115 143 182 237 290 330
#     4  10  21  37  56  81 114 150 185 231 286 332
#     4   9  17  33  56  80 106 141 182 223 271 327
#     4  10  23  39  56  80 114 153 189 228 278 341
#     4  10  19  35  60  83 106 144 189 229 274 335
#     4   9  19  34  53  79 110 142 176 223 279 326
#     4  10  20  38  60  81 109 149 193 229 272 335
#     4   9  17  32  53  76 103 138 179 222 266 320
#
# _framework density 22.809379
#
# number of rings (size 3 to 8) (size 9 to 14) (size 15 to 20)
#    0.000    2.250    1.250    1.500    0.000    4.000 
#    0.000    1.250    0.000    0.000    0.000    0.000 
#    0.000    0.000    0.000    0.000    0.000    0.000 
#
# Total GULP energy -357228.288609 kJ/mol
# GULP energy per Si atom -5581.692010 kJ/mol
# Density = 2.275746 g / cm^3
# Si number density = 22.809379 Si / 1000 Ang^3
#
#
#
# Elastic Constant Matrix: (Units=GPa)
#
#
# Indices 1 2 3 4 5 6 
#
# 1 85.1929 -10.5740 6.4639 0.0000 0.0000 0.0000
# 2 -10.5740 46.5165 -9.3770 0.0000 0.0000 0.0000
# 3 6.4639 -9.3770 94.4875 0.0000 0.0000 0.0000
# 4 0.0000 0.0000 0.0000 19.7277 0.0000 0.0000
# 5 0.0000 0.0000 0.0000 0.0000 31.3094 0.0000
# 6 0.0000 0.0000 0.0000 0.0000 0.0000 11.0432
#
#
#
# Elastic Compliance Matrix: (Units=1/GPa)
#
#
# Indices 1 2 3 4 5 6 
#
# 1 0.012109 0.002638 -0.000567 0.000000 0.000000 0.000000
# 2 0.002638 0.022511 0.002054 0.000000 0.000000 0.000000
# 3 -0.000567 0.002054 0.010826 0.000000 0.000000 0.000000
# 4 0.000000 0.000000 0.000000 0.050690 0.000000 0.000000
# 5 0.000000 0.000000 0.000000 0.000000 0.031939 0.000000
# 6 0.000000 0.000000 0.000000 0.000000 0.000000 0.090554
#
#
# Mechanical properties :
#
#
# Convention : Reuss Voigt Hill
#
# Bulk Modulus (GPa) = 18.62316 22.13585 20.37951
# Shear Modulus (GPa) = 21.90319 28.39499 25.14909
#
# Velocity S-wave (km/s) = 3.10219 3.53212 3.32411
# Velocity P-wave (km/s) = 4.58408 5.13422 4.86693
#
# Compressibility (1/GPa) = 0.05369657
#
# Stress axis : x y z
#
# Youngs Moduli (GPa) = 82.58653 44.42184 92.37054
#
# Poissons Ratio (x) = -0.11720 0.05233
# Poissons Ratio (y) = -0.21789 -0.18969
# Poissons Ratio (z) = 0.04679 -0.09122
#
# Static dielectric constant tensor:
#      x y z
#    x 1.917130 0.000000 0.000000 
#    y 0.000000 1.834250 0.000000 
#    z 0.000000 0.000000 1.828570 
# 
# From -- ./inp_files/15843.got.cif
#   From: 2010.05.17/outbox.cif.g08.bks.cpg/sg62_8_cif.got.tgz:15843.got - 2010.06.03 15:25:27.
