data_PCOD9463498
_publ_section_title
;
Structure prediction by ZEFSAII (Michael W. Deem and Ramdas Pophale) SiO2 
 PCOD9463498
Probable space group: P N M A
;
_chemical_formula_sum "Si O2"
_cell_formula_units_Z 56
_cell_length_a 21.563128
_cell_length_b 8.726571
_cell_length_c 14.930898
_cell_angle_alpha 90.000000
_cell_angle_beta 90.000000
_cell_angle_gamma 90.000000
_cell_volume 2809.579439
_symmetry_space_group_name_H-M "P N M A"
_symmetry_group_IT_number 62
_symmetry_cell_setting 'orthorhombic'
loop_
_space_group_symop_operation_xyz
x,y,z
1/2-x,-y,1/2+z
1/2+x,1/2-y,1/2-z
-x,1/2+y,-z
-x,-y,-z
1/2+x,y,1/2-z
1/2-x,1/2+y,1/2+z
x,1/2-y,z
loop_
_atom_site_type_symbol
_atom_site_label
_atom_site_fract_x
_atom_site_fract_y
_atom_site_fract_z
Si Si1 0.244164 0.935142 0.190598
Si Si2 0.230670 0.427264 0.994310
Si Si3 0.893982 0.063964 0.747594
Si Si4 0.453818 0.930051 0.072774
Si Si5 0.342636 0.432188 0.335669
Si Si6 0.528555 0.064103 0.722783
Si Si7 0.132228 0.926595 0.448647
O O1 0.248018 0.750000 0.191376
O O2 0.173974 0.982749 0.219654
O O3 0.297232 0.997310 0.258270
O O4 0.247162 0.998937 0.089660
O O5 0.211753 0.250000 0.006580
O O6 0.182558 0.517650 0.933000
O O7 0.294389 0.427380 0.937775
O O8 0.893819 0.250000 0.747084
O O9 0.898200 0.017594 0.643322
O O10 0.957138 0.018071 0.798576
O O11 0.462800 0.750000 0.074242
O O12 0.461872 0.983905 0.173585
O O13 0.500000 0.000000 0.000000
O O14 0.387458 0.973947 0.032891
O O15 0.340871 0.250000 0.326208
O O16 0.413004 0.492486 0.327032
O O17 0.532535 0.250000 0.716590
O O18 0.113352 0.750000 0.464967
#
# Coordination Sequence:
#
# PCOD9463498 Si02
#       7
#     8   8   8   8   8   8   8
#     4  11  22  41  67  94 125 163 208 259 313 369
#     4  11  23  41  65  92 123 160 205 259 313 368
#     4   9  18  37  62  86 115 157 201 246 302 363
#     4  11  21  32  52  83 118 155 195 241 299 367
#     4  12  25  41  62  93 128 165 208 255 308 370
#     4  10  21  39  60  83 118 163 205 251 310 367
#     4  10  19  36  58  82 115 155 196 244 302 363
#
# _framework density 19.931808
#
# number of rings (size 3 to 8) (size 9 to 14) (size 15 to 20)
#    0.000    1.429    2.857    3.429    0.000    4.571 
#    0.000    2.143    0.000    0.000    0.000    0.000 
#    0.000    0.000    0.000    0.000    0.000    0.000 
#
# Total GULP energy -312494.076078 kJ/mol
# GULP energy per Si atom -5580.251359 kJ/mol
# Density = 1.988644 g / cm^3
# Si number density = 19.931808 Si / 1000 Ang^3
#
#
#
# Elastic Constant Matrix: (Units=GPa)
#
#
# Indices 1 2 3 4 5 6 
#
# 1 109.2235 17.9640 7.7193 0.0000 0.0000 0.0000
# 2 17.9640 49.5484 5.7634 0.0000 0.0000 0.0000
# 3 7.7193 5.7634 42.1291 0.0000 0.0000 0.0000
# 4 0.0000 0.0000 0.0000 24.1260 0.0000 0.0000
# 5 0.0000 0.0000 0.0000 0.0000 31.3469 0.0000
# 6 0.0000 0.0000 0.0000 0.0000 0.0000 22.5650
#
#
#
# Elastic Compliance Matrix: (Units=1/GPa)
#
#
# Indices 1 2 3 4 5 6 
#
# 1 0.009809 -0.003401 -0.001332 0.000000 0.000000 0.000000
# 2 -0.003401 0.021688 -0.002344 0.000000 0.000000 0.000000
# 3 -0.001332 -0.002344 0.024301 0.000000 0.000000 0.000000
# 4 0.000000 0.000000 0.000000 0.041449 0.000000 0.000000
# 5 0.000000 0.000000 0.000000 0.000000 0.031901 0.000000
# 6 0.000000 0.000000 0.000000 0.000000 0.000000 0.044316
#
#
# Mechanical properties :
#
#
# Convention : Reuss Voigt Hill
#
# Bulk Modulus (GPa) = 24.01297 29.31050 26.66173
# Shear Modulus (GPa) = 24.81380 26.90454 25.85917
#
# Velocity S-wave (km/s) = 3.53219 3.67799 3.60583
# Velocity P-wave (km/s) = 5.35807 5.72487 5.54450
#
# Compressibility (1/GPa) = 0.04164416
#
# Stress axis : x y z
#
# Youngs Moduli (GPa) = 101.94610 46.10819 41.15009
#
# Poissons Ratio (x) = 0.15683 0.05481
# Poissons Ratio (y) = 0.34676 0.09645
# Poissons Ratio (z) = 0.13579 0.10807
#
# Static dielectric constant tensor:
#      x y z
#    x 1.791930 0.000000 0.000000 
#    y 0.000000 1.688250 0.000000 
#    z 0.000000 0.000000 1.703210 
# 
# From -- ./inp_files/20401.got.cif
#   From: 2010.05.17/outbox.cif.g08.bks.cpg/sg62_11_cif.got.tgz:20401.got - 2010.06.03 15:25:27.
