data_PCOD9463092
_publ_section_title
;
Structure prediction by ZEFSAII (Michael W. Deem and Ramdas Pophale) SiO2 
 PCOD9463092
Probable space group: P N M A
;
_chemical_formula_sum "Si O2"
_cell_formula_units_Z 64
_cell_length_a 29.417464
_cell_length_b 7.499165
_cell_length_c 13.141149
_cell_angle_alpha 90.000000
_cell_angle_beta 90.000000
_cell_angle_gamma 90.000000
_cell_volume 2899.021788
_symmetry_space_group_name_H-M "P N M A"
_symmetry_group_IT_number 62
_symmetry_cell_setting 'orthorhombic'
loop_
_space_group_symop_operation_xyz
x,y,z
1/2-x,-y,1/2+z
1/2+x,1/2-y,1/2-z
-x,1/2+y,-z
-x,-y,-z
1/2+x,y,1/2-z
1/2-x,1/2+y,1/2+z
x,1/2-y,z
loop_
_atom_site_type_symbol
_atom_site_label
_atom_site_fract_x
_atom_site_fract_y
_atom_site_fract_z
Si Si1 0.567625 0.036673 0.097583
Si Si2 0.194752 0.543380 0.574871
Si Si3 0.963895 0.531572 0.811808
Si Si4 0.708188 0.031715 0.361374
Si Si5 0.329468 0.965422 0.857331
Si Si6 0.406407 0.036681 0.121190
Si Si7 0.562740 0.964972 0.657591
Si Si8 0.117079 0.460882 0.043575
O O1 0.566609 0.250000 0.101758
O O2 0.537359 0.975564 0.192898
O O3 0.618627 0.974667 0.126587
O O4 0.562259 0.993382 0.978441
O O5 0.192825 0.750000 0.607173
O O6 0.240971 0.464724 0.619254
O O7 0.198443 0.533441 0.453211
O O8 0.144883 0.465997 0.600599
O O9 0.962942 0.750000 0.812837
O O10 0.011113 0.474535 0.862435
O O11 0.920016 0.469054 0.874998
O O12 0.710595 0.250000 0.366488
O O13 0.690681 0.981007 0.249997
O O14 0.668155 0.971709 0.437760
O O15 0.329896 0.750000 0.860181
O O16 0.403525 0.250000 0.128741
O O17 0.423598 0.970587 0.229856
O O18 0.562171 0.750000 0.660516
O O19 0.597143 0.015297 0.568613
O O20 0.119450 0.250000 0.064190
#
# Coordination Sequence:
#
# PCOD9463092 Si02
#       8
#     8   8   8   8   8   8   8   8
#     4   9  16  30  54  76  94 124 170 213 242 283
#     4   9  18  32  49  70  97 129 161 198 248 298
#     4   9  17  32  54  76  99 130 166 207 253 295
#     4   9  17  31  52  73  93 125 166 203 245 293
#     4   9  16  30  51  72  94 124 163 205 245 288
#     4   9  19  34  48  68 103 138 162 196 252 306
#     4  10  21  35  50  72 106 140 163 195 252 309
#     4  10  19  34  54  74  97 127 169 212 246 289
#
# _framework density 22.076412000000001
#
# number of rings (size 3 to 8) (size 9 to 14) (size 15 to 20)
#    0.000    2.750    1.250    0.375    0.000    2.000 
#    0.000    4.375    0.000    0.000    0.000    0.000 
#    0.000    0.000    0.000    0.000    0.000    0.000 
#
# Total GULP energy -357071.774739 kJ/mol
# GULP energy per Si atom -5579.246480 kJ/mol
# Density = 2.202616 g / cm^3
# Si number density = 22.076412 Si / 1000 Ang^3
#
#
#
# Elastic Constant Matrix: (Units=GPa)
#
#
# Indices 1 2 3 4 5 6 
#
# 1 46.9638 2.0995 8.7329 0.0000 0.0000 0.0000
# 2 2.0995 55.4936 -9.2604 0.0000 0.0000 0.0000
# 3 8.7329 -9.2604 83.9150 0.0000 0.0000 0.0000
# 4 0.0000 0.0000 0.0000 18.3195 0.0000 0.0000
# 5 0.0000 0.0000 0.0000 0.0000 22.6567 0.0000
# 6 0.0000 0.0000 0.0000 0.0000 0.0000 6.3307
#
#
#
# Elastic Compliance Matrix: (Units=1/GPa)
#
#
# Indices 1 2 3 4 5 6 
#
# 1 0.021795 -0.001226 -0.002403 0.000000 0.000000 0.000000
# 2 -0.001226 0.018427 0.002161 0.000000 0.000000 0.000000
# 3 -0.002403 0.002161 0.012405 0.000000 0.000000 0.000000
# 4 0.000000 0.000000 0.000000 0.054587 0.000000 0.000000
# 5 0.000000 0.000000 0.000000 0.000000 0.044137 0.000000
# 6 0.000000 0.000000 0.000000 0.000000 0.000000 0.157960
#
#
# Mechanical properties :
#
#
# Convention : Reuss Voigt Hill
#
# Bulk Modulus (GPa) = 20.12424 21.05737 20.59080
# Shear Modulus (GPa) = 15.20632 21.78140 18.49386
#
# Velocity S-wave (km/s) = 2.62736 3.14449 2.89748
# Velocity P-wave (km/s) = 4.28246 4.76894 4.53224
#
# Compressibility (1/GPa) = 0.04969131
#
# Stress axis : x y z
#
# Youngs Moduli (GPa) = 45.88273 54.26796 80.60990
#
# Poissons Ratio (x) = 0.06651 0.19374
# Poissons Ratio (y) = 0.05623 -0.17420
# Poissons Ratio (z) = 0.11027 -0.11728
#
# Static dielectric constant tensor:
#      x y z
#    x 1.813310 0.000000 0.000000 
#    y 0.000000 1.848010 0.000000 
#    z 0.000000 0.000000 1.791990 
# 
# From -- ./inp_files/15593.got.cif
#   From: 2010.05.17/outbox.cif.g08.bks.cpg/sg62_8_cif.got.tgz:15593.got - 2010.06.03 15:25:27.
