data_PCOD9463890
_publ_section_title
;
Structure prediction by ZEFSAII (Michael W. Deem and Ramdas Pophale) SiO2 
 PCOD9463890
Probable space group: P N M A
;
_chemical_formula_sum "Si O2"
_cell_formula_units_Z 44
_cell_length_a 11.419209
_cell_length_b 7.615981
_cell_length_c 18.581131
_cell_angle_alpha 90.000000
_cell_angle_beta 90.000000
_cell_angle_gamma 90.000000
_cell_volume 1615.972697
_symmetry_space_group_name_H-M "P N M A"
_symmetry_group_IT_number 62
_symmetry_cell_setting 'orthorhombic'
loop_
_space_group_symop_operation_xyz
x,y,z
1/2-x,-y,1/2+z
1/2+x,1/2-y,1/2-z
-x,1/2+y,-z
-x,-y,-z
1/2+x,y,1/2-z
1/2-x,1/2+y,1/2+z
x,1/2-y,z
loop_
_atom_site_type_symbol
_atom_site_label
_atom_site_fract_x
_atom_site_fract_y
_atom_site_fract_z
Si Si1 0.012355 0.957175 0.632490
Si Si2 0.587020 0.460904 0.567438
Si Si3 0.892167 0.450227 0.832863
Si Si4 0.193550 0.942339 0.766189
Si Si5 0.226157 0.536313 0.538037
Si Si6 0.313204 0.250000 0.844150
O O1 0.980014 0.750000 0.628857
O O2 0.095366 0.975982 0.704314
O O3 0.095225 0.999923 0.563609
O O4 0.909148 0.095531 0.636474
O O5 0.500000 0.500000 0.500000
O O6 0.587144 0.250000 0.571096
O O7 0.512759 0.524800 0.636503
O O8 0.713999 0.517876 0.536980
O O9 0.904123 0.250000 0.803660
O O10 0.819205 0.557555 0.775969
O O11 0.806644 0.449221 0.901262
O O12 0.179407 0.750000 0.796835
O O13 0.216631 0.099241 0.819918
O O14 0.238001 0.750000 0.542185
#
# Coordination Sequence:
#
# PCOD9463890 Si02
#       6
#     8   8   8   8   8   4
#     4   9  19  32  46  63  88 119 153 190 228 266
#     4   8  13  20  33  53  78 107 144 178 202 240
#     4   9  14  22  37  57  80 112 149 181 210 248
#     4  10  20  33  46  63  89 120 153 191 231 269
#     4   8  14  24  36  54  81 113 146 180 213 250
#     4  12  20  30  48  66  84 118 162 194 228 264
#
# _framework density 27.228183999999999
#
# number of rings (size 3 to 8) (size 9 to 14) (size 15 to 20)
#    0.000    2.909    0.909    2.727    3.818    0.727 
#    0.000    0.000    0.000    0.000    0.000    0.000 
#    0.000    0.000    0.000    6.545   11.636    6.545 
#
# Total GULP energy -245312.131034 kJ/mol
# GULP energy per Si atom -5575.275705 kJ/mol
# Density = 2.716621 g / cm^3
# Si number density = 27.228184 Si / 1000 Ang^3
#
#
#
# Elastic Constant Matrix: (Units=GPa)
#
#
# Indices 1 2 3 4 5 6 
#
# 1 172.0123 81.9665 41.6320 0.0000 0.0000 0.0000
# 2 81.9665 139.8273 48.1142 0.0000 0.0000 0.0000
# 3 41.6320 48.1142 78.4740 0.0000 0.0000 0.0000
# 4 0.0000 0.0000 0.0000 22.4256 0.0000 0.0000
# 5 0.0000 0.0000 0.0000 0.0000 51.2000 0.0000
# 6 0.0000 0.0000 0.0000 0.0000 0.0000 56.8852
#
#
#
# Elastic Compliance Matrix: (Units=1/GPa)
#
#
# Indices 1 2 3 4 5 6 
#
# 1 0.008261 -0.004226 -0.001791 0.000000 0.000000 0.000000
# 2 -0.004226 0.011226 -0.004641 0.000000 0.000000 0.000000
# 3 -0.001791 -0.004641 0.016539 0.000000 0.000000 0.000000
# 4 0.000000 0.000000 0.000000 0.044592 0.000000 0.000000
# 5 0.000000 0.000000 0.000000 0.000000 0.019531 0.000000
# 6 0.000000 0.000000 0.000000 0.000000 0.000000 0.017579
#
#
# Mechanical properties :
#
#
# Convention : Reuss Voigt Hill
#
# Bulk Modulus (GPa) = 67.98597 81.52657 74.75627
# Shear Modulus (GPa) = 34.73477 40.67554 37.70515
#
# Velocity S-wave (km/s) = 3.57556 3.86926 3.72531
# Velocity P-wave (km/s) = 6.48609 7.06885 6.78373
#
# Compressibility (1/GPa) = 0.01470892
#
# Stress axis : x y z
#
# Youngs Moduli (GPa) = 121.05181 89.07963 60.46359
#
# Poissons Ratio (x) = 0.37646 0.10832
# Poissons Ratio (y) = 0.51158 0.28060
# Poissons Ratio (z) = 0.21686 0.41340
#
# Static dielectric constant tensor:
#      x y z
#    x 2.259930 0.000000 0.000000 
#    y 0.000000 1.958260 0.000000 
#    z 0.000000 0.000000 2.364360 
# 
# From -- ./inp_files/31253.got.cif
#   From: 2010.05.17/outbox.cif.g08.bks.cpg/sg62_16_cif.got.tgz:31253.got - 2010.06.03 15:25:27.
