data_PCOD9463220
_publ_section_title
;
Structure prediction by ZEFSAII (Michael W. Deem and Ramdas Pophale) SiO2 
 PCOD9463220
Probable space group: P N M A
;
_chemical_formula_sum "Si O2"
_cell_formula_units_Z 56
_cell_length_a 15.644151
_cell_length_b 19.812893
_cell_length_c 9.808256
_cell_angle_alpha 90.000000
_cell_angle_beta 90.000000
_cell_angle_gamma 90.000000
_cell_volume 3040.126716
_symmetry_space_group_name_H-M "P N M A"
_symmetry_group_IT_number 62
_symmetry_cell_setting 'orthorhombic'
loop_
_space_group_symop_operation_xyz
x,y,z
1/2-x,-y,1/2+z
1/2+x,1/2-y,1/2-z
-x,1/2+y,-z
-x,-y,-z
1/2+x,y,1/2-z
1/2-x,1/2+y,1/2+z
x,1/2-y,z
loop_
_atom_site_type_symbol
_atom_site_label
_atom_site_fract_x
_atom_site_fract_y
_atom_site_fract_z
Si Si1 0.482148 0.078315 0.248381
Si Si2 0.401251 0.598337 0.007150
Si Si3 0.304099 0.465957 0.899776
Si Si4 0.468620 0.425001 0.753438
Si Si5 0.781205 0.061461 0.309633
Si Si6 0.252135 0.826567 0.903129
Si Si7 0.442258 0.330091 0.497799
O O1 0.533227 0.105326 0.118103
O O2 0.383325 0.068440 0.205800
O O3 0.485045 0.132145 0.369558
O O4 0.519682 0.004273 0.287281
O O5 0.351680 0.529170 0.972345
O O6 0.329483 0.655389 0.003428
O O7 0.454687 0.591406 0.143787
O O8 0.379205 0.421121 0.836098
O O9 0.248779 0.495459 0.775084
O O10 0.255811 0.436310 0.031324
O O11 0.466754 0.373264 0.629747
O O12 0.741582 0.123193 0.224665
O O13 0.256444 0.750000 0.857250
O O14 0.160173 0.837382 0.973397
O O15 0.461173 0.250000 0.505788
#
# Coordination Sequence:
#
# PCOD9463220 Si02
#       7
#     8   8   8   8   8   8   8
#     4  10  19  37  59  84 115 148 186 239 288 342
#     4  10  19  36  59  84 111 143 188 243 285 337
#     4  10  20  33  55  88 116 143 186 232 289 341
#     4  11  20  35  60  87 116 143 192 248 288 332
#     4  10  19  34  58  85 116 146 186 234 285 336
#     4   9  21  39  58  77 111 158 194 223 284 357
#     4  10  23  39  55  81 116 154 192 232 287 353
#
# _framework density 18.420283999999999
#
# number of rings (size 3 to 8) (size 9 to 14) (size 15 to 20)
#    0.000    2.000    2.857    1.286    6.000    1.143 
#    2.571    0.714    0.000    0.000    0.000    0.000 
#    0.000    0.000    0.000    0.000    0.000    0.000 
#
# Total GULP energy -312377.385580 kJ/mol
# GULP energy per Si atom -5578.167600 kJ/mol
# Density = 1.837836 g / cm^3
# Si number density = 18.420284 Si / 1000 Ang^3
#
#
#
# Elastic Constant Matrix: (Units=GPa)
#
#
# Indices 1 2 3 4 5 6 
#
# 1 39.9921 22.7335 15.7940 0.0000 0.0000 0.0000
# 2 22.7335 85.7487 53.3681 0.0000 0.0000 0.0000
# 3 15.7940 53.3681 87.2502 0.0000 0.0000 0.0000
# 4 0.0000 0.0000 0.0000 12.4696 0.0000 0.0000
# 5 0.0000 0.0000 0.0000 0.0000 17.2892 0.0000
# 6 0.0000 0.0000 0.0000 0.0000 0.0000 20.5866
#
#
#
# Elastic Compliance Matrix: (Units=1/GPa)
#
#
# Indices 1 2 3 4 5 6 
#
# 1 0.029486 -0.007258 -0.000898 0.000000 0.000000 0.000000
# 2 -0.007258 0.020617 -0.011297 0.000000 0.000000 0.000000
# 3 -0.000898 -0.011297 0.018534 0.000000 0.000000 0.000000
# 4 0.000000 0.000000 0.000000 0.080195 0.000000 0.000000
# 5 0.000000 0.000000 0.000000 0.000000 0.057840 0.000000
# 6 0.000000 0.000000 0.000000 0.000000 0.000000 0.048575
#
#
# Mechanical properties :
#
#
# Convention : Reuss Voigt Hill
#
# Bulk Modulus (GPa) = 33.63566 44.08689 38.86128
# Shear Modulus (GPa) = 16.44395 18.14211 17.29303
#
# Velocity S-wave (km/s) = 2.99107 3.14171 3.06731
# Velocity P-wave (km/s) = 5.49803 6.09478 5.80408
#
# Compressibility (1/GPa) = 0.02973035
#
# Stress axis : x y z
#
# Youngs Moduli (GPa) = 33.91493 48.50284 53.95536
#
# Poissons Ratio (x) = 0.35205 0.04844
# Poissons Ratio (y) = 0.24617 0.60954
# Poissons Ratio (z) = 0.03045 0.54794
#
# Static dielectric constant tensor:
#      x y z
#    x 1.659420 0.000000 0.000000 
#    y 0.000000 1.636970 0.000000 
#    z 0.000000 0.000000 1.651520 
# 
# From -- ./inp_files/8026.got.cif
#   From: 2010.05.17/outbox.cif.g08.bks.cpg/sg62_5_cif.got.tgz:8026.got - 2010.06.03 15:25:27.
