data_PCOD9463711
_publ_section_title
;
Structure prediction by ZEFSAII (Michael W. Deem and Ramdas Pophale) SiO2 
 PCOD9463711
Probable space group: P N M A
;
_chemical_formula_sum "Si O2"
_cell_formula_units_Z 24
_cell_length_a 23.179250
_cell_length_b 5.429141
_cell_length_c 7.973259
_cell_angle_alpha 90.000000
_cell_angle_beta 90.000000
_cell_angle_gamma 90.000000
_cell_volume 1003.382153
_symmetry_space_group_name_H-M "P N M A"
_symmetry_group_IT_number 62
_symmetry_cell_setting 'orthorhombic'
loop_
_space_group_symop_operation_xyz
x,y,z
1/2-x,-y,1/2+z
1/2+x,1/2-y,1/2-z
-x,1/2+y,-z
-x,-y,-z
1/2+x,y,1/2-z
1/2-x,1/2+y,1/2+z
x,1/2-y,z
loop_
_atom_site_type_symbol
_atom_site_label
_atom_site_fract_x
_atom_site_fract_y
_atom_site_fract_z
Si Si1 0.651275 0.250000 0.200287
Si Si2 0.470434 0.750000 0.221739
Si Si3 0.369957 0.250000 0.995032
Si Si4 0.289448 0.250000 0.301531
Si Si5 0.850642 0.750000 0.083818
Si Si6 0.005050 0.750000 0.663671
O O1 0.631522 0.501397 0.112000
O O2 0.720845 0.250000 0.195642
O O3 0.631208 0.250000 0.391328
O O4 0.406486 0.750000 0.295497
O O5 0.503218 0.499346 0.265166
O O6 0.473335 0.750000 0.016477
O O7 0.314108 0.250000 0.113318
O O8 0.426982 0.250000 0.111189
O O9 0.314351 0.500922 0.382460
#
# Coordination Sequence:
#
# PCOD9463711 Si02
#       6
#     4   4   4   4   4   4
#     4  12  26  38  58  90 130 158 194 256 308 356
#     4  10  19  38  64  91 115 153 205 255 295 354
#     4  12  23  42  61  91 122 161 204 250 304 357
#     4  12  23  41  63  84 119 167 213 238 290 366
#     4  12  23  42  62  91 121 160 204 251 305 355
#     4  10  20  37  64  91 115 153 206 252 296 356
#
# _framework density 23.919104000000001
#
# number of rings (size 3 to 8) (size 9 to 14) (size 15 to 20)
#    0.000    0.667    3.333    6.000    0.000    0.000 
#    0.000    1.667    0.000    0.000    0.000    0.000 
#    0.000    0.000    0.000    0.000    0.000    0.000 
#
# Total GULP energy -134486.076916 kJ/mol
# GULP energy per Si atom -5603.586538 kJ/mol
# Density = 2.386466 g / cm^3
# Si number density = 23.919104 Si / 1000 Ang^3
#
#
#
# Elastic Constant Matrix: (Units=GPa)
#
#
# Indices 1 2 3 4 5 6 
#
# 1 127.7990 39.7828 17.4493 0.0000 0.0000 0.0000
# 2 39.7828 259.9946 56.1179 0.0000 0.0000 0.0000
# 3 17.4493 56.1179 72.7379 0.0000 0.0000 0.0000
# 4 0.0000 0.0000 0.0000 24.1570 0.0000 0.0000
# 5 0.0000 0.0000 0.0000 0.0000 28.7934 0.0000
# 6 0.0000 0.0000 0.0000 0.0000 0.0000 21.4853
#
#
#
# Elastic Compliance Matrix: (Units=1/GPa)
#
#
# Indices 1 2 3 4 5 6 
#
# 1 0.008305 -0.001009 -0.001214 0.000000 0.000000 0.000000
# 2 -0.001009 0.004737 -0.003413 0.000000 0.000000 0.000000
# 3 -0.001214 -0.003413 0.016672 0.000000 0.000000 0.000000
# 4 0.000000 0.000000 0.000000 0.041396 0.000000 0.000000
# 5 0.000000 0.000000 0.000000 0.000000 0.034730 0.000000
# 6 0.000000 0.000000 0.000000 0.000000 0.000000 0.046544
#
#
# Mechanical properties :
#
#
# Convention : Reuss Voigt Hill
#
# Bulk Modulus (GPa) = 54.22111 76.35905 65.29008
# Shear Modulus (GPa) = 29.44603 38.03256 33.73930
#
# Velocity S-wave (km/s) = 3.51246 3.99187 3.75981
# Velocity P-wave (km/s) = 6.25840 7.29657 6.79733
#
# Compressibility (1/GPa) = 0.01844300
#
# Stress axis : x y z
#
# Youngs Moduli (GPa) = 120.41613 211.09473 59.97992
#
# Poissons Ratio (x) = 0.21293 0.07282
# Poissons Ratio (y) = 0.12146 0.20470
# Poissons Ratio (z) = 0.14618 0.72043
#
# Static dielectric constant tensor:
#      x y z
#    x 1.891680 0.000000 0.000000 
#    y 0.000000 2.019710 0.000000 
#    z 0.000000 0.000000 1.860790 
# 
# From -- ./inp_files/9001.got.cif
#   From: 2010.05.17/outbox.cif.g08.bks.cpg/sg62_5_cif.got.tgz:9001.got - 2010.06.03 15:25:27.
