data_PCOD9463941
_publ_section_title
;
Structure prediction by ZEFSAII (Michael W. Deem and Ramdas Pophale) SiO2 
 PCOD9463941
Probable space group: P N M A
;
_chemical_formula_sum "Si O2"
_cell_formula_units_Z 40
_cell_length_a 9.869944
_cell_length_b 8.930997
_cell_length_c 26.096160
_cell_angle_alpha 90.000000
_cell_angle_beta 90.000000
_cell_angle_gamma 90.000000
_cell_volume 2300.335801
_symmetry_space_group_name_H-M "P N M A"
_symmetry_group_IT_number 62
_symmetry_cell_setting 'orthorhombic'
loop_
_space_group_symop_operation_xyz
x,y,z
1/2-x,-y,1/2+z
1/2+x,1/2-y,1/2-z
-x,1/2+y,-z
-x,-y,-z
1/2+x,y,1/2-z
1/2-x,1/2+y,1/2+z
x,1/2-y,z
loop_
_atom_site_type_symbol
_atom_site_label
_atom_site_fract_x
_atom_site_fract_y
_atom_site_fract_z
Si Si1 0.498759 0.572122 0.721176
Si Si2 0.719899 0.071584 0.366147
Si Si3 0.513272 0.928645 0.444357
Si Si4 0.700983 0.428488 0.642603
Si Si5 0.496714 0.571514 0.167215
O O1 0.506604 0.750000 0.730263
O O2 0.368200 0.540526 0.685361
O O3 0.627232 0.517632 0.688089
O O4 0.493000 0.486101 0.774496
O O5 0.722392 0.250000 0.373042
O O6 0.639009 0.996011 0.412680
O O7 0.869134 0.007216 0.358906
O O8 0.527028 0.750000 0.448201
O O9 0.381221 0.961542 0.409267
O O10 0.500000 0.000000 0.500000
O O11 0.686682 0.250000 0.652838
O O12 0.859542 0.463418 0.640740
O O13 0.477025 0.750000 0.166794
#
# Coordination Sequence:
#
# PCOD9463941 Si02
#       5
#     8   8   8   8   8
#     4  10  20  33  51  76 107 143 179 212 251 303
#     4  10  21  36  54  79 108 139 177 218 260 308
#     4  10  20  38  61  81 102 132 173 219 267 318
#     4   9  20  36  54  77 105 138 176 216 258 309
#     4  11  21  33  51  77 109 142 174 211 257 306
#
# _framework density 17.388764999999999
#
# number of rings (size 3 to 8) (size 9 to 14) (size 15 to 20)
#    0.000    2.000    0.000    3.600    0.000    8.000 
#    0.000    1.000    0.000    0.000    0.000    0.000 
#    0.000    0.000    0.000    0.000    0.000    0.000 
#
# Total GULP energy -223431.377091 kJ/mol
# GULP energy per Si atom -5585.784427 kJ/mol
# Density = 1.734919 g / cm^3
# Si number density = 17.388765 Si / 1000 Ang^3
#
#
#
# Elastic Constant Matrix: (Units=GPa)
#
#
# Indices 1 2 3 4 5 6 
#
# 1 155.4255 65.7501 63.6580 0.0000 0.0000 0.0000
# 2 65.7501 64.8551 55.0795 0.0000 0.0000 0.0000
# 3 63.6580 55.0795 116.4154 0.0000 0.0000 0.0000
# 4 0.0000 0.0000 0.0000 33.2252 0.0000 0.0000
# 5 0.0000 0.0000 0.0000 0.0000 2.6437 0.0000
# 6 0.0000 0.0000 0.0000 0.0000 0.0000 28.6703
#
#
#
# Elastic Compliance Matrix: (Units=1/GPa)
#
#
# Indices 1 2 3 4 5 6 
#
# 1 0.011378 -0.010450 -0.001277 0.000000 0.000000 0.000000
# 2 -0.010450 0.035374 -0.011022 0.000000 0.000000 0.000000
# 3 -0.001277 -0.011022 0.014503 0.000000 0.000000 0.000000
# 4 0.000000 0.000000 0.000000 0.030098 0.000000 0.000000
# 5 0.000000 0.000000 0.000000 0.000000 0.378260 0.000000
# 6 0.000000 0.000000 0.000000 0.000000 0.000000 0.034879
#
#
# Mechanical properties :
#
#
# Convention : Reuss Voigt Hill
#
# Bulk Modulus (GPa) = 63.46799 78.40791 70.93795
# Shear Modulus (GPa) = 9.00506 23.05507 16.03007
#
# Velocity S-wave (km/s) = 2.27814 3.64519 3.03951
# Velocity P-wave (km/s) = 6.59534 7.93130 7.29397
#
# Compressibility (1/GPa) = 0.01575597
#
# Stress axis : x y z
#
# Youngs Moduli (GPa) = 87.89028 28.26938 68.94947
#
# Poissons Ratio (x) = 0.29541 0.08808
# Poissons Ratio (y) = 0.91845 0.75998
# Poissons Ratio (z) = 0.11227 0.31159
#
# Static dielectric constant tensor:
#      x y z
#    x 1.588080 0.000000 0.000000 
#    y 0.000000 1.576180 0.000000 
#    z 0.000000 0.000000 1.553470 
# 
# From -- ./inp_files/28572.got.cif
#   From: 2010.05.17/outbox.cif.g08.bks.cpg/sg62_15_cif.got.tgz:28572.got - 2010.06.03 15:25:27.
