data_PCOD9463054
_publ_section_title
;
Structure prediction by ZEFSAII (Michael W. Deem and Ramdas Pophale) SiO2 
 PCOD9463054
Probable space group: P N M A
;
_chemical_formula_sum "Si O2"
_cell_formula_units_Z 48
_cell_length_a 9.205305
_cell_length_b 9.867766
_cell_length_c 23.499959
_cell_angle_alpha 90.000000
_cell_angle_beta 90.000000
_cell_angle_gamma 90.000000
_cell_volume 2134.637475
_symmetry_space_group_name_H-M "P N M A"
_symmetry_group_IT_number 62
_symmetry_cell_setting 'orthorhombic'
loop_
_space_group_symop_operation_xyz
x,y,z
1/2-x,-y,1/2+z
1/2+x,1/2-y,1/2-z
-x,1/2+y,-z
-x,-y,-z
1/2+x,y,1/2-z
1/2-x,1/2+y,1/2+z
x,1/2-y,z
loop_
_atom_site_type_symbol
_atom_site_label
_atom_site_fract_x
_atom_site_fract_y
_atom_site_fract_z
Si Si1 0.249948 0.102888 0.659033
Si Si2 0.291592 0.410138 0.792334
Si Si3 0.910170 0.898537 0.962115
Si Si4 0.444257 0.957454 0.375686
Si Si5 0.004306 0.085423 0.375150
Si Si6 0.327516 0.096828 0.958602
O O1 0.173300 0.250000 0.655402
O O2 0.292457 0.078780 0.724624
O O3 0.400360 0.114376 0.624929
O O4 0.151971 0.979906 0.637828
O O5 0.320441 0.250000 0.806009
O O6 0.396526 0.514425 0.825431
O O7 0.129972 0.447022 0.814593
O O8 0.931581 0.750000 0.985088
O O9 0.991772 0.903981 0.901588
O O10 0.742665 0.927595 0.979086
O O11 0.000000 0.000000 0.000000
O O12 0.312474 0.907439 0.415643
O O13 0.007793 0.250000 0.375163
O O14 0.069773 0.019381 0.433177
O O15 0.389358 0.250000 0.956707
#
# Coordination Sequence:
#
# PCOD9463054 Si02
#       6
#     8   8   8   8   8   8
#     4  11  22  38  60  84 112 151 197 238 278 334
#     4  10  21  39  61  83 109 148 198 240 276 332
#     4   9  19  34  57  87 116 146 185 235 284 337
#     4  10  19  33  59  90 113 139 185 244 289 321
#     4  11  23  37  54  82 119 153 184 228 290 345
#     4   9  18  37  61  84 111 147 192 233 276 337
#
# _framework density 22.486252
#
# number of rings (size 3 to 8) (size 9 to 14) (size 15 to 20)
#    0.000    2.000    0.000    5.000    0.000   11.333 
#    0.000    2.500    0.000    0.000    0.000    0.000 
#    0.000    0.000    0.000    0.000    0.000    0.000 
#
# Total GULP energy -267206.169715 kJ/mol
# GULP energy per Si atom -5566.795202 kJ/mol
# Density = 2.243507 g / cm^3
# Si number density = 22.486252 Si / 1000 Ang^3
#
#
#
# Elastic Constant Matrix: (Units=GPa)
#
#
# Indices 1 2 3 4 5 6 
#
# 1 122.0051 68.5016 14.5116 0.0000 0.0000 0.0000
# 2 68.5016 160.7506 45.1175 0.0000 0.0000 0.0000
# 3 14.5116 45.1175 53.6487 0.0000 0.0000 0.0000
# 4 0.0000 0.0000 0.0000 39.2638 0.0000 0.0000
# 5 0.0000 0.0000 0.0000 0.0000 26.0973 0.0000
# 6 0.0000 0.0000 0.0000 0.0000 0.0000 -5.3736
#
#
#
# Elastic Compliance Matrix: (Units=1/GPa)
#
#
# Indices 1 2 3 4 5 6 
#
# 1 0.010838 -0.004968 0.001247 0.000000 0.000000 0.000000
# 2 -0.004968 0.010420 -0.007419 0.000000 0.000000 0.000000
# 3 0.001247 -0.007419 0.024542 0.000000 0.000000 0.000000
# 4 0.000000 0.000000 0.000000 0.025469 0.000000 0.000000
# 5 0.000000 0.000000 0.000000 0.000000 0.038318 0.000000
# 6 0.000000 0.000000 0.000000 0.000000 0.000000 -0.186094
#
#
# Mechanical properties :
#
#
# Convention : Reuss Voigt Hill
#
# Bulk Modulus (GPa) = 42.52036 65.85174 54.18605
# Shear Modulus (GPa) = -107.79136 25.88243 -40.95447
#
# Velocity S-wave (km/s) = -6.93113 3.39637 -4.27231
# Velocity P-wave (km/s) = 6.71592 6.68800 0.43260
#
# Compressibility (1/GPa) = 0.02351815
#
# Stress axis : x y z
#
# Youngs Moduli (GPa) = 92.27185 95.96639 40.74620
#
# Poissons Ratio (x) = 0.47678 -0.05080
# Poissons Ratio (y) = 0.45842 0.30231
# Poissons Ratio (z) = -0.11503 0.71202
#
# Static dielectric constant tensor:
#      x y z
#    x 1.796100 0.000000 0.000000 
#    y 0.000000 1.903470 0.000000 
#    z 0.000000 0.000000 1.228100 
# 
# From -- ./inp_files/31993.got.cif
#   From: 2010.05.17/outbox.cif.g08.bks.cpg/sg62_16_cif.got.tgz:31993.got - 2010.06.03 15:25:27.
