data_PCOD9463615
_publ_section_title
;
Structure prediction by ZEFSAII (Michael W. Deem and Ramdas Pophale) SiO2 
 PCOD9463615
Probable space group: P N M A
;
_chemical_formula_sum "Si O2"
_cell_formula_units_Z 52
_cell_length_a 8.239161
_cell_length_b 22.591643
_cell_length_c 13.136530
_cell_angle_alpha 90.000000
_cell_angle_beta 90.000000
_cell_angle_gamma 90.000000
_cell_volume 2445.183564
_symmetry_space_group_name_H-M "P N M A"
_symmetry_group_IT_number 62
_symmetry_cell_setting 'orthorhombic'
loop_
_space_group_symop_operation_xyz
x,y,z
1/2-x,-y,1/2+z
1/2+x,1/2-y,1/2-z
-x,1/2+y,-z
-x,-y,-z
1/2+x,y,1/2-z
1/2-x,1/2+y,1/2+z
x,1/2-y,z
loop_
_atom_site_type_symbol
_atom_site_label
_atom_site_fract_x
_atom_site_fract_y
_atom_site_fract_z
Si Si1 0.487267 0.450797 0.207209
Si Si2 0.642126 0.750000 0.045603
Si Si3 0.151029 0.157726 0.819726
Si Si4 0.202273 0.636296 0.114259
Si Si5 0.536778 0.362421 0.044457
Si Si6 0.155522 0.495689 0.115971
Si Si7 0.189783 0.547687 0.416892
O O1 0.306061 0.465858 0.174959
O O2 0.507989 0.464305 0.326090
O O3 0.597578 0.498706 0.147572
O O4 0.534456 0.387572 0.159108
O O5 0.727863 0.699605 0.119786
O O6 0.561354 0.802738 0.975052
O O7 0.170478 0.161525 0.698062
O O8 0.210796 0.091866 0.846156
O O9 0.969120 0.166649 0.860165
O O10 0.285356 0.645221 0.005260
O O11 0.168457 0.566230 0.127009
O O12 0.447298 0.414398 0.977877
O O13 0.186974 0.478402 0.999841
#
# Coordination Sequence:
#
# PCOD9463615 Si02
#       7
#     8   4   8   8   8   8   8
#     4  11  20  36  59  88 125 162 202 242 307 366
#     4  10  24  44  58  78 110 160 204 252 288 348
#     4  11  24  35  57  82 120 155 201 246 297 354
#     4  12  21  35  57  90 121 160 197 244 301 368
#     4  10  21  40  62  81 118 166 209 238 303 359
#     4  11  21  33  56  88 127 155 192 247 302 365
#     4  10  19  37  56  86 123 162 193 242 302 363
#
# _framework density 21.266297000000002
#
# number of rings (size 3 to 8) (size 9 to 14) (size 15 to 20)
#    0.000    1.231    4.615    3.692    0.000    4.923 
#    0.000    0.000    0.000    8.308    0.000    0.000 
#    0.000    0.000    0.000    0.000    0.000    0.000 
#
# Total GULP energy -289725.133960 kJ/mol
# GULP energy per Si atom -5571.637192 kJ/mol
# Density = 2.121789 g / cm^3
# Si number density = 21.266297 Si / 1000 Ang^3
#
#
#
# Elastic Constant Matrix: (Units=GPa)
#
#
# Indices 1 2 3 4 5 6 
#
# 1 39.6050 9.9673 6.1606 0.0000 0.0000 0.0000
# 2 9.9673 106.1842 24.0272 0.0000 0.0000 0.0000
# 3 6.1606 24.0272 64.2989 0.0000 0.0000 0.0000
# 4 0.0000 0.0000 0.0000 9.2692 0.0000 0.0000
# 5 0.0000 0.0000 0.0000 0.0000 22.9650 0.0000
# 6 0.0000 0.0000 0.0000 0.0000 0.0000 9.5604
#
#
#
# Elastic Compliance Matrix: (Units=1/GPa)
#
#
# Indices 1 2 3 4 5 6 
#
# 1 0.026035 -0.002053 -0.001727 0.000000 0.000000 0.000000
# 2 -0.002053 0.010449 -0.003708 0.000000 0.000000 0.000000
# 3 -0.001727 -0.003708 0.017103 0.000000 0.000000 0.000000
# 4 0.000000 0.000000 0.000000 0.107884 0.000000 0.000000
# 5 0.000000 0.000000 0.000000 0.000000 0.043545 0.000000
# 6 0.000000 0.000000 0.000000 0.000000 0.000000 0.104598
#
#
# Mechanical properties :
#
#
# Convention : Reuss Voigt Hill
#
# Bulk Modulus (GPa) = 25.89936 32.26648 29.08292
# Shear Modulus (GPa) = 14.81652 19.68778 17.25215
#
# Velocity S-wave (km/s) = 2.64240 3.04595 2.85132
# Velocity P-wave (km/s) = 4.63840 5.25128 4.95433
#
# Compressibility (1/GPa) = 0.03861099
#
# Stress axis : x y z
#
# Youngs Moduli (GPa) = 38.41027 95.69971 58.46764
#
# Poissons Ratio (x) = 0.19647 0.10099
# Poissons Ratio (y) = 0.07886 0.21680
# Poissons Ratio (z) = 0.06634 0.35486
#
# Static dielectric constant tensor:
#      x y z
#    x 1.840280 0.000000 0.000000 
#    y 0.000000 1.760420 0.000000 
#    z 0.000000 0.000000 1.804600 
# 
# From -- ./inp_files/17154.got.cif
#   From: 2010.05.17/outbox.cif.g08.bks.cpg/sg62_9_cif.got.tgz:17154.got - 2010.06.03 15:25:27.
