data_PCOD9463768
_publ_section_title
;
Structure prediction by ZEFSAII (Michael W. Deem and Ramdas Pophale) SiO2 
 PCOD9463768
Probable space group: P N M A
;
_chemical_formula_sum "Si O2"
_cell_formula_units_Z 48
_cell_length_a 11.796134
_cell_length_b 12.310029
_cell_length_c 15.443916
_cell_angle_alpha 90.000000
_cell_angle_beta 90.000000
_cell_angle_gamma 90.000000
_cell_volume 2242.622650
_symmetry_space_group_name_H-M "P N M A"
_symmetry_group_IT_number 62
_symmetry_cell_setting 'orthorhombic'
loop_
_space_group_symop_operation_xyz
x,y,z
1/2-x,-y,1/2+z
1/2+x,1/2-y,1/2-z
-x,1/2+y,-z
-x,-y,-z
1/2+x,y,1/2-z
1/2-x,1/2+y,1/2+z
x,1/2-y,z
loop_
_atom_site_type_symbol
_atom_site_label
_atom_site_fract_x
_atom_site_fract_y
_atom_site_fract_z
Si Si1 0.162741 0.928605 0.714050
Si Si2 0.213368 0.250000 0.109013
Si Si3 0.816623 0.631371 0.517450
Si Si4 0.467785 0.868108 0.141307
Si Si5 0.617894 0.750000 0.466632
Si Si6 0.784263 0.059884 0.651750
Si Si7 0.368225 0.750000 0.409092
Si Si8 0.540963 0.750000 0.667966
O O1 0.212435 0.853910 0.637792
O O2 0.094996 0.852555 0.781936
O O3 0.082226 0.024781 0.683578
O O4 0.264293 0.989494 0.762884
O O5 0.095633 0.250000 0.163824
O O6 0.179689 0.250000 0.008245
O O7 0.823838 0.750000 0.564433
O O8 0.926642 0.623824 0.458117
O O9 0.704752 0.649018 0.457063
O O10 0.797526 0.529560 0.576775
O O11 0.424529 0.750000 0.172925
O O12 0.601350 0.872277 0.152237
O O13 0.504629 0.750000 0.411665
O O14 0.579035 0.750000 0.567458
O O15 0.680903 0.141598 0.634570
#
# Coordination Sequence:
#
# PCOD9463768 Si02
#       8
#     8   4   8   8   4   8   4   4
#     4  11  23  41  65  93 129 175 210 268 335 378
#     4  10  23  43  67  97 129 157 224 278 321 383
#     4   9  20  41  65  92 123 166 212 268 322 384
#     4  11  24  42  61  93 134 171 216 262 321 395
#     4   9  19  42  61  94 119 162 210 265 325 379
#     4  12  23  43  66  96 129 171 223 263 328 394
#     4  11  25  40  65  98 128 170 221 274 319 390
#     4  10  19  43  63  93 124 159 215 269 321 388
#
# _framework density 21.403511999999999
#
# number of rings (size 3 to 8) (size 9 to 14) (size 15 to 20)
#    0.500    1.000    2.500    2.500    2.333    0.667 
#    9.000    0.000    0.000    0.000    0.000    0.000 
#    0.000    0.000    0.000    0.000    0.000    0.000 
#
# Total GULP energy -268020.246617 kJ/mol
# GULP energy per Si atom -5583.755138 kJ/mol
# Density = 2.135480 g / cm^3
# Si number density = 21.403512 Si / 1000 Ang^3
#
#
#
# Elastic Constant Matrix: (Units=GPa)
#
#
# Indices 1 2 3 4 5 6 
#
# 1 59.0248 9.7888 -10.4760 0.0000 0.0000 0.0000
# 2 9.7888 131.3247 14.3763 0.0000 0.0000 0.0000
# 3 -10.4760 14.3763 14.9339 0.0000 0.0000 0.0000
# 4 0.0000 0.0000 0.0000 19.5931 0.0000 0.0000
# 5 0.0000 0.0000 0.0000 0.0000 22.2857 0.0000
# 6 0.0000 0.0000 0.0000 0.0000 0.0000 6.6119
#
#
#
# Elastic Compliance Matrix: (Units=1/GPa)
#
#
# Indices 1 2 3 4 5 6 
#
# 1 0.020698 -0.003501 0.017890 0.000000 0.000000 0.000000
# 2 -0.003501 0.009104 -0.011220 0.000000 0.000000 0.000000
# 3 0.017890 -0.011220 0.090312 0.000000 0.000000 0.000000
# 4 0.000000 0.000000 0.000000 0.051038 0.000000 0.000000
# 5 0.000000 0.000000 0.000000 0.000000 0.044872 0.000000
# 6 0.000000 0.000000 0.000000 0.000000 0.000000 0.151241
#
#
# Mechanical properties :
#
#
# Convention : Reuss Voigt Hill
#
# Bulk Modulus (GPa) = 7.90819 25.85128 16.87973
# Shear Modulus (GPa) = 12.40452 22.47111 17.43782
#
# Velocity S-wave (km/s) = 2.41001 3.24370 2.85742
# Velocity P-wave (km/s) = 3.38334 5.11205 4.33475
#
# Compressibility (1/GPa) = 0.12645123
#
# Stress axis : x y z
#
# Youngs Moduli (GPa) = 48.31416 109.84222 11.07269
#
# Poissons Ratio (x) = 0.38458 -0.19809
# Poissons Ratio (y) = 0.16916 0.12424
# Poissons Ratio (z) = -0.86433 1.23244
#
# Static dielectric constant tensor:
#      x y z
#    x 1.781090 0.000000 0.000000 
#    y 0.000000 1.761720 0.000000 
#    z 0.000000 0.000000 1.793390 
# 
# From -- ./inp_files/23079.got.cif
#   From: 2010.05.17/outbox.cif.g08.bks.cpg/sg62_12_cif.got.tgz:23079.got - 2010.06.03 15:25:27.
