data_PCOD9463908
_publ_section_title
;
Structure prediction by ZEFSAII (Michael W. Deem and Ramdas Pophale) SiO2 
 PCOD9463908
Probable space group: P N M A
;
_chemical_formula_sum "Si O2"
_cell_formula_units_Z 64
_cell_length_a 8.207627
_cell_length_b 27.275225
_cell_length_c 14.389755
_cell_angle_alpha 90.000000
_cell_angle_beta 90.000000
_cell_angle_gamma 90.000000
_cell_volume 3221.360678
_symmetry_space_group_name_H-M "P N M A"
_symmetry_group_IT_number 62
_symmetry_cell_setting 'orthorhombic'
loop_
_space_group_symop_operation_xyz
x,y,z
1/2-x,-y,1/2+z
1/2+x,1/2-y,1/2-z
-x,1/2+y,-z
-x,-y,-z
1/2+x,y,1/2-z
1/2-x,1/2+y,1/2+z
x,1/2-y,z
loop_
_atom_site_type_symbol
_atom_site_label
_atom_site_fract_x
_atom_site_fract_y
_atom_site_fract_z
Si Si1 0.177999 0.584931 0.388467
Si Si2 0.820661 0.917326 0.301323
Si Si3 0.688128 0.469989 0.112551
Si Si4 0.669876 0.387465 0.431212
Si Si5 0.172412 0.967312 0.696415
Si Si6 0.689653 0.610483 0.482407
Si Si7 0.553996 0.193262 0.296937
Si Si8 0.303000 0.806436 0.888265
O O1 0.300263 0.598417 0.304919
O O2 0.207641 0.527267 0.410816
O O3 0.204297 0.614194 0.483191
O O4 0.000384 0.589094 0.342877
O O5 0.701078 0.890298 0.372111
O O6 0.778857 0.975427 0.304825
O O7 0.810699 0.453547 0.194948
O O8 0.509247 0.463214 0.156396
O O9 0.717212 0.437051 0.023047
O O10 0.714143 0.433460 0.366427
O O11 0.493483 0.392359 0.479581
O O12 0.659327 0.340506 0.364691
O O13 0.779729 0.657219 0.526608
O O14 0.608807 0.250000 0.299027
O O15 0.369891 0.191655 0.333601
O O16 0.569252 0.176579 0.190083
O O17 0.334719 0.750000 0.914932
#
# Coordination Sequence:
#
# PCOD9463908 Si02
#       8
#     8   8   8   8   8   8   8   8
#     4  10  21  36  52  71  99 134 170 208 248 291
#     4  10  21  36  52  71  99 134 170 208 248 291
#     4  10  20  33  49  72 103 136 168 204 246 293
#     4  11  21  32  51  76 101 132 168 206 248 295
#     4  10  20  33  49  72 103 136 168 204 246 293
#     4  11  21  32  51  76 101 132 168 206 248 295
#     4   9  19  35  53  75 103 132 162 199 245 295
#     4   9  19  35  53  75 103 132 162 199 245 295
#
# _framework density 19.867381000000002
#
# number of rings (size 3 to 8) (size 9 to 14) (size 15 to 20)
#    0.000    2.000    0.000    3.750    0.000   10.000 
#    0.000    0.000    0.000    0.750    0.000    0.000 
#    0.000    0.000    0.000    0.000    0.000    0.000 
#
# Total GULP energy -357758.761512 kJ/mol
# GULP energy per Si atom -5589.980649 kJ/mol
# Density = 1.982216 g / cm^3
# Si number density = 19.867381 Si / 1000 Ang^3
#
#
#
# Elastic Constant Matrix: (Units=GPa)
#
#
# Indices 1 2 3 4 5 6 
#
# 1 33.8512 7.6376 1.2510 0.0000 0.0000 0.0000
# 2 7.6376 12.1208 3.9356 0.0000 0.0000 0.0000
# 3 1.2510 3.9356 54.6132 0.0000 0.0000 0.0000
# 4 0.0000 0.0000 0.0000 22.4947 0.0000 0.0000
# 5 0.0000 0.0000 0.0000 0.0000 33.9729 0.0000
# 6 0.0000 0.0000 0.0000 0.0000 0.0000 16.6171
#
#
#
# Elastic Compliance Matrix: (Units=1/GPa)
#
#
# Indices 1 2 3 4 5 6 
#
# 1 0.034471 -0.021979 0.000794 0.000000 0.000000 0.000000
# 2 -0.021979 0.098494 -0.006594 0.000000 0.000000 0.000000
# 3 0.000794 -0.006594 0.018768 0.000000 0.000000 0.000000
# 4 0.000000 0.000000 0.000000 0.044455 0.000000 0.000000
# 5 0.000000 0.000000 0.000000 0.000000 0.029435 0.000000
# 6 0.000000 0.000000 0.000000 0.000000 0.000000 0.060179
#
#
# Mechanical properties :
#
#
# Convention : Reuss Voigt Hill
#
# Bulk Modulus (GPa) = 10.39779 14.02594 12.21187
# Shear Modulus (GPa) = 13.38988 20.46767 16.92878
#
# Velocity S-wave (km/s) = 2.59890 3.21318 2.92222
# Velocity P-wave (km/s) = 3.77500 4.56521 4.18878
#
# Compressibility (1/GPa) = 0.09617430
#
# Stress axis : x y z
#
# Youngs Moduli (GPa) = 29.01024 10.15295 53.28332
#
# Poissons Ratio (x) = 0.22315 -0.04232
# Poissons Ratio (y) = 0.63761 0.35136
# Poissons Ratio (z) = -0.02304 0.06695
#
# Static dielectric constant tensor:
#      x y z
#    x 1.757670 0.000000 0.000000 
#    y 0.000000 1.675450 0.000000 
#    z 0.000000 0.000000 1.692750 
# 
# From -- ./inp_files/17440.got.cif
#   From: 2010.05.17/outbox.cif.g08.bks.cpg/sg62_9_cif.got.tgz:17440.got - 2010.06.03 15:25:27.
