data_PCOD9463142
_publ_section_title
;
Structure prediction by ZEFSAII (Michael W. Deem and Ramdas Pophale) SiO2 
 PCOD9463142
Probable space group: P N M A
;
_chemical_formula_sum "Si O2"
_cell_formula_units_Z 64
_cell_length_a 20.096069
_cell_length_b 8.411468
_cell_length_c 20.435253
_cell_angle_alpha 90.000000
_cell_angle_beta 90.000000
_cell_angle_gamma 90.000000
_cell_volume 3454.322880
_symmetry_space_group_name_H-M "P N M A"
_symmetry_group_IT_number 62
_symmetry_cell_setting 'orthorhombic'
loop_
_space_group_symop_operation_xyz
x,y,z
1/2-x,-y,1/2+z
1/2+x,1/2-y,1/2-z
-x,1/2+y,-z
-x,-y,-z
1/2+x,y,1/2-z
1/2-x,1/2+y,1/2+z
x,1/2-y,z
loop_
_atom_site_type_symbol
_atom_site_label
_atom_site_fract_x
_atom_site_fract_y
_atom_site_fract_z
Si Si1 0.096649 0.440227 0.181618
Si Si2 0.246949 0.058693 0.212947
Si Si3 0.063704 0.559773 0.039906
Si Si4 0.708195 0.555653 0.509888
Si Si5 0.718350 0.442327 0.141817
Si Si6 0.072259 0.940440 0.324620
Si Si7 0.532291 0.442338 0.933181
Si Si8 0.180488 0.059245 0.592653
O O1 0.095252 0.250000 0.179006
O O2 0.174245 0.492249 0.186109
O O3 0.064322 0.506527 0.115701
O O4 0.066380 0.494251 0.250900
O O5 0.249484 0.250000 0.210001
O O6 0.250444 0.010815 0.288732
O O7 0.302159 0.987698 0.166250
O O8 0.063900 0.750000 0.038095
O O9 0.133538 0.502791 0.007474
O O10 0.000000 0.500000 0.000000
O O11 0.707308 0.750000 0.509607
O O12 0.738413 0.505654 0.579749
O O13 0.760463 0.501259 0.454635
O O14 0.714460 0.250000 0.140239
O O15 0.642691 0.504138 0.144646
O O16 0.072542 0.750000 0.321439
O O17 0.012806 0.993978 0.371911
O O18 0.532971 0.250000 0.933102
O O19 0.608044 0.499931 0.927759
O O20 0.500000 0.500000 0.000000
O O21 0.179957 0.250000 0.587425
#
# Coordination Sequence:
#
# PCOD9463142 Si02
#       8
#     8   8   8   8   8   8   8   8
#     4  10  20  37  60  83 108 146 192 233 277 336
#     4   9  18  32  53  80 107 135 176 228 272 318
#     4  11  22  38  59  84 113 147 186 235 290 344
#     4   9  18  34  58  82 106 142 184 224 272 329
#     4   9  18  35  57  81 110 144 186 229 270 325
#     4  10  20  35  55  84 118 151 188 231 280 334
#     4  10  22  37  55  81 115 150 188 231 279 333
#     4  10  19  34  56  79 106 145 184 222 271 330
#
# _framework density 18.527509999999999
#
# number of rings (size 3 to 8) (size 9 to 14) (size 15 to 20)
#    0.000    2.250    1.250    2.625    0.000    4.500 
#    2.250    1.875    0.000    0.000    0.000    0.000 
#    0.000    0.000    0.000    0.000    0.000    0.000 
#
# Total GULP energy -357157.403303 kJ/mol
# GULP energy per Si atom -5580.584427 kJ/mol
# Density = 1.848534 g / cm^3
# Si number density = 18.527510 Si / 1000 Ang^3
#
#
#
# Elastic Constant Matrix: (Units=GPa)
#
#
# Indices 1 2 3 4 5 6 
#
# 1 149.4798 23.0471 95.4677 0.0000 0.0000 0.0000
# 2 23.0471 16.9738 22.5837 0.0000 0.0000 0.0000
# 3 95.4677 22.5837 146.9596 0.0000 0.0000 0.0000
# 4 0.0000 0.0000 0.0000 23.9360 0.0000 0.0000
# 5 0.0000 0.0000 0.0000 0.0000 32.0301 0.0000
# 6 0.0000 0.0000 0.0000 0.0000 0.0000 20.6739
#
#
#
# Elastic Compliance Matrix: (Units=1/GPa)
#
#
# Indices 1 2 3 4 5 6 
#
# 1 0.012156 -0.007540 -0.006738 0.000000 0.000000 0.000000
# 2 -0.007540 0.078733 -0.007201 0.000000 0.000000 0.000000
# 3 -0.006738 -0.007201 0.012288 0.000000 0.000000 0.000000
# 4 0.000000 0.000000 0.000000 0.041778 0.000000 0.000000
# 5 0.000000 0.000000 0.000000 0.000000 0.031221 0.000000
# 6 0.000000 0.000000 0.000000 0.000000 0.000000 0.048370
#
#
# Mechanical properties :
#
#
# Convention : Reuss Voigt Hill
#
# Bulk Modulus (GPa) = 16.60599 66.17892 41.39245
# Shear Modulus (GPa) = 17.38664 26.81565 22.10115
#
# Velocity S-wave (km/s) = 3.06669 3.80852 3.45756
# Velocity P-wave (km/s) = 4.63916 7.42540 6.19106
#
# Compressibility (1/GPa) = 0.06021923
#
# Stress axis : x y z
#
# Youngs Moduli (GPa) = 82.26624 12.70109 81.37916
#
# Poissons Ratio (x) = 0.09577 0.54832
# Poissons Ratio (y) = 0.62032 0.58600
# Poissons Ratio (z) = 0.55429 0.09146
#
# Static dielectric constant tensor:
#      x y z
#    x 1.629660 0.000000 0.000000 
#    y 0.000000 1.639800 0.000000 
#    z 0.000000 0.000000 1.626930 
# 
# From -- ./inp_files/24706.got.cif
#   From: 2010.05.17/outbox.cif.g08.bks.cpg/sg62_13_cif.got.tgz:24706.got - 2010.06.03 15:25:27.
