data_PCOD9463459
_publ_section_title
;
Structure prediction by ZEFSAII (Michael W. Deem and Ramdas Pophale) SiO2 
 PCOD9463459
Probable space group: P N M A
;
_chemical_formula_sum "Si O2"
_cell_formula_units_Z 48
_cell_length_a 9.008169
_cell_length_b 12.572063
_cell_length_c 22.819372
_cell_angle_alpha 90.000000
_cell_angle_beta 90.000000
_cell_angle_gamma 90.000000
_cell_volume 2584.322818
_symmetry_space_group_name_H-M "P N M A"
_symmetry_group_IT_number 62
_symmetry_cell_setting 'orthorhombic'
loop_
_space_group_symop_operation_xyz
x,y,z
1/2-x,-y,1/2+z
1/2+x,1/2-y,1/2-z
-x,1/2+y,-z
-x,-y,-z
1/2+x,y,1/2-z
1/2-x,1/2+y,1/2+z
x,1/2-y,z
loop_
_atom_site_type_symbol
_atom_site_label
_atom_site_fract_x
_atom_site_fract_y
_atom_site_fract_z
Si Si1 0.030572 0.880521 0.180369
Si Si2 0.758403 0.005526 0.242312
Si Si3 0.538017 0.750000 0.638383
Si Si4 0.319829 0.750000 0.525561
Si Si5 0.204311 0.421791 0.376182
Si Si6 0.962846 0.250000 0.399230
Si Si7 0.088347 0.057547 0.948070
Si Si8 0.248404 0.750000 0.712462
O O1 0.031449 0.750000 0.185817
O O2 0.001475 0.911941 0.111756
O O3 0.900100 0.938458 0.218544
O O4 0.176985 0.938524 0.206748
O O5 0.661160 0.015877 0.182684
O O6 0.776769 0.131629 0.259482
O O7 0.435740 0.750000 0.580227
O O8 0.650163 0.849065 0.638406
O O9 0.420735 0.750000 0.691382
O O10 0.154233 0.750000 0.549337
O O11 0.350556 0.844838 0.482929
O O12 0.268588 0.494363 0.426296
O O13 0.070795 0.350160 0.397321
O O14 0.863622 0.250000 0.341315
O O15 0.000000 0.000000 0.000000
#
# Coordination Sequence:
#
# PCOD9463459 Si02
#       8
#     8   8   4   4   8   4   8   4
#     4  11  24  43  64  91 128 170 215 259 320 384
#     4  11  23  37  65  92 127 168 205 266 318 384
#     4  10  19  35  63  92 122 160 202 255 305 375
#     4  11  22  38  62  90 120 159 206 261 305 379
#     4  10  21  38  58  89 124 160 199 253 324 370
#     4  10  23  35  57  90 128 155 189 257 329 389
#     4  11  22  40  67  89 116 161 221 264 301 371
#     4  11  20  36  60  98 126 156 213 257 325 383
#
# _framework density 18.573532
#
# number of rings (size 3 to 8) (size 9 to 14) (size 15 to 20)
#    0.000    1.333    2.500    4.500    2.333    2.667 
#    0.000    0.000    0.000    0.000    0.000    0.000 
#    0.000    0.000    0.000    0.000    0.000    0.000 
#
# Total GULP energy -267336.642377 kJ/mol
# GULP energy per Si atom -5569.513383 kJ/mol
# Density = 1.853126 g / cm^3
# Si number density = 18.573532 Si / 1000 Ang^3
#
#
#
# Elastic Constant Matrix: (Units=GPa)
#
#
# Indices 1 2 3 4 5 6 
#
# 1 71.9432 55.4191 58.0624 0.0000 0.0000 0.0000
# 2 55.4191 150.0528 68.6048 0.0000 0.0000 0.0000
# 3 58.0624 68.6048 136.2590 0.0000 0.0000 0.0000
# 4 0.0000 0.0000 0.0000 48.4801 0.0000 0.0000
# 5 0.0000 0.0000 0.0000 0.0000 30.5418 0.0000
# 6 0.0000 0.0000 0.0000 0.0000 0.0000 6.2370
#
#
#
# Elastic Compliance Matrix: (Units=1/GPa)
#
#
# Indices 1 2 3 4 5 6 
#
# 1 0.024233 -0.005493 -0.007560 0.000000 0.000000 0.000000
# 2 -0.005493 0.009902 -0.002645 0.000000 0.000000 0.000000
# 3 -0.007560 -0.002645 0.011892 0.000000 0.000000 0.000000
# 4 0.000000 0.000000 0.000000 0.020627 0.000000 0.000000
# 5 0.000000 0.000000 0.000000 0.000000 0.032742 0.000000
# 6 0.000000 0.000000 0.000000 0.000000 0.000000 0.160333
#
#
# Mechanical properties :
#
#
# Convention : Reuss Voigt Hill
#
# Bulk Modulus (GPa) = 68.35020 80.26973 74.30996
# Shear Modulus (GPa) = 16.89166 28.79635 22.84401
#
# Velocity S-wave (km/s) = 3.01898 3.94178 3.51083
# Velocity P-wave (km/s) = 7.00228 8.00175 7.51864
#
# Compressibility (1/GPa) = 0.01463054
#
# Stress axis : x y z
#
# Youngs Moduli (GPa) = 41.26574 100.98465 84.08846
#
# Poissons Ratio (x) = 0.55475 0.63573
# Poissons Ratio (y) = 0.22669 0.22241
# Poissons Ratio (z) = 0.31198 0.26710
#
# Static dielectric constant tensor:
#      x y z
#    x 1.645390 0.000000 0.000000 
#    y 0.000000 1.602650 0.000000 
#    z 0.000000 0.000000 1.655000 
# 
# From -- ./inp_files/28854.got.cif
#   From: 2010.05.17/outbox.cif.g08.bks.cpg/sg62_15_cif.got.tgz:28854.got - 2010.06.03 15:25:27.
