data_PCOD9463830
_publ_section_title
;
Structure prediction by ZEFSAII (Michael W. Deem and Ramdas Pophale) SiO2 
 PCOD9463830
Probable space group: P N M A
;
_chemical_formula_sum "Si O2"
_cell_formula_units_Z 56
_cell_length_a 18.559844
_cell_length_b 8.832232
_cell_length_c 19.606344
_cell_angle_alpha 90.000000
_cell_angle_beta 90.000000
_cell_angle_gamma 90.000000
_cell_volume 3213.966962
_symmetry_space_group_name_H-M "P N M A"
_symmetry_group_IT_number 62
_symmetry_cell_setting 'orthorhombic'
loop_
_space_group_symop_operation_xyz
x,y,z
1/2-x,-y,1/2+z
1/2+x,1/2-y,1/2-z
-x,1/2+y,-z
-x,-y,-z
1/2+x,y,1/2-z
1/2-x,1/2+y,1/2+z
x,1/2-y,z
loop_
_atom_site_type_symbol
_atom_site_label
_atom_site_fract_x
_atom_site_fract_y
_atom_site_fract_z
Si Si1 0.530419 0.068121 0.069385
Si Si2 0.642984 0.569584 0.250180
Si Si3 0.454068 0.932038 0.352375
Si Si4 0.814411 0.431438 0.605109
Si Si5 0.334147 0.567158 0.460850
Si Si6 0.489189 0.070444 0.215336
Si Si7 0.616756 0.569060 0.397368
O O1 0.530963 0.250000 0.066364
O O2 0.482769 0.023128 0.136106
O O3 0.611552 0.009006 0.082102
O O4 0.500000 0.000000 0.000000
O O5 0.624740 0.750000 0.249176
O O6 0.695521 0.542240 0.186640
O O7 0.571194 0.476612 0.233093
O O8 0.661844 0.534243 0.328310
O O9 0.452764 0.750000 0.348692
O O10 0.393680 0.983521 0.405604
O O11 0.533697 0.974473 0.380483
O O12 0.444200 0.994271 0.275900
O O13 0.822649 0.250000 0.596208
O O14 0.744871 0.482858 0.563455
O O15 0.334726 0.750000 0.460698
O O16 0.354719 0.510168 0.535435
O O17 0.480375 0.250000 0.219322
O O18 0.618040 0.750000 0.407858
#
# Coordination Sequence:
#
# PCOD9463830 Si02
#       7
#     8   8   8   8   8   8   8
#     4  10  20  34  54  78 101 127 163 206 250 296
#     4   8  15  30  50  68  89 121 159 196 238 292
#     4   9  18  32  48  69  99 135 171 201 239 295
#     4   9  18  34  53  71  96 130 165 203 249 297
#     4  10  20  32  48  72 102 134 165 201 247 297
#     4   9  17  29  48  74  97 118 153 200 243 283
#     4   9  17  29  47  70  96 129 168 207 243 286
#
# _framework density 17.423950999999999
#
# number of rings (size 3 to 8) (size 9 to 14) (size 15 to 20)
#    0.000    2.857    0.000    2.143    0.000    5.143 
#    0.000    1.429    0.000    1.714    0.000    0.000 
#    0.000    0.000    0.000    0.000    0.000    0.000 
#
# Total GULP energy -311818.238677 kJ/mol
# GULP energy per Si atom -5568.182834 kJ/mol
# Density = 1.738429 g / cm^3
# Si number density = 17.423951 Si / 1000 Ang^3
#
#
#
# Elastic Constant Matrix: (Units=GPa)
#
#
# Indices 1 2 3 4 5 6 
#
# 1 59.3067 19.8475 67.0813 0.0000 0.0000 0.0000
# 2 19.8475 15.7565 39.2599 0.0000 0.0000 0.0000
# 3 67.0813 39.2599 189.0270 0.0000 0.0000 0.0000
# 4 0.0000 0.0000 0.0000 32.5136 0.0000 0.0000
# 5 0.0000 0.0000 0.0000 0.0000 15.4081 0.0000
# 6 0.0000 0.0000 0.0000 0.0000 0.0000 14.5120
#
#
#
# Elastic Compliance Matrix: (Units=1/GPa)
#
#
# Indices 1 2 3 4 5 6 
#
# 1 0.032364 -0.025180 -0.006255 0.000000 0.000000 0.000000
# 2 -0.025180 0.151127 -0.022452 0.000000 0.000000 0.000000
# 3 -0.006255 -0.022452 0.012173 0.000000 0.000000 0.000000
# 4 0.000000 0.000000 0.000000 0.030756 0.000000 0.000000
# 5 0.000000 0.000000 0.000000 0.000000 0.064901 0.000000
# 6 0.000000 0.000000 0.000000 0.000000 0.000000 0.068908
#
#
# Mechanical properties :
#
#
# Convention : Reuss Voigt Hill
#
# Bulk Modulus (GPa) = 11.37808 57.38528 34.38168
# Shear Modulus (GPa) = 10.05425 21.68018 15.86721
#
# Velocity S-wave (km/s) = 2.40476 3.53125 3.02098
# Velocity P-wave (km/s) = 3.77556 7.04504 5.65188
#
# Compressibility (1/GPa) = 0.08788832
#
# Stress axis : x y z
#
# Youngs Moduli (GPa) = 30.89895 6.61693 82.14675
#
# Poissons Ratio (x) = 0.16662 0.51385
# Poissons Ratio (y) = 0.77805 1.84439
# Poissons Ratio (z) = 0.19328 0.14857
#
# Static dielectric constant tensor:
#      x y z
#    x 1.574400 0.000000 0.000000 
#    y 0.000000 1.588790 0.000000 
#    z 0.000000 0.000000 1.623180 
# 
# From -- ./inp_files/24647.got.cif
#   From: 2010.05.17/outbox.cif.g08.bks.cpg/sg62_13_cif.got.tgz:24647.got - 2010.06.03 15:25:27.
