data_PCOD9463946
_publ_section_title
;
Structure prediction by ZEFSAII (Michael W. Deem and Ramdas Pophale) SiO2 
 PCOD9463946
Probable space group: P N M A
;
_chemical_formula_sum "Si O2"
_cell_formula_units_Z 48
_cell_length_a 9.188241
_cell_length_b 8.680467
_cell_length_c 27.751656
_cell_angle_alpha 90.000000
_cell_angle_beta 90.000000
_cell_angle_gamma 90.000000
_cell_volume 2213.422762
_symmetry_space_group_name_H-M "P N M A"
_symmetry_group_IT_number 62
_symmetry_cell_setting 'orthorhombic'
loop_
_space_group_symop_operation_xyz
x,y,z
1/2-x,-y,1/2+z
1/2+x,1/2-y,1/2-z
-x,1/2+y,-z
-x,-y,-z
1/2+x,y,1/2-z
1/2-x,1/2+y,1/2+z
x,1/2-y,z
loop_
_atom_site_type_symbol
_atom_site_label
_atom_site_fract_x
_atom_site_fract_y
_atom_site_fract_z
Si Si1 0.283367 0.563400 0.355889
Si Si2 0.446466 0.066287 0.926691
Si Si3 0.052439 0.065354 0.759765
Si Si4 0.772922 0.429232 0.476406
Si Si5 0.268924 0.933024 0.689422
Si Si6 0.581394 0.932938 0.403311
O O1 0.276182 0.750000 0.357722
O O2 0.131466 0.510055 0.378099
O O3 0.331698 0.523606 0.302093
O O4 0.418845 0.515349 0.389621
O O5 0.480494 0.250000 0.923980
O O6 0.588028 0.977436 0.944103
O O7 0.326435 0.046524 0.969112
O O8 0.033096 0.250000 0.759230
O O9 0.122937 0.008472 0.710459
O O10 0.902481 0.989179 0.776570
O O11 0.740631 0.250000 0.470341
O O12 0.637931 0.523896 0.455880
O O13 0.257979 0.750000 0.690100
O O14 0.313134 0.991723 0.636560
O O15 0.586915 0.750000 0.396629
#
# Coordination Sequence:
#
# PCOD9463946 Si02
#       6
#     8   8   8   8   8   8
#     4   8  17  34  56  78 100 133 178 219 255 308
#     4   9  18  35  55  75 104 141 179 220 265 315
#     4  10  20  37  58  80 108 143 181 220 269 327
#     4  10  20  33  51  78 109 139 175 220 268 318
#     4  11  22  37  56  81 111 141 179 227 273 317
#     4  10  20  36  56  77 104 139 178 219 268 326
#
# _framework density 21.685870000000001
#
# number of rings (size 3 to 8) (size 9 to 14) (size 15 to 20)
#    0.000    2.333    0.000    4.000    0.000    2.667 
#    0.000   10.000    0.000    0.000    0.000    0.000 
#    0.000    0.000    0.000    0.000    0.000    0.000 
#
# Total GULP energy -268195.209304 kJ/mol
# GULP energy per Si atom -5587.400194 kJ/mol
# Density = 2.163651 g / cm^3
# Si number density = 21.685870 Si / 1000 Ang^3
#
#
#
# Elastic Constant Matrix: (Units=GPa)
#
#
# Indices 1 2 3 4 5 6 
#
# 1 9.6127 6.3206 37.7060 0.0000 0.0000 0.0000
# 2 6.3206 56.4584 13.9460 0.0000 0.0000 0.0000
# 3 37.7060 13.9460 23.5102 0.0000 0.0000 0.0000
# 4 0.0000 0.0000 0.0000 19.2829 0.0000 0.0000
# 5 0.0000 0.0000 0.0000 0.0000 48.4169 0.0000
# 6 0.0000 0.0000 0.0000 0.0000 0.0000 23.4643
#
#
#
# Elastic Compliance Matrix: (Units=1/GPa)
#
#
# Indices 1 2 3 4 5 6 
#
# 1 -0.017792 -0.005925 0.032050 0.000000 0.000000 0.000000
# 2 -0.005925 0.018780 -0.001638 0.000000 0.000000 0.000000
# 3 0.032050 -0.001638 -0.007896 0.000000 0.000000 0.000000
# 4 0.000000 0.000000 0.000000 0.051859 0.000000 0.000000
# 5 0.000000 0.000000 0.000000 0.000000 0.020654 0.000000
# 6 0.000000 0.000000 0.000000 0.000000 0.000000 0.042618
#
#
# Mechanical properties :
#
#
# Convention : Reuss Voigt Hill
#
# Bulk Modulus (GPa) = 23.77182 22.83627 23.30404
# Shear Modulus (GPa) = 68.24078 20.34006 44.29042
#
# Velocity S-wave (km/s) = 5.61571 3.06590 4.52415
# Velocity P-wave (km/s) = 7.28244 4.80483 6.16929
#
# Compressibility (1/GPa) = 0.04206661
#
# Stress axis : x y z
#
# Youngs Moduli (GPa) = -56.20448 53.24824 -126.64179
#
# Poissons Ratio (x) = 0.31549 4.05888
# Poissons Ratio (y) = -0.33301 -0.20738
# Poissons Ratio (z) = 1.80136 0.08720
#
# Static dielectric constant tensor:
#      x y z
#    x 1.798420 0.000000 0.000000 
#    y 0.000000 1.714930 0.000000 
#    z 0.000000 0.000000 1.821040 
# 
# From -- ./inp_files/31962.got.cif
#   From: 2010.05.17/outbox.cif.g08.bks.cpg/sg62_16_cif.got.tgz:31962.got - 2010.06.03 15:25:27.
