data_PCOD9463426
_publ_section_title
;
Structure prediction by ZEFSAII (Michael W. Deem and Ramdas Pophale) SiO2 
 PCOD9463426
Probable space group: P N M A
;
_chemical_formula_sum "Si O2"
_cell_formula_units_Z 48
_cell_length_a 19.459501
_cell_length_b 18.877038
_cell_length_c 7.237161
_cell_angle_alpha 90.000000
_cell_angle_beta 90.000000
_cell_angle_gamma 90.000000
_cell_volume 2658.482365
_symmetry_space_group_name_H-M "P N M A"
_symmetry_group_IT_number 62
_symmetry_cell_setting 'orthorhombic'
loop_
_space_group_symop_operation_xyz
x,y,z
1/2-x,-y,1/2+z
1/2+x,1/2-y,1/2-z
-x,1/2+y,-z
-x,-y,-z
1/2+x,y,1/2-z
1/2-x,1/2+y,1/2+z
x,1/2-y,z
loop_
_atom_site_type_symbol
_atom_site_label
_atom_site_fract_x
_atom_site_fract_y
_atom_site_fract_z
Si Si1 0.510675 0.881884 0.450214
Si Si2 0.315532 0.943012 0.718319
Si Si3 0.903046 0.001005 0.124528
Si Si4 0.558263 0.668404 0.063939
Si Si5 0.430445 0.668157 0.800194
Si Si6 0.675009 0.555964 0.963392
O O1 0.569214 0.921683 0.567596
O O2 0.539666 0.838083 0.280020
O O3 0.463772 0.840291 0.596014
O O4 0.466207 0.946473 0.364165
O O5 0.364855 0.883243 0.805521
O O6 0.242851 0.916082 0.640674
O O7 0.356131 0.973980 0.542365
O O8 0.305258 0.006654 0.863490
O O9 0.863739 0.006646 0.315385
O O10 0.573954 0.750000 0.016378
O O11 0.490642 0.647625 0.944598
O O12 0.621672 0.616715 0.022005
O O13 0.412272 0.750000 0.833865
#
# Coordination Sequence:
#
# PCOD9463426 Si02
#       6
#     8   8   8   8   8   8
#     4  10  19  35  60  87 115 144 191 241 292 337
#     4  11  23  37  60  84 117 156 192 243 288 343
#     4  10  20  34  58  90 111 146 192 243 291 336
#     4  11  23  37  59  88 119 152 192 242 290 343
#     4  10  22  39  58  85 118 154 191 233 291 352
#     4  12  22  38  59  86 118 150 199 240 288 340
#
# _framework density 18.055415
#
# number of rings (size 3 to 8) (size 9 to 14) (size 15 to 20)
#    0.000    1.333    5.000    1.500    0.000    2.000 
#    0.000    0.000    0.000    1.000    0.000    0.000 
#    0.000    0.000    0.000    0.000    0.000    0.000 
#
# Total GULP energy -267921.043553 kJ/mol
# GULP energy per Si atom -5581.688407 kJ/mol
# Density = 1.801432 g / cm^3
# Si number density = 18.055415 Si / 1000 Ang^3
#
#
#
# Elastic Constant Matrix: (Units=GPa)
#
#
# Indices 1 2 3 4 5 6 
#
# 1 89.8041 38.1892 19.1167 0.0000 0.0000 0.0000
# 2 38.1892 65.8106 16.5228 0.0000 0.0000 0.0000
# 3 19.1167 16.5228 68.6232 0.0000 0.0000 0.0000
# 4 0.0000 0.0000 0.0000 21.8049 0.0000 0.0000
# 5 0.0000 0.0000 0.0000 0.0000 26.7942 0.0000
# 6 0.0000 0.0000 0.0000 0.0000 0.0000 9.3286
#
#
#
# Elastic Compliance Matrix: (Units=1/GPa)
#
#
# Indices 1 2 3 4 5 6 
#
# 1 0.015098 -0.008201 -0.002231 0.000000 0.000000 0.000000
# 2 -0.008201 0.020627 -0.002682 0.000000 0.000000 0.000000
# 3 -0.002231 -0.002682 0.015840 0.000000 0.000000 0.000000
# 4 0.000000 0.000000 0.000000 0.045861 0.000000 0.000000
# 5 0.000000 0.000000 0.000000 0.000000 0.037321 0.000000
# 6 0.000000 0.000000 0.000000 0.000000 0.000000 0.107197
#
#
# Mechanical properties :
#
#
# Convention : Reuss Voigt Hill
#
# Bulk Modulus (GPa) = 39.46880 41.32170 40.39525
# Shear Modulus (GPa) = 18.07544 21.61283 19.84414
#
# Velocity S-wave (km/s) = 3.16746 3.46356 3.31882
# Velocity P-wave (km/s) = 5.94006 6.23945 6.09160
#
# Compressibility (1/GPa) = 0.02533647
#
# Stress axis : x y z
#
# Youngs Moduli (GPa) = 66.23508 48.47929 63.13260
#
# Poissons Ratio (x) = 0.39757 0.14087
# Poissons Ratio (y) = 0.54318 0.16932
# Poissons Ratio (z) = 0.14779 0.13002
#
# Static dielectric constant tensor:
#      x y z
#    x 1.624830 0.000000 0.000000 
#    y 0.000000 1.612170 0.000000 
#    z 0.000000 0.000000 1.612580 
# 
# From -- ./inp_files/2195.got.cif
#   From: 2010.05.17/outbox.cif.g08.bks.cpg/sg62_2_cif.got.tgz:2195.got - 2010.06.03 15:25:27.
