data_PCOD9463894
_publ_section_title
;
Structure prediction by ZEFSAII (Michael W. Deem and Ramdas Pophale) SiO2 
 PCOD9463894
Probable space group: P N M A
;
_chemical_formula_sum "Si O2"
_cell_formula_units_Z 64
_cell_length_a 19.553818
_cell_length_b 8.728762
_cell_length_c 23.827543
_cell_angle_alpha 90.000000
_cell_angle_beta 90.000000
_cell_angle_gamma 90.000000
_cell_volume 4066.899896
_symmetry_space_group_name_H-M "P N M A"
_symmetry_group_IT_number 62
_symmetry_cell_setting 'orthorhombic'
loop_
_space_group_symop_operation_xyz
x,y,z
1/2-x,-y,1/2+z
1/2+x,1/2-y,1/2-z
-x,1/2+y,-z
-x,-y,-z
1/2+x,y,1/2-z
1/2-x,1/2+y,1/2+z
x,1/2-y,z
loop_
_atom_site_type_symbol
_atom_site_label
_atom_site_fract_x
_atom_site_fract_y
_atom_site_fract_z
Si Si1 0.004408 0.065158 0.118740
Si Si2 0.854914 0.434142 0.730859
Si Si3 0.775027 0.566493 0.161448
Si Si4 0.357354 0.066030 0.566001
Si Si5 0.499946 0.433385 0.248690
Si Si6 0.144592 0.066186 0.725233
Si Si7 0.360932 0.065710 0.436767
Si Si8 0.271551 0.567090 0.664063
O O1 0.011176 0.250000 0.114138
O O2 0.000253 0.027389 0.184744
O O3 0.934608 0.016475 0.087934
O O4 0.070007 0.987974 0.090848
O O5 0.856628 0.250000 0.735634
O O6 0.801166 0.475468 0.681812
O O7 0.822576 0.501386 0.788087
O O8 0.930273 0.500139 0.723468
O O9 0.777876 0.750000 0.156401
O O10 0.824636 0.522495 0.213452
O O11 0.802640 0.493446 0.104861
O O12 0.353267 0.250000 0.568981
O O13 0.352493 0.017115 0.501113
O O14 0.299155 0.993289 0.604960
O O15 0.498671 0.250000 0.243933
O O16 0.431949 0.504217 0.222005
O O17 0.146469 0.250000 0.721160
O O18 0.196822 0.994729 0.680516
O O19 0.360604 0.250000 0.435516
O O20 0.273266 0.750000 0.665966
#
# Coordination Sequence:
#
# PCOD9463894 Si02
#       8
#     8   8   8   8   8   8   8   8
#     4  10  20  33  47  70 102 136 175 210 243 289
#     4  10  20  34  51  73 101 131 168 209 254 305
#     4   9  19  33  50  72  96 128 167 207 251 296
#     4  11  22  34  50  71  98 136 176 211 251 296
#     4  11  20  31  51  78 104 134 170 206 251 301
#     4  10  20  34  52  74 101 132 166 207 255 304
#     4  10  21  35  50  70  99 135 173 212 250 294
#     4  11  21  34  51  72  98 131 169 213 256 297
#
# _framework density 15.736802000000001
#
# number of rings (size 3 to 8) (size 9 to 14) (size 15 to 20)
#    0.000    1.750    2.500    3.750    0.000    4.500 
#    0.000    0.000    0.000    0.000    0.000    0.875 
#    0.000    0.000    0.000    0.000    0.000    0.000 
#
# Total GULP energy -357344.906973 kJ/mol
# GULP energy per Si atom -5583.514171 kJ/mol
# Density = 1.570098 g / cm^3
# Si number density = 15.736802 Si / 1000 Ang^3
#
#
#
# Elastic Constant Matrix: (Units=GPa)
#
#
# Indices 1 2 3 4 5 6 
#
# 1 147.8711 44.3267 64.9127 0.0000 0.0000 0.0000
# 2 44.3267 50.3180 33.6404 0.0000 0.0000 0.0000
# 3 64.9127 33.6404 89.7635 0.0000 0.0000 0.0000
# 4 0.0000 0.0000 0.0000 21.5825 0.0000 0.0000
# 5 0.0000 0.0000 0.0000 0.0000 19.9075 0.0000
# 6 0.0000 0.0000 0.0000 0.0000 0.0000 30.4753
#
#
#
# Elastic Compliance Matrix: (Units=1/GPa)
#
#
# Indices 1 2 3 4 5 6 
#
# 1 0.011071 -0.005872 -0.005806 0.000000 0.000000 0.000000
# 2 -0.005872 0.029632 -0.006859 0.000000 0.000000 0.000000
# 3 -0.005806 -0.006859 0.017909 0.000000 0.000000 0.000000
# 4 0.000000 0.000000 0.000000 0.046334 0.000000 0.000000
# 5 0.000000 0.000000 0.000000 0.000000 0.050232 0.000000
# 6 0.000000 0.000000 0.000000 0.000000 0.000000 0.032813
#
#
# Mechanical properties :
#
#
# Convention : Reuss Voigt Hill
#
# Bulk Modulus (GPa) = 46.42579 63.74579 55.08579
# Shear Modulus (GPa) = 21.52903 24.06459 22.79681
#
# Velocity S-wave (km/s) = 3.70275 3.91473 3.81022
# Velocity P-wave (km/s) = 6.91708 7.81210 7.37817
#
# Compressibility (1/GPa) = 0.02153975
#
# Stress axis : x y z
#
# Youngs Moduli (GPa) = 90.32279 33.74768 55.83665
#
# Poissons Ratio (x) = 0.19815 0.32418
# Poissons Ratio (y) = 0.53034 0.38298
# Poissons Ratio (z) = 0.52440 0.23147
#
# Static dielectric constant tensor:
#      x y z
#    x 1.518200 0.000000 0.000000 
#    y 0.000000 1.526070 0.000000 
#    z 0.000000 0.000000 1.506830 
# 
# From -- ./inp_files/27661.got.cif
#   From: 2010.05.17/outbox.cif.g08.bks.cpg/sg62_14_cif.got.tgz:27661.got - 2010.06.03 15:25:27.
