data_PCOD9463756
_publ_section_title
;
Structure prediction by ZEFSAII (Michael W. Deem and Ramdas Pophale) SiO2 
 PCOD9463756
Probable space group: P N M A
;
_chemical_formula_sum "Si O2"
_cell_formula_units_Z 44
_cell_length_a 10.220439
_cell_length_b 24.305153
_cell_length_c 5.818550
_cell_angle_alpha 90.000000
_cell_angle_beta 90.000000
_cell_angle_gamma 90.000000
_cell_volume 1445.382128
_symmetry_space_group_name_H-M "P N M A"
_symmetry_group_IT_number 62
_symmetry_cell_setting 'orthorhombic'
loop_
_space_group_symop_operation_xyz
x,y,z
1/2-x,-y,1/2+z
1/2+x,1/2-y,1/2-z
-x,1/2+y,-z
-x,-y,-z
1/2+x,y,1/2-z
1/2-x,1/2+y,1/2+z
x,1/2-y,z
loop_
_atom_site_type_symbol
_atom_site_label
_atom_site_fract_x
_atom_site_fract_y
_atom_site_fract_z
Si Si1 0.843565 0.324427 0.621651
Si Si2 0.354011 0.632591 0.876531
Si Si3 0.430036 0.649618 0.381617
Si Si4 0.373345 0.453370 0.881010
Si Si5 0.950472 0.750000 0.617878
Si Si6 0.364733 0.040192 0.376396
O O1 0.935249 0.316993 0.845670
O O2 0.692865 0.308620 0.626294
O O3 0.826253 0.390093 0.605637
O O4 0.933285 0.297209 0.429479
O O5 0.414921 0.619511 0.131014
O O6 0.345121 0.698999 0.869564
O O7 0.224037 0.595846 0.873774
O O8 0.563166 0.536954 0.868841
O O9 0.424276 0.621008 0.629643
O O10 0.067483 0.540451 0.125446
O O11 0.755830 0.508240 0.120835
#
# Coordination Sequence:
#
# PCOD9463756 Si02
#       6
#     8   8   8   8   4   8
#     4  11  24  50  69 115 145 208 245 324 365 470
#     4  11  22  47  68 111 142 205 241 322 365 464
#     4  11  26  44  77 100 157 191 260 303 387 436
#     4  10  21  38  73 104 148 192 253 309 382 448
#     4  10  28  42  74 100 152 182 258 286 388 422
#     4  10  19  40  71 105 146 194 250 314 378 452
#
# _framework density 30.441775
#
# number of rings (size 3 to 8) (size 9 to 14) (size 15 to 20)
#    0.000    1.455    3.636    0.000    0.000   12.364 
#    0.000    6.364    0.000    0.000    0.000    0.000 
#    0.000    0.000    0.000    0.000    0.000    0.000 
#
# Total GULP energy -245061.342439 kJ/mol
# GULP energy per Si atom -5569.575965 kJ/mol
# Density = 3.037249 g / cm^3
# Si number density = 30.441775 Si / 1000 Ang^3
#
#
#
# Elastic Constant Matrix: (Units=GPa)
#
#
# Indices 1 2 3 4 5 6 
#
# 1 141.5022 54.4772 57.3662 0.0000 0.0000 0.0000
# 2 54.4772 217.5743 74.0251 0.0000 0.0000 0.0000
# 3 57.3662 74.0251 361.7075 0.0000 0.0000 0.0000
# 4 0.0000 0.0000 0.0000 573.9599 0.0000 0.0000
# 5 0.0000 0.0000 0.0000 0.0000 74.9219 0.0000
# 6 0.0000 0.0000 0.0000 0.0000 0.0000 55.4697
#
#
#
# Elastic Compliance Matrix: (Units=1/GPa)
#
#
# Indices 1 2 3 4 5 6 
#
# 1 0.008105 -0.001711 -0.000935 0.000000 0.000000 0.000000
# 2 -0.001711 0.005301 -0.000814 0.000000 0.000000 0.000000
# 3 -0.000935 -0.000814 0.003079 0.000000 0.000000 0.000000
# 4 0.000000 0.000000 0.000000 0.001742 0.000000 0.000000
# 5 0.000000 0.000000 0.000000 0.000000 0.013347 0.000000
# 6 0.000000 0.000000 0.000000 0.000000 0.000000 0.018028
#
#
# Mechanical properties :
#
#
# Convention : Reuss Voigt Hill
#
# Bulk Modulus (GPa) = 104.53790 121.39122 112.96456
# Shear Modulus (GPa) = 83.73558 176.53132 130.13345
#
# Velocity S-wave (km/s) = 5.25038 7.62337 6.54531
# Velocity P-wave (km/s) = 8.43624 10.83747 9.71136
#
# Compressibility (1/GPa) = 0.00956591
#
# Stress axis : x y z
#
# Youngs Moduli (GPa) = 123.38121 188.63022 324.72894
#
# Poissons Ratio (x) = 0.32278 0.30370
# Poissons Ratio (y) = 0.21113 0.26419
# Poissons Ratio (z) = 0.11539 0.15346
#
# Static dielectric constant tensor:
#      x y z
#    x 2.535340 0.000000 0.000000 
#    y 0.000000 2.379740 0.000000 
#    z 0.000000 0.000000 2.455700 
# 
# From -- ./inp_files/12470.got.cif
#   From: 2010.05.17/outbox.cif.g08.bks.cpg/sg62_7_cif.got.tgz:12470.got - 2010.06.03 15:25:27.
