data_PCOD9463090
_publ_section_title
;
Structure prediction by ZEFSAII (Michael W. Deem and Ramdas Pophale) SiO2 
 PCOD9463090
Probable space group: P N M A
;
_chemical_formula_sum "Si O2"
_cell_formula_units_Z 48
_cell_length_a 14.712182
_cell_length_b 7.444366
_cell_length_c 18.640244
_cell_angle_alpha 90.000000
_cell_angle_beta 90.000000
_cell_angle_gamma 90.000000
_cell_volume 2041.532973
_symmetry_space_group_name_H-M "P N M A"
_symmetry_group_IT_number 62
_symmetry_cell_setting 'orthorhombic'
loop_
_space_group_symop_operation_xyz
x,y,z
1/2-x,-y,1/2+z
1/2+x,1/2-y,1/2-z
-x,1/2+y,-z
-x,-y,-z
1/2+x,y,1/2-z
1/2-x,1/2+y,1/2+z
x,1/2-y,z
loop_
_atom_site_type_symbol
_atom_site_label
_atom_site_fract_x
_atom_site_fract_y
_atom_site_fract_z
Si Si1 0.175887 0.034600 0.488595
Si Si2 0.684879 0.969819 0.266454
Si Si3 0.554984 0.961303 0.394204
Si Si4 0.128491 0.966468 0.952292
Si Si5 0.859163 0.529989 0.348945
Si Si6 0.938090 0.037436 0.641679
O O1 0.180636 0.250000 0.491581
O O2 0.267941 0.969663 0.449455
O O3 0.171286 0.973971 0.570872
O O4 0.089477 0.987713 0.440641
O O5 0.687706 0.750000 0.265348
O O6 0.612729 0.028440 0.327482
O O7 0.784719 0.028484 0.291027
O O8 0.642902 0.033439 0.191691
O O9 0.574447 0.750000 0.396488
O O10 0.590360 0.033859 0.470567
O O11 0.446250 0.982054 0.393364
O O12 0.129010 0.750000 0.952942
O O13 0.859485 0.750000 0.348602
O O14 0.962345 0.467056 0.338895
O O15 0.942830 0.250000 0.654713
#
# Coordination Sequence:
#
# PCOD9463090 Si02
#       6
#     8   8   8   8   8   8
#     4  10  19  34  54  72 101 144 175 201 251 316
#     4   9  17  32  53  76 104 137 170 207 260 314
#     4   9  16  29  50  74 100 132 169 206 247 298
#     4   9  17  29  48  74 100 132 168 204 248 299
#     4   9  17  33  54  74 101 138 172 205 253 310
#     4  10  21  33  52  81 104 126 170 224 257 289
#
# _framework density 23.511745000000001
#
# number of rings (size 3 to 8) (size 9 to 14) (size 15 to 20)
#    0.000    2.667    1.667    0.500    0.000    2.000 
#    0.000    4.167    0.000    3.000    0.000    0.000 
#    0.000    0.000    0.000    0.000    0.000    0.000 
#
# Total GULP energy -268026.672131 kJ/mol
# GULP energy per Si atom -5583.889003 kJ/mol
# Density = 2.345823 g / cm^3
# Si number density = 23.511745 Si / 1000 Ang^3
#
#
#
# Elastic Constant Matrix: (Units=GPa)
#
#
# Indices 1 2 3 4 5 6 
#
# 1 154.4341 -3.4869 43.6035 0.0000 0.0000 0.0000
# 2 -3.4869 65.7658 -6.7285 0.0000 0.0000 0.0000
# 3 43.6035 -6.7285 50.3834 0.0000 0.0000 0.0000
# 4 0.0000 0.0000 0.0000 5.4629 0.0000 0.0000
# 5 0.0000 0.0000 0.0000 0.0000 17.7621 0.0000
# 6 0.0000 0.0000 0.0000 0.0000 0.0000 7.9116
#
#
#
# Elastic Compliance Matrix: (Units=1/GPa)
#
#
# Indices 1 2 3 4 5 6 
#
# 1 0.008575 -0.000309 -0.007463 0.000000 0.000000 0.000000
# 2 -0.000309 0.015427 0.002328 0.000000 0.000000 0.000000
# 3 -0.007463 0.002328 0.026617 0.000000 0.000000 0.000000
# 4 0.000000 0.000000 0.000000 0.183054 0.000000 0.000000
# 5 0.000000 0.000000 0.000000 0.000000 0.056300 0.000000
# 6 0.000000 0.000000 0.000000 0.000000 0.000000 0.126396
#
#
# Mechanical properties :
#
#
# Convention : Reuss Voigt Hill
#
# Bulk Modulus (GPa) = 25.16880 37.48440 31.32660
# Shear Modulus (GPa) = 11.35071 22.04033 16.69552
#
# Velocity S-wave (km/s) = 2.19958 3.06505 2.66765
# Velocity P-wave (km/s) = 4.14474 5.33887 4.77925
#
# Compressibility (1/GPa) = 0.03973173
#
# Stress axis : x y z
#
# Youngs Moduli (GPa) = 116.61400 64.82047 37.56993
#
# Poissons Ratio (x) = 0.02002 0.28037
# Poissons Ratio (y) = 0.03602 -0.08745
# Poissons Ratio (z) = 0.87024 -0.15087
#
# Static dielectric constant tensor:
#      x y z
#    x 1.899700 0.000000 0.000000 
#    y 0.000000 1.913250 0.000000 
#    z 0.000000 0.000000 1.866540 
# 
# From -- ./inp_files/23018.got.cif
#   From: 2010.05.17/outbox.cif.g08.bks.cpg/sg62_12_cif.got.tgz:23018.got - 2010.06.03 15:25:27.
