data_PCOD9463875
_publ_section_title
;
Structure prediction by ZEFSAII (Michael W. Deem and Ramdas Pophale) SiO2 
 PCOD9463875
Probable space group: P N M A
;
_chemical_formula_sum "Si O2"
_cell_formula_units_Z 40
_cell_length_a 23.480776
_cell_length_b 14.383577
_cell_length_c 5.160258
_cell_angle_alpha 90.000000
_cell_angle_beta 90.000000
_cell_angle_gamma 90.000000
_cell_volume 1742.812892
_symmetry_space_group_name_H-M "P N M A"
_symmetry_group_IT_number 62
_symmetry_cell_setting 'orthorhombic'
loop_
_space_group_symop_operation_xyz
x,y,z
1/2-x,-y,1/2+z
1/2+x,1/2-y,1/2-z
-x,1/2+y,-z
-x,-y,-z
1/2+x,y,1/2-z
1/2-x,1/2+y,1/2+z
x,1/2-y,z
loop_
_atom_site_type_symbol
_atom_site_label
_atom_site_fract_x
_atom_site_fract_y
_atom_site_fract_z
Si Si1 0.063646 0.750000 0.010575
Si Si2 0.512596 0.250000 0.015339
Si Si3 0.915692 0.438928 0.932143
Si Si4 0.238294 0.635860 0.914469
Si Si5 0.965014 0.564550 0.304090
Si Si6 0.183290 0.961845 0.416109
O O1 0.013817 0.750000 0.798085
O O2 0.102734 0.839252 0.965504
O O3 0.040535 0.750000 0.308688
O O4 0.548036 0.341330 0.951652
O O5 0.914434 0.520206 0.140421
O O6 0.882835 0.460937 0.670359
O O7 0.983146 0.417249 0.898210
O O8 0.244337 0.750000 0.901247
O O9 0.295016 0.568948 0.902709
O O10 0.211978 0.599339 0.185682
O O11 0.201783 0.590458 0.677542
O O12 0.000000 0.500000 0.500000
#
# Coordination Sequence:
#
# PCOD9463875 Si02
#       6
#     4   4   8   8   8   8
#     4  10  20  32  54  82 110 143 197 240 276 334
#     4  10  20  36  52  76 110 157 195 232 284 326
#     4  10  22  36  57  89 117 156 195 243 292 350
#     4  10  22  42  65  89 122 156 196 255 310 362
#     4  10  20  37  57  79 125 157 194 243 287 344
#     4  10  23  40  63  93 122 154 203 249 305 368
#
# _framework density 22.951402000000002
#
# number of rings (size 3 to 8) (size 9 to 14) (size 15 to 20)
#    0.000    2.000    2.000    0.600    5.600    0.000 
#    1.800    0.000    0.000    0.000    0.000    0.000 
#    0.000    0.000    0.000    0.000    0.000    0.000 
#
# Total GULP energy -222879.185310 kJ/mol
# GULP energy per Si atom -5571.979633 kJ/mol
# Density = 2.289916 g / cm^3
# Si number density = 22.951402 Si / 1000 Ang^3
#
#
#
# Elastic Constant Matrix: (Units=GPa)
#
#
# Indices 1 2 3 4 5 6 
#
# 1 48.9579 16.0101 8.4502 0.0000 0.0000 0.0000
# 2 16.0101 179.1206 29.4134 0.0000 0.0000 0.0000
# 3 8.4502 29.4134 119.6204 0.0000 0.0000 0.0000
# 4 0.0000 0.0000 0.0000 30.9164 0.0000 0.0000
# 5 0.0000 0.0000 0.0000 0.0000 35.6083 0.0000
# 6 0.0000 0.0000 0.0000 0.0000 0.0000 17.6374
#
#
#
# Elastic Compliance Matrix: (Units=1/GPa)
#
#
# Indices 1 2 3 4 5 6 
#
# 1 0.021172 -0.001716 -0.001074 0.000000 0.000000 0.000000
# 2 -0.001716 0.005957 -0.001343 0.000000 0.000000 0.000000
# 3 -0.001074 -0.001343 0.008766 0.000000 0.000000 0.000000
# 4 0.000000 0.000000 0.000000 0.032345 0.000000 0.000000
# 5 0.000000 0.000000 0.000000 0.000000 0.028083 0.000000
# 6 0.000000 0.000000 0.000000 0.000000 0.000000 0.056698
#
#
# Mechanical properties :
#
#
# Convention : Reuss Voigt Hill
#
# Bulk Modulus (GPa) = 36.19451 50.60514 43.39982
# Shear Modulus (GPa) = 29.32598 36.42078 32.87338
#
# Velocity S-wave (km/s) = 3.57843 3.98787 3.78868
# Velocity P-wave (km/s) = 5.73392 6.58034 6.17166
#
# Compressibility (1/GPa) = 0.02762850
#
# Stress axis : x y z
#
# Youngs Moduli (GPa) = 47.23171 167.87436 114.07748
#
# Poissons Ratio (x) = 0.28809 0.12248
# Poissons Ratio (y) = 0.08105 0.15326
# Poissons Ratio (z) = 0.05071 0.22554
#
# Static dielectric constant tensor:
#      x y z
#    x 2.032360 0.000000 0.000000 
#    y 0.000000 1.991260 0.000000 
#    z 0.000000 0.000000 1.845610 
# 
# From -- ./inp_files/2683.got.cif
#   From: 2010.05.17/outbox.cif.g08.bks.cpg/sg62_2_cif.got.tgz:2683.got - 2010.06.03 15:25:27.
