data_PCOD9463388
_publ_section_title
;
Structure prediction by ZEFSAII (Michael W. Deem and Ramdas Pophale) SiO2 
 PCOD9463388
Probable space group: P N M A
;
_chemical_formula_sum "Si O2"
_cell_formula_units_Z 64
_cell_length_a 20.512423
_cell_length_b 8.637475
_cell_length_c 19.906383
_cell_angle_alpha 90.000000
_cell_angle_beta 90.000000
_cell_angle_gamma 90.000000
_cell_volume 3526.924174
_symmetry_space_group_name_H-M "P N M A"
_symmetry_group_IT_number 62
_symmetry_cell_setting 'orthorhombic'
loop_
_space_group_symop_operation_xyz
x,y,z
1/2-x,-y,1/2+z
1/2+x,1/2-y,1/2-z
-x,1/2+y,-z
-x,-y,-z
1/2+x,y,1/2-z
1/2-x,1/2+y,1/2+z
x,1/2-y,z
loop_
_atom_site_type_symbol
_atom_site_label
_atom_site_fract_x
_atom_site_fract_y
_atom_site_fract_z
Si Si1 0.676523 0.937177 0.068586
Si Si2 0.961473 0.064229 0.064015
Si Si3 0.815621 0.435358 0.096099
Si Si4 0.714151 0.063092 0.742803
Si Si5 0.858566 0.062148 0.719687
Si Si6 0.908292 0.564111 0.322094
Si Si7 0.934913 0.434628 0.467039
Si Si8 0.989288 0.437329 0.794467
O O1 0.679950 0.750000 0.069466
O O2 0.646803 0.985734 0.141360
O O3 0.749838 0.999966 0.062371
O O4 0.627961 0.987911 0.009909
O O5 0.962675 0.250000 0.062188
O O6 0.885111 0.014414 0.065618
O O7 0.994122 0.007515 0.133401
O O8 0.000000 0.000000 0.000000
O O9 0.813275 0.250000 0.094938
O O10 0.811221 0.493440 0.172934
O O11 0.712106 0.250000 0.735784
O O12 0.789275 0.017410 0.751924
O O13 0.665037 0.019423 0.801662
O O14 0.862119 0.250000 0.718888
O O15 0.921067 0.009256 0.761384
O O16 0.911721 0.750000 0.330126
O O17 0.930078 0.487353 0.390577
O O18 0.954763 0.523608 0.259603
O O19 0.936659 0.250000 0.471020
O O20 0.000000 0.500000 0.500000
O O21 0.987822 0.250000 0.801149
#
# Coordination Sequence:
#
# PCOD9463388 Si02
#       8
#     8   8   8   8   8   8   8   8
#     4   9  19  37  59  82 114 155 195 230 276 338
#     4  11  24  40  58  82 112 145 185 235 288 343
#     4  10  20  35  58  85 111 141 185 238 283 331
#     4   9  17  33  56  80 108 146 185 221 271 336
#     4   8  15  30  55  82 107 140 183 226 267 322
#     4  10  20  34  56  82 112 153 193 229 276 338
#     4  11  23  38  57  83 117 155 194 239 287 338
#     4  10  19  35  59  84 112 146 185 227 276 335
#
# _framework density 18.146121999999998
#
# number of rings (size 3 to 8) (size 9 to 14) (size 15 to 20)
#    0.000    2.250    1.250    2.625    0.000    5.500 
#    2.250    2.500    0.000    0.000    0.000    0.000 
#    0.000    0.000    0.000    0.000    0.000    0.000 
#
# Total GULP energy -357097.509311 kJ/mol
# GULP energy per Si atom -5579.648583 kJ/mol
# Density = 1.810482 g / cm^3
# Si number density = 18.146122 Si / 1000 Ang^3
#
#
#
# Elastic Constant Matrix: (Units=GPa)
#
#
# Indices 1 2 3 4 5 6 
#
# 1 141.6472 33.1498 78.6239 0.0000 0.0000 0.0000
# 2 33.1498 18.6610 31.1930 0.0000 0.0000 0.0000
# 3 78.6239 31.1930 124.7747 0.0000 0.0000 0.0000
# 4 0.0000 0.0000 0.0000 26.9004 0.0000 0.0000
# 5 0.0000 0.0000 0.0000 0.0000 31.0687 0.0000
# 6 0.0000 0.0000 0.0000 0.0000 0.0000 23.3187
#
#
#
# Elastic Compliance Matrix: (Units=1/GPa)
#
#
# Indices 1 2 3 4 5 6 
#
# 1 0.013273 -0.016488 -0.004242 0.000000 0.000000 0.000000
# 2 -0.016488 0.112538 -0.017744 0.000000 0.000000 0.000000
# 3 -0.004242 -0.017744 0.015123 0.000000 0.000000 0.000000
# 4 0.000000 0.000000 0.000000 0.037174 0.000000 0.000000
# 5 0.000000 0.000000 0.000000 0.000000 0.032187 0.000000
# 6 0.000000 0.000000 0.000000 0.000000 0.000000 0.042884
#
#
# Mechanical properties :
#
#
# Convention : Reuss Voigt Hill
#
# Bulk Modulus (GPa) = 15.62843 63.44628 39.53735
# Shear Modulus (GPa) = 14.22653 25.73198 19.97926
#
# Velocity S-wave (km/s) = 2.80304 3.76978 3.32176
# Velocity P-wave (km/s) = 4.37118 7.34767 6.04547
#
# Compressibility (1/GPa) = 0.06398596
#
# Stress axis : x y z
#
# Youngs Moduli (GPa) = 75.34124 8.88589 66.12333
#
# Poissons Ratio (x) = 0.14651 0.28048
# Poissons Ratio (y) = 1.24223 1.17332
# Poissons Ratio (z) = 0.31958 0.15767
#
# Static dielectric constant tensor:
#      x y z
#    x 1.637410 0.000000 0.000000 
#    y 0.000000 1.619310 0.000000 
#    z 0.000000 0.000000 1.587290 
# 
# From -- ./inp_files/24848.got.cif
#   From: 2010.05.17/outbox.cif.g08.bks.cpg/sg62_13_cif.got.tgz:24848.got - 2010.06.03 15:25:27.
