data_PCOD9463883
_publ_section_title
;
Structure prediction by ZEFSAII (Michael W. Deem and Ramdas Pophale) SiO2 
 PCOD9463883
Probable space group: P N M A
;
_chemical_formula_sum "Si O2"
_cell_formula_units_Z 28
_cell_length_a 17.133417
_cell_length_b 5.694756
_cell_length_c 11.092772
_cell_angle_alpha 90.000000
_cell_angle_beta 90.000000
_cell_angle_gamma 90.000000
_cell_volume 1082.328744
_symmetry_space_group_name_H-M "P N M A"
_symmetry_group_IT_number 62
_symmetry_cell_setting 'orthorhombic'
loop_
_space_group_symop_operation_xyz
x,y,z
1/2-x,-y,1/2+z
1/2+x,1/2-y,1/2-z
-x,1/2+y,-z
-x,-y,-z
1/2+x,y,1/2-z
1/2-x,1/2+y,1/2+z
x,1/2-y,z
loop_
_atom_site_type_symbol
_atom_site_label
_atom_site_fract_x
_atom_site_fract_y
_atom_site_fract_z
Si Si1 0.304983 0.750000 0.353062
Si Si2 0.955401 0.501892 0.126757
Si Si3 0.940931 0.250000 0.425317
Si Si4 0.357043 0.750000 0.095252
Si Si5 0.883776 0.750000 0.666323
Si Si6 0.134605 0.750000 0.324000
O O1 0.362393 0.963164 0.389886
O O2 0.297405 0.750000 0.207110
O O3 0.217539 0.750000 0.395456
O O4 0.979200 0.750000 0.186992
O O5 0.970745 0.250000 0.183927
O O6 0.000000 0.500000 0.000000
O O7 0.901145 0.497554 0.386202
O O8 0.928706 0.250000 0.569783
O O9 0.032275 0.250000 0.398515
O O10 0.330341 0.750000 0.955533
O O11 0.871170 0.506426 0.736841
#
# Coordination Sequence:
#
# PCOD9463883 Si02
#       6
#     4   8   4   4   4   4
#     4  10  22  30  56  84 113 136 181 222 283 317
#     4   8  16  30  48  68 101 145 184 210 241 322
#     4  10  20  39  60  78 104 145 191 220 260 328
#     4  10  20  32  57  82 102 128 177 237 263 305
#     4  10  20  39  60  77 103 147 192 219 261 327
#     4  10  20  32  57  81 106 142 173 224 275 325
#
# _framework density 25.870142000000001
#
# number of rings (size 3 to 8) (size 9 to 14) (size 15 to 20)
#    0.857    1.714    0.000    4.286    4.000    0.000 
#    0.000    0.000    0.000   27.429    0.000    0.000 
#    0.000    0.000    0.000    0.000    0.000    0.000 
#
# Total GULP energy -156081.395277 kJ/mol
# GULP energy per Si atom -5574.335546 kJ/mol
# Density = 2.581126 g / cm^3
# Si number density = 25.870142 Si / 1000 Ang^3
#
#
#
# Elastic Constant Matrix: (Units=GPa)
#
#
# Indices 1 2 3 4 5 6 
#
# 1 79.4650 29.6491 8.1637 0.0000 0.0000 0.0000
# 2 29.6491 313.3058 28.0361 0.0000 0.0000 0.0000
# 3 8.1637 28.0361 33.5943 0.0000 0.0000 0.0000
# 4 0.0000 0.0000 0.0000 37.8984 0.0000 0.0000
# 5 0.0000 0.0000 0.0000 0.0000 13.5716 0.0000
# 6 0.0000 0.0000 0.0000 0.0000 0.0000 31.6330
#
#
#
# Elastic Compliance Matrix: (Units=1/GPa)
#
#
# Indices 1 2 3 4 5 6 
#
# 1 0.013213 -0.001041 -0.002342 0.000000 0.000000 0.000000
# 2 -0.001041 0.003531 -0.002694 0.000000 0.000000 0.000000
# 3 -0.002342 -0.002694 0.032585 0.000000 0.000000 0.000000
# 4 0.000000 0.000000 0.000000 0.026386 0.000000 0.000000
# 5 0.000000 0.000000 0.000000 0.000000 0.073683 0.000000
# 6 0.000000 0.000000 0.000000 0.000000 0.000000 0.031613
#
#
# Mechanical properties :
#
#
# Convention : Reuss Voigt Hill
#
# Bulk Modulus (GPa) = 26.90013 62.00696 44.45355
# Shear Modulus (GPa) = 24.32414 40.65502 32.48958
#
# Velocity S-wave (km/s) = 3.06966 3.96852 3.54767
# Velocity P-wave (km/s) = 4.79421 6.70965 5.83112
#
# Compressibility (1/GPa) = 0.03717454
#
# Stress axis : x y z
#
# Youngs Moduli (GPa) = 75.68232 283.17787 30.68937
#
# Poissons Ratio (x) = 0.29473 0.07188
# Poissons Ratio (y) = 0.07877 0.08268
# Poissons Ratio (z) = 0.17727 0.76293
#
# Static dielectric constant tensor:
#      x y z
#    x 2.158910 0.000000 0.000000 
#    y 0.000000 2.143730 0.000000 
#    z 0.000000 0.000000 2.056900 
# 
# From -- ./inp_files/19254.got.cif
#   From: 2010.05.17/outbox.cif.g08.bks.cpg/sg62_10_cif.got.tgz:19254.got - 2010.06.03 15:25:27.
