data_PCOD9463574
_publ_section_title
;
Structure prediction by ZEFSAII (Michael W. Deem and Ramdas Pophale) SiO2 
 PCOD9463574
Probable space group: P N M A
;
_chemical_formula_sum "Si O2"
_cell_formula_units_Z 36
_cell_length_a 5.639907
_cell_length_b 13.799454
_cell_length_c 18.740417
_cell_angle_alpha 90.000000
_cell_angle_beta 90.000000
_cell_angle_gamma 90.000000
_cell_volume 1458.522375
_symmetry_space_group_name_H-M "P N M A"
_symmetry_group_IT_number 62
_symmetry_cell_setting 'orthorhombic'
loop_
_space_group_symop_operation_xyz
x,y,z
1/2-x,-y,1/2+z
1/2+x,1/2-y,1/2-z
-x,1/2+y,-z
-x,-y,-z
1/2+x,y,1/2-z
1/2-x,1/2+y,1/2+z
x,1/2-y,z
loop_
_atom_site_type_symbol
_atom_site_label
_atom_site_fract_x
_atom_site_fract_y
_atom_site_fract_z
Si Si1 0.108628 0.066831 0.156401
Si Si2 0.731680 0.044133 0.570198
Si Si3 0.028630 0.641085 0.552221
Si Si4 0.375310 0.250000 0.292324
Si Si5 0.372890 0.094022 0.773183
O O1 0.338741 0.119769 0.126594
O O2 0.911796 0.150409 0.164377
O O3 0.138941 0.007899 0.229293
O O4 0.025747 0.985221 0.099656
O O5 0.774436 0.122971 0.509651
O O6 0.868013 0.076534 0.642337
O O7 0.838273 0.942972 0.542016
O O8 0.939738 0.750000 0.548937
O O9 0.619033 0.250000 0.244704
O O10 0.620675 0.140201 0.748806
#
# Coordination Sequence:
#
# PCOD9463574 Si02
#       5
#     8   8   8   4   8
#     4  11  22  36  61  91 129 168 215 268 330 392
#     4  10  23  40  59  91 129 172 216 270 328 397
#     4  11  23  40  62  90 128 173 222 265 336 393
#     4  12  26  36  60 100 142 172 212 268 340 408
#     4  10  19  36  61  90 123 166 205 262 320 384
#
# _framework density 24.682516
#
# number of rings (size 3 to 8) (size 9 to 14) (size 15 to 20)
#    0.000    1.333    3.333    3.333    4.667    0.000 
#    0.000    0.000    0.000    5.333    0.000    0.000 
#    0.000    0.000    0.000    0.000    0.000    0.000 
#
# Total GULP energy -201317.448286 kJ/mol
# GULP energy per Si atom -5592.151341 kJ/mol
# Density = 2.462634 g / cm^3
# Si number density = 24.682516 Si / 1000 Ang^3
#
#
#
# Elastic Constant Matrix: (Units=GPa)
#
#
# Indices 1 2 3 4 5 6 
#
# 1 117.1163 12.9833 21.0492 0.0000 0.0000 0.0000
# 2 12.9833 101.3943 22.7896 0.0000 0.0000 0.0000
# 3 21.0492 22.7896 87.9913 0.0000 0.0000 0.0000
# 4 0.0000 0.0000 0.0000 20.3782 0.0000 0.0000
# 5 0.0000 0.0000 0.0000 0.0000 49.3211 0.0000
# 6 0.0000 0.0000 0.0000 0.0000 0.0000 -4.1863
#
#
#
# Elastic Compliance Matrix: (Units=1/GPa)
#
#
# Indices 1 2 3 4 5 6 
#
# 1 0.008970 -0.000707 -0.001962 0.000000 0.000000 0.000000
# 2 -0.000707 0.010528 -0.002557 0.000000 0.000000 0.000000
# 3 -0.001962 -0.002557 0.012497 0.000000 0.000000 0.000000
# 4 0.000000 0.000000 0.000000 0.049072 0.000000 0.000000
# 5 0.000000 0.000000 0.000000 0.000000 0.020275 0.000000
# 6 0.000000 0.000000 0.000000 0.000000 0.000000 -0.238876
#
#
# Mechanical properties :
#
#
# Convention : Reuss Voigt Hill
#
# Bulk Modulus (GPa) = 46.42666 46.68290 46.55478
# Shear Modulus (GPa) = -41.70147 29.74793 -5.97677
#
# Velocity S-wave (km/s) = -4.11483 3.47540 -1.55779
# Velocity P-wave (km/s) = 1.93013 5.92106 3.95813
#
# Compressibility (1/GPa) = 0.02153935
#
# Stress axis : x y z
#
# Youngs Moduli (GPa) = 111.48691 94.98572 80.02175
#
# Poissons Ratio (x) = 0.06720 0.15704
# Poissons Ratio (y) = 0.07887 0.20465
# Poissons Ratio (z) = 0.21879 0.24292
#
# Static dielectric constant tensor:
#      x y z
#    x 2.048010 0.000000 0.000000 
#    y 0.000000 1.891410 0.000000 
#    z 0.000000 0.000000 1.997490 
# 
# From -- ./inp_files/25190.got.cif
#   From: 2010.05.17/outbox.cif.g08.bks.cpg/sg62_13_cif.got.tgz:25190.got - 2010.06.03 15:25:27.
