data_PCOD9463962
_publ_section_title
;
Structure prediction by ZEFSAII (Michael W. Deem and Ramdas Pophale) SiO2 
 PCOD9463962
Probable space group: P N M A
;
_chemical_formula_sum "Si O2"
_cell_formula_units_Z 48
_cell_length_a 16.058200
_cell_length_b 9.117683
_cell_length_c 15.059055
_cell_angle_alpha 90.000000
_cell_angle_beta 90.000000
_cell_angle_gamma 90.000000
_cell_volume 2204.850111
_symmetry_space_group_name_H-M "P N M A"
_symmetry_group_IT_number 62
_symmetry_cell_setting 'orthorhombic'
loop_
_space_group_symop_operation_xyz
x,y,z
1/2-x,-y,1/2+z
1/2+x,1/2-y,1/2-z
-x,1/2+y,-z
-x,-y,-z
1/2+x,y,1/2-z
1/2-x,1/2+y,1/2+z
x,1/2-y,z
loop_
_atom_site_type_symbol
_atom_site_label
_atom_site_fract_x
_atom_site_fract_y
_atom_site_fract_z
Si Si1 0.414013 0.413943 0.489971
Si Si2 0.086013 0.575540 0.273510
Si Si3 0.917169 0.924591 0.536832
Si Si4 0.573754 0.912319 0.719341
Si Si5 0.749546 0.419237 0.519804
Si Si6 0.731669 0.083446 0.737171
O O1 0.500000 0.500000 0.500000
O O2 0.417065 0.250000 0.530039
O O3 0.404860 0.397619 0.384052
O O4 0.333619 0.506462 0.517920
O O5 0.082463 0.750000 0.293964
O O6 0.085713 0.476817 0.361403
O O7 0.175697 0.548782 0.228586
O O8 0.003703 0.522881 0.223863
O O9 0.919984 0.750000 0.527327
O O10 0.832065 0.989939 0.496217
O O11 0.000000 0.000000 0.500000
O O12 0.552437 0.750000 0.754199
O O13 0.656645 0.977819 0.763611
O O14 0.757221 0.250000 0.493091
O O15 0.741130 0.419199 0.628626
O O16 0.709836 0.250000 0.761775
#
# Coordination Sequence:
#
# PCOD9463962 Si02
#       6
#     8   8   8   8   8   8
#     4  10  20  34  53  78 106 138 177 218 262 310
#     4  10  20  35  55  78 104 136 174 213 256 306
#     4  11  21  35  55  79 107 137 172 213 257 306
#     4  10  20  33  52  78 105 134 170 214 260 307
#     4   9  17  32  53  76 102 135 175 213 254 308
#     4   8  16  31  51  73  98 132 171 209 250 303
#
# _framework density 21.770188000000001
#
# number of rings (size 3 to 8) (size 9 to 14) (size 15 to 20)
#    0.000    2.333    0.000    4.500    0.000    6.667 
#    0.000    1.667    0.000    4.000    0.000    0.000 
#    0.000    0.000    0.000    0.000    0.000    0.000 
#
# Total GULP energy -267974.304208 kJ/mol
# GULP energy per Si atom -5582.798004 kJ/mol
# Density = 2.172064 g / cm^3
# Si number density = 21.770188 Si / 1000 Ang^3
#
#
#
# Elastic Constant Matrix: (Units=GPa)
#
#
# Indices 1 2 3 4 5 6 
#
# 1 180.4073 113.0173 8.6162 0.0000 0.0000 0.0000
# 2 113.0173 195.2728 16.0469 0.0000 0.0000 0.0000
# 3 8.6162 16.0469 25.1378 0.0000 0.0000 0.0000
# 4 0.0000 0.0000 0.0000 17.3813 0.0000 0.0000
# 5 0.0000 0.0000 0.0000 0.0000 21.3014 0.0000
# 6 0.0000 0.0000 0.0000 0.0000 0.0000 42.8911
#
#
#
# Elastic Compliance Matrix: (Units=1/GPa)
#
#
# Indices 1 2 3 4 5 6 
#
# 1 0.008697 -0.005054 0.000245 0.000000 0.000000 0.000000
# 2 -0.005054 0.008341 -0.003592 0.000000 0.000000 0.000000
# 3 0.000245 -0.003592 0.041990 0.000000 0.000000 0.000000
# 4 0.000000 0.000000 0.000000 0.057533 0.000000 0.000000
# 5 0.000000 0.000000 0.000000 0.000000 0.046945 0.000000
# 6 0.000000 0.000000 0.000000 0.000000 0.000000 0.023315
#
#
# Mechanical properties :
#
#
# Convention : Reuss Voigt Hill
#
# Bulk Modulus (GPa) = 23.68202 75.13097 49.40649
# Shear Modulus (GPa) = 22.96745 33.85728 28.41237
#
# Velocity S-wave (km/s) = 3.25159 3.94790 3.61654
# Velocity P-wave (km/s) = 4.99989 7.44090 6.33901
#
# Compressibility (1/GPa) = 0.04222613
#
# Stress axis : x y z
#
# Youngs Moduli (GPa) = 114.97783 119.88595 23.81520
#
# Poissons Ratio (x) = 0.60589 -0.00584
# Poissons Ratio (y) = 0.58108 0.08555
# Poissons Ratio (z) = -0.02818 0.43068
#
# Static dielectric constant tensor:
#      x y z
#    x 1.791400 0.000000 0.000000 
#    y 0.000000 1.762960 0.000000 
#    z 0.000000 0.000000 1.893900 
# 
# From -- ./inp_files/23757.got.cif
#   From: 2010.05.17/outbox.cif.g08.bks.cpg/sg62_12_cif.got.tgz:23757.got - 2010.06.03 15:25:27.
