data_PCOD9463602
_publ_section_title
;
Structure prediction by ZEFSAII (Michael W. Deem and Ramdas Pophale) SiO2 
 PCOD9463602
Probable space group: P N M A
;
_chemical_formula_sum "Si O2"
_cell_formula_units_Z 44
_cell_length_a 5.092261
_cell_length_b 27.764858
_cell_length_c 16.463399
_cell_angle_alpha 90.000000
_cell_angle_beta 90.000000
_cell_angle_gamma 90.000000
_cell_volume 2327.692543
_symmetry_space_group_name_H-M "P N M A"
_symmetry_group_IT_number 62
_symmetry_cell_setting 'orthorhombic'
loop_
_space_group_symop_operation_xyz
x,y,z
1/2-x,-y,1/2+z
1/2+x,1/2-y,1/2-z
-x,1/2+y,-z
-x,-y,-z
1/2+x,y,1/2-z
1/2-x,1/2+y,1/2+z
x,1/2-y,z
loop_
_atom_site_type_symbol
_atom_site_label
_atom_site_fract_x
_atom_site_fract_y
_atom_site_fract_z
Si Si1 0.317069 0.167413 0.063162
Si Si2 0.215316 0.454981 0.575005
Si Si3 0.832922 0.250000 0.304823
Si Si4 0.667755 0.873534 0.303413
Si Si5 0.717886 0.061528 0.466544
Si Si6 0.316068 0.193201 0.541358
O O1 0.293022 0.203112 0.138961
O O2 0.265793 0.111193 0.079988
O O3 0.600714 0.174587 0.022615
O O4 0.101009 0.182860 0.996518
O O5 0.284178 0.425208 0.654699
O O6 0.236591 0.512542 0.583408
O O7 0.430011 0.440377 0.506591
O O8 0.929847 0.441315 0.540080
O O9 0.622666 0.250000 0.232679
O O10 0.377393 0.867990 0.268247
O O11 0.714737 0.835153 0.374778
O O12 0.279985 0.250000 0.552415
#
# Coordination Sequence:
#
# PCOD9463602 Si02
#       6
#     8   8   4   8   8   8
#     4  12  21  41  67  90 120 159 206 253 296 368
#     4  10  20  36  59  90 119 149 208 249 300 351
#     4  12  26  42  62  96 126 156 188 252 330 370
#     4  12  24  38  58  88 132 168 196 256 314 356
#     4  10  19  36  64  89 111 153 207 260 279 353
#     4  12  23  40  63  91 117 164 219 246 294 359
#
# _framework density 18.902837999999999
#
# number of rings (size 3 to 8) (size 9 to 14) (size 15 to 20)
#    0.000    0.727    5.455    3.273    0.000    0.727 
#    0.000    1.818    0.000    0.000    0.000    0.000 
#    0.000    0.000    0.000    0.000    0.000    0.000 
#
# Total GULP energy -246009.209421 kJ/mol
# GULP energy per Si atom -5591.118396 kJ/mol
# Density = 1.885981 g / cm^3
# Si number density = 18.902838 Si / 1000 Ang^3
#
#
#
# Elastic Constant Matrix: (Units=GPa)
#
#
# Indices 1 2 3 4 5 6 
#
# 1 51.5483 -12.3082 -14.9517 0.0000 0.0000 0.0000
# 2 -12.3082 145.5815 24.6825 0.0000 0.0000 0.0000
# 3 -14.9517 24.6825 34.4026 0.0000 0.0000 0.0000
# 4 0.0000 0.0000 0.0000 35.8323 0.0000 0.0000
# 5 0.0000 0.0000 0.0000 0.0000 33.8451 0.0000
# 6 0.0000 0.0000 0.0000 0.0000 0.0000 22.9340
#
#
#
# Elastic Compliance Matrix: (Units=1/GPa)
#
#
# Indices 1 2 3 4 5 6 
#
# 1 0.022207 0.000275 0.009454 0.000000 0.000000 0.000000
# 2 0.000275 0.007824 -0.005494 0.000000 0.000000 0.000000
# 3 0.009454 -0.005494 0.037118 0.000000 0.000000 0.000000
# 4 0.000000 0.000000 0.000000 0.027908 0.000000 0.000000
# 5 0.000000 0.000000 0.000000 0.000000 0.029546 0.000000
# 6 0.000000 0.000000 0.000000 0.000000 0.000000 0.043603
#
#
# Mechanical properties :
#
#
# Convention : Reuss Voigt Hill
#
# Bulk Modulus (GPa) = 13.22416 25.15308 19.18862
# Shear Modulus (GPa) = 27.03543 34.12961 30.58252
#
# Velocity S-wave (km/s) = 3.78594 4.25376 4.02665
# Velocity P-wave (km/s) = 5.11099 6.12057 5.63842
#
# Compressibility (1/GPa) = 0.07561916
#
# Stress axis : x y z
#
# Youngs Moduli (GPa) = 45.03066 127.81734 26.94099
#
# Poissons Ratio (x) = -0.03509 -0.25471
# Poissons Ratio (y) = -0.01236 0.14801
# Poissons Ratio (z) = -0.42574 0.70221
#
# Static dielectric constant tensor:
#      x y z
#    x 1.640300 0.000000 0.000000 
#    y 0.000000 1.677120 0.000000 
#    z 0.000000 0.000000 1.608670 
# 
# From -- ./inp_files/16205.got.cif
#   From: 2010.05.17/outbox.cif.g08.bks.cpg/sg62_9_cif.got.tgz:16205.got - 2010.06.03 15:25:27.
