data_PCOD9463652
_publ_section_title
;
Structure prediction by ZEFSAII (Michael W. Deem and Ramdas Pophale) SiO2 
 PCOD9463652
Probable space group: P N M A
;
_chemical_formula_sum "Si O2"
_cell_formula_units_Z 56
_cell_length_a 14.087086
_cell_length_b 8.265558
_cell_length_c 19.921718
_cell_angle_alpha 90.000000
_cell_angle_beta 90.000000
_cell_angle_gamma 90.000000
_cell_volume 2319.637557
_symmetry_space_group_name_H-M "P N M A"
_symmetry_group_IT_number 62
_symmetry_cell_setting 'orthorhombic'
loop_
_space_group_symop_operation_xyz
x,y,z
1/2-x,-y,1/2+z
1/2+x,1/2-y,1/2-z
-x,1/2+y,-z
-x,-y,-z
1/2+x,y,1/2-z
1/2-x,1/2+y,1/2+z
x,1/2-y,z
loop_
_atom_site_type_symbol
_atom_site_label
_atom_site_fract_x
_atom_site_fract_y
_atom_site_fract_z
Si Si1 0.268939 0.055451 0.496035
Si Si2 0.427253 0.059517 0.854553
Si Si3 0.784065 0.438716 0.148281
Si Si4 0.102290 0.935388 0.579861
Si Si5 0.546643 0.943756 0.431884
Si Si6 0.284075 0.561920 0.206047
Si Si7 0.444860 0.442176 0.709637
O O1 0.261015 0.250000 0.490999
O O2 0.312788 0.996126 0.425249
O O3 0.342672 0.018288 0.555142
O O4 0.168722 0.984557 0.517838
O O5 0.401836 0.250000 0.848987
O O6 0.473406 0.002570 0.783453
O O7 0.330313 0.960704 0.859604
O O8 0.506407 0.036196 0.910483
O O9 0.807446 0.250000 0.154595
O O10 0.814191 0.524823 0.217045
O O11 0.075164 0.750000 0.574393
O O12 0.164953 0.963276 0.647482
O O13 0.538070 0.750000 0.429197
O O14 0.515766 0.013343 0.359816
O O15 0.500000 0.000000 0.500000
O O16 0.303147 0.750000 0.191045
O O17 0.169857 0.538114 0.206590
O O18 0.464629 0.250000 0.708639
#
# Coordination Sequence:
#
# PCOD9463652 Si02
#       7
#     8   8   8   8   8   8   8
#     4  10  22  41  62  83 120 165 198 242 306 371
#     4  10  21  38  60  86 115 158 202 245 304 363
#     4  10  21  38  60  90 123 155 198 252 305 355
#     4  12  24  37  59  90 120 153 204 261 304 356
#     4  10  20  37  58  84 116 152 193 238 291 354
#     4  10  19  37  62  83 112 158 201 242 299 365
#     4   8  16  34  59  80 105 144 193 235 279 347
#
# _framework density 24.141701000000001
#
# number of rings (size 3 to 8) (size 9 to 14) (size 15 to 20)
#    0.000    2.000    1.429    3.429    0.000    3.429 
#    0.000    4.286    0.000    0.000    0.000    0.000 
#    0.000    0.000    0.000    0.000    0.000    0.000 
#
# Total GULP energy -313025.485009 kJ/mol
# GULP energy per Si atom -5589.740804 kJ/mol
# Density = 2.408675 g / cm^3
# Si number density = 24.141701 Si / 1000 Ang^3
#
#
#
# Elastic Constant Matrix: (Units=GPa)
#
#
# Indices 1 2 3 4 5 6 
#
# 1 45.0415 0.5256 2.7347 0.0000 0.0000 0.0000
# 2 0.5256 20.1164 4.7294 0.0000 0.0000 0.0000
# 3 2.7347 4.7294 108.6560 0.0000 0.0000 0.0000
# 4 0.0000 0.0000 0.0000 27.2280 0.0000 0.0000
# 5 0.0000 0.0000 0.0000 0.0000 45.1946 0.0000
# 6 0.0000 0.0000 0.0000 0.0000 0.0000 19.3541
#
#
#
# Elastic Compliance Matrix: (Units=1/GPa)
#
#
# Indices 1 2 3 4 5 6 
#
# 1 0.022240 -0.000454 -0.000540 0.000000 0.000000 0.000000
# 2 -0.000454 0.050234 -0.002175 0.000000 0.000000 0.000000
# 3 -0.000540 -0.002175 0.009312 0.000000 0.000000 0.000000
# 4 0.000000 0.000000 0.000000 0.036727 0.000000 0.000000
# 5 0.000000 0.000000 0.000000 0.000000 0.022127 0.000000
# 6 0.000000 0.000000 0.000000 0.000000 0.000000 0.051669
#
#
# Mechanical properties :
#
#
# Convention : Reuss Voigt Hill
#
# Bulk Modulus (GPa) = 13.25433 21.08815 17.17124
# Shear Modulus (GPa) = 22.34188 29.41029 25.87608
#
# Velocity S-wave (km/s) = 3.04542 3.49411 3.27745
# Velocity P-wave (km/s) = 4.22708 5.00325 4.63146
#
# Compressibility (1/GPa) = 0.07544704
#
# Stress axis : x y z
#
# Youngs Moduli (GPa) = 44.96433 19.90683 107.39270
#
# Poissons Ratio (x) = 0.00904 0.05799
# Poissons Ratio (y) = 0.02042 0.23359
# Poissons Ratio (z) = 0.02428 0.04330
#
# Static dielectric constant tensor:
#      x y z
#    x 1.978480 0.000000 0.000000 
#    y 0.000000 1.804040 0.000000 
#    z 0.000000 0.000000 1.939110 
# 
# From -- ./inp_files/27282.got.cif
#   From: 2010.05.17/outbox.cif.g08.bks.cpg/sg62_14_cif.got.tgz:27282.got - 2010.06.03 15:25:27.
