data_PCOD9463269
_publ_section_title
;
Structure prediction by ZEFSAII (Michael W. Deem and Ramdas Pophale) SiO2 
 PCOD9463269
Probable space group: P N M A
;
_chemical_formula_sum "Si O2"
_cell_formula_units_Z 40
_cell_length_a 9.911040
_cell_length_b 29.081744
_cell_length_c 4.930366
_cell_angle_alpha 90.000000
_cell_angle_beta 90.000000
_cell_angle_gamma 90.000000
_cell_volume 1421.081010
_symmetry_space_group_name_H-M "P N M A"
_symmetry_group_IT_number 62
_symmetry_cell_setting 'orthorhombic'
loop_
_space_group_symop_operation_xyz
x,y,z
1/2-x,-y,1/2+z
1/2+x,1/2-y,1/2-z
-x,1/2+y,-z
-x,-y,-z
1/2+x,y,1/2-z
1/2-x,1/2+y,1/2+z
x,1/2-y,z
loop_
_atom_site_type_symbol
_atom_site_label
_atom_site_fract_x
_atom_site_fract_y
_atom_site_fract_z
Si Si1 0.294611 0.621200 0.097234
Si Si2 0.522770 0.301294 0.916030
Si Si3 0.431915 0.945722 0.685647
Si Si4 0.217042 0.698777 0.780642
Si Si5 0.382802 0.043847 0.814629
O O1 0.405610 0.655574 0.224798
O O2 0.358507 0.595599 0.836850
O O3 0.183207 0.655971 0.972248
O O4 0.229505 0.582482 0.281981
O O5 0.542023 0.250000 0.799028
O O6 0.368943 0.307301 0.009299
O O7 0.620072 0.301005 0.189004
O O8 0.496637 0.941725 0.390845
O O9 0.346070 0.992754 0.714052
O O10 0.558812 0.955912 0.885088
O O11 0.177931 0.750000 0.877095
#
# Coordination Sequence:
#
# PCOD9463269 Si02
#       5
#     8   8   8   8   8
#     4  10  19  34  63  92 131 177 226 279 341 409
#     4   8  15  29  54  92 134 175 222 276 337 405
#     4  10  23  41  61  91 130 173 221 277 333 402
#     4   8  15  29  55  94 139 179 226 282 341 411
#     4  10  23  41  61  90 129 172 220 274 337 397
#
# _framework density 28.147587999999999
#
# number of rings (size 3 to 8) (size 9 to 14) (size 15 to 20)
#    1.200    1.600    0.000    1.200    0.000    6.400 
#    0.000    0.000    0.000    4.800    0.000   11.200 
#    0.000    0.000    0.000    0.000    0.000    0.000 
#
# Total GULP energy -223749.067719 kJ/mol
# GULP energy per Si atom -5593.726693 kJ/mol
# Density = 2.808352 g / cm^3
# Si number density = 28.147588 Si / 1000 Ang^3
#
#
#
# Elastic Constant Matrix: (Units=GPa)
#
#
# Indices 1 2 3 4 5 6 
#
# 1 100.6419 33.8720 37.5993 0.0000 0.0000 0.0000
# 2 33.8720 205.0823 17.9809 0.0000 0.0000 0.0000
# 3 37.5993 17.9809 83.4263 0.0000 0.0000 0.0000
# 4 0.0000 0.0000 0.0000 30.0236 0.0000 0.0000
# 5 0.0000 0.0000 0.0000 0.0000 38.2304 0.0000
# 6 0.0000 0.0000 0.0000 0.0000 0.0000 23.6624
#
#
#
# Elastic Compliance Matrix: (Units=1/GPa)
#
#
# Indices 1 2 3 4 5 6 
#
# 1 0.012438 -0.001593 -0.005263 0.000000 0.000000 0.000000
# 2 -0.001593 0.005174 -0.000397 0.000000 0.000000 0.000000
# 3 -0.005263 -0.000397 0.014444 0.000000 0.000000 0.000000
# 4 0.000000 0.000000 0.000000 0.033307 0.000000 0.000000
# 5 0.000000 0.000000 0.000000 0.000000 0.026157 0.000000
# 6 0.000000 0.000000 0.000000 0.000000 0.000000 0.042261
#
#
# Mechanical properties :
#
#
# Convention : Reuss Voigt Hill
#
# Bulk Modulus (GPa) = 56.97679 63.11720 60.04699
# Shear Modulus (GPa) = 32.43857 38.36319 35.40088
#
# Velocity S-wave (km/s) = 3.39845 3.69579 3.55024
# Velocity P-wave (km/s) = 5.97373 6.37842 6.17938
#
# Compressibility (1/GPa) = 0.01755101
#
# Stress axis : x y z
#
# Youngs Moduli (GPa) = 80.39631 193.27340 69.23290
#
# Poissons Ratio (x) = 0.30788 0.36434
# Poissons Ratio (y) = 0.12807 0.02750
# Poissons Ratio (z) = 0.42309 0.07677
#
# Static dielectric constant tensor:
#      x y z
#    x 2.244430 0.000000 0.000000 
#    y 0.000000 2.211430 0.000000 
#    z 0.000000 0.000000 2.147090 
# 
# From -- ./inp_files/599.got.cif
#   From: 2010.05.17/outbox.cif.g08.bks.cpg/sg62_1_cif.got.tgz:599.got - 2010.06.03 15:25:27.
