data_PCOD9463304
_publ_section_title
;
Structure prediction by ZEFSAII (Michael W. Deem and Ramdas Pophale) SiO2 
 PCOD9463304
Probable space group: P N M A
;
_chemical_formula_sum "Si O2"
_cell_formula_units_Z 40
_cell_length_a 21.248553
_cell_length_b 16.324472
_cell_length_c 5.385240
_cell_angle_alpha 90.000000
_cell_angle_beta 90.000000
_cell_angle_gamma 90.000000
_cell_volume 1867.985784
_symmetry_space_group_name_H-M "P N M A"
_symmetry_group_IT_number 62
_symmetry_cell_setting 'orthorhombic'
loop_
_space_group_symop_operation_xyz
x,y,z
1/2-x,-y,1/2+z
1/2+x,1/2-y,1/2-z
-x,1/2+y,-z
-x,-y,-z
1/2+x,y,1/2-z
1/2-x,1/2+y,1/2+z
x,1/2-y,z
loop_
_atom_site_type_symbol
_atom_site_label
_atom_site_fract_x
_atom_site_fract_y
_atom_site_fract_z
Si Si1 0.358895 0.750000 0.119412
Si Si2 0.924995 0.514106 0.480412
Si Si3 0.809578 0.421899 0.400072
Si Si4 0.049408 0.074273 0.022076
Si Si5 0.440965 0.750000 0.621244
Si Si6 0.743109 0.108780 0.900306
O O1 0.409815 0.750000 0.894584
O O2 0.389692 0.750000 0.395789
O O3 0.312695 0.673131 0.084976
O O4 0.884483 0.433680 0.427649
O O5 0.917366 0.572578 0.243630
O O6 0.000000 0.500000 0.500000
O O7 0.906037 0.551028 0.746847
O O8 0.784053 0.516036 0.401203
O O9 0.780361 0.380142 0.642312
O O10 0.787591 0.383846 0.141475
O O11 0.023137 0.164058 0.081655
O O12 0.000000 0.000000 0.000000
#
# Coordination Sequence:
#
# PCOD9463304 Si02
#       6
#     4   8   8   8   4   8
#     4  12  24  38  58  93 122 149 204 258 314 368
#     4  10  20  36  60  85 114 155 204 249 290 360
#     4  10  19  35  56  81 111 152 193 231 295 358
#     4  10  21  36  57  88 121 157 206 254 307 366
#     4  12  22  36  62  87 122 163 200 266 316 356
#     4  10  21  34  55  82 115 149 186 243 298 350
#
# _framework density 21.413437999999999
#
# number of rings (size 3 to 8) (size 9 to 14) (size 15 to 20)
#    0.000    1.600    0.000    6.000    0.000    3.200 
#    0.000    0.000    0.000   28.800    0.000    0.000 
#    0.000    0.000    0.000    0.000    0.000    0.000 
#
# Total GULP energy -223225.767948 kJ/mol
# GULP energy per Si atom -5580.644199 kJ/mol
# Density = 2.136470 g / cm^3
# Si number density = 21.413438 Si / 1000 Ang^3
#
#
#
# Elastic Constant Matrix: (Units=GPa)
#
#
# Indices 1 2 3 4 5 6 
#
# 1 77.9721 12.9861 11.1248 0.0000 0.0000 0.0000
# 2 12.9861 79.9432 -3.0333 0.0000 0.0000 0.0000
# 3 11.1248 -3.0333 141.2746 0.0000 0.0000 0.0000
# 4 0.0000 0.0000 0.0000 21.2097 0.0000 0.0000
# 5 0.0000 0.0000 0.0000 0.0000 15.4847 0.0000
# 6 0.0000 0.0000 0.0000 0.0000 0.0000 35.5602
#
#
#
# Elastic Compliance Matrix: (Units=1/GPa)
#
#
# Indices 1 2 3 4 5 6 
#
# 1 0.013350 -0.002210 -0.001099 0.000000 0.000000 0.000000
# 2 -0.002210 0.012885 0.000451 0.000000 0.000000 0.000000
# 3 -0.001099 0.000451 0.007175 0.000000 0.000000 0.000000
# 4 0.000000 0.000000 0.000000 0.047148 0.000000 0.000000
# 5 0.000000 0.000000 0.000000 0.000000 0.064580 0.000000
# 6 0.000000 0.000000 0.000000 0.000000 0.000000 0.028121
#
#
# Mechanical properties :
#
#
# Convention : Reuss Voigt Hill
#
# Bulk Modulus (GPa) = 36.11016 37.92722 37.01869
# Shear Modulus (GPa) = 26.56651 32.99172 29.77911
#
# Velocity S-wave (km/s) = 3.52610 3.92944 3.73322
# Velocity P-wave (km/s) = 5.78600 6.19174 5.99230
#
# Compressibility (1/GPa) = 0.02769304
#
# Stress axis : x y z
#
# Youngs Moduli (GPa) = 74.90651 77.60946 139.38038
#
# Poissons Ratio (x) = 0.17154 0.15314
# Poissons Ratio (y) = 0.16556 -0.06282
# Poissons Ratio (z) = 0.08230 -0.03498
#
# Static dielectric constant tensor:
#      x y z
#    x 1.878950 0.000000 0.000000 
#    y 0.000000 1.690880 0.000000 
#    z 0.000000 0.000000 2.519870 
# 
# From -- ./inp_files/2689.got.cif
#   From: 2010.05.17/outbox.cif.g08.bks.cpg/sg62_2_cif.got.tgz:2689.got - 2010.06.03 15:25:27.
