data_PCOD9463564
_publ_section_title
;
Structure prediction by ZEFSAII (Michael W. Deem and Ramdas Pophale) SiO2 
 PCOD9463564
Probable space group: P N M A
;
_chemical_formula_sum "Si O2"
_cell_formula_units_Z 64
_cell_length_a 19.469317
_cell_length_b 7.732918
_cell_length_c 17.071987
_cell_angle_alpha 90.000000
_cell_angle_beta 90.000000
_cell_angle_gamma 90.000000
_cell_volume 2570.266718
_symmetry_space_group_name_H-M "P N M A"
_symmetry_group_IT_number 62
_symmetry_cell_setting 'orthorhombic'
loop_
_space_group_symop_operation_xyz
x,y,z
1/2-x,-y,1/2+z
1/2+x,1/2-y,1/2-z
-x,1/2+y,-z
-x,-y,-z
1/2+x,y,1/2-z
1/2-x,1/2+y,1/2+z
x,1/2-y,z
loop_
_atom_site_type_symbol
_atom_site_label
_atom_site_fract_x
_atom_site_fract_y
_atom_site_fract_z
Si Si1 0.543737 0.545843 0.829739
Si Si2 0.591043 0.541005 0.092170
Si Si3 0.580572 0.537199 0.405267
Si Si4 0.160949 0.547539 0.248118
Si Si5 0.835557 0.040992 0.433036
Si Si6 0.289620 0.450040 0.325006
Si Si7 0.944613 0.947406 0.163285
Si Si8 0.799820 0.455537 0.006607
O O1 0.547249 0.750000 0.813565
O O2 0.487364 0.515492 0.896532
O O3 0.617369 0.482985 0.861106
O O4 0.521957 0.452872 0.750093
O O5 0.593261 0.750000 0.090741
O O6 0.629706 0.476587 0.170570
O O7 0.626920 0.480094 0.012815
O O8 0.578627 0.750000 0.405867
O O9 0.624615 0.477579 0.329420
O O10 0.502270 0.477917 0.394619
O O11 0.625861 0.480171 0.479163
O O12 0.145085 0.750000 0.247098
O O13 0.243007 0.531035 0.257801
O O14 0.836364 0.250000 0.431384
O O15 0.757199 0.984510 0.440659
O O16 0.270562 0.250000 0.322048
O O17 0.371891 0.462047 0.323902
O O18 0.273715 0.529787 0.410921
O O19 0.930184 0.750000 0.141971
O O20 0.806438 0.250000 0.018323
#
# Coordination Sequence:
#
# PCOD9463564 Si02
#       8
#     8   8   8   8   8   8   8   8
#     4  11  23  37  56  88 127 159 194 249 305 352
#     4  10  19  36  61  86 117 160 203 239 285 358
#     4   9  20  40  63  88 113 148 203 249 288 344
#     4  10  19  37  64  88 115 155 202 244 285 350
#     4  10  22  38  56  85 125 160 197 244 291 356
#     4  11  24  40  59  90 125 153 191 247 305 354
#     4  11  23  42  65  86 114 159 205 249 295 356
#     4  10  22  40  62  87 118 154 196 250 301 352
#
# _framework density 24.900137999999998
#
# number of rings (size 3 to 8) (size 9 to 14) (size 15 to 20)
#    0.000    1.750    2.500    1.500    1.750    3.000 
#    0.000    1.250    0.000    0.000    0.000    0.000 
#    0.000    0.000    0.000    0.000    0.000    0.000 
#
# Total GULP energy -357907.398190 kJ/mol
# GULP energy per Si atom -5592.303097 kJ/mol
# Density = 2.484346 g / cm^3
# Si number density = 24.900138 Si / 1000 Ang^3
#
#
#
# Elastic Constant Matrix: (Units=GPa)
#
#
# Indices 1 2 3 4 5 6 
#
# 1 129.4106 -7.4453 11.9112 0.0000 0.0000 0.0000
# 2 -7.4453 49.7224 0.8685 0.0000 0.0000 0.0000
# 3 11.9112 0.8685 41.4133 0.0000 0.0000 0.0000
# 4 0.0000 0.0000 0.0000 10.2854 0.0000 0.0000
# 5 0.0000 0.0000 0.0000 0.0000 47.2932 0.0000
# 6 0.0000 0.0000 0.0000 0.0000 0.0000 19.8825
#
#
#
# Elastic Compliance Matrix: (Units=1/GPa)
#
#
# Indices 1 2 3 4 5 6 
#
# 1 0.008013 0.001241 -0.002331 0.000000 0.000000 0.000000
# 2 0.001241 0.020311 -0.000783 0.000000 0.000000 0.000000
# 3 -0.002331 -0.000783 0.024834 0.000000 0.000000 0.000000
# 4 0.000000 0.000000 0.000000 0.097225 0.000000 0.000000
# 5 0.000000 0.000000 0.000000 0.000000 0.021145 0.000000
# 6 0.000000 0.000000 0.000000 0.000000 0.000000 0.050296
#
#
# Mechanical properties :
#
#
# Convention : Reuss Voigt Hill
#
# Bulk Modulus (GPa) = 20.23799 25.69058 22.96428
# Shear Modulus (GPa) = 20.65777 29.83967 25.24872
#
# Velocity S-wave (km/s) = 2.88345 3.46551 3.18779
# Velocity P-wave (km/s) = 4.38531 5.13350 4.77409
#
# Compressibility (1/GPa) = 0.04941202
#
# Stress axis : x y z
#
# Youngs Moduli (GPa) = 124.79338 49.23419 40.26801
#
# Poissons Ratio (x) = -0.06108 0.09386
# Poissons Ratio (y) = -0.15482 0.03152
# Poissons Ratio (z) = 0.29086 0.03854
#
# Static dielectric constant tensor:
#      x y z
#    x 2.013190 0.000000 0.000000 
#    y 0.000000 1.892910 0.000000 
#    z 0.000000 0.000000 2.020950 
# 
# From -- ./inp_files/24762.got.cif
#   From: 2010.05.17/outbox.cif.g08.bks.cpg/sg62_13_cif.got.tgz:24762.got - 2010.06.03 15:25:27.
