data_PCOD9463266
_publ_section_title
;
Structure prediction by ZEFSAII (Michael W. Deem and Ramdas Pophale) SiO2 
 PCOD9463266
Probable space group: P N M A
;
_chemical_formula_sum "Si O2"
_cell_formula_units_Z 64
_cell_length_a 13.732366
_cell_length_b 16.871528
_cell_length_c 13.916745
_cell_angle_alpha 90.000000
_cell_angle_beta 90.000000
_cell_angle_gamma 90.000000
_cell_volume 3224.314947
_symmetry_space_group_name_H-M "P N M A"
_symmetry_group_IT_number 62
_symmetry_cell_setting 'orthorhombic'
loop_
_space_group_symop_operation_xyz
x,y,z
1/2-x,-y,1/2+z
1/2+x,1/2-y,1/2-z
-x,1/2+y,-z
-x,-y,-z
1/2+x,y,1/2-z
1/2-x,1/2+y,1/2+z
x,1/2-y,z
loop_
_atom_site_type_symbol
_atom_site_label
_atom_site_fract_x
_atom_site_fract_y
_atom_site_fract_z
Si Si1 0.416761 0.397121 0.469877
Si Si2 0.280977 0.663665 0.056211
Si Si3 0.367120 0.523107 0.765048
Si Si4 0.888044 0.662405 0.880011
Si Si5 0.458048 0.953296 0.348867
Si Si6 0.114131 0.490843 0.488112
Si Si7 0.270756 0.621275 0.267821
Si Si8 0.787879 0.339384 0.522226
O O1 0.317534 0.353233 0.495824
O O2 0.500538 0.351083 0.411745
O O3 0.468745 0.419262 0.570637
O O4 0.400883 0.477181 0.407203
O O5 0.322178 0.750000 0.026420
O O6 0.260466 0.668033 0.169791
O O7 0.345407 0.584195 0.046545
O O8 0.356498 0.599554 0.699054
O O9 0.471483 0.487541 0.733067
O O10 0.364908 0.533744 0.878301
O O11 0.281354 0.461763 0.744138
O O12 0.875700 0.750000 0.840992
O O13 0.818733 0.654501 0.973155
O O14 0.381198 0.894258 0.301908
O O15 0.159261 0.578487 0.507931
O O16 0.000000 0.500000 0.500000
O O17 0.219217 0.656365 0.362327
O O18 0.825320 0.250000 0.496004
#
# Coordination Sequence:
#
# PCOD9463266 Si02
#       8
#     8   8   8   8   8   8   8   8
#     4  10  19  36  61  91 123 160 199 264 320 375
#     4  12  25  40  61  92 130 169 209 258 313 373
#     4  10  21  36  60  87 116 162 206 255 307 371
#     4  10  20  36  60  92 125 156 200 260 320 375
#     4  10  19  34  62  90 117 159 208 252 317 375
#     4  11  25  44  63  83 122 172 213 254 306 369
#     4  11  20  36  59  90 125 157 198 255 307 375
#     4  10  21  38  63  92 119 154 203 257 311 374
#
# _framework density 19.849177999999998
#
# number of rings (size 3 to 8) (size 9 to 14) (size 15 to 20)
#    0.000    1.500    2.500    3.750    1.750    1.000 
#    0.000    0.000    0.000    3.750    0.000    0.000 
#    0.000    0.000    0.000    0.000    0.000    0.000 
#
# Total GULP energy -357012.350458 kJ/mol
# GULP energy per Si atom -5578.317976 kJ/mol
# Density = 1.980400 g / cm^3
# Si number density = 19.849178 Si / 1000 Ang^3
#
#
#
# Elastic Constant Matrix: (Units=GPa)
#
#
# Indices 1 2 3 4 5 6 
#
# 1 65.5953 37.6699 -0.1496 0.0000 0.0000 0.0000
# 2 37.6699 134.6246 19.1884 0.0000 0.0000 0.0000
# 3 -0.1496 19.1884 42.4708 0.0000 0.0000 0.0000
# 4 0.0000 0.0000 0.0000 4.5979 0.0000 0.0000
# 5 0.0000 0.0000 0.0000 0.0000 23.2478 0.0000
# 6 0.0000 0.0000 0.0000 0.0000 0.0000 6.1792
#
#
#
# Elastic Compliance Matrix: (Units=1/GPa)
#
#
# Indices 1 2 3 4 5 6 
#
# 1 0.018420 -0.005519 0.002558 0.000000 0.000000 0.000000
# 2 -0.005519 0.009593 -0.004353 0.000000 0.000000 0.000000
# 3 0.002558 -0.004353 0.025522 0.000000 0.000000 0.000000
# 4 0.000000 0.000000 0.000000 0.217491 0.000000 0.000000
# 5 0.000000 0.000000 0.000000 0.000000 0.043015 0.000000
# 6 0.000000 0.000000 0.000000 0.000000 0.000000 0.161833
#
#
# Mechanical properties :
#
#
# Convention : Reuss Voigt Hill
#
# Bulk Modulus (GPa) = 25.70270 39.56757 32.63514
# Shear Modulus (GPa) = 9.93107 19.20378 14.56742
#
# Velocity S-wave (km/s) = 2.23922 3.11382 2.71201
# Velocity P-wave (km/s) = 4.43425 5.73630 5.12678
#
# Compressibility (1/GPa) = 0.03890641
#
# Stress axis : x y z
#
# Youngs Moduli (GPa) = 54.28819 104.24437 39.18263
#
# Poissons Ratio (x) = 0.57531 -0.10024
# Poissons Ratio (y) = 0.29961 0.17058
# Poissons Ratio (z) = -0.13889 0.45383
#
# Static dielectric constant tensor:
#      x y z
#    x 1.695510 0.000000 0.000000 
#    y 0.000000 1.758900 0.000000 
#    z 0.000000 0.000000 1.711780 
# 
# From -- ./inp_files/18294.got.cif
#   From: 2010.05.17/outbox.cif.g08.bks.cpg/sg62_10_cif.got.tgz:18294.got - 2010.06.03 15:25:27.
