data_PCOD9463156
_publ_section_title
;
Structure prediction by ZEFSAII (Michael W. Deem and Ramdas Pophale) SiO2 
 PCOD9463156
Probable space group: P N M A
;
_chemical_formula_sum "Si O2"
_cell_formula_units_Z 64
_cell_length_a 30.343166
_cell_length_b 11.121198
_cell_length_c 9.816072
_cell_angle_alpha 90.000000
_cell_angle_beta 90.000000
_cell_angle_gamma 90.000000
_cell_volume 3312.456633
_symmetry_space_group_name_H-M "P N M A"
_symmetry_group_IT_number 62
_symmetry_cell_setting 'orthorhombic'
loop_
_space_group_symop_operation_xyz
x,y,z
1/2-x,-y,1/2+z
1/2+x,1/2-y,1/2-z
-x,1/2+y,-z
-x,-y,-z
1/2+x,y,1/2-z
1/2-x,1/2+y,1/2+z
x,1/2-y,z
loop_
_atom_site_type_symbol
_atom_site_label
_atom_site_fract_x
_atom_site_fract_y
_atom_site_fract_z
Si Si1 0.148949 0.535106 0.126750
Si Si2 0.437869 0.609219 0.076148
Si Si3 0.204295 0.388879 0.907967
Si Si4 0.337080 0.608472 0.112483
Si Si5 0.923572 0.885765 0.720606
Si Si6 0.309983 0.111549 0.911306
Si Si7 0.061730 0.622597 0.002882
Si Si8 0.996283 0.512376 0.193993
O O1 0.182004 0.475612 0.018920
O O2 0.116387 0.438069 0.195149
O O3 0.173020 0.595771 0.255550
O O4 0.112265 0.612569 0.047169
O O5 0.450597 0.750000 0.066674
O O6 0.389341 0.603847 0.141696
O O7 0.474213 0.544074 0.164632
O O8 0.431075 0.554401 0.926163
O O9 0.191487 0.250000 0.937627
O O10 0.188434 0.414558 0.753683
O O11 0.257025 0.396856 0.913517
O O12 0.327871 0.750000 0.069146
O O13 0.326592 0.501860 0.003691
O O14 0.912433 0.750000 0.691306
O O15 0.969970 0.901189 0.795990
O O16 0.321922 0.250000 0.955689
O O17 0.055070 0.750000 0.932600
O O18 0.029241 0.612392 0.133340
O O19 0.043569 0.516882 0.907900
#
# Coordination Sequence:
#
# PCOD9463156 Si02
#       8
#     8   8   8   8   8   8   8   8
#     4  11  21  38  63  85 119 159 197 240 304 361
#     4  10  19  34  56  81 112 148 194 241 290 351
#     4  10  22  39  63  92 120 153 201 254 305 364
#     4  10  21  40  63  89 121 159 202 251 303 362
#     4  10  20  34  56  84 113 148 193 243 289 349
#     4  11  23  41  62  90 125 158 200 253 306 367
#     4  10  21  36  54  81 114 153 195 238 290 353
#     4  10  20  34  55  79 114 151 191 242 293 345
#
# _framework density 19.321006000000001
#
# number of rings (size 3 to 8) (size 9 to 14) (size 15 to 20)
#    0.000    1.750    1.250    3.375    0.000    0.500 
#    0.000    8.750    0.000    0.000    0.000    0.000 
#    0.000    0.000    0.000    0.000    0.000    0.000 
#
# Total GULP energy -356509.785606 kJ/mol
# GULP energy per Si atom -5570.465400 kJ/mol
# Density = 1.927703 g / cm^3
# Si number density = 19.321006 Si / 1000 Ang^3
#
#
#
# Elastic Constant Matrix: (Units=GPa)
#
#
# Indices 1 2 3 4 5 6 
#
# 1 93.5373 33.4806 31.4602 0.0000 0.0000 0.0000
# 2 33.4806 81.0655 28.4852 0.0000 0.0000 0.0000
# 3 31.4602 28.4852 65.7156 0.0000 0.0000 0.0000
# 4 0.0000 0.0000 0.0000 28.0792 0.0000 0.0000
# 5 0.0000 0.0000 0.0000 0.0000 42.7305 0.0000
# 6 0.0000 0.0000 0.0000 0.0000 0.0000 -8.2021
#
#
#
# Elastic Compliance Matrix: (Units=1/GPa)
#
#
# Indices 1 2 3 4 5 6 
#
# 1 0.013746 -0.003970 -0.004860 0.000000 0.000000 0.000000
# 2 -0.003970 0.015698 -0.004904 0.000000 0.000000 0.000000
# 3 -0.004860 -0.004904 0.019670 0.000000 0.000000 0.000000
# 4 0.000000 0.000000 0.000000 0.035614 0.000000 0.000000
# 5 0.000000 0.000000 0.000000 0.000000 0.023402 0.000000
# 6 0.000000 0.000000 0.000000 0.000000 0.000000 -0.121920
#
#
# Mechanical properties :
#
#
# Convention : Reuss Voigt Hill
#
# Bulk Modulus (GPa) = 46.19713 47.46339 46.83026
# Shear Modulus (GPa) = 239.29357 22.31433 130.80395
#
# Velocity S-wave (km/s) = 11.14093 3.40211 8.23695
# Velocity P-wave (km/s) = 13.76430 6.32862 10.71232
#
# Compressibility (1/GPa) = 0.02164636
#
# Stress axis : x y z
#
# Youngs Moduli (GPa) = 72.74593 63.70048 50.83965
#
# Poissons Ratio (x) = 0.25286 0.24709
# Poissons Ratio (y) = 0.28877 0.24933
# Poissons Ratio (z) = 0.35356 0.31241
#
# Static dielectric constant tensor:
#      x y z
#    x 1.653770 0.000000 0.000000 
#    y 0.000000 1.729160 0.000000 
#    z 0.000000 0.000000 1.716410 
# 
# From -- ./inp_files/10449.got.cif
#   From: 2010.05.17/outbox.cif.g08.bks.cpg/sg62_6_cif.got.tgz:10449.got - 2010.06.03 15:25:27.
