data_PCOD9463670
_publ_section_title
;
Structure prediction by ZEFSAII (Michael W. Deem and Ramdas Pophale) SiO2 
 PCOD9463670
Probable space group: P N M A
;
_chemical_formula_sum "Si O2"
_cell_formula_units_Z 56
_cell_length_a 19.640815
_cell_length_b 9.054707
_cell_length_c 14.058230
_cell_angle_alpha 90.000000
_cell_angle_beta 90.000000
_cell_angle_gamma 90.000000
_cell_volume 2500.141280
_symmetry_space_group_name_H-M "P N M A"
_symmetry_group_IT_number 62
_symmetry_cell_setting 'orthorhombic'
loop_
_space_group_symop_operation_xyz
x,y,z
1/2-x,-y,1/2+z
1/2+x,1/2-y,1/2-z
-x,1/2+y,-z
-x,-y,-z
1/2+x,y,1/2-z
1/2-x,1/2+y,1/2+z
x,1/2-y,z
loop_
_atom_site_type_symbol
_atom_site_label
_atom_site_fract_x
_atom_site_fract_y
_atom_site_fract_z
Si Si1 0.856348 0.577834 0.778643
Si Si2 0.935606 0.921296 0.044316
Si Si3 0.353170 0.920392 0.950624
Si Si4 0.992899 0.078775 0.761954
Si Si5 0.914659 0.425596 0.383878
Si Si6 0.784369 0.922848 0.285903
Si Si7 0.785907 0.576797 0.055381
O O1 0.856664 0.750000 0.805560
O O2 0.857758 0.568839 0.663082
O O3 0.787375 0.499148 0.811746
O O4 0.925557 0.495275 0.805562
O O5 0.937412 0.750000 0.016661
O O6 0.948773 0.927525 0.157614
O O7 0.859969 0.976586 0.021308
O O8 0.000000 0.000000 0.000000
O O9 0.361756 0.750000 0.977594
O O10 0.406555 0.018136 0.008496
O O11 0.277895 0.980180 0.976046
O O12 0.979489 0.250000 0.739455
O O13 0.020878 0.991693 0.671351
O O14 0.915566 0.250000 0.379016
O O15 0.847798 0.491333 0.331051
O O16 0.786033 0.750000 0.312482
O O17 0.788108 0.929038 0.170694
O O18 0.776076 0.750000 0.029538
#
# Coordination Sequence:
#
# PCOD9463670 Si02
#       7
#     8   8   8   8   8   8   8
#     4  10  22  40  61  91 125 160 204 254 304 363
#     4  10  22  39  60  88 120 157 198 245 300 360
#     4  10  22  39  60  88 121 157 201 250 303 363
#     4  11  23  42  63  87 122 166 206 249 309 372
#     4  12  24  38  61  91 121 158 207 258 308 364
#     4  10  19  37  63  86 115 158 201 248 305 366
#     4   9  18  37  60  83 115 151 194 244 297 354
#
# _framework density 22.398734000000001
#
# number of rings (size 3 to 8) (size 9 to 14) (size 15 to 20)
#    0.000    1.714    1.429    3.000    0.000    5.714 
#    0.000    2.857    0.000    0.000    0.000    0.000 
#    0.000    0.000    0.000    0.000    0.000    0.000 
#
# Total GULP energy -313431.440618 kJ/mol
# GULP energy per Si atom -5596.990011 kJ/mol
# Density = 2.234775 g / cm^3
# Si number density = 22.398734 Si / 1000 Ang^3
#
#
#
# Elastic Constant Matrix: (Units=GPa)
#
#
# Indices 1 2 3 4 5 6 
#
# 1 116.2429 36.2193 4.0502 0.0000 0.0000 0.0000
# 2 36.2193 131.7523 19.7376 0.0000 0.0000 0.0000
# 3 4.0502 19.7376 62.0427 0.0000 0.0000 0.0000
# 4 0.0000 0.0000 0.0000 25.9932 0.0000 0.0000
# 5 0.0000 0.0000 0.0000 0.0000 41.0351 0.0000
# 6 0.0000 0.0000 0.0000 0.0000 0.0000 38.0964
#
#
#
# Elastic Compliance Matrix: (Units=1/GPa)
#
#
# Indices 1 2 3 4 5 6 
#
# 1 0.009411 -0.002620 0.000219 0.000000 0.000000 0.000000
# 2 -0.002620 0.008699 -0.002596 0.000000 0.000000 0.000000
# 3 0.000219 -0.002596 0.016930 0.000000 0.000000 0.000000
# 4 0.000000 0.000000 0.000000 0.038472 0.000000 0.000000
# 5 0.000000 0.000000 0.000000 0.000000 0.024369 0.000000
# 6 0.000000 0.000000 0.000000 0.000000 0.000000 0.026249
#
#
# Mechanical properties :
#
#
# Convention : Reuss Voigt Hill
#
# Bulk Modulus (GPa) = 39.92729 47.78357 43.85543
# Shear Modulus (GPa) = 35.09420 37.69367 36.39393
#
# Velocity S-wave (km/s) = 3.96257 4.10670 4.03528
# Velocity P-wave (km/s) = 6.22899 6.62315 6.42909
#
# Compressibility (1/GPa) = 0.02504553
#
# Stress axis : x y z
#
# Youngs Moduli (GPa) = 106.25404 114.95257 59.06806
#
# Poissons Ratio (x) = 0.30118 -0.01294
# Poissons Ratio (y) = 0.27839 0.15337
# Poissons Ratio (z) = -0.02328 0.29847
#
# Static dielectric constant tensor:
#      x y z
#    x 1.802620 0.000000 0.000000 
#    y 0.000000 1.801510 0.000000 
#    z 0.000000 0.000000 1.905850 
# 
# From -- ./inp_files/20241.got.cif
#   From: 2010.05.17/outbox.cif.g08.bks.cpg/sg62_11_cif.got.tgz:20241.got - 2010.06.03 15:25:27.
