data_PCOD9463530
_publ_section_title
;
Structure prediction by ZEFSAII (Michael W. Deem and Ramdas Pophale) SiO2 
 PCOD9463530
Probable space group: P N M A
;
_chemical_formula_sum "Si O2"
_cell_formula_units_Z 56
_cell_length_a 21.489456
_cell_length_b 13.856500
_cell_length_c 9.023977
_cell_angle_alpha 90.000000
_cell_angle_beta 90.000000
_cell_angle_gamma 90.000000
_cell_volume 2687.057422
_symmetry_space_group_name_H-M "P N M A"
_symmetry_group_IT_number 62
_symmetry_cell_setting 'orthorhombic'
loop_
_space_group_symop_operation_xyz
x,y,z
1/2-x,-y,1/2+z
1/2+x,1/2-y,1/2-z
-x,1/2+y,-z
-x,-y,-z
1/2+x,y,1/2-z
1/2-x,1/2+y,1/2+z
x,1/2-y,z
loop_
_atom_site_type_symbol
_atom_site_label
_atom_site_fract_x
_atom_site_fract_y
_atom_site_fract_z
Si Si1 0.253225 0.862929 0.426191
Si Si2 0.791949 0.859271 0.732048
Si Si3 0.365414 0.954794 0.260431
Si Si4 0.340885 0.138062 0.430889
Si Si5 0.545087 0.359467 0.516924
Si Si6 0.369478 0.483001 0.930090
Si Si7 0.575700 0.553721 0.345580
O O1 0.255424 0.750000 0.388689
O O2 0.278801 0.875711 0.593978
O O3 0.295838 0.921793 0.309727
O O4 0.183333 0.901286 0.439081
O O5 0.814478 0.750000 0.716999
O O6 0.729836 0.867138 0.629542
O O7 0.840264 0.935104 0.673529
O O8 0.409161 0.879703 0.344799
O O9 0.376676 0.061703 0.327452
O O10 0.377785 0.968043 0.088369
O O11 0.359060 0.250000 0.419960
O O12 0.358361 0.095672 0.592287
O O13 0.552247 0.250000 0.462933
O O14 0.561945 0.445127 0.402839
O O15 0.476121 0.380000 0.577258
O O16 0.425961 0.443313 0.831985
#
# Coordination Sequence:
#
# PCOD9463530 Si02
#       7
#     8   8   8   8   8   8   8
#     4  11  22  38  58  87 124 168 202 244 307 370
#     4  10  21  36  57  85 123 162 200 245 298 362
#     4  11  23  37  62  88 125 164 206 252 308 368
#     4  10  19  36  59  87 120 160 205 249 301 365
#     4  10  22  45  66  87 118 162 213 262 307 362
#     4  12  23  38  58  92 128 156 202 252 311 370
#     4  10  24  40  66  92 119 162 208 260 312 364
#
# _framework density 20.84064
#
# number of rings (size 3 to 8) (size 9 to 14) (size 15 to 20)
#    0.000    1.429    2.857    2.571    2.000    4.571 
#    0.000    0.000    0.000    0.000    0.000    0.000 
#    0.000    0.000    0.000    0.000    0.000    0.000 
#
# Total GULP energy -312640.344890 kJ/mol
# GULP energy per Si atom -5582.863302 kJ/mol
# Density = 2.079321 g / cm^3
# Si number density = 20.840640 Si / 1000 Ang^3
#
#
#
# Elastic Constant Matrix: (Units=GPa)
#
#
# Indices 1 2 3 4 5 6 
#
# 1 31.7168 -0.9372 -6.5664 0.0000 0.0000 0.0000
# 2 -0.9372 104.5653 -13.5178 0.0000 0.0000 0.0000
# 3 -6.5664 -13.5178 38.4263 0.0000 0.0000 0.0000
# 4 0.0000 0.0000 0.0000 18.4671 0.0000 0.0000
# 5 0.0000 0.0000 0.0000 0.0000 17.3042 0.0000
# 6 0.0000 0.0000 0.0000 0.0000 0.0000 19.0947
#
#
#
# Elastic Compliance Matrix: (Units=1/GPa)
#
#
# Indices 1 2 3 4 5 6 
#
# 1 0.032799 0.001067 0.005980 0.000000 0.000000 0.000000
# 2 0.001067 0.010054 0.003719 0.000000 0.000000 0.000000
# 3 0.005980 0.003719 0.028354 0.000000 0.000000 0.000000
# 4 0.000000 0.000000 0.000000 0.054150 0.000000 0.000000
# 5 0.000000 0.000000 0.000000 0.000000 0.057789 0.000000
# 6 0.000000 0.000000 0.000000 0.000000 0.000000 0.052371
#
#
# Mechanical properties :
#
#
# Convention : Reuss Voigt Hill
#
# Bulk Modulus (GPa) = 10.78295 14.74061 12.76178
# Shear Modulus (GPa) = 20.41674 24.02187 22.21931
#
# Velocity S-wave (km/s) = 3.13335 3.39875 3.26874
# Velocity P-wave (km/s) = 4.27501 4.74240 4.51476
#
# Compressibility (1/GPa) = 0.09273904
#
# Stress axis : x y z
#
# Youngs Moduli (GPa) = 30.48903 99.46532 35.26835
#
# Poissons Ratio (x) = -0.10614 -0.21091
# Poissons Ratio (y) = -0.03253 -0.13117
# Poissons Ratio (z) = -0.18233 -0.36992
#
# Static dielectric constant tensor:
#      x y z
#    x 1.822490 0.000000 0.000000 
#    y 0.000000 1.729870 0.000000 
#    z 0.000000 0.000000 1.793250 
# 
# From -- ./inp_files/8704.got.cif
#   From: 2010.05.17/outbox.cif.g08.bks.cpg/sg62_5_cif.got.tgz:8704.got - 2010.06.03 15:25:27.
