data_PCOD9463295
_publ_section_title
;
Structure prediction by ZEFSAII (Michael W. Deem and Ramdas Pophale) SiO2 
 PCOD9463295
Probable space group: P N M A
;
_chemical_formula_sum "Si O2"
_cell_formula_units_Z 56
_cell_length_a 24.879931
_cell_length_b 21.701114
_cell_length_c 5.137179
_cell_angle_alpha 90.000000
_cell_angle_beta 90.000000
_cell_angle_gamma 90.000000
_cell_volume 2773.677085
_symmetry_space_group_name_H-M "P N M A"
_symmetry_group_IT_number 62
_symmetry_cell_setting 'orthorhombic'
loop_
_space_group_symop_operation_xyz
x,y,z
1/2-x,-y,1/2+z
1/2+x,1/2-y,1/2-z
-x,1/2+y,-z
-x,-y,-z
1/2+x,y,1/2-z
1/2-x,1/2+y,1/2+z
x,1/2-y,z
loop_
_atom_site_type_symbol
_atom_site_label
_atom_site_fract_x
_atom_site_fract_y
_atom_site_fract_z
Si Si1 0.954991 0.436432 0.304774
Si Si2 0.861392 0.407101 0.678243
Si Si3 0.052050 0.320458 0.805626
Si Si4 0.125933 0.485243 0.956992
Si Si5 0.926975 0.895391 0.681240
Si Si6 0.715582 0.988182 0.894179
Si Si7 0.932121 0.320154 0.930907
O O1 0.932545 0.495859 0.152381
O O2 0.940079 0.373709 0.145260
O O3 0.917009 0.432817 0.555335
O O4 0.018161 0.435015 0.345926
O O5 0.851654 0.451070 0.923718
O O6 0.813334 0.424079 0.482973
O O7 0.879070 0.339640 0.769681
O O8 0.068612 0.250000 0.775747
O O9 0.080893 0.363580 0.595958
O O10 0.987288 0.323580 0.762722
O O11 0.061361 0.343702 0.098520
O O12 0.118401 0.436529 0.184297
O O13 0.167305 0.470763 0.727419
O O14 0.757663 0.984826 0.656190
O O15 0.929015 0.250000 0.030629
#
# Coordination Sequence:
#
# PCOD9463295 Si02
#       7
#     8   8   8   8   8   8   8
#     4   9  19  32  47  81 120 155 182 227 269 328
#     4  10  19  35  55  84 115 146 189 233 283 343
#     4  10  21  35  52  77 114 157 200 232 266 317
#     4  10  22  34  56  83 115 143 193 224 284 350
#     4  11  21  34  54  79 115 156 190 225 277 327
#     4  11  22  39  59  80 112 142 179 236 297 346
#     4   9  18  33  51  78 116 159 194 227 268 328
#
# _framework density 20.189803000000001
#
# number of rings (size 3 to 8) (size 9 to 14) (size 15 to 20)
#    0.000    2.000    2.857    0.857    4.000    1.714 
#    0.000    0.000    0.000    0.000    0.000    6.000 
#    0.000    0.000    0.000    0.000    0.000    0.000 
#
# Total GULP energy -312308.831130 kJ/mol
# GULP energy per Si atom -5576.943413 kJ/mol
# Density = 2.014385 g / cm^3
# Si number density = 20.189803 Si / 1000 Ang^3
#
#
#
# Elastic Constant Matrix: (Units=GPa)
#
#
# Indices 1 2 3 4 5 6 
#
# 1 57.8369 24.9730 17.9659 0.0000 0.0000 0.0000
# 2 24.9730 73.0667 16.6193 0.0000 0.0000 0.0000
# 3 17.9659 16.6193 89.3588 0.0000 0.0000 0.0000
# 4 0.0000 0.0000 0.0000 23.0261 0.0000 0.0000
# 5 0.0000 0.0000 0.0000 0.0000 41.8469 0.0000
# 6 0.0000 0.0000 0.0000 0.0000 0.0000 16.7709
#
#
#
# Elastic Compliance Matrix: (Units=1/GPa)
#
#
# Indices 1 2 3 4 5 6 
#
# 1 0.021036 -0.006503 -0.003020 0.000000 0.000000 0.000000
# 2 -0.006503 0.016301 -0.001724 0.000000 0.000000 0.000000
# 3 -0.003020 -0.001724 0.012119 0.000000 0.000000 0.000000
# 4 0.000000 0.000000 0.000000 0.043429 0.000000 0.000000
# 5 0.000000 0.000000 0.000000 0.000000 0.023897 0.000000
# 6 0.000000 0.000000 0.000000 0.000000 0.000000 0.059627
#
#
# Mechanical properties :
#
#
# Convention : Reuss Voigt Hill
#
# Bulk Modulus (GPa) = 37.09008 37.70877 37.39942
# Shear Modulus (GPa) = 24.05125 27.04240 25.54682
#
# Velocity S-wave (km/s) = 3.45520 3.66376 3.56101
# Velocity P-wave (km/s) = 5.85905 6.05105 5.95583
#
# Compressibility (1/GPa) = 0.02696139
#
# Stress axis : x y z
#
# Youngs Moduli (GPa) = 47.53777 61.34629 82.51718
#
# Poissons Ratio (x) = 0.39893 0.24919
# Poissons Ratio (y) = 0.30913 0.14228
# Poissons Ratio (z) = 0.14356 0.10578
#
# Static dielectric constant tensor:
#      x y z
#    x 1.773890 0.000000 0.000000 
#    y 0.000000 1.735160 0.000000 
#    z 0.000000 0.000000 1.804210 
# 
# From -- ./inp_files/3301.got.cif
#   From: 2010.05.17/outbox.cif.g08.bks.cpg/sg62_2_cif.got.tgz:3301.got - 2010.06.03 15:25:27.
