data_PCOD9463318
_publ_section_title
;
Structure prediction by ZEFSAII (Michael W. Deem and Ramdas Pophale) SiO2 
 PCOD9463318
Probable space group: P N M A
;
_chemical_formula_sum "Si O2"
_cell_formula_units_Z 64
_cell_length_a 22.960812
_cell_length_b 11.835114
_cell_length_c 12.619179
_cell_angle_alpha 90.000000
_cell_angle_beta 90.000000
_cell_angle_gamma 90.000000
_cell_volume 3429.184002
_symmetry_space_group_name_H-M "P N M A"
_symmetry_group_IT_number 62
_symmetry_cell_setting 'orthorhombic'
loop_
_space_group_symop_operation_xyz
x,y,z
1/2-x,-y,1/2+z
1/2+x,1/2-y,1/2-z
-x,1/2+y,-z
-x,-y,-z
1/2+x,y,1/2-z
1/2-x,1/2+y,1/2+z
x,1/2-y,z
loop_
_atom_site_type_symbol
_atom_site_label
_atom_site_fract_x
_atom_site_fract_y
_atom_site_fract_z
Si Si1 0.271496 0.628386 0.461764
Si Si2 0.861276 0.456264 0.134561
Si Si3 0.565756 0.119039 0.784833
Si Si4 0.563567 0.880884 0.237881
Si Si5 0.677338 0.503937 0.153941
Si Si6 0.729718 0.570672 0.808435
Si Si7 0.462506 0.380501 0.513975
Si Si8 0.171164 0.121552 0.568231
O O1 0.299902 0.750000 0.443474
O O2 0.316543 0.526540 0.440106
O O3 0.219716 0.607369 0.378189
O O4 0.242907 0.627596 0.578799
O O5 0.901364 0.545413 0.197787
O O6 0.821212 0.394911 0.224787
O O7 0.906921 0.387206 0.064363
O O8 0.562920 0.250000 0.750020
O O9 0.499907 0.080583 0.802024
O O10 0.605385 0.114004 0.888817
O O11 0.572286 0.750000 0.206592
O O12 0.615544 0.954575 0.193189
O O13 0.559408 0.885672 0.365065
O O14 0.711016 0.434202 0.243259
O O15 0.674512 0.432840 0.046470
O O16 0.709669 0.446624 0.847459
O O17 0.500000 0.500000 0.500000
O O18 0.488476 0.250000 0.500778
O O19 0.190082 0.250000 0.565066
#
# Coordination Sequence:
#
# PCOD9463318 Si02
#       8
#     8   8   8   8   8   8   8   8
#     4  10  20  34  55  81 109 146 193 240 288 344
#     4  10  19  35  57  80 112 152 191 239 290 349
#     4   9  17  32  55  80 105 146 197 238 288 350
#     4  10  20  34  55  80 112 149 188 239 292 349
#     4  10  20  35  52  80 113 143 187 235 291 344
#     4   9  20  35  52  78 111 146 187 236 289 354
#     4  11  23  39  60  89 120 154 197 245 299 358
#     4   9  19  35  55  77 105 146 194 241 291 352
#
# _framework density 18.663332
#
# number of rings (size 3 to 8) (size 9 to 14) (size 15 to 20)
#    0.000    2.250    1.250    1.500    0.000    5.500 
#    0.000    8.125    0.000    0.000    0.000    0.000 
#    0.000    0.000    0.000    0.000    0.000    0.000 
#
# Total GULP energy -356403.364160 kJ/mol
# GULP energy per Si atom -5568.802565 kJ/mol
# Density = 1.862085 g / cm^3
# Si number density = 18.663332 Si / 1000 Ang^3
#
#
#
# Elastic Constant Matrix: (Units=GPa)
#
#
# Indices 1 2 3 4 5 6 
#
# 1 89.9844 25.0563 11.3654 0.0000 0.0000 0.0000
# 2 25.0563 74.7029 16.5187 0.0000 0.0000 0.0000
# 3 11.3654 16.5187 57.2576 0.0000 0.0000 0.0000
# 4 0.0000 0.0000 0.0000 6.5213 0.0000 0.0000
# 5 0.0000 0.0000 0.0000 0.0000 27.5293 0.0000
# 6 0.0000 0.0000 0.0000 0.0000 0.0000 17.3426
#
#
#
# Elastic Compliance Matrix: (Units=1/GPa)
#
#
# Indices 1 2 3 4 5 6 
#
# 1 0.012354 -0.003847 -0.001342 0.000000 0.000000 0.000000
# 2 -0.003847 0.015496 -0.003707 0.000000 0.000000 0.000000
# 3 -0.001342 -0.003707 0.018801 0.000000 0.000000 0.000000
# 4 0.000000 0.000000 0.000000 0.153343 0.000000 0.000000
# 5 0.000000 0.000000 0.000000 0.000000 0.036325 0.000000
# 6 0.000000 0.000000 0.000000 0.000000 0.000000 0.057661
#
#
# Mechanical properties :
#
#
# Convention : Reuss Voigt Hill
#
# Bulk Modulus (GPa) = 34.65187 36.42508 35.53848
# Shear Modulus (GPa) = 15.55733 21.54562 18.55147
#
# Velocity S-wave (km/s) = 2.89031 3.40138 3.15621
# Velocity P-wave (km/s) = 5.45395 5.91483 5.68906
#
# Compressibility (1/GPa) = 0.02885847
#
# Stress axis : x y z
#
# Youngs Moduli (GPa) = 80.94726 64.53131 53.18900
#
# Poissons Ratio (x) = 0.24824 0.07140
# Poissons Ratio (y) = 0.31139 0.19718
# Poissons Ratio (z) = 0.10866 0.23922
#
# Static dielectric constant tensor:
#      x y z
#    x 1.648230 0.000000 0.000000 
#    y 0.000000 1.693040 0.000000 
#    z 0.000000 0.000000 1.631810 
# 
# From -- ./inp_files/15292.got.cif
#   From: 2010.05.17/outbox.cif.g08.bks.cpg/sg62_8_cif.got.tgz:15292.got - 2010.06.03 15:25:27.
