data_PCOD9463751
_publ_section_title
;
Structure prediction by ZEFSAII (Michael W. Deem and Ramdas Pophale) SiO2 
 PCOD9463751
Probable space group: P N M A
;
_chemical_formula_sum "Si O2"
_cell_formula_units_Z 64
_cell_length_a 8.211719
_cell_length_b 17.174494
_cell_length_c 19.345048
_cell_angle_alpha 90.000000
_cell_angle_beta 90.000000
_cell_angle_gamma 90.000000
_cell_volume 2728.273106
_symmetry_space_group_name_H-M "P N M A"
_symmetry_group_IT_number 62
_symmetry_cell_setting 'orthorhombic'
loop_
_space_group_symop_operation_xyz
x,y,z
1/2-x,-y,1/2+z
1/2+x,1/2-y,1/2-z
-x,1/2+y,-z
-x,-y,-z
1/2+x,y,1/2-z
1/2-x,1/2+y,1/2+z
x,1/2-y,z
loop_
_atom_site_type_symbol
_atom_site_label
_atom_site_fract_x
_atom_site_fract_y
_atom_site_fract_z
Si Si1 0.624693 0.159498 0.104236
Si Si2 0.525233 0.843199 0.344511
Si Si3 0.502501 0.427098 0.906511
Si Si4 0.390737 0.841729 0.646516
Si Si5 0.706221 0.903209 0.727972
Si Si6 0.218374 0.919849 0.276768
Si Si7 0.711160 0.841773 0.470252
Si Si8 0.678266 0.916589 0.956594
O O1 0.656724 0.250000 0.117915
O O2 0.646200 0.114173 0.174849
O O3 0.450361 0.148471 0.069350
O O4 0.750218 0.126504 0.046407
O O5 0.539412 0.750000 0.343316
O O6 0.352419 0.869070 0.315905
O O7 0.656323 0.880606 0.292906
O O8 0.565740 0.871231 0.422281
O O9 0.431588 0.426194 0.830331
O O10 0.624698 0.357365 0.925968
O O11 0.609740 0.503607 0.923433
O O12 0.353175 0.425048 0.961774
O O13 0.406937 0.750000 0.632615
O O14 0.549280 0.873031 0.686648
O O15 0.245496 0.858303 0.701558
O O16 0.346618 0.889748 0.577360
O O17 0.708062 0.995256 0.738509
O O18 0.688996 0.750000 0.480394
#
# Coordination Sequence:
#
# PCOD9463751 Si02
#       8
#     8   8   8   8   8   8   8   8
#     4  10  19  40  66  91 127 168 211 259 318 382
#     4  11  25  44  65  94 130 169 216 269 327 383
#     4  10  22  41  65  95 128 163 211 263 317 379
#     4  12  26  43  64  92 130 173 215 264 320 382
#     4  12  26  42  62  98 130 171 213 267 319 386
#     4  12  25  42  65  96 127 171 211 269 323 387
#     4   9  21  39  66  94 123 166 211 263 323 386
#     4  10  22  41  64  94 127 166 211 260 315 378
#
# _framework density 23.458062999999999
#
# number of rings (size 3 to 8) (size 9 to 14) (size 15 to 20)
#    0.000    1.250    1.250    4.125    5.250    3.500 
#    0.000    2.500    0.000    0.000    0.000    0.000 
#    0.000    0.000    0.000    0.000    0.000    0.000 
#
# Total GULP energy -358158.503687 kJ/mol
# GULP energy per Si atom -5596.226620 kJ/mol
# Density = 2.340467 g / cm^3
# Si number density = 23.458063 Si / 1000 Ang^3
#
#
#
# Elastic Constant Matrix: (Units=GPa)
#
#
# Indices 1 2 3 4 5 6 
#
# 1 50.5250 -5.1815 -8.5807 0.0000 0.0000 0.0000
# 2 -5.1815 72.3962 8.5634 0.0000 0.0000 0.0000
# 3 -8.5807 8.5634 83.4006 0.0000 0.0000 0.0000
# 4 0.0000 0.0000 0.0000 12.7847 0.0000 0.0000
# 5 0.0000 0.0000 0.0000 0.0000 36.7548 0.0000
# 6 0.0000 0.0000 0.0000 0.0000 0.0000 32.2061
#
#
#
# Elastic Compliance Matrix: (Units=1/GPa)
#
#
# Indices 1 2 3 4 5 6 
#
# 1 0.020250 0.001218 0.001958 0.000000 0.000000 0.000000
# 2 0.001218 0.014056 -0.001318 0.000000 0.000000 0.000000
# 3 0.001958 -0.001318 0.012327 0.000000 0.000000 0.000000
# 4 0.000000 0.000000 0.000000 0.078218 0.000000 0.000000
# 5 0.000000 0.000000 0.000000 0.000000 0.027207 0.000000
# 6 0.000000 0.000000 0.000000 0.000000 0.000000 0.031050
#
#
# Mechanical properties :
#
#
# Convention : Reuss Voigt Hill
#
# Bulk Modulus (GPa) = 19.86145 21.76937 20.81541
# Shear Modulus (GPa) = 25.48744 30.45052 27.96898
#
# Velocity S-wave (km/s) = 3.29980 3.60680 3.45671
# Velocity P-wave (km/s) = 4.79619 5.16194 4.98242
#
# Compressibility (1/GPa) = 0.05034879
#
# Stress axis : x y z
#
# Youngs Moduli (GPa) = 49.38361 71.14443 81.12189
#
# Poissons Ratio (x) = -0.08663 -0.15887
# Poissons Ratio (y) = -0.06013 0.10692
# Poissons Ratio (z) = -0.09671 0.09377
#
# Static dielectric constant tensor:
#      x y z
#    x 1.961890 0.000000 0.000000 
#    y 0.000000 1.845140 0.000000 
#    z 0.000000 0.000000 1.868840 
# 
# From -- ./inp_files/26192.got.cif
#   From: 2010.05.17/outbox.cif.g08.bks.cpg/sg62_14_cif.got.tgz:26192.got - 2010.06.03 15:25:27.
