data_PCOD9463306
_publ_section_title
;
Structure prediction by ZEFSAII (Michael W. Deem and Ramdas Pophale) SiO2 
 PCOD9463306
Probable space group: P N M A
;
_chemical_formula_sum "Si O2"
_cell_formula_units_Z 40
_cell_length_a 5.029740
_cell_length_b 23.709089
_cell_length_c 11.833905
_cell_angle_alpha 90.000000
_cell_angle_beta 90.000000
_cell_angle_gamma 90.000000
_cell_volume 1411.199719
_symmetry_space_group_name_H-M "P N M A"
_symmetry_group_IT_number 62
_symmetry_cell_setting 'orthorhombic'
loop_
_space_group_symop_operation_xyz
x,y,z
1/2-x,-y,1/2+z
1/2+x,1/2-y,1/2-z
-x,1/2+y,-z
-x,-y,-z
1/2+x,y,1/2-z
1/2-x,1/2+y,1/2+z
x,1/2-y,z
loop_
_atom_site_type_symbol
_atom_site_label
_atom_site_fract_x
_atom_site_fract_y
_atom_site_fract_z
Si Si1 0.713805 0.188470 0.175118
Si Si2 0.169514 0.072280 0.919152
Si Si3 0.863148 0.499900 0.377344
Si Si4 0.370485 0.063184 0.368358
Si Si5 0.975278 0.687717 0.174611
O O1 0.409205 0.187633 0.215539
O O2 0.760750 0.250000 0.119309
O O3 0.788239 0.128570 0.122197
O O4 0.104111 0.137127 0.905610
O O5 0.443912 0.057420 0.859997
O O6 0.924846 0.034485 0.875499
O O7 0.148825 0.058047 0.056528
O O8 0.873617 0.458827 0.260217
O O9 0.142107 0.470370 0.436884
O O10 0.775953 0.683579 0.281664
O O11 0.930963 0.750000 0.125378
#
# Coordination Sequence:
#
# PCOD9463306 Si02
#       5
#     8   8   8   8   8
#     4  10  21  37  54  75 111 149 178 222 276 318
#     4   9  21  36  62  78 115 142 184 225 283 322
#     4   9  20  34  59  81 110 139 177 226 280 320
#     4  10  19  35  56  82 107 141 186 223 267 333
#     4  10  23  40  57  81 114 149 187 232 280 328
#
# _framework density 28.344673
#
# number of rings (size 3 to 8) (size 9 to 14) (size 15 to 20)
#    1.200    1.200    0.000    1.800    2.800    0.800 
#    0.000    7.000    0.000    0.000    0.000    0.000 
#    0.000    0.000    0.000    0.000    0.000    0.000 
#
# Total GULP energy -223199.969239 kJ/mol
# GULP energy per Si atom -5579.999231 kJ/mol
# Density = 2.828016 g / cm^3
# Si number density = 28.344673 Si / 1000 Ang^3
#
#
#
# Elastic Constant Matrix: (Units=GPa)
#
#
# Indices 1 2 3 4 5 6 
#
# 1 219.5667 21.9964 42.8220 0.0000 0.0000 0.0000
# 2 21.9964 230.7238 35.8216 0.0000 0.0000 0.0000
# 3 42.8220 35.8216 109.7101 0.0000 0.0000 0.0000
# 4 0.0000 0.0000 0.0000 30.9367 0.0000 0.0000
# 5 0.0000 0.0000 0.0000 0.0000 43.7067 0.0000
# 6 0.0000 0.0000 0.0000 0.0000 0.0000 45.0386
#
#
#
# Elastic Compliance Matrix: (Units=1/GPa)
#
#
# Indices 1 2 3 4 5 6 
#
# 1 0.004937 -0.000181 -0.001868 0.000000 0.000000 0.000000
# 2 -0.000181 0.004572 -0.001422 0.000000 0.000000 0.000000
# 3 -0.001868 -0.001422 0.010308 0.000000 0.000000 0.000000
# 4 0.000000 0.000000 0.000000 0.032324 0.000000 0.000000
# 5 0.000000 0.000000 0.000000 0.000000 0.022880 0.000000
# 6 0.000000 0.000000 0.000000 0.000000 0.000000 0.022203
#
#
# Mechanical properties :
#
#
# Convention : Reuss Voigt Hill
#
# Bulk Modulus (GPa) = 77.66652 84.58672 81.12662
# Shear Modulus (GPa) = 46.10061 54.56042 50.33051
#
# Velocity S-wave (km/s) = 4.03728 4.39212 4.21843
# Velocity P-wave (km/s) = 7.01377 7.45841 7.23951
#
# Compressibility (1/GPa) = 0.01287556
#
# Stress axis : x y z
#
# Youngs Moduli (GPa) = 202.55919 218.71095 97.00776
#
# Poissons Ratio (x) = 0.03951 0.18121
# Poissons Ratio (y) = 0.03659 0.13798
# Poissons Ratio (z) = 0.37837 0.31109
#
# Static dielectric constant tensor:
#      x y z
#    x 2.437340 0.000000 0.000000 
#    y 0.000000 2.281320 0.000000 
#    z 0.000000 0.000000 2.543710 
# 
# From -- ./inp_files/16164.got.cif
#   From: 2010.05.17/outbox.cif.g08.bks.cpg/sg62_9_cif.got.tgz:16164.got - 2010.06.03 15:25:27.
