data_PCOD9463441
_publ_section_title
;
Structure prediction by ZEFSAII (Michael W. Deem and Ramdas Pophale) SiO2 
 PCOD9463441
Probable space group: P N M A
;
_chemical_formula_sum "Si O2"
_cell_formula_units_Z 64
_cell_length_a 15.028674
_cell_length_b 8.978323
_cell_length_c 24.952056
_cell_angle_alpha 90.000000
_cell_angle_beta 90.000000
_cell_angle_gamma 90.000000
_cell_volume 3366.838042
_symmetry_space_group_name_H-M "P N M A"
_symmetry_group_IT_number 62
_symmetry_cell_setting 'orthorhombic'
loop_
_space_group_symop_operation_xyz
x,y,z
1/2-x,-y,1/2+z
1/2+x,1/2-y,1/2-z
-x,1/2+y,-z
-x,-y,-z
1/2+x,y,1/2-z
1/2-x,1/2+y,1/2+z
x,1/2-y,z
loop_
_atom_site_type_symbol
_atom_site_label
_atom_site_fract_x
_atom_site_fract_y
_atom_site_fract_z
Si Si1 0.058740 0.423850 0.126256
Si Si2 0.135578 0.072692 0.243711
Si Si3 0.407710 0.426276 0.519928
Si Si4 0.998205 0.069696 0.670723
Si Si5 0.172734 0.423842 0.733839
Si Si6 0.382664 0.580943 0.356072
Si Si7 0.051647 0.929910 0.450283
Si Si8 0.743375 0.074467 0.551108
O O1 0.073695 0.250000 0.115390
O O2 0.089219 0.458283 0.186464
O O3 0.105668 0.521657 0.081109
O O4 0.954747 0.464478 0.123818
O O5 0.135581 0.250000 0.252455
O O6 0.078631 0.996070 0.290885
O O7 0.235959 0.013916 0.237271
O O8 0.500000 0.500000 0.500000
O O9 0.415811 0.250000 0.515975
O O10 0.325912 0.485814 0.485038
O O11 0.993286 0.250000 0.674538
O O12 0.984299 0.027026 0.608704
O O13 0.095638 0.024507 0.693081
O O14 0.193129 0.250000 0.722287
O O15 0.130432 0.430897 0.793047
O O16 0.414514 0.750000 0.368597
O O17 0.290920 0.560571 0.387783
O O18 0.046572 0.750000 0.453291
O O19 0.155268 0.973564 0.453867
O O20 0.000000 0.000000 0.500000
O O21 0.737498 0.250000 0.537185
#
# Coordination Sequence:
#
# PCOD9463441 Si02
#       8
#     8   8   8   8   8   8   8   8
#     4  11  23  38  57  86 124 161 198 246 306 366
#     4  11  24  39  59  91 128 163 200 249 309 368
#     4  12  24  38  59  88 121 159 204 251 304 367
#     4  10  21  41  67  92 120 160 209 256 303 362
#     4  10  21  37  62  92 123 162 206 251 302 364
#     4  10  19  35  61  89 117 158 204 248 303 359
#     4  10  23  43  66  92 123 160 206 259 306 360
#     4  10  21  38  61  89 123 162 206 255 309 363
#
# _framework density 19.008932999999999
#
# number of rings (size 3 to 8) (size 9 to 14) (size 15 to 20)
#    0.000    1.500    2.500    2.625    0.000    6.500 
#    0.000    3.750    0.000    0.000    0.000    0.000 
#    0.000    0.000    0.000    0.000    0.000    0.000 
#
# Total GULP energy -357502.475756 kJ/mol
# GULP energy per Si atom -5585.976184 kJ/mol
# Density = 1.896567 g / cm^3
# Si number density = 19.008933 Si / 1000 Ang^3
#
#
#
# Elastic Constant Matrix: (Units=GPa)
#
#
# Indices 1 2 3 4 5 6 
#
# 1 119.2767 35.2183 71.6934 0.0000 0.0000 0.0000
# 2 35.2183 46.6299 53.1526 0.0000 0.0000 0.0000
# 3 71.6934 53.1526 134.5101 0.0000 0.0000 0.0000
# 4 0.0000 0.0000 0.0000 27.0229 0.0000 0.0000
# 5 0.0000 0.0000 0.0000 0.0000 28.9075 0.0000
# 6 0.0000 0.0000 0.0000 0.0000 0.0000 28.6907
#
#
#
# Elastic Compliance Matrix: (Units=1/GPa)
#
#
# Indices 1 2 3 4 5 6 
#
# 1 0.012624 -0.003393 -0.005388 0.000000 0.000000 0.000000
# 2 -0.003393 0.039935 -0.013972 0.000000 0.000000 0.000000
# 3 -0.005388 -0.013972 0.015827 0.000000 0.000000 0.000000
# 4 0.000000 0.000000 0.000000 0.037006 0.000000 0.000000
# 5 0.000000 0.000000 0.000000 0.000000 0.034593 0.000000
# 6 0.000000 0.000000 0.000000 0.000000 0.000000 0.034854
#
#
# Mechanical properties :
#
#
# Convention : Reuss Voigt Hill
#
# Bulk Modulus (GPa) = 43.70607 68.94948 56.32778
# Shear Modulus (GPa) = 21.93257 26.28105 24.10681
#
# Velocity S-wave (km/s) = 3.40045 3.72232 3.56502
# Velocity P-wave (km/s) = 6.20159 7.40440 6.82953
#
# Compressibility (1/GPa) = 0.02288011
#
# Stress axis : x y z
#
# Youngs Moduli (GPa) = 79.21295 25.04100 63.18279
#
# Poissons Ratio (x) = 0.08497 0.34041
# Poissons Ratio (y) = 0.26879 0.88278
# Poissons Ratio (z) = 0.42678 0.34987
#
# Static dielectric constant tensor:
#      x y z
#    x 1.649320 0.000000 0.000000 
#    y 0.000000 1.640950 0.000000 
#    z 0.000000 0.000000 1.666300 
# 
# From -- ./inp_files/29887.got.cif
#   From: 2010.05.17/outbox.cif.g08.bks.cpg/sg62_15_cif.got.tgz:29887.got - 2010.06.03 15:25:27.
