data_PCOD9463055
_publ_section_title
;
Structure prediction by ZEFSAII (Michael W. Deem and Ramdas Pophale) SiO2 
 PCOD9463055
Probable space group: P N M A
;
_chemical_formula_sum "Si O2"
_cell_formula_units_Z 48
_cell_length_a 14.205158
_cell_length_b 18.833989
_cell_length_c 9.666035
_cell_angle_alpha 90.000000
_cell_angle_beta 90.000000
_cell_angle_gamma 90.000000
_cell_volume 2586.048969
_symmetry_space_group_name_H-M "P N M A"
_symmetry_group_IT_number 62
_symmetry_cell_setting 'orthorhombic'
loop_
_space_group_symop_operation_xyz
x,y,z
1/2-x,-y,1/2+z
1/2+x,1/2-y,1/2-z
-x,1/2+y,-z
-x,-y,-z
1/2+x,y,1/2-z
1/2-x,1/2+y,1/2+z
x,1/2-y,z
loop_
_atom_site_type_symbol
_atom_site_label
_atom_site_fract_x
_atom_site_fract_y
_atom_site_fract_z
Si Si1 0.853537 0.593212 0.052411
Si Si2 0.347227 0.569764 0.772553
Si Si3 0.649970 0.899190 0.184201
Si Si4 0.361895 0.433786 0.343498
Si Si5 0.028001 0.924588 0.565349
Si Si6 0.046488 0.666808 0.062448
O O1 0.755440 0.612098 0.127344
O O2 0.875577 0.511624 0.092173
O O3 0.941313 0.640661 0.098985
O O4 0.844955 0.595252 0.885833
O O5 0.357521 0.483343 0.775539
O O6 0.248113 0.584719 0.845395
O O7 0.433972 0.602030 0.858574
O O8 0.618352 0.854798 0.316091
O O9 0.577159 0.883437 0.059552
O O10 0.395777 0.436129 0.185535
O O11 0.421977 0.377660 0.428641
O O12 0.000000 0.000000 0.500000
O O13 0.047890 0.750000 0.036951
#
# Coordination Sequence:
#
# PCOD9463055 Si02
#       6
#     8   8   8   8   8   8
#     4  11  20  38  67  92 120 161 210 260 312 367
#     4  10  19  34  64  98 120 153 204 260 316 361
#     4  10  22  37  60  95 125 156 201 267 311 367
#     4  11  21  37  64  94 123 157 210 263 308 367
#     4  10  19  33  59  94 124 151 198 259 317 359
#     4  12  26  42  60  88 129 174 207 251 318 379
#
# _framework density 18.561133999999999
#
# number of rings (size 3 to 8) (size 9 to 14) (size 15 to 20)
#    0.000    1.333    5.000    2.500    0.000    2.000 
#    0.000    1.667    0.000    0.000    0.000    0.000 
#    0.000    0.000    0.000    0.000    0.000    0.000 
#
# Total GULP energy -267999.534356 kJ/mol
# GULP energy per Si atom -5583.323632 kJ/mol
# Density = 1.851889 g / cm^3
# Si number density = 18.561134 Si / 1000 Ang^3
#
#
#
# Elastic Constant Matrix: (Units=GPa)
#
#
# Indices 1 2 3 4 5 6 
#
# 1 64.1126 23.8202 1.7892 0.0000 0.0000 0.0000
# 2 23.8202 55.5382 14.3423 0.0000 0.0000 0.0000
# 3 1.7892 14.3423 79.9854 0.0000 0.0000 0.0000
# 4 0.0000 0.0000 0.0000 7.4266 0.0000 0.0000
# 5 0.0000 0.0000 0.0000 0.0000 33.8817 0.0000
# 6 0.0000 0.0000 0.0000 0.0000 0.0000 8.1207
#
#
#
# Elastic Compliance Matrix: (Units=1/GPa)
#
#
# Indices 1 2 3 4 5 6 
#
# 1 0.018640 -0.008270 0.001066 0.000000 0.000000 0.000000
# 2 -0.008270 0.022549 -0.003858 0.000000 0.000000 0.000000
# 3 0.001066 -0.003858 0.013170 0.000000 0.000000 0.000000
# 4 0.000000 0.000000 0.000000 0.134651 0.000000 0.000000
# 5 0.000000 0.000000 0.000000 0.000000 0.029514 0.000000
# 6 0.000000 0.000000 0.000000 0.000000 0.000000 0.123142
#
#
# Mechanical properties :
#
#
# Convention : Reuss Voigt Hill
#
# Bulk Modulus (GPa) = 31.02233 31.05995 31.04114
# Shear Modulus (GPa) = 13.34981 20.53144 16.94063
#
# Velocity S-wave (km/s) = 2.68476 3.32949 3.02436
# Velocity P-wave (km/s) = 5.13425 5.61702 5.38105
#
# Compressibility (1/GPa) = 0.03223484
#
# Stress axis : x y z
#
# Youngs Moduli (GPa) = 53.64665 44.34780 75.92852
#
# Poissons Ratio (x) = 0.36676 -0.08094
# Poissons Ratio (y) = 0.44367 0.29296
# Poissons Ratio (z) = -0.05719 0.17111
#
# Static dielectric constant tensor:
#      x y z
#    x 1.691480 0.000000 0.000000 
#    y 0.000000 1.599670 0.000000 
#    z 0.000000 0.000000 1.647980 
# 
# From -- ./inp_files/6466.got.cif
#   From: 2010.05.17/outbox.cif.g08.bks.cpg/sg62_4_cif.got.tgz:6466.got - 2010.06.03 15:25:27.
