data_PCOD9463866
_publ_section_title
;
Structure prediction by ZEFSAII (Michael W. Deem and Ramdas Pophale) SiO2 
 PCOD9463866
Probable space group: P N M A
;
_chemical_formula_sum "Si O2"
_cell_formula_units_Z 48
_cell_length_a 17.613039
_cell_length_b 7.607490
_cell_length_c 17.379127
_cell_angle_alpha 90.000000
_cell_angle_beta 90.000000
_cell_angle_gamma 90.000000
_cell_volume 2328.646920
_symmetry_space_group_name_H-M "P N M A"
_symmetry_group_IT_number 62
_symmetry_cell_setting 'orthorhombic'
loop_
_space_group_symop_operation_xyz
x,y,z
1/2-x,-y,1/2+z
1/2+x,1/2-y,1/2-z
-x,1/2+y,-z
-x,-y,-z
1/2+x,y,1/2-z
1/2-x,1/2+y,1/2+z
x,1/2-y,z
loop_
_atom_site_type_symbol
_atom_site_label
_atom_site_fract_x
_atom_site_fract_y
_atom_site_fract_z
Si Si1 0.681457 0.035303 0.648422
Si Si2 0.000280 0.038855 0.590086
Si Si3 0.181950 0.539999 0.149799
Si Si4 0.851638 0.035133 0.679348
Si Si5 0.588642 0.042763 0.502553
Si Si6 0.149677 0.035184 0.678019
O O1 0.680963 0.250000 0.648102
O O2 0.769913 0.982259 0.645106
O O3 0.632280 0.967992 0.577086
O O4 0.649463 0.983583 0.732109
O O5 0.000308 0.250000 0.598835
O O6 0.076708 0.972668 0.631328
O O7 0.924074 0.972831 0.631777
O O8 0.000000 0.000000 0.500000
O O9 0.186716 0.750000 0.156892
O O10 0.147926 0.477650 0.231321
O O11 0.131045 0.503118 0.076282
O O12 0.269091 0.476496 0.143845
O O13 0.852924 0.250000 0.678584
O O14 0.594079 0.250000 0.510715
O O15 0.500000 0.000000 0.500000
O O16 0.148884 0.250000 0.676134
#
# Coordination Sequence:
#
# PCOD9463866 Si02
#       6
#     8   8   8   8   8   8
#     4   8  16  32  53  76 100 133 177 217 251 304
#     4  10  20  32  52  79 106 137 173 214 256 307
#     4   9  18  35  57  78 103 136 175 219 265 314
#     4   8  16  32  55  78 100 136 181 216 253 309
#     4  11  23  35  54  81 109 138 175 220 266 314
#     4   8  16  32  54  78 102 134 176 216 258 307
#
# _framework density 20.612828
#
# number of rings (size 3 to 8) (size 9 to 14) (size 15 to 20)
#    0.000    3.000    0.000    2.500    4.667    0.000 
#    0.000    0.833    0.000    8.000    0.000    0.000 
#    0.000    0.000    0.000    0.000    0.000    0.000 
#
# Total GULP energy -267843.983454 kJ/mol
# GULP energy per Si atom -5580.082989 kJ/mol
# Density = 2.056591 g / cm^3
# Si number density = 20.612828 Si / 1000 Ang^3
#
#
#
# Elastic Constant Matrix: (Units=GPa)
#
#
# Indices 1 2 3 4 5 6 
#
# 1 225.4900 5.2542 171.0745 0.0000 0.0000 0.0000
# 2 5.2542 38.8745 1.2822 0.0000 0.0000 0.0000
# 3 171.0745 1.2822 188.5161 0.0000 0.0000 0.0000
# 4 0.0000 0.0000 0.0000 24.0228 0.0000 0.0000
# 5 0.0000 0.0000 0.0000 0.0000 36.8046 0.0000
# 6 0.0000 0.0000 0.0000 0.0000 0.0000 6.2311
#
#
#
# Elastic Compliance Matrix: (Units=1/GPa)
#
#
# Indices 1 2 3 4 5 6 
#
# 1 0.014324 -0.001508 -0.012989 0.000000 0.000000 0.000000
# 2 -0.001508 0.025888 0.001192 0.000000 0.000000 0.000000
# 3 -0.012989 0.001192 0.017083 0.000000 0.000000 0.000000
# 4 0.000000 0.000000 0.000000 0.041627 0.000000 0.000000
# 5 0.000000 0.000000 0.000000 0.000000 0.027170 0.000000
# 6 0.000000 0.000000 0.000000 0.000000 0.000000 0.160486
#
#
# Mechanical properties :
#
#
# Convention : Reuss Voigt Hill
#
# Bulk Modulus (GPa) = 32.58666 89.78917 61.18792
# Shear Modulus (GPa) = 15.45995 31.76301 23.61148
#
# Velocity S-wave (km/s) = 2.74161 3.92973 3.38816
# Velocity P-wave (km/s) = 5.08578 8.01529 6.71230
#
# Compressibility (1/GPa) = 0.03068740
#
# Stress axis : x y z
#
# Youngs Moduli (GPa) = 69.81276 38.62757 58.53674
#
# Poissons Ratio (x) = 0.05823 0.76031
# Poissons Ratio (y) = 0.10525 -0.06978
# Poissons Ratio (z) = 0.90676 -0.04604
#
# Static dielectric constant tensor:
#      x y z
#    x 1.698440 0.000000 0.000000 
#    y 0.000000 1.796780 0.000000 
#    z 0.000000 0.000000 1.708850 
# 
# From -- ./inp_files/19745.got.cif
#   From: 2010.05.17/outbox.cif.g08.bks.cpg/sg62_10_cif.got.tgz:19745.got - 2010.06.03 15:25:27.
