data_PCOD9463881
_publ_section_title
;
Structure prediction by ZEFSAII (Michael W. Deem and Ramdas Pophale) SiO2 
 PCOD9463881
Probable space group: P N M A
;
_chemical_formula_sum "Si O2"
_cell_formula_units_Z 44
_cell_length_a 8.036292
_cell_length_b 7.710572
_cell_length_c 27.796973
_cell_angle_alpha 90.000000
_cell_angle_beta 90.000000
_cell_angle_gamma 90.000000
_cell_volume 1722.422978
_symmetry_space_group_name_H-M "P N M A"
_symmetry_group_IT_number 62
_symmetry_cell_setting 'orthorhombic'
loop_
_space_group_symop_operation_xyz
x,y,z
1/2-x,-y,1/2+z
1/2+x,1/2-y,1/2-z
-x,1/2+y,-z
-x,-y,-z
1/2+x,y,1/2-z
1/2-x,1/2+y,1/2+z
x,1/2-y,z
loop_
_atom_site_type_symbol
_atom_site_label
_atom_site_fract_x
_atom_site_fract_y
_atom_site_fract_z
Si Si1 0.838345 0.537773 0.267308
Si Si2 0.192355 0.944923 0.512732
Si Si3 0.156467 0.558090 0.917484
Si Si4 0.207556 0.250000 0.583432
Si Si5 0.517623 0.958894 0.324027
Si Si6 0.945467 0.442691 0.647901
O O1 0.833282 0.750000 0.267225
O O2 0.869862 0.488006 0.212346
O O3 0.679466 0.473778 0.296367
O O4 0.995887 0.491680 0.300605
O O5 0.188832 0.750000 0.532626
O O6 0.297279 0.943896 0.463214
O O7 0.261148 0.095585 0.546249
O O8 0.000000 0.000000 0.500000
O O9 0.123318 0.750000 0.935340
O O10 0.017131 0.508869 0.878533
O O11 0.323315 0.551511 0.884679
O O12 0.112304 0.397365 0.617938
O O13 0.534257 0.750000 0.325450
O O14 0.863228 0.250000 0.653972
#
# Coordination Sequence:
#
# PCOD9463881 Si02
#       6
#     8   8   8   4   8   8
#     4   9  18  36  61  87 114 149 196 248 303 372
#     4  12  19  32  54  86 122 162 204 258 305 353
#     4  12  22  34  53  85 120 159 205 256 302 355
#     4  10  20  32  56  90 126 154 206 254 302 364
#     4  10  20  35  59  86 112 150 198 247 302 369
#     4   9  18  34  57  86 116 153 193 247 303 359
#
# _framework density 25.54541
#
# number of rings (size 3 to 8) (size 9 to 14) (size 15 to 20)
#    0.545    1.091    3.636    2.727    0.000    2.909 
#    0.000    4.545    0.000    1.091    0.000    0.000 
#    0.000    0.000    0.000    0.000    0.000    0.000 
#
# Total GULP energy -245027.442651 kJ/mol
# GULP energy per Si atom -5568.805515 kJ/mol
# Density = 2.548727 g / cm^3
# Si number density = 25.545410 Si / 1000 Ang^3
#
#
#
# Elastic Constant Matrix: (Units=GPa)
#
#
# Indices 1 2 3 4 5 6 
#
# 1 83.3498 5.1837 21.8476 0.0000 0.0000 0.0000
# 2 5.1837 119.0500 23.4437 0.0000 0.0000 0.0000
# 3 21.8476 23.4437 108.2763 0.0000 0.0000 0.0000
# 4 0.0000 0.0000 0.0000 13.5605 0.0000 0.0000
# 5 0.0000 0.0000 0.0000 0.0000 29.8798 0.0000
# 6 0.0000 0.0000 0.0000 0.0000 0.0000 -9.5009
#
#
#
# Elastic Compliance Matrix: (Units=1/GPa)
#
#
# Indices 1 2 3 4 5 6 
#
# 1 0.012668 -0.000050 -0.002545 0.000000 0.000000 0.000000
# 2 -0.000050 0.008774 -0.001890 0.000000 0.000000 0.000000
# 3 -0.002545 -0.001890 0.010158 0.000000 0.000000 0.000000
# 4 0.000000 0.000000 0.000000 0.073744 0.000000 0.000000
# 5 0.000000 0.000000 0.000000 0.000000 0.033467 0.000000
# 6 0.000000 0.000000 0.000000 0.000000 0.000000 -0.105253
#
#
# Mechanical properties :
#
#
# Convention : Reuss Voigt Hill
#
# Bulk Modulus (GPa) = 44.18902 45.73624 44.96263
# Shear Modulus (GPa) = 99.85542 24.13462 61.99502
#
# Velocity S-wave (km/s) = 6.25893 3.07705 4.93166
# Velocity P-wave (km/s) = 8.34075 5.52875 7.07585
#
# Compressibility (1/GPa) = 0.02263005
#
# Stress axis : x y z
#
# Youngs Moduli (GPa) = 78.93972 113.97147 98.44155
#
# Poissons Ratio (x) = 0.00574 0.25055
# Poissons Ratio (y) = 0.00398 0.18601
# Poissons Ratio (z) = 0.20091 0.21536
#
# Static dielectric constant tensor:
#      x y z
#    x 2.159980 0.000000 0.000000 
#    y 0.000000 1.943200 0.000000 
#    z 0.000000 0.000000 2.029260 
# 
# From -- ./inp_files/31830.got.cif
#   From: 2010.05.17/outbox.cif.g08.bks.cpg/sg62_16_cif.got.tgz:31830.got - 2010.06.03 15:25:27.
