data_PCOD9463739
_publ_section_title
;
Structure prediction by ZEFSAII (Michael W. Deem and Ramdas Pophale) SiO2 
 PCOD9463739
Probable space group: P N M A
;
_chemical_formula_sum "Si O2"
_cell_formula_units_Z 44
_cell_length_a 19.613409
_cell_length_b 16.715801
_cell_length_c 5.056053
_cell_angle_alpha 90.000000
_cell_angle_beta 90.000000
_cell_angle_gamma 90.000000
_cell_volume 1657.646400
_symmetry_space_group_name_H-M "P N M A"
_symmetry_group_IT_number 62
_symmetry_cell_setting 'orthorhombic'
loop_
_space_group_symop_operation_xyz
x,y,z
1/2-x,-y,1/2+z
1/2+x,1/2-y,1/2-z
-x,1/2+y,-z
-x,-y,-z
1/2+x,y,1/2-z
1/2-x,1/2+y,1/2+z
x,1/2-y,z
loop_
_atom_site_type_symbol
_atom_site_label
_atom_site_fract_x
_atom_site_fract_y
_atom_site_fract_z
Si Si1 0.896320 0.839237 0.901438
Si Si2 0.448012 0.250000 0.592368
Si Si3 0.968927 0.364011 0.402266
Si Si4 0.924698 0.500713 0.115837
Si Si5 0.246637 0.389974 0.291968
Si Si6 0.312694 0.069464 0.778436
O O1 0.918180 0.750000 0.994843
O O2 0.045399 0.819275 0.326865
O O3 0.820057 0.842004 0.794194
O O4 0.901198 0.907389 0.123907
O O5 0.441518 0.181793 0.356992
O O6 0.049596 0.362503 0.326955
O O7 0.000000 0.500000 0.000000
O O8 0.934745 0.451672 0.385254
O O9 0.874047 0.459195 0.909826
O O10 0.224030 0.483211 0.322780
O O11 0.303639 0.388419 0.062868
O O12 0.273740 0.369575 0.580286
#
# Coordination Sequence:
#
# PCOD9463739 Si02
#       6
#     8   4   8   8   8   8
#     4  10  19  39  65  93 133 164 219 276 324 382
#     4  10  20  38  62  86 122 172 200 268 336 374
#     4  10  21  39  63  93 125 165 214 266 336 387
#     4   9  20  38  67 101 127 174 221 263 323 399
#     4   9  19  34  59  85 112 164 198 249 314 365
#     4   9  18  37  58  84 120 152 205 253 303 369
#
# _framework density 26.543655999999999
#
# number of rings (size 3 to 8) (size 9 to 14) (size 15 to 20)
#    0.000    2.545    1.818    0.000    0.000    2.909 
#    0.000   21.818   12.000    0.000    0.000    0.000 
#    0.000    0.000    0.000    0.000    0.000    0.000 
#
# Total GULP energy -245107.759286 kJ/mol
# GULP energy per Si atom -5570.630893 kJ/mol
# Density = 2.648324 g / cm^3
# Si number density = 26.543656 Si / 1000 Ang^3
#
#
#
# Elastic Constant Matrix: (Units=GPa)
#
#
# Indices 1 2 3 4 5 6 
#
# 1 67.6055 29.0149 9.9237 0.0000 0.0000 0.0000
# 2 29.0149 117.2939 50.2546 0.0000 0.0000 0.0000
# 3 9.9237 50.2546 190.2717 0.0000 0.0000 0.0000
# 4 0.0000 0.0000 0.0000 35.7996 0.0000 0.0000
# 5 0.0000 0.0000 0.0000 0.0000 9.9160 0.0000
# 6 0.0000 0.0000 0.0000 0.0000 0.0000 -4.5275
#
#
#
# Elastic Compliance Matrix: (Units=1/GPa)
#
#
# Indices 1 2 3 4 5 6 
#
# 1 0.016559 -0.004202 0.000246 0.000000 0.000000 0.000000
# 2 -0.004202 0.010680 -0.002602 0.000000 0.000000 0.000000
# 3 0.000246 -0.002602 0.005930 0.000000 0.000000 0.000000
# 4 0.000000 0.000000 0.000000 0.027933 0.000000 0.000000
# 5 0.000000 0.000000 0.000000 0.000000 0.100847 0.000000
# 6 0.000000 0.000000 0.000000 0.000000 0.000000 -0.220874
#
#
# Mechanical properties :
#
#
# Convention : Reuss Voigt Hill
#
# Bulk Modulus (GPa) = 49.86483 61.50641 55.68562
# Shear Modulus (GPa) = -127.79117 27.30281 -50.24418
#
# Velocity S-wave (km/s) = -6.94610 3.21066 -4.35545
# Velocity P-wave (km/s) = 6.74569 6.08001 2.06613
#
# Compressibility (1/GPa) = 0.02005422
#
# Stress axis : x y z
#
# Youngs Moduli (GPa) = 60.39084 93.63672 168.63600
#
# Poissons Ratio (x) = 0.39342 -0.04150
# Poissons Ratio (y) = 0.25374 0.43872
# Poissons Ratio (z) = -0.01486 0.24360
#
# Static dielectric constant tensor:
#      x y z
#    x 2.472070 0.000000 0.000000 
#    y 0.000000 2.155360 0.000000 
#    z 0.000000 0.000000 2.016730 
# 
# From -- ./inp_files/3136.got.cif
#   From: 2010.05.17/outbox.cif.g08.bks.cpg/sg62_2_cif.got.tgz:3136.got - 2010.06.03 15:25:27.
