data_PCOD9463811
_publ_section_title
;
Structure prediction by ZEFSAII (Michael W. Deem and Ramdas Pophale) SiO2 
 PCOD9463811
Probable space group: P N M A
;
_chemical_formula_sum "Si O2"
_cell_formula_units_Z 64
_cell_length_a 13.734339
_cell_length_b 19.692094
_cell_length_c 12.995591
_cell_angle_alpha 90.000000
_cell_angle_beta 90.000000
_cell_angle_gamma 90.000000
_cell_volume 3514.760181
_symmetry_space_group_name_H-M "P N M A"
_symmetry_group_IT_number 62
_symmetry_cell_setting 'orthorhombic'
loop_
_space_group_symop_operation_xyz
x,y,z
1/2-x,-y,1/2+z
1/2+x,1/2-y,1/2-z
-x,1/2+y,-z
-x,-y,-z
1/2+x,y,1/2-z
1/2-x,1/2+y,1/2+z
x,1/2-y,z
loop_
_atom_site_type_symbol
_atom_site_label
_atom_site_fract_x
_atom_site_fract_y
_atom_site_fract_z
Si Si1 0.007607 0.062421 0.358015
Si Si2 0.487890 0.670026 0.032902
Si Si3 0.999890 0.903264 0.089139
Si Si4 0.387704 0.174627 0.759606
Si Si5 0.798884 0.886255 0.169849
Si Si6 0.225813 0.480773 0.416210
Si Si7 0.857476 0.559455 0.385593
Si Si8 0.437526 0.440494 0.369363
O O1 0.981808 0.123970 0.435531
O O2 0.121963 0.044107 0.372353
O O3 0.980659 0.080428 0.240673
O O4 0.945288 0.995272 0.388173
O O5 0.478572 0.750000 0.009714
O O6 0.556572 0.662654 0.132811
O O7 0.390195 0.632497 0.071125
O O8 0.898295 0.865137 0.114845
O O9 0.078347 0.877581 0.172140
O O10 0.975782 0.982464 0.110990
O O11 0.030663 0.898441 0.970336
O O12 0.412786 0.250000 0.723195
O O13 0.274566 0.169081 0.787630
O O14 0.828103 0.930235 0.269432
O O15 0.739420 0.939200 0.100374
O O16 0.224713 0.467104 0.538142
O O17 0.320015 0.444225 0.368578
#
# Coordination Sequence:
#
# PCOD9463811 Si02
#       8
#     8   8   8   8   8   8   8   8
#     4  11  20  37  58  86 118 152 195 244 298 356
#     4  10  21  37  58  80 112 152 197 249 289 338
#     4  10  20  37  56  82 120 150 186 242 300 355
#     4  11  22  37  56  81 115 153 199 244 290 356
#     4  11  20  33  54  87 112 148 190 241 299 352
#     4  10  20  31  56  85 113 144 188 239 288 351
#     4  11  19  35  58  84 116 148 195 245 296 353
#     4  10  20  37  56  88 118 149 186 243 301 355
#
# _framework density 18.208922999999999
#
# number of rings (size 3 to 8) (size 9 to 14) (size 15 to 20)
#    0.000    1.500    3.750    4.500    0.000    3.000 
#    2.250    0.625    0.000    3.000    0.000    0.000 
#    0.000    0.000    0.000    0.000    0.000    0.000 
#
# Total GULP energy -356876.080843 kJ/mol
# GULP energy per Si atom -5576.188763 kJ/mol
# Density = 1.816748 g / cm^3
# Si number density = 18.208923 Si / 1000 Ang^3
#
#
#
# Elastic Constant Matrix: (Units=GPa)
#
#
# Indices 1 2 3 4 5 6 
#
# 1 52.8358 14.8636 18.1840 0.0000 0.0000 0.0000
# 2 14.8636 64.4500 23.0498 0.0000 0.0000 0.0000
# 3 18.1840 23.0498 104.1150 0.0000 0.0000 0.0000
# 4 0.0000 0.0000 0.0000 11.4239 0.0000 0.0000
# 5 0.0000 0.0000 0.0000 0.0000 28.7717 0.0000
# 6 0.0000 0.0000 0.0000 0.0000 0.0000 10.7829
#
#
#
# Elastic Compliance Matrix: (Units=1/GPa)
#
#
# Indices 1 2 3 4 5 6 
#
# 1 0.020973 -0.003830 -0.002815 0.000000 0.000000 0.000000
# 2 -0.003830 0.017549 -0.003216 0.000000 0.000000 0.000000
# 3 -0.002815 -0.003216 0.010808 0.000000 0.000000 0.000000
# 4 0.000000 0.000000 0.000000 0.087535 0.000000 0.000000
# 5 0.000000 0.000000 0.000000 0.000000 0.034756 0.000000
# 6 0.000000 0.000000 0.000000 0.000000 0.000000 0.092740
#
#
# Mechanical properties :
#
#
# Convention : Reuss Voigt Hill
#
# Bulk Modulus (GPa) = 33.77467 37.06619 35.42043
# Shear Modulus (GPa) = 17.00945 21.21592 19.11269
#
# Velocity S-wave (km/s) = 3.05966 3.41712 3.24332
# Velocity P-wave (km/s) = 5.57411 5.99743 5.78964
#
# Compressibility (1/GPa) = 0.02960799
#
# Stress axis : x y z
#
# Youngs Moduli (GPa) = 47.68073 56.98181 92.51997
#
# Poissons Ratio (x) = 0.21824 0.26045
# Poissons Ratio (y) = 0.18262 0.29757
# Poissons Ratio (z) = 0.13422 0.18327
#
# Static dielectric constant tensor:
#      x y z
#    x 1.666770 0.000000 0.000000 
#    y 0.000000 1.624180 0.000000 
#    z 0.000000 0.000000 1.639760 
# 
# From -- ./inp_files/13567.got.cif
#   From: 2010.05.17/outbox.cif.g08.bks.cpg/sg62_7_cif.got.tgz:13567.got - 2010.06.03 15:25:27.
