data_PCOD9463492
_publ_section_title
;
Structure prediction by ZEFSAII (Michael W. Deem and Ramdas Pophale) SiO2 
 PCOD9463492
Probable space group: P N M A
;
_chemical_formula_sum "Si O2"
_cell_formula_units_Z 56
_cell_length_a 15.005733
_cell_length_b 7.408446
_cell_length_c 21.716248
_cell_angle_alpha 90.000000
_cell_angle_beta 90.000000
_cell_angle_gamma 90.000000
_cell_volume 2414.177105
_symmetry_space_group_name_H-M "P N M A"
_symmetry_group_IT_number 62
_symmetry_cell_setting 'orthorhombic'
loop_
_space_group_symop_operation_xyz
x,y,z
1/2-x,-y,1/2+z
1/2+x,1/2-y,1/2-z
-x,1/2+y,-z
-x,-y,-z
1/2+x,y,1/2-z
1/2-x,1/2+y,1/2+z
x,1/2-y,z
loop_
_atom_site_type_symbol
_atom_site_label
_atom_site_fract_x
_atom_site_fract_y
_atom_site_fract_z
Si Si1 0.497760 0.456091 0.727350
Si Si2 0.064336 0.467531 0.355162
Si Si3 0.426086 0.464936 0.051588
Si Si4 0.268186 0.533542 0.517298
Si Si5 0.695219 0.029092 0.750963
Si Si6 0.756467 0.956859 0.114564
Si Si7 0.658449 0.533545 0.350695
O O1 0.517931 0.250000 0.709589
O O2 0.433251 0.460743 0.786320
O O3 0.591946 0.532643 0.750427
O O4 0.436629 0.537689 0.673956
O O5 0.067039 0.250000 0.354810
O O6 0.149467 0.535746 0.392541
O O7 0.972873 0.531744 0.386378
O O8 0.416024 0.250000 0.057997
O O9 0.329861 0.539270 0.035191
O O10 0.500000 0.500000 0.000000
O O11 0.261159 0.750000 0.509716
O O12 0.294639 0.464706 0.449187
O O13 0.326929 0.501665 0.577436
O O14 0.697686 0.250000 0.753922
O O15 0.727174 0.967578 0.682808
O O16 0.759367 0.967825 0.807004
O O17 0.787144 0.750000 0.118814
O O18 0.656169 0.750000 0.342638
#
# Coordination Sequence:
#
# PCOD9463492 Si02
#       7
#     8   8   8   8   8   8   8
#     4  10  20  36  58  80 105 140 185 230 273 322
#     4  11  21  32  51  81 112 140 175 224 276 326
#     4  10  20  32  48  75 108 141 177 214 266 327
#     4  10  21  35  53  77 110 149 179 220 273 324
#     4   9  18  35  59  83 103 137 190 233 264 316
#     4  10  19  36  58  78 107 146 188 221 266 329
#     4  10  20  35  56  81 108 141 181 227 273 323
#
# _framework density 23.19631
#
# number of rings (size 3 to 8) (size 9 to 14) (size 15 to 20)
#    0.000    2.000    2.857    1.286    0.000    2.286 
#    0.000    1.429    0.000    0.000    0.000    0.000 
#    0.000    0.000    0.000    0.000    0.000    0.000 
#
# Total GULP energy -312507.808634 kJ/mol
# GULP energy per Si atom -5580.496583 kJ/mol
# Density = 2.314351 g / cm^3
# Si number density = 23.196310 Si / 1000 Ang^3
#
#
#
# Elastic Constant Matrix: (Units=GPa)
#
#
# Indices 1 2 3 4 5 6 
#
# 1 46.7078 -1.4216 8.1631 0.0000 0.0000 0.0000
# 2 -1.4216 84.0228 -3.0521 0.0000 0.0000 0.0000
# 3 8.1631 -3.0521 117.7882 0.0000 0.0000 0.0000
# 4 0.0000 0.0000 0.0000 17.6666 0.0000 0.0000
# 5 0.0000 0.0000 0.0000 0.0000 36.6184 0.0000
# 6 0.0000 0.0000 0.0000 0.0000 0.0000 -12.9485
#
#
#
# Elastic Compliance Matrix: (Units=1/GPa)
#
#
# Indices 1 2 3 4 5 6 
#
# 1 0.021680 0.000313 -0.001494 0.000000 0.000000 0.000000
# 2 0.000313 0.011917 0.000287 0.000000 0.000000 0.000000
# 3 -0.001494 0.000287 0.008601 0.000000 0.000000 0.000000
# 4 0.000000 0.000000 0.000000 0.056604 0.000000 0.000000
# 5 0.000000 0.000000 0.000000 0.000000 0.027309 0.000000
# 6 0.000000 0.000000 0.000000 0.000000 0.000000 -0.077229
#
#
# Mechanical properties :
#
#
# Convention : Reuss Voigt Hill
#
# Bulk Modulus (GPa) = 24.74698 28.43306 26.59002
# Shear Modulus (GPa) = 77.95291 24.58926 51.27108
#
# Velocity S-wave (km/s) = 5.80333 3.25937 4.70650
# Velocity P-wave (km/s) = 7.45631 5.14285 6.40490
#
# Compressibility (1/GPa) = 0.04040897
#
# Stress axis : x y z
#
# Youngs Moduli (GPa) = 46.12465 83.91193 116.26790
#
# Poissons Ratio (x) = -0.02623 0.17375
# Poissons Ratio (y) = -0.01442 -0.03338
# Poissons Ratio (z) = 0.06893 -0.02409
#
# Static dielectric constant tensor:
#      x y z
#    x 1.892160 0.000000 0.000000 
#    y 0.000000 1.887510 0.000000 
#    z 0.000000 0.000000 1.910800 
# 
# From -- ./inp_files/27070.got.cif
#   From: 2010.05.17/outbox.cif.g08.bks.cpg/sg62_14_cif.got.tgz:27070.got - 2010.06.03 15:25:27.
