data_PCOD9463291
_publ_section_title
;
Structure prediction by ZEFSAII (Michael W. Deem and Ramdas Pophale) SiO2 
 PCOD9463291
Probable space group: P N M A
;
_chemical_formula_sum "Si O2"
_cell_formula_units_Z 64
_cell_length_a 27.197207
_cell_length_b 7.601716
_cell_length_c 13.171643
_cell_angle_alpha 90.000000
_cell_angle_beta 90.000000
_cell_angle_gamma 90.000000
_cell_volume 2723.177175
_symmetry_space_group_name_H-M "P N M A"
_symmetry_group_IT_number 62
_symmetry_cell_setting 'orthorhombic'
loop_
_space_group_symop_operation_xyz
x,y,z
1/2-x,-y,1/2+z
1/2+x,1/2-y,1/2-z
-x,1/2+y,-z
-x,-y,-z
1/2+x,y,1/2-z
1/2-x,1/2+y,1/2+z
x,1/2-y,z
loop_
_atom_site_type_symbol
_atom_site_label
_atom_site_fract_x
_atom_site_fract_y
_atom_site_fract_z
Si Si1 0.553838 0.537202 0.323379
Si Si2 0.365296 0.043383 0.835074
Si Si3 0.599477 0.458201 0.529186
Si Si4 0.244996 0.541043 0.348169
Si Si5 0.200784 0.041946 0.055307
Si Si6 0.554565 0.465938 0.740989
Si Si7 0.389997 0.550079 0.060716
Si Si8 0.290566 0.046818 0.162273
O O1 0.554712 0.750000 0.323308
O O2 0.598695 0.472058 0.252215
O O3 0.559600 0.478925 0.439893
O O4 0.501973 0.483472 0.275395
O O5 0.359733 0.250000 0.813485
O O6 0.310161 0.966657 0.836534
O O7 0.387775 0.030051 0.948419
O O8 0.608387 0.250000 0.544785
O O9 0.649006 0.534961 0.478381
O O10 0.583455 0.525778 0.639435
O O11 0.245448 0.750000 0.331056
O O12 0.261297 0.520093 0.463649
O O13 0.289715 0.461679 0.283054
O O14 0.192433 0.250000 0.076407
O O15 0.235303 0.972105 0.144500
O O16 0.557179 0.250000 0.742676
O O17 0.577147 0.528349 0.847955
O O18 0.406252 0.750000 0.045586
O O19 0.335047 0.546877 0.107775
O O20 0.292996 0.250000 0.128801
#
# Coordination Sequence:
#
# PCOD9463291 Si02
#       8
#     8   8   8   8   8   8   8   8
#     4  10  21  38  59  84 115 150 189 242 300 347
#     4  10  21  38  59  83 118 156 191 240 296 340
#     4  10  19  35  59  84 112 149 192 237 286 349
#     4  10  19  35  55  77 110 152 188 220 275 344
#     4   9  18  33  53  75 108 148 181 215 272 336
#     4   9  20  38  59  83 113 152 194 238 297 352
#     4  11  22  38  60  83 113 155 200 238 282 350
#     4  11  21  35  54  81 114 146 185 235 284 330
#
# _framework density 23.501961999999999
#
# number of rings (size 3 to 8) (size 9 to 14) (size 15 to 20)
#    0.000    2.000    1.250    2.625    0.000    3.500 
#    0.000    5.000    0.000    0.000    0.000    0.000 
#    0.000    0.000    0.000    0.000    0.000    0.000 
#
# Total GULP energy -357276.355803 kJ/mol
# GULP energy per Si atom -5582.443059 kJ/mol
# Density = 2.344847 g / cm^3
# Si number density = 23.501962 Si / 1000 Ang^3
#
#
#
# Elastic Constant Matrix: (Units=GPa)
#
#
# Indices 1 2 3 4 5 6 
#
# 1 71.4396 3.6180 1.7261 0.0000 0.0000 0.0000
# 2 3.6180 40.3472 -3.6382 0.0000 0.0000 0.0000
# 3 1.7261 -3.6382 72.1297 0.0000 0.0000 0.0000
# 4 0.0000 0.0000 0.0000 -23.0788 0.0000 0.0000
# 5 0.0000 0.0000 0.0000 0.0000 34.7274 0.0000
# 6 0.0000 0.0000 0.0000 0.0000 0.0000 8.3365
#
#
#
# Elastic Compliance Matrix: (Units=1/GPa)
#
#
# Indices 1 2 3 4 5 6 
#
# 1 0.014073 -0.001298 -0.000402 0.000000 0.000000 0.000000
# 2 -0.001298 0.025018 0.001293 0.000000 0.000000 0.000000
# 3 -0.000402 0.001293 0.013939 0.000000 0.000000 0.000000
# 4 0.000000 0.000000 0.000000 -0.043330 0.000000 0.000000
# 5 0.000000 0.000000 0.000000 0.000000 0.028796 0.000000
# 6 0.000000 0.000000 0.000000 0.000000 0.000000 0.119955
#
#
# Mechanical properties :
#
#
# Convention : Reuss Voigt Hill
#
# Bulk Modulus (GPa) = 19.15167 20.81428 19.98298
# Shear Modulus (GPa) = 28.30123 16.14439 22.22281
#
# Velocity S-wave (km/s) = 3.47393 2.62379 3.07835
# Velocity P-wave (km/s) = 4.92520 4.24908 4.59958
#
# Compressibility (1/GPa) = 0.05221476
#
# Stress axis : x y z
#
# Youngs Moduli (GPa) = 71.05648 39.97145 71.74245
#
# Poissons Ratio (x) = 0.05189 0.02886
# Poissons Ratio (y) = 0.09225 -0.09276
# Poissons Ratio (z) = 0.02858 -0.05168
#
# Static dielectric constant tensor:
#      x y z
#    x 1.910340 0.000000 0.000000 
#    y 0.000000 1.889460 0.000000 
#    z 0.000000 0.000000 1.869620 
# 
# From -- ./inp_files/15911.got.cif
#   From: 2010.05.17/outbox.cif.g08.bks.cpg/sg62_8_cif.got.tgz:15911.got - 2010.06.03 15:25:27.
