data_PCOD9463676
_publ_section_title
;
Structure prediction by ZEFSAII (Michael W. Deem and Ramdas Pophale) SiO2 
 PCOD9463676
Probable space group: P N M A
;
_chemical_formula_sum "Si O2"
_cell_formula_units_Z 40
_cell_length_a 8.512091
_cell_length_b 12.864792
_cell_length_c 15.027739
_cell_angle_alpha 90.000000
_cell_angle_beta 90.000000
_cell_angle_gamma 90.000000
_cell_volume 1645.631798
_symmetry_space_group_name_H-M "P N M A"
_symmetry_group_IT_number 62
_symmetry_cell_setting 'orthorhombic'
loop_
_space_group_symop_operation_xyz
x,y,z
1/2-x,-y,1/2+z
1/2+x,1/2-y,1/2-z
-x,1/2+y,-z
-x,-y,-z
1/2+x,y,1/2-z
1/2-x,1/2+y,1/2+z
x,1/2-y,z
loop_
_atom_site_type_symbol
_atom_site_label
_atom_site_fract_x
_atom_site_fract_y
_atom_site_fract_z
Si Si1 0.585765 0.418076 0.372282
Si Si2 0.544988 0.636627 0.147757
Si Si3 0.432108 0.418055 0.202403
Si Si4 0.647231 0.136042 0.037252
Si Si5 0.353183 0.571585 0.435301
O O1 0.465711 0.372714 0.299797
O O2 0.751364 0.415474 0.323000
O O3 0.515589 0.532717 0.393689
O O4 0.614464 0.373579 0.470684
O O5 0.506166 0.750000 0.184769
O O6 0.487876 0.538153 0.202605
O O7 0.730822 0.628685 0.127934
O O8 0.459614 0.625865 0.051221
O O9 0.534133 0.368758 0.123286
O O10 0.723944 0.250000 0.033654
O O11 0.761384 0.037576 0.043427
#
# Coordination Sequence:
#
# PCOD9463676 Si02
#       5
#     8   8   8   8   8
#     4  11  22  37  63  83 119 159 192 244 293 344
#     4  10  19  37  64  87 115 153 190 236 292 348
#     4  11  20  39  57  88 119 152 196 244 292 338
#     4  10  19  37  64  87 115 153 190 236 292 348
#     4  10  20  41  60  87 118 154 197 237 292 348
#
# _framework density 24.306774000000001
#
# number of rings (size 3 to 8) (size 9 to 14) (size 15 to 20)
#    0.000    1.600    4.000    3.600    0.000    0.000 
#    0.000   16.000    0.000    0.000    0.000    0.000 
#    0.000    0.000    0.000    0.000    0.000    0.000 
#
# Total GULP energy -223652.663708 kJ/mol
# GULP energy per Si atom -5591.316593 kJ/mol
# Density = 2.425145 g / cm^3
# Si number density = 24.306774 Si / 1000 Ang^3
#
#
#
# Elastic Constant Matrix: (Units=GPa)
#
#
# Indices 1 2 3 4 5 6 
#
# 1 93.3202 -4.8907 28.3980 0.0000 0.0000 0.0000
# 2 -4.8907 126.9942 -2.0504 0.0000 0.0000 0.0000
# 3 28.3980 -2.0504 105.9783 0.0000 0.0000 0.0000
# 4 0.0000 0.0000 0.0000 2.0162 0.0000 0.0000
# 5 0.0000 0.0000 0.0000 0.0000 45.3897 0.0000
# 6 0.0000 0.0000 0.0000 0.0000 0.0000 5.5350
#
#
#
# Elastic Compliance Matrix: (Units=1/GPa)
#
#
# Indices 1 2 3 4 5 6 
#
# 1 0.011687 0.000400 -0.003124 0.000000 0.000000 0.000000
# 2 0.000400 0.007891 0.000046 0.000000 0.000000 0.000000
# 3 -0.003124 0.000046 0.010274 0.000000 0.000000 0.000000
# 4 0.000000 0.000000 0.000000 0.495974 0.000000 0.000000
# 5 0.000000 0.000000 0.000000 0.000000 0.022031 0.000000
# 6 0.000000 0.000000 0.000000 0.000000 0.000000 0.180669
#
#
# Mechanical properties :
#
#
# Convention : Reuss Voigt Hill
#
# Bulk Modulus (GPa) = 40.82601 41.02294 40.92447
# Shear Modulus (GPa) = 6.73811 30.91058 18.82434
#
# Velocity S-wave (km/s) = 1.66677 3.56994 2.78591
# Velocity P-wave (km/s) = 4.53175 5.82292 5.21743
#
# Compressibility (1/GPa) = 0.02449419
#
# Stress axis : x y z
#
# Youngs Moduli (GPa) = 85.56220 126.73465 97.33409
#
# Poissons Ratio (x) = -0.05065 0.30407
# Poissons Ratio (y) = -0.03420 -0.00444
# Poissons Ratio (z) = 0.26730 -0.00578
#
# Static dielectric constant tensor:
#      x y z
#    x 1.935360 0.000000 0.000000 
#    y 0.000000 1.959580 0.000000 
#    z 0.000000 0.000000 1.952000 
# 
# From -- ./inp_files/6120.got.cif
#   From: 2010.05.17/outbox.cif.g08.bks.cpg/sg62_4_cif.got.tgz:6120.got - 2010.06.03 15:25:27.
