data_PCOD9463690
_publ_section_title
;
Structure prediction by ZEFSAII (Michael W. Deem and Ramdas Pophale) SiO2 
 PCOD9463690
Probable space group: P N M A
;
_chemical_formula_sum "Si O2"
_cell_formula_units_Z 64
_cell_length_a 12.750381
_cell_length_b 13.901082
_cell_length_c 17.755207
_cell_angle_alpha 90.000000
_cell_angle_beta 90.000000
_cell_angle_gamma 90.000000
_cell_volume 3147.005540
_symmetry_space_group_name_H-M "P N M A"
_symmetry_group_IT_number 62
_symmetry_cell_setting 'orthorhombic'
loop_
_space_group_symop_operation_xyz
x,y,z
1/2-x,-y,1/2+z
1/2+x,1/2-y,1/2-z
-x,1/2+y,-z
-x,-y,-z
1/2+x,y,1/2-z
1/2-x,1/2+y,1/2+z
x,1/2-y,z
loop_
_atom_site_type_symbol
_atom_site_label
_atom_site_fract_x
_atom_site_fract_y
_atom_site_fract_z
Si Si1 0.752994 0.453281 0.818639
Si Si2 0.528858 0.365724 0.074041
Si Si3 0.911872 0.140449 0.713851
Si Si4 0.262347 0.864203 0.022212
Si Si5 0.129668 0.459157 0.972904
Si Si6 0.044323 0.544834 0.728358
Si Si7 0.535346 0.449558 0.377450
Si Si8 0.352436 0.362305 0.958364
O O1 0.801428 0.385791 0.753752
O O2 0.712480 0.394137 0.891354
O O3 0.665465 0.526454 0.789295
O O4 0.853867 0.512066 0.847160
O O5 0.522574 0.250000 0.079476
O O6 0.513647 0.409548 0.156560
O O7 0.638765 0.386134 0.032257
O O8 0.432779 0.400326 0.021246
O O9 0.940281 0.250000 0.732180
O O10 0.901966 0.129880 0.624159
O O11 0.996267 0.062044 0.739050
O O12 0.240795 0.750000 0.018699
O O13 0.166122 0.932352 0.997054
O O14 0.239134 0.409300 0.957377
O O15 0.049428 0.470820 0.904595
O O16 0.070321 0.406891 0.042061
O O17 0.019373 0.600413 0.806043
O O18 0.338333 0.250000 0.974672
#
# Coordination Sequence:
#
# PCOD9463690 Si02
#       8
#     8   8   8   8   8   8   8   8
#     4  10  20  35  57  80 111 146 178 223 283 340
#     4  10  21  36  55  83 114 146 192 239 272 318
#     4  10  21  34  52  83 115 141 178 227 276 335
#     4  10  20  34  56  83 111 147 185 222 273 331
#     4  10  19  38  58  76 109 144 179 227 275 324
#     4  11  21  36  57  80 110 148 184 224 281 334
#     4   9  21  37  56  82 107 138 184 229 271 330
#     4  10  20  35  56  81 109 145 185 223 272 329
#
# _framework density 20.336793
#
# number of rings (size 3 to 8) (size 9 to 14) (size 15 to 20)
#    0.000    2.000    0.000    4.125    0.000    4.500 
#    0.000   10.625    0.000    6.750    0.000    0.000 
#    0.000    0.000    0.000    0.000    0.000    0.000 
#
# Total GULP energy -356875.076504 kJ/mol
# GULP energy per Si atom -5576.173070 kJ/mol
# Density = 2.029051 g / cm^3
# Si number density = 20.336793 Si / 1000 Ang^3
#
#
#
# Elastic Constant Matrix: (Units=GPa)
#
#
# Indices 1 2 3 4 5 6 
#
# 1 99.3816 7.1037 19.9921 0.0000 0.0000 0.0000
# 2 7.1037 34.8775 0.1213 0.0000 0.0000 0.0000
# 3 19.9921 0.1213 86.2727 0.0000 0.0000 0.0000
# 4 0.0000 0.0000 0.0000 15.3419 0.0000 0.0000
# 5 0.0000 0.0000 0.0000 0.0000 33.3278 0.0000
# 6 0.0000 0.0000 0.0000 0.0000 0.0000 13.3139
#
#
#
# Elastic Compliance Matrix: (Units=1/GPa)
#
#
# Indices 1 2 3 4 5 6 
#
# 1 0.010717 -0.002174 -0.002480 0.000000 0.000000 0.000000
# 2 -0.002174 0.029113 0.000463 0.000000 0.000000 0.000000
# 3 -0.002480 0.000463 0.012165 0.000000 0.000000 0.000000
# 4 0.000000 0.000000 0.000000 0.065181 0.000000 0.000000
# 5 0.000000 0.000000 0.000000 0.000000 0.030005 0.000000
# 6 0.000000 0.000000 0.000000 0.000000 0.000000 0.075109
#
#
# Mechanical properties :
#
#
# Convention : Reuss Voigt Hill
#
# Bulk Modulus (GPa) = 22.92957 30.55178 26.74067
# Shear Modulus (GPa) = 20.39067 25.28438 22.83752
#
# Velocity S-wave (km/s) = 3.16990 3.52985 3.35470
# Velocity P-wave (km/s) = 4.96961 5.62749 5.30875
#
# Compressibility (1/GPa) = 0.04361181
#
# Stress axis : x y z
#
# Youngs Moduli (GPa) = 93.31331 34.34891 82.20127
#
# Poissons Ratio (x) = 0.07468 0.20389
# Poissons Ratio (y) = 0.20287 -0.03805
# Poissons Ratio (z) = 0.23145 -0.01590
#
# Static dielectric constant tensor:
#      x y z
#    x 1.711580 0.000000 0.000000 
#    y 0.000000 1.733860 0.000000 
#    z 0.000000 0.000000 1.775200 
# 
# From -- ./inp_files/23233.got.cif
#   From: 2010.05.17/outbox.cif.g08.bks.cpg/sg62_12_cif.got.tgz:23233.got - 2010.06.03 15:25:27.
