data_PCOD9463818
_publ_section_title
;
Structure prediction by ZEFSAII (Michael W. Deem and Ramdas Pophale) SiO2 
 PCOD9463818
Probable space group: P N M A
;
_chemical_formula_sum "Si O2"
_cell_formula_units_Z 64
_cell_length_a 19.611416
_cell_length_b 8.736642
_cell_length_c 23.952293
_cell_angle_alpha 90.000000
_cell_angle_beta 90.000000
_cell_angle_gamma 90.000000
_cell_volume 4103.936079
_symmetry_space_group_name_H-M "P N M A"
_symmetry_group_IT_number 62
_symmetry_cell_setting 'orthorhombic'
loop_
_space_group_symop_operation_xyz
x,y,z
1/2-x,-y,1/2+z
1/2+x,1/2-y,1/2-z
-x,1/2+y,-z
-x,-y,-z
1/2+x,y,1/2-z
1/2-x,1/2+y,1/2+z
x,1/2-y,z
loop_
_atom_site_type_symbol
_atom_site_label
_atom_site_fract_x
_atom_site_fract_y
_atom_site_fract_z
Si Si1 0.634835 0.936165 0.936499
Si Si2 0.133851 0.566712 0.776016
Si Si3 0.656643 0.932785 0.265956
Si Si4 0.766068 0.933534 0.658830
Si Si5 0.855040 0.066091 0.564198
Si Si6 0.992091 0.566024 0.618796
Si Si7 0.276088 0.065656 0.166949
Si Si8 0.504177 0.567636 0.243108
O O1 0.635325 0.750000 0.935820
O O2 0.559952 0.982087 0.914824
O O3 0.690965 0.985736 0.891219
O O4 0.648088 0.984892 0.999766
O O5 0.124262 0.750000 0.777116
O O6 0.189027 0.524849 0.823259
O O7 0.170744 0.529232 0.716963
O O8 0.061362 0.485833 0.777630
O O9 0.663112 0.750000 0.261392
O O10 0.576958 0.971797 0.270539
O O11 0.685920 0.006683 0.209068
O O12 0.704589 0.992654 0.315488
O O13 0.770801 0.750000 0.657326
O O14 0.793553 0.003545 0.601787
O O15 0.855351 0.250000 0.566162
O O16 0.924919 0.005113 0.591391
O O17 0.987322 0.750000 0.617464
O O18 0.998572 0.512059 0.682577
O O19 0.268783 0.250000 0.166572
O O20 0.502188 0.750000 0.234970
#
# Coordination Sequence:
#
# PCOD9463818 Si02
#       8
#     8   8   8   8   8   8   8   8
#     4   9  19  34  50  69  97 132 168 206 242 283
#     4   9  18  32  51  70  93 124 163 201 240 291
#     4  10  20  32  47  71 100 125 156 202 247 289
#     4  10  20  34  50  69  94 129 166 201 241 291
#     4  11  21  33  49  71  99 130 167 208 245 282
#     4  11  20  33  49  66  97 137 172 202 233 281
#     4   9  17  33  51  69  93 127 165 199 239 292
#     4  11  21  31  47  73 102 129 159 198 247 293
#
# _framework density 15.594784000000001
#
# number of rings (size 3 to 8) (size 9 to 14) (size 15 to 20)
#    0.000    2.000    2.500    3.000    0.000    4.000 
#    0.000    3.125    0.000    0.000    0.000    0.875 
#    0.000    0.000    0.000    0.000    0.000    0.000 
#
# Total GULP energy -357103.187295 kJ/mol
# GULP energy per Si atom -5579.737301 kJ/mol
# Density = 1.555929 g / cm^3
# Si number density = 15.594784 Si / 1000 Ang^3
#
#
#
# Elastic Constant Matrix: (Units=GPa)
#
#
# Indices 1 2 3 4 5 6 
#
# 1 117.0870 36.8514 49.1253 0.0000 0.0000 0.0000
# 2 36.8514 36.9168 19.6641 0.0000 0.0000 0.0000
# 3 49.1253 19.6641 76.7169 0.0000 0.0000 0.0000
# 4 0.0000 0.0000 0.0000 19.0904 0.0000 0.0000
# 5 0.0000 0.0000 0.0000 0.0000 19.2910 0.0000
# 6 0.0000 0.0000 0.0000 0.0000 0.0000 33.5690
#
#
#
# Elastic Compliance Matrix: (Units=1/GPa)
#
#
# Indices 1 2 3 4 5 6 
#
# 1 0.014888 -0.011331 -0.006629 0.000000 0.000000 0.000000
# 2 -0.011331 0.039994 -0.002996 0.000000 0.000000 0.000000
# 3 -0.006629 -0.002996 0.018048 0.000000 0.000000 0.000000
# 4 0.000000 0.000000 0.000000 0.052382 0.000000 0.000000
# 5 0.000000 0.000000 0.000000 0.000000 0.051838 0.000000
# 6 0.000000 0.000000 0.000000 0.000000 0.000000 0.029789
#
#
# Mechanical properties :
#
#
# Convention : Reuss Voigt Hill
#
# Bulk Modulus (GPa) = 32.23855 49.11141 40.67498
# Shear Modulus (GPa) = 19.29079 22.72874 21.00976
#
# Velocity S-wave (km/s) = 3.52092 3.82181 3.67445
# Velocity P-wave (km/s) = 6.10301 7.14391 6.64388
#
# Compressibility (1/GPa) = 0.03101876
#
# Stress axis : x y z
#
# Youngs Moduli (GPa) = 67.16708 25.00355 55.40817
#
# Poissons Ratio (x) = 0.28331 0.36732
# Poissons Ratio (y) = 0.76105 0.16599
# Poissons Ratio (z) = 0.44527 0.07491
#
# Static dielectric constant tensor:
#      x y z
#    x 1.521200 0.000000 0.000000 
#    y 0.000000 1.523570 0.000000 
#    z 0.000000 0.000000 1.503840 
# 
# From -- ./inp_files/30029.got.cif
#   From: 2010.05.17/outbox.cif.g08.bks.cpg/sg62_16_cif.got.tgz:30029.got - 2010.06.03 15:25:27.
