data_PCOD9463322
_publ_section_title
;
Structure prediction by ZEFSAII (Michael W. Deem and Ramdas Pophale) SiO2 
 PCOD9463322
Probable space group: P N M A
;
_chemical_formula_sum "Si O2"
_cell_formula_units_Z 48
_cell_length_a 15.463420
_cell_length_b 8.462280
_cell_length_c 20.433575
_cell_angle_alpha 90.000000
_cell_angle_beta 90.000000
_cell_angle_gamma 90.000000
_cell_volume 2673.851595
_symmetry_space_group_name_H-M "P N M A"
_symmetry_group_IT_number 62
_symmetry_cell_setting 'orthorhombic'
loop_
_space_group_symop_operation_xyz
x,y,z
1/2-x,-y,1/2+z
1/2+x,1/2-y,1/2-z
-x,1/2+y,-z
-x,-y,-z
1/2+x,y,1/2-z
1/2-x,1/2+y,1/2+z
x,1/2-y,z
loop_
_atom_site_type_symbol
_atom_site_label
_atom_site_fract_x
_atom_site_fract_y
_atom_site_fract_z
Si Si1 0.196930 0.441914 0.663641
Si Si2 0.434706 0.439138 0.944336
Si Si3 0.416990 0.938060 0.538500
Si Si4 0.111440 0.558404 0.184485
Si Si5 0.230273 0.439332 0.513542
Si Si6 0.991748 0.556720 0.303689
O O1 0.195870 0.250000 0.665049
O O2 0.288473 0.492340 0.694010
O O3 0.199236 0.487200 0.586891
O O4 0.108196 0.496217 0.696550
O O5 0.437280 0.250000 0.945205
O O6 0.466259 0.492015 0.872737
O O7 0.500000 0.500000 0.000000
O O8 0.338950 0.496213 0.962434
O O9 0.416742 0.750000 0.538809
O O10 0.500000 0.000000 0.500000
O O11 0.416799 0.000374 0.613055
O O12 0.327528 0.998621 0.506523
O O13 0.110594 0.750000 0.183343
O O14 0.048440 0.503991 0.242135
O O15 0.230953 0.250000 0.511493
O O16 0.991740 0.750000 0.302809
#
# Coordination Sequence:
#
# PCOD9463322 Si02
#       6
#     8   8   8   8   8   8
#     4   8  14  28  51  74 100 140 182 221 269 323
#     4  11  20  32  52  82 115 150 192 233 279 333
#     4  11  22  39  61  84 111 144 185 229 277 337
#     4   9  18  34  56  79 107 145 188 230 275 327
#     4  10  19  35  57  81 111 144 182 232 282 331
#     4   9  17  31  51  78 110 147 189 229 273 334
#
# _framework density 17.951630999999999
#
# number of rings (size 3 to 8) (size 9 to 14) (size 15 to 20)
#    0.000    2.333    1.667    3.500    0.000    0.000 
#    3.000    1.667    0.000    0.000    0.000    0.000 
#    0.000    0.000    0.000    0.000    0.000    0.000 
#
# Total GULP energy -267774.872368 kJ/mol
# GULP energy per Si atom -5578.643174 kJ/mol
# Density = 1.791077 g / cm^3
# Si number density = 17.951631 Si / 1000 Ang^3
#
#
#
# Elastic Constant Matrix: (Units=GPa)
#
#
# Indices 1 2 3 4 5 6 
#
# 1 201.9277 29.0515 103.9593 0.0000 0.0000 0.0000
# 2 29.0515 39.3788 20.9475 0.0000 0.0000 0.0000
# 3 103.9593 20.9475 98.2837 0.0000 0.0000 0.0000
# 4 0.0000 0.0000 0.0000 20.8088 0.0000 0.0000
# 5 0.0000 0.0000 0.0000 0.0000 35.5627 0.0000
# 6 0.0000 0.0000 0.0000 0.0000 0.0000 24.4075
#
#
#
# Elastic Compliance Matrix: (Units=1/GPa)
#
#
# Indices 1 2 3 4 5 6 
#
# 1 0.011037 -0.002179 -0.011210 0.000000 0.000000 0.000000
# 2 -0.002179 0.029072 -0.003891 0.000000 0.000000 0.000000
# 3 -0.011210 -0.003891 0.022861 0.000000 0.000000 0.000000
# 4 0.000000 0.000000 0.000000 0.048057 0.000000 0.000000
# 5 0.000000 0.000000 0.000000 0.000000 0.028119 0.000000
# 6 0.000000 0.000000 0.000000 0.000000 0.000000 0.040971
#
#
# Mechanical properties :
#
#
# Convention : Reuss Voigt Hill
#
# Bulk Modulus (GPa) = 35.19921 71.94520 53.57220
# Shear Modulus (GPa) = 22.30670 28.53124 25.41897
#
# Velocity S-wave (km/s) = 3.52888 3.99098 3.76702
# Velocity P-wave (km/s) = 6.02116 7.83591 6.98770
#
# Compressibility (1/GPa) = 0.02840973
#
# Stress axis : x y z
#
# Youngs Moduli (GPa) = 90.60362 34.39728 43.74223
#
# Poissons Ratio (x) = 0.07497 0.49035
# Poissons Ratio (y) = 0.19747 0.17020
# Poissons Ratio (z) = 1.01566 0.13384
#
# Static dielectric constant tensor:
#      x y z
#    x 1.620810 0.000000 0.000000 
#    y 0.000000 1.614410 0.000000 
#    z 0.000000 0.000000 1.588630 
# 
# From -- ./inp_files/26891.got.cif
#   From: 2010.05.17/outbox.cif.g08.bks.cpg/sg62_14_cif.got.tgz:26891.got - 2010.06.03 15:25:27.
