data_PCOD9463350
_publ_section_title
;
Structure prediction by ZEFSAII (Michael W. Deem and Ramdas Pophale) SiO2 
 PCOD9463350
Probable space group: P N M A
;
_chemical_formula_sum "Si O2"
_cell_formula_units_Z 48
_cell_length_a 19.728228
_cell_length_b 7.668015
_cell_length_c 15.502429
_cell_angle_alpha 90.000000
_cell_angle_beta 90.000000
_cell_angle_gamma 90.000000
_cell_volume 2345.150848
_symmetry_space_group_name_H-M "P N M A"
_symmetry_group_IT_number 62
_symmetry_cell_setting 'orthorhombic'
loop_
_space_group_symop_operation_xyz
x,y,z
1/2-x,-y,1/2+z
1/2+x,1/2-y,1/2-z
-x,1/2+y,-z
-x,-y,-z
1/2+x,y,1/2-z
1/2-x,1/2+y,1/2+z
x,1/2-y,z
loop_
_atom_site_type_symbol
_atom_site_label
_atom_site_fract_x
_atom_site_fract_y
_atom_site_fract_z
Si Si1 0.071017 0.455994 0.228052
Si Si2 0.673566 0.045284 0.131074
Si Si3 0.421213 0.036555 0.221276
Si Si4 0.922583 0.041905 0.474408
Si Si5 0.075964 0.957711 0.031084
Si Si6 0.173411 0.964013 0.878239
O O1 0.067020 0.250000 0.247608
O O2 0.128287 0.530859 0.291207
O O3 0.086691 0.475528 0.127611
O O4 0.995802 0.524604 0.248921
O O5 0.683329 0.250000 0.150441
O O6 0.749200 0.973687 0.120671
O O7 0.629141 0.030658 0.044761
O O8 0.421541 0.250000 0.221529
O O9 0.409130 0.979942 0.123111
O O10 0.365638 0.982817 0.291196
O O11 0.915418 0.250000 0.475383
O O12 0.000000 0.000000 0.500000
O O13 0.081851 0.750000 0.034380
O O14 0.129775 0.023203 0.960685
O O15 0.000000 0.000000 0.000000
O O16 0.172681 0.750000 0.880497
#
# Coordination Sequence:
#
# PCOD9463350 Si02
#       6
#     8   8   8   8   8   8
#     4  10  19  35  58  82 109 143 188 233 276 337
#     4  10  21  38  58  81 111 151 188 229 289 344
#     4   9  17  33  56  81 106 142 186 226 272 332
#     4  11  21  35  59  87 114 146 189 236 279 331
#     4  11  21  35  58  86 113 148 190 234 282 336
#     4   9  19  36  57  79 111 149 186 229 286 345
#
# _framework density 20.467765
#
# number of rings (size 3 to 8) (size 9 to 14) (size 15 to 20)
#    0.000    2.000    3.333    1.000    0.000    2.000 
#    0.000    3.333    0.000    0.000    0.000    0.000 
#    0.000    0.000    0.000    0.000    0.000    0.000 
#
# Total GULP energy -268085.762083 kJ/mol
# GULP energy per Si atom -5585.120043 kJ/mol
# Density = 2.042118 g / cm^3
# Si number density = 20.467765 Si / 1000 Ang^3
#
#
#
# Elastic Constant Matrix: (Units=GPa)
#
#
# Indices 1 2 3 4 5 6 
#
# 1 204.8144 -7.4042 106.8693 0.0000 0.0000 0.0000
# 2 -7.4042 28.8902 -23.7682 0.0000 0.0000 0.0000
# 3 106.8693 -23.7682 184.0821 0.0000 0.0000 0.0000
# 4 0.0000 0.0000 0.0000 25.1064 0.0000 0.0000
# 5 0.0000 0.0000 0.0000 0.0000 31.2007 0.0000
# 6 0.0000 0.0000 0.0000 0.0000 0.0000 8.7892
#
#
#
# Elastic Compliance Matrix: (Units=1/GPa)
#
#
# Indices 1 2 3 4 5 6 
#
# 1 0.007083 -0.001754 -0.004338 0.000000 0.000000 0.000000
# 2 -0.001754 0.039162 0.006075 0.000000 0.000000 0.000000
# 3 -0.004338 0.006075 0.008735 0.000000 0.000000 0.000000
# 4 0.000000 0.000000 0.000000 0.039831 0.000000 0.000000
# 5 0.000000 0.000000 0.000000 0.000000 0.032051 0.000000
# 6 0.000000 0.000000 0.000000 0.000000 0.000000 0.113776
#
#
# Mechanical properties :
#
#
# Convention : Reuss Voigt Hill
#
# Bulk Modulus (GPa) = 18.19998 63.24227 40.72113
# Shear Modulus (GPa) = 19.30598 35.82525 27.56561
#
# Velocity S-wave (km/s) = 3.07455 4.18823 3.67383
# Velocity P-wave (km/s) = 4.63844 7.37251 6.15910
#
# Compressibility (1/GPa) = 0.05494510
#
# Stress axis : x y z
#
# Youngs Moduli (GPa) = 141.18770 25.53487 114.47698
#
# Poissons Ratio (x) = 0.04479 0.49665
# Poissons Ratio (y) = 0.24764 -0.69542
# Poissons Ratio (z) = 0.61253 -0.15512
#
# Static dielectric constant tensor:
#      x y z
#    x 1.680440 0.000000 0.000000 
#    y 0.000000 1.777160 0.000000 
#    z 0.000000 0.000000 1.639750 
# 
# From -- ./inp_files/19630.got.cif
#   From: 2010.05.17/outbox.cif.g08.bks.cpg/sg62_10_cif.got.tgz:19630.got - 2010.06.03 15:25:27.
