data_PCOD9463008
_publ_section_title
;
Structure prediction by ZEFSAII (Michael W. Deem and Ramdas Pophale) SiO2 
 PCOD9463008
Probable space group: P N M A
;
_chemical_formula_sum "Si O2"
_cell_formula_units_Z 48
_cell_length_a 8.254127
_cell_length_b 13.190740
_cell_length_c 23.511704
_cell_angle_alpha 90.000000
_cell_angle_beta 90.000000
_cell_angle_gamma 90.000000
_cell_volume 2559.908323
_symmetry_space_group_name_H-M "P N M A"
_symmetry_group_IT_number 62
_symmetry_cell_setting 'orthorhombic'
loop_
_space_group_symop_operation_xyz
x,y,z
1/2-x,-y,1/2+z
1/2+x,1/2-y,1/2-z
-x,1/2+y,-z
-x,-y,-z
1/2+x,y,1/2-z
1/2-x,1/2+y,1/2+z
x,1/2-y,z
loop_
_atom_site_type_symbol
_atom_site_label
_atom_site_fract_x
_atom_site_fract_y
_atom_site_fract_z
Si Si1 0.873155 0.631078 0.314620
Si Si2 0.501724 0.368751 0.997897
Si Si3 0.678217 0.443338 0.567791
Si Si4 0.737786 0.133403 0.688924
Si Si5 0.500528 0.130788 0.462018
Si Si6 0.687679 0.508998 0.920082
O O1 0.823561 0.750000 0.325571
O O2 0.814741 0.600889 0.251697
O O3 0.815162 0.548823 0.360554
O O4 0.068047 0.629686 0.315641
O O5 0.518348 0.250000 0.000844
O O6 0.345339 0.397673 0.957915
O O7 0.651060 0.419145 0.965191
O O8 0.457425 0.415425 0.059511
O O9 0.666973 0.422109 0.634233
O O10 0.648521 0.562435 0.558177
O O11 0.541958 0.389100 0.528599
O O12 0.684722 0.250000 0.684016
O O13 0.489100 0.250000 0.451187
O O14 0.653505 0.076300 0.430698
#
# Coordination Sequence:
#
# PCOD9463008 Si02
#       6
#     8   8   8   8   8   8
#     4  10  21  35  54  83 115 146 182 227 279 337
#     4  10  19  35  57  84 114 144 184 232 281 334
#     4  10  19  36  60  81 110 156 183 225 288 333
#     4  10  20  35  56  82 114 147 181 228 282 333
#     4  10  22  38  56  84 117 148 187 233 278 334
#     4  10  19  33  56  82 111 150 180 225 283 329
#
# _framework density 18.750672000000002
#
# number of rings (size 3 to 8) (size 9 to 14) (size 15 to 20)
#    0.000    2.000    1.667    3.500    2.333    0.000 
#    0.000   24.167    0.000    2.000    0.000    0.000 
#    0.000    0.000    0.000    0.000    0.000    0.000 
#
# Total GULP energy -267616.891444 kJ/mol
# GULP energy per Si atom -5575.351905 kJ/mol
# Density = 1.870799 g / cm^3
# Si number density = 18.750672 Si / 1000 Ang^3
#
#
#
# Elastic Constant Matrix: (Units=GPa)
#
#
# Indices 1 2 3 4 5 6 
#
# 1 36.7066 23.7084 29.0028 0.0000 0.0000 0.0000
# 2 23.7084 164.4259 77.4560 0.0000 0.0000 0.0000
# 3 29.0028 77.4560 153.8036 0.0000 0.0000 0.0000
# 4 0.0000 0.0000 0.0000 26.7374 0.0000 0.0000
# 5 0.0000 0.0000 0.0000 0.0000 14.7623 0.0000
# 6 0.0000 0.0000 0.0000 0.0000 0.0000 24.4436
#
#
#
# Elastic Compliance Matrix: (Units=1/GPa)
#
#
# Indices 1 2 3 4 5 6 
#
# 1 0.032704 -0.002374 -0.004972 0.000000 0.000000 0.000000
# 2 -0.002374 0.008146 -0.003655 0.000000 0.000000 0.000000
# 3 -0.004972 -0.003655 0.009280 0.000000 0.000000 0.000000
# 4 0.000000 0.000000 0.000000 0.037401 0.000000 0.000000
# 5 0.000000 0.000000 0.000000 0.000000 0.067740 0.000000
# 6 0.000000 0.000000 0.000000 0.000000 0.000000 0.040911
#
#
# Mechanical properties :
#
#
# Convention : Reuss Voigt Hill
#
# Bulk Modulus (GPa) = 35.54921 68.36339 51.95630
# Shear Modulus (GPa) = 21.97246 28.17325 25.07286
#
# Velocity S-wave (km/s) = 3.42690 3.88044 3.66070
# Velocity P-wave (km/s) = 5.88713 7.52432 6.75550
#
# Compressibility (1/GPa) = 0.02813002
#
# Stress axis : x y z
#
# Youngs Moduli (GPa) = 30.57687 122.76641 107.76137
#
# Poissons Ratio (x) = 0.29140 0.53576
# Poissons Ratio (y) = 0.07258 0.39382
# Poissons Ratio (z) = 0.15202 0.44865
#
# Static dielectric constant tensor:
#      x y z
#    x 1.757340 0.000000 0.000000 
#    y 0.000000 1.651910 0.000000 
#    z 0.000000 0.000000 1.667830 
# 
# From -- ./inp_files/28775.got.cif
#   From: 2010.05.17/outbox.cif.g08.bks.cpg/sg62_15_cif.got.tgz:28775.got - 2010.06.03 15:25:27.
