data_PCOD9463020
_publ_section_title
;
Structure prediction by ZEFSAII (Michael W. Deem and Ramdas Pophale) SiO2 
 PCOD9463020
Probable space group: P N M A
;
_chemical_formula_sum "Si O2"
_cell_formula_units_Z 64
_cell_length_a 14.478123
_cell_length_b 8.850688
_cell_length_c 25.410127
_cell_angle_alpha 90.000000
_cell_angle_beta 90.000000
_cell_angle_gamma 90.000000
_cell_volume 3256.087965
_symmetry_space_group_name_H-M "P N M A"
_symmetry_group_IT_number 62
_symmetry_cell_setting 'orthorhombic'
loop_
_space_group_symop_operation_xyz
x,y,z
1/2-x,-y,1/2+z
1/2+x,1/2-y,1/2-z
-x,1/2+y,-z
-x,-y,-z
1/2+x,y,1/2-z
1/2-x,1/2+y,1/2+z
x,1/2-y,z
loop_
_atom_site_type_symbol
_atom_site_label
_atom_site_fract_x
_atom_site_fract_y
_atom_site_fract_z
Si Si1 0.154458 0.932693 0.606024
Si Si2 0.278639 0.922087 0.513643
Si Si3 0.469115 0.932207 0.943923
Si Si4 0.022811 0.078943 0.054356
Si Si5 0.982259 0.933244 0.829321
Si Si6 0.236490 0.430970 0.411095
Si Si7 0.217234 0.569516 0.196958
Si Si8 0.315794 0.067293 0.297799
O O1 0.165702 0.750000 0.609962
O O2 0.196484 0.982052 0.549641
O O3 0.046244 0.967517 0.600442
O O4 0.213428 0.008454 0.651761
O O5 0.258279 0.750000 0.497808
O O6 0.365920 0.918526 0.552236
O O7 0.295815 0.013642 0.460753
O O8 0.467849 0.750000 0.949725
O O9 0.367870 0.982267 0.924757
O O10 0.500000 0.000000 0.000000
O O11 0.987102 0.250000 0.052139
O O12 0.996853 0.013387 0.110760
O O13 0.000000 0.000000 0.000000
O O14 0.971843 0.750000 0.831383
O O15 0.074484 0.967022 0.796312
O O16 0.885967 0.003284 0.810813
O O17 0.236815 0.250000 0.410535
O O18 0.275180 0.479423 0.354729
O O19 0.213380 0.750000 0.194804
O O20 0.259697 0.511620 0.251681
O O21 0.306479 0.250000 0.293279
#
# Coordination Sequence:
#
# PCOD9463020 Si02
#       8
#     8   8   8   8   8   8   8   8
#     4  10  20  38  60  84 119 164 209 244 292 368
#     4  10  19  33  56  84 119 158 194 240 297 356
#     4  10  20  34  57  88 123 161 201 246 297 359
#     4  10  20  34  55  86 120 155 196 244 295 354
#     4  10  21  42  67  88 118 162 207 248 299 373
#     4  10  21  37  59  90 123 156 202 252 301 361
#     4  12  26  42  64  93 124 157 202 265 316 358
#     4  10  23  43  66  89 120 164 208 253 305 369
#
# _framework density 19.655488999999999
#
# number of rings (size 3 to 8) (size 9 to 14) (size 15 to 20)
#    0.000    1.750    2.500    1.875    0.000    5.000 
#    0.000    2.500    0.000    0.000    0.000    0.000 
#    0.000    0.000    0.000    0.000    0.000    0.000 
#
# Total GULP energy -357178.690594 kJ/mol
# GULP energy per Si atom -5580.917041 kJ/mol
# Density = 1.961075 g / cm^3
# Si number density = 19.655489 Si / 1000 Ang^3
#
#
#
# Elastic Constant Matrix: (Units=GPa)
#
#
# Indices 1 2 3 4 5 6 
#
# 1 111.0378 32.2935 50.0512 0.0000 0.0000 0.0000
# 2 32.2935 34.8105 35.8196 0.0000 0.0000 0.0000
# 3 50.0512 35.8196 121.2736 0.0000 0.0000 0.0000
# 4 0.0000 0.0000 0.0000 31.1562 0.0000 0.0000
# 5 0.0000 0.0000 0.0000 0.0000 30.6714 0.0000
# 6 0.0000 0.0000 0.0000 0.0000 0.0000 19.2552
#
#
#
# Elastic Compliance Matrix: (Units=1/GPa)
#
#
# Indices 1 2 3 4 5 6 
#
# 1 0.012866 -0.009297 -0.002564 0.000000 0.000000 0.000000
# 2 -0.009297 0.047988 -0.010337 0.000000 0.000000 0.000000
# 3 -0.002564 -0.010337 0.012357 0.000000 0.000000 0.000000
# 4 0.000000 0.000000 0.000000 0.032096 0.000000 0.000000
# 5 0.000000 0.000000 0.000000 0.000000 0.032604 0.000000
# 6 0.000000 0.000000 0.000000 0.000000 0.000000 0.051934
#
#
# Mechanical properties :
#
#
# Convention : Reuss Voigt Hill
#
# Bulk Modulus (GPa) = 34.70374 55.93895 45.32134
# Shear Modulus (GPa) = 20.50479 26.14708 23.32593
#
# Velocity S-wave (km/s) = 3.23338 3.65124 3.44864
# Velocity P-wave (km/s) = 5.62441 6.80418 6.24223
#
# Compressibility (1/GPa) = 0.02881534
#
# Stress axis : x y z
#
# Youngs Moduli (GPa) = 77.72722 20.83836 80.92564
#
# Poissons Ratio (x) = 0.19374 0.20747
# Poissons Ratio (y) = 0.72265 0.83652
# Poissons Ratio (z) = 0.19927 0.21540
#
# Static dielectric constant tensor:
#      x y z
#    x 1.739620 0.000000 0.000000 
#    y 0.000000 1.678350 0.000000 
#    z 0.000000 0.000000 1.672250 
# 
# From -- ./inp_files/29768.got.cif
#   From: 2010.05.17/outbox.cif.g08.bks.cpg/sg62_15_cif.got.tgz:29768.got - 2010.06.03 15:25:27.
