data_PCOD9463177
_publ_section_title
;
Structure prediction by ZEFSAII (Michael W. Deem and Ramdas Pophale) SiO2 
 PCOD9463177
Probable space group: P N M A
;
_chemical_formula_sum "Si O2"
_cell_formula_units_Z 64
_cell_length_a 17.172359
_cell_length_b 8.827063
_cell_length_c 21.575209
_cell_angle_alpha 90.000000
_cell_angle_beta 90.000000
_cell_angle_gamma 90.000000
_cell_volume 3270.402430
_symmetry_space_group_name_H-M "P N M A"
_symmetry_group_IT_number 62
_symmetry_cell_setting 'orthorhombic'
loop_
_space_group_symop_operation_xyz
x,y,z
1/2-x,-y,1/2+z
1/2+x,1/2-y,1/2-z
-x,1/2+y,-z
-x,-y,-z
1/2+x,y,1/2-z
1/2-x,1/2+y,1/2+z
x,1/2-y,z
loop_
_atom_site_type_symbol
_atom_site_label
_atom_site_fract_x
_atom_site_fract_y
_atom_site_fract_z
Si Si1 0.220927 0.074527 0.665014
Si Si2 0.644806 0.429996 0.404648
Si Si3 0.527497 0.069228 0.136465
Si Si4 0.100294 0.426971 0.550086
Si Si5 0.668467 0.569653 0.074985
Si Si6 0.825916 0.070209 0.037740
Si Si7 0.922534 0.931462 0.256334
Si Si8 0.032197 0.569029 0.873434
O O1 0.242920 0.250000 0.674613
O O2 0.165310 0.067909 0.604238
O O3 0.163956 0.023609 0.720237
O O4 0.296788 0.978243 0.649924
O O5 0.648408 0.250000 0.413864
O O6 0.671542 0.510476 0.467736
O O7 0.556053 0.473523 0.389960
O O8 0.528070 0.250000 0.135540
O O9 0.475224 0.005712 0.079535
O O10 0.613591 0.003273 0.127188
O O11 0.484945 0.008509 0.197887
O O12 0.084660 0.250000 0.536035
O O13 0.133010 0.511285 0.490312
O O14 0.665395 0.750000 0.078217
O O15 0.756726 0.510993 0.074829
O O16 0.811079 0.250000 0.037339
O O17 0.908399 0.040083 0.070460
O O18 0.927863 0.750000 0.264135
O O19 0.939041 0.981708 0.186991
O O20 0.033546 0.750000 0.860980
#
# Coordination Sequence:
#
# PCOD9463177 Si02
#       8
#     8   8   8   8   8   8   8   8
#     4   9  19  36  60  89 122 159 200 247 300 361
#     4  11  22  38  64  96 124 156 204 253 304 368
#     4  11  22  37  59  86 120 162 204 247 302 363
#     4  10  19  34  56  85 123 160 201 248 302 360
#     4  12  23  36  56  86 123 159 203 252 306 365
#     4  11  23  41  63  89 125 164 203 254 312 365
#     4  10  22  42  65  89 120 160 208 253 300 360
#     4  10  24  44  64  90 123 162 206 253 310 365
#
# _framework density 19.569458000000001
#
# number of rings (size 3 to 8) (size 9 to 14) (size 15 to 20)
#    0.000    1.500    1.250    5.250    0.000    4.500 
#    2.250    0.000    0.000    0.000    0.000    0.000 
#    0.000    0.000    0.000    0.000    0.000    0.000 
#
# Total GULP energy -357846.377966 kJ/mol
# GULP energy per Si atom -5591.349656 kJ/mol
# Density = 1.952492 g / cm^3
# Si number density = 19.569458 Si / 1000 Ang^3
#
#
#
# Elastic Constant Matrix: (Units=GPa)
#
#
# Indices 1 2 3 4 5 6 
#
# 1 127.5973 55.3543 21.7379 0.0000 0.0000 0.0000
# 2 55.3543 95.6237 20.6139 0.0000 0.0000 0.0000
# 3 21.7379 20.6139 37.7888 0.0000 0.0000 0.0000
# 4 0.0000 0.0000 0.0000 31.1016 0.0000 0.0000
# 5 0.0000 0.0000 0.0000 0.0000 10.2412 0.0000
# 6 0.0000 0.0000 0.0000 0.0000 0.0000 28.8227
#
#
#
# Elastic Compliance Matrix: (Units=1/GPa)
#
#
# Indices 1 2 3 4 5 6 
#
# 1 0.010791 -0.005563 -0.003173 0.000000 0.000000 0.000000
# 2 -0.005563 0.014719 -0.004829 0.000000 0.000000 0.000000
# 3 -0.003173 -0.004829 0.030922 0.000000 0.000000 0.000000
# 4 0.000000 0.000000 0.000000 0.032153 0.000000 0.000000
# 5 0.000000 0.000000 0.000000 0.000000 0.097645 0.000000
# 6 0.000000 0.000000 0.000000 0.000000 0.000000 0.034695
#
#
# Mechanical properties :
#
#
# Convention : Reuss Voigt Hill
#
# Bulk Modulus (GPa) = 34.12688 50.71357 42.42022
# Shear Modulus (GPa) = 19.39325 24.92001 22.15663
#
# Velocity S-wave (km/s) = 3.15142 3.57236 3.36848
# Velocity P-wave (km/s) = 5.54244 6.55642 6.07064
#
# Compressibility (1/GPa) = 0.02930242
#
# Stress axis : x y z
#
# Youngs Moduli (GPa) = 92.67080 67.94051 32.33891
#
# Poissons Ratio (x) = 0.37792 0.10261
# Poissons Ratio (y) = 0.51549 0.15617
# Poissons Ratio (z) = 0.29405 0.32810
#
# Static dielectric constant tensor:
#      x y z
#    x 1.697740 0.000000 0.000000 
#    y 0.000000 1.654430 0.000000 
#    z 0.000000 0.000000 1.662720 
# 
# From -- ./inp_files/29796.got.cif
#   From: 2010.05.17/outbox.cif.g08.bks.cpg/sg62_15_cif.got.tgz:29796.got - 2010.06.03 15:25:27.
