data_PCOD9463059
_publ_section_title
;
Structure prediction by ZEFSAII (Michael W. Deem and Ramdas Pophale) SiO2 
 PCOD9463059
Probable space group: P N M A
;
_chemical_formula_sum "Si O2"
_cell_formula_units_Z 56
_cell_length_a 14.209412
_cell_length_b 17.278202
_cell_length_c 12.555976
_cell_angle_alpha 90.000000
_cell_angle_beta 90.000000
_cell_angle_gamma 90.000000
_cell_volume 3082.656476
_symmetry_space_group_name_H-M "P N M A"
_symmetry_group_IT_number 62
_symmetry_cell_setting 'orthorhombic'
loop_
_space_group_symop_operation_xyz
x,y,z
1/2-x,-y,1/2+z
1/2+x,1/2-y,1/2-z
-x,1/2+y,-z
-x,-y,-z
1/2+x,y,1/2-z
1/2-x,1/2+y,1/2+z
x,1/2-y,z
loop_
_atom_site_type_symbol
_atom_site_label
_atom_site_fract_x
_atom_site_fract_y
_atom_site_fract_z
Si Si1 0.504215 0.037323 0.671303
Si Si2 0.811934 0.664278 0.892794
Si Si3 0.075240 0.106915 0.302909
Si Si4 0.521326 0.159570 0.852993
Si Si5 0.137228 0.005751 0.998839
Si Si6 0.652942 0.048280 0.975843
Si Si7 0.095852 0.626044 0.562178
O O1 0.499990 0.112037 0.745745
O O2 0.605784 0.013326 0.623717
O O3 0.464377 0.965339 0.736883
O O4 0.438814 0.042395 0.566681
O O5 0.837813 0.750000 0.930714
O O6 0.854168 0.652833 0.774103
O O7 0.855924 0.594173 0.960066
O O8 0.698875 0.655216 0.904416
O O9 0.127501 0.072013 0.404687
O O10 0.984627 0.149774 0.353528
O O11 0.536573 0.250000 0.834423
O O12 0.612253 0.115939 0.902063
O O13 0.440523 0.150459 0.944583
O O14 0.236922 0.968030 0.024555
O O15 0.602660 0.967793 0.942760
#
# Coordination Sequence:
#
# PCOD9463059 Si02
#       7
#     8   8   8   8   8   8   8
#     4  10  19  38  57  86 107 150 198 229 287 341
#     4  10  22  36  53  85 115 146 188 235 293 339
#     4  10  19  33  62  82 109 148 192 237 274 343
#     4  11  21  35  60  87 119 151 188 245 302 343
#     4   9  22  36  61  78 112 152 194 239 274 357
#     4  10  19  37  59  87 110 148 195 236 280 349
#     4  10  19  38  59  82 115 152 192 238 279 353
#
# _framework density 18.166150999999999
#
# number of rings (size 3 to 8) (size 9 to 14) (size 15 to 20)
#    0.000    2.000    2.857    1.286    2.000    4.571 
#    0.000    0.714    0.000    0.857    0.000    0.000 
#    0.000    0.000    0.000    0.000    0.000    0.000 
#
# Total GULP energy -312122.310840 kJ/mol
# GULP energy per Si atom -5573.612694 kJ/mol
# Density = 1.812480 g / cm^3
# Si number density = 18.166151 Si / 1000 Ang^3
#
#
#
# Elastic Constant Matrix: (Units=GPa)
#
#
# Indices 1 2 3 4 5 6 
#
# 1 89.4455 43.1000 35.5661 0.0000 0.0000 0.0000
# 2 43.1000 120.9606 46.4777 0.0000 0.0000 0.0000
# 3 35.5661 46.4777 82.4569 0.0000 0.0000 0.0000
# 4 0.0000 0.0000 0.0000 12.9089 0.0000 0.0000
# 5 0.0000 0.0000 0.0000 0.0000 15.7438 0.0000
# 6 0.0000 0.0000 0.0000 0.0000 0.0000 7.2458
#
#
#
# Elastic Compliance Matrix: (Units=1/GPa)
#
#
# Indices 1 2 3 4 5 6 
#
# 1 0.014599 -0.003552 -0.004295 0.000000 0.000000 0.000000
# 2 -0.003552 0.011417 -0.004903 0.000000 0.000000 0.000000
# 3 -0.004295 -0.004903 0.016744 0.000000 0.000000 0.000000
# 4 0.000000 0.000000 0.000000 0.077466 0.000000 0.000000
# 5 0.000000 0.000000 0.000000 0.000000 0.063517 0.000000
# 6 0.000000 0.000000 0.000000 0.000000 0.000000 0.138011
#
#
# Mechanical properties :
#
#
# Convention : Reuss Voigt Hill
#
# Bulk Modulus (GPa) = 57.93789 60.35008 59.14398
# Shear Modulus (GPa) = 14.16402 18.36098 16.26250
#
# Velocity S-wave (km/s) = 2.79533 3.18264 2.99525
# Velocity P-wave (km/s) = 6.51007 6.84097 6.67757
#
# Compressibility (1/GPa) = 0.01725986
#
# Stress axis : x y z
#
# Youngs Moduli (GPa) = 68.49680 87.59161 59.72304
#
# Poissons Ratio (x) = 0.31108 0.25652
# Poissons Ratio (y) = 0.24327 0.29283
# Poissons Ratio (z) = 0.29421 0.42948
#
# Static dielectric constant tensor:
#      x y z
#    x 1.660200 0.000000 0.000000 
#    y 0.000000 1.607690 0.000000 
#    z 0.000000 0.000000 1.641500 
# 
# From -- ./inp_files/13398.got.cif
#   From: 2010.05.17/outbox.cif.g08.bks.cpg/sg62_7_cif.got.tgz:13398.got - 2010.06.03 15:25:27.
