data_PCOD9463834
_publ_section_title
;
Structure prediction by ZEFSAII (Michael W. Deem and Ramdas Pophale) SiO2 
 PCOD9463834
Probable space group: P N M A
;
_chemical_formula_sum "Si O2"
_cell_formula_units_Z 48
_cell_length_a 15.985325
_cell_length_b 19.501643
_cell_length_c 9.094484
_cell_angle_alpha 90.000000
_cell_angle_beta 90.000000
_cell_angle_gamma 90.000000
_cell_volume 2835.115364
_symmetry_space_group_name_H-M "P N M A"
_symmetry_group_IT_number 62
_symmetry_cell_setting 'orthorhombic'
loop_
_space_group_symop_operation_xyz
x,y,z
1/2-x,-y,1/2+z
1/2+x,1/2-y,1/2-z
-x,1/2+y,-z
-x,-y,-z
1/2+x,y,1/2-z
1/2-x,1/2+y,1/2+z
x,1/2-y,z
loop_
_atom_site_type_symbol
_atom_site_label
_atom_site_fract_x
_atom_site_fract_y
_atom_site_fract_z
Si Si1 0.085412 0.580779 0.089996
Si Si2 0.240016 0.330314 0.059812
Si Si3 0.164132 0.672568 0.853801
Si Si4 0.912288 0.330694 0.617820
Si Si5 0.912398 0.578865 0.908193
Si Si6 0.010538 0.172301 0.327856
O O1 0.080038 0.621612 0.241757
O O2 0.106484 0.501122 0.112185
O O3 0.151597 0.618573 0.983234
O O4 0.995354 0.584139 0.008685
O O5 0.216507 0.250000 0.047938
O O6 0.267844 0.343299 0.228934
O O7 0.164336 0.379967 0.021214
O O8 0.322220 0.340776 0.960252
O O9 0.178541 0.750000 0.910469
O O10 0.076456 0.674193 0.763913
O O11 0.918386 0.250000 0.657293
O O12 0.982768 0.344231 0.493702
O O13 0.933096 0.617277 0.754957
O O14 0.045711 0.250000 0.322401
#
# Coordination Sequence:
#
# PCOD9463834 Si02
#       6
#     8   8   8   8   8   8
#     4  10  20  32  48  73 103 132 160 194 244 300
#     4   9  18  33  52  71  91 122 167 210 242 281
#     4   8  15  30  50  67  87 122 163 196 233 289
#     4   9  18  33  52  72  95 127 165 203 247 293
#     4  10  20  32  48  73 102 131 164 199 237 288
#     4   8  15  30  50  68  90 125 163 194 233 287
#
# _framework density 16.930527999999999
#
# number of rings (size 3 to 8) (size 9 to 14) (size 15 to 20)
#    0.000    3.000    0.000    3.000    0.000    4.000 
#    0.000    1.667    0.000    2.000    0.000    0.000 
#    0.000    0.000    0.000    0.000    0.000    0.000 
#
# Total GULP energy -267420.615699 kJ/mol
# GULP energy per Si atom -5571.262827 kJ/mol
# Density = 1.689199 g / cm^3
# Si number density = 16.930528 Si / 1000 Ang^3
#
#
#
# Elastic Constant Matrix: (Units=GPa)
#
#
# Indices 1 2 3 4 5 6 
#
# 1 33.1189 37.0427 6.8074 0.0000 0.0000 0.0000
# 2 37.0427 119.5547 73.5896 0.0000 0.0000 0.0000
# 3 6.8074 73.5896 91.8877 0.0000 0.0000 0.0000
# 4 0.0000 0.0000 0.0000 16.0561 0.0000 0.0000
# 5 0.0000 0.0000 0.0000 0.0000 10.0615 0.0000
# 6 0.0000 0.0000 0.0000 0.0000 0.0000 18.6342
#
#
#
# Elastic Compliance Matrix: (Units=1/GPa)
#
#
# Indices 1 2 3 4 5 6 
#
# 1 0.061914 -0.032265 0.021253 0.000000 0.000000 0.000000
# 2 -0.032265 0.033311 -0.024287 0.000000 0.000000 0.000000
# 3 0.021253 -0.024287 0.028759 0.000000 0.000000 0.000000
# 4 0.000000 0.000000 0.000000 0.062282 0.000000 0.000000
# 5 0.000000 0.000000 0.000000 0.000000 0.099389 0.000000
# 6 0.000000 0.000000 0.000000 0.000000 0.000000 0.053665
#
#
# Mechanical properties :
#
#
# Convention : Reuss Voigt Hill
#
# Bulk Modulus (GPa) = 18.73174 53.27119 36.00147
# Shear Modulus (GPa) = 11.69009 17.42514 14.55762
#
# Velocity S-wave (km/s) = 2.63054 3.21162 2.93549
# Velocity P-wave (km/s) = 4.50713 6.72945 5.72712
#
# Compressibility (1/GPa) = 0.05338533
#
# Stress axis : x y z
#
# Youngs Moduli (GPa) = 16.15151 30.02011 34.77158
#
# Poissons Ratio (x) = 0.96861 -0.73901
# Poissons Ratio (y) = 0.52113 0.84451
# Poissons Ratio (z) = -0.34327 0.72911
#
# Static dielectric constant tensor:
#      x y z
#    x 1.581280 0.000000 0.000000 
#    y 0.000000 1.560210 0.000000 
#    z 0.000000 0.000000 1.561220 
# 
# From -- ./inp_files/7674.got.cif
#   From: 2010.05.17/outbox.cif.g08.bks.cpg/sg62_4_cif.got.tgz:7674.got - 2010.06.03 15:25:27.
