data_PCOD9463256
_publ_section_title
;
Structure prediction by ZEFSAII (Michael W. Deem and Ramdas Pophale) SiO2 
 PCOD9463256
Probable space group: P N M A
;
_chemical_formula_sum "Si O2"
_cell_formula_units_Z 64
_cell_length_a 5.387484
_cell_length_b 22.329231
_cell_length_c 25.303473
_cell_angle_alpha 90.000000
_cell_angle_beta 90.000000
_cell_angle_gamma 90.000000
_cell_volume 3043.966677
_symmetry_space_group_name_H-M "P N M A"
_symmetry_group_IT_number 62
_symmetry_cell_setting 'orthorhombic'
loop_
_space_group_symop_operation_xyz
x,y,z
1/2-x,-y,1/2+z
1/2+x,1/2-y,1/2-z
-x,1/2+y,-z
-x,-y,-z
1/2+x,y,1/2-z
1/2-x,1/2+y,1/2+z
x,1/2-y,z
loop_
_atom_site_type_symbol
_atom_site_label
_atom_site_fract_x
_atom_site_fract_y
_atom_site_fract_z
Si Si1 0.313397 0.681764 0.783133
Si Si2 0.865346 0.988898 0.126596
Si Si3 0.774888 0.179189 0.564576
Si Si4 0.134928 0.440658 0.653779
Si Si5 0.787322 0.322720 0.445010
Si Si6 0.885759 0.030386 0.246138
Si Si7 0.281041 0.319850 0.628836
Si Si8 0.788919 0.374950 0.105731
O O1 0.591061 0.678206 0.759596
O O2 0.293619 0.750000 0.805328
O O3 0.257422 0.639536 0.832915
O O4 0.815099 0.053136 0.100685
O O5 0.623119 0.947330 0.121912
O O6 0.878452 0.999014 0.189978
O O7 0.140282 0.964083 0.116685
O O8 0.733186 0.250000 0.558129
O O9 0.753986 0.154776 0.505488
O O10 0.547162 0.163473 0.603562
O O11 0.054129 0.174257 0.587073
O O12 0.114610 0.482139 0.706215
O O13 0.205990 0.372715 0.669185
O O14 0.800081 0.250000 0.442904
O O15 0.545963 0.344992 0.413053
O O16 0.046532 0.349465 0.423847
O O17 0.636847 0.066489 0.253161
O O18 0.286262 0.250000 0.646563
#
# Coordination Sequence:
#
# PCOD9463256 Si02
#       8
#     8   8   8   8   8   8   8   8
#     4  10  21  35  50  73 107 140 174 226 288 333
#     4  10  21  35  53  78 109 147 188 227 265 313
#     4   9  19  35  57  86 114 141 177 225 282 337
#     4  10  19  35  57  79 112 146 182 227 274 324
#     4  11  22  38  60  84 113 145 181 236 293 331
#     4   8  16  30  50  73 102 139 180 222 265 307
#     4  10  19  34  60  90 113 139 180 225 275 337
#     4  12  23  36  58  81 107 145 197 234 264 330
#
# _framework density 21.025195
#
# number of rings (size 3 to 8) (size 9 to 14) (size 15 to 20)
#    0.000    2.000    0.000    4.125    0.000    6.000 
#    0.000    0.000    0.000   21.750    0.000    0.000 
#    0.000    0.000    0.000    0.000    0.000    0.000 
#
# Total GULP energy -356697.821642 kJ/mol
# GULP energy per Si atom -5573.403463 kJ/mol
# Density = 2.097734 g / cm^3
# Si number density = 21.025195 Si / 1000 Ang^3
#
#
#
# Elastic Constant Matrix: (Units=GPa)
#
#
# Indices 1 2 3 4 5 6 
#
# 1 171.9564 28.6783 -4.6039 0.0000 0.0000 0.0000
# 2 28.6783 99.2272 -3.6759 0.0000 0.0000 0.0000
# 3 -4.6039 -3.6759 10.0118 0.0000 0.0000 0.0000
# 4 0.0000 0.0000 0.0000 10.1423 0.0000 0.0000
# 5 0.0000 0.0000 0.0000 0.0000 22.2088 0.0000
# 6 0.0000 0.0000 0.0000 0.0000 0.0000 36.0712
#
#
#
# Elastic Compliance Matrix: (Units=1/GPa)
#
#
# Indices 1 2 3 4 5 6 
#
# 1 0.006158 -0.001698 0.002208 0.000000 0.000000 0.000000
# 2 -0.001698 0.010685 0.003142 0.000000 0.000000 0.000000
# 3 0.002208 0.003142 0.102051 0.000000 0.000000 0.000000
# 4 0.000000 0.000000 0.000000 0.098597 0.000000 0.000000
# 5 0.000000 0.000000 0.000000 0.000000 0.045027 0.000000
# 6 0.000000 0.000000 0.000000 0.000000 0.000000 0.027723
#
#
# Mechanical properties :
#
#
# Convention : Reuss Voigt Hill
#
# Bulk Modulus (GPa) = 7.92401 35.77694 21.85048
# Shear Modulus (GPa) = 15.38455 31.07092 23.22773
#
# Velocity S-wave (km/s) = 2.70797 3.84838 3.32739
# Velocity P-wave (km/s) = 3.68164 6.06629 5.01768
#
# Compressibility (1/GPa) = 0.12619869
#
# Stress axis : x y z
#
# Youngs Moduli (GPa) = 162.39789 93.58908 9.79904
#
# Poissons Ratio (x) = 0.15890 -0.02164
# Poissons Ratio (y) = 0.27573 -0.03079
# Poissons Ratio (z) = -0.35861 -0.29408
#
# Static dielectric constant tensor:
#      x y z
#    x 1.826300 0.000000 0.000000 
#    y 0.000000 1.811720 0.000000 
#    z 0.000000 0.000000 1.735680 
# 
# From -- ./inp_files/30556.got.cif
#   From: 2010.05.17/outbox.cif.g08.bks.cpg/sg62_16_cif.got.tgz:30556.got - 2010.06.03 15:25:27.
