data_PCOD9463964
_publ_section_title
;
Structure prediction by ZEFSAII (Michael W. Deem and Ramdas Pophale) SiO2 
 PCOD9463964
Probable space group: P N M A
;
_chemical_formula_sum "Si O2"
_cell_formula_units_Z 64
_cell_length_a 23.236804
_cell_length_b 7.526578
_cell_length_c 15.973673
_cell_angle_alpha 90.000000
_cell_angle_beta 90.000000
_cell_angle_gamma 90.000000
_cell_volume 2793.693460
_symmetry_space_group_name_H-M "P N M A"
_symmetry_group_IT_number 62
_symmetry_cell_setting 'orthorhombic'
loop_
_space_group_symop_operation_xyz
x,y,z
1/2-x,-y,1/2+z
1/2+x,1/2-y,1/2-z
-x,1/2+y,-z
-x,-y,-z
1/2+x,y,1/2-z
1/2-x,1/2+y,1/2+z
x,1/2-y,z
loop_
_atom_site_type_symbol
_atom_site_label
_atom_site_fract_x
_atom_site_fract_y
_atom_site_fract_z
Si Si1 0.427030 0.958397 0.352959
Si Si2 0.200977 0.036210 0.812907
Si Si3 0.437452 0.048393 0.888187
Si Si4 0.951333 0.031301 0.792470
Si Si5 0.686661 0.464287 0.867017
Si Si6 0.232361 0.539259 0.989563
Si Si7 0.065274 0.959744 0.571602
Si Si8 0.604118 0.535005 0.467113
O O1 0.424604 0.750000 0.332316
O O2 0.363930 0.032835 0.331783
O O3 0.482735 0.030117 0.305669
O O4 0.433585 0.976151 0.453270
O O5 0.198960 0.250000 0.812862
O O6 0.215880 0.977134 0.719560
O O7 0.240602 0.987767 0.890963
O O8 0.415003 0.250000 0.886908
O O9 0.426170 0.969570 0.796576
O O10 0.507205 0.048941 0.896142
O O11 0.419288 0.969954 0.977966
O O12 0.951536 0.250000 0.790018
O O13 0.917659 0.978330 0.876207
O O14 0.687729 0.250000 0.868197
O O15 0.620002 0.515398 0.870190
O O16 0.719471 0.533373 0.948574
O O17 0.230131 0.750000 0.003281
O O18 0.168997 0.470253 0.014259
O O19 0.052487 0.750000 0.563769
O O20 0.603795 0.750000 0.467891
#
# Coordination Sequence:
#
# PCOD9463964 Si02
#       8
#     8   8   8   8   8   8   8   8
#     4   9  16  27  46  70  96 126 163 202 245 297
#     4   9  18  33  53  75  97 131 175 214 256 310
#     4   9  18  34  52  73 104 137 165 201 255 311
#     4   9  16  28  48  72  97 130 166 198 240 302
#     4  10  20  36  56  76 101 139 178 211 260 318
#     4   9  19  35  52  74 103 134 169 216 266 305
#     4  10  20  33  52  79 103 130 169 215 258 298
#     4   9  17  30  47  68  97 129 163 206 250 293
#
# _framework density 22.908740999999999
#
# number of rings (size 3 to 8) (size 9 to 14) (size 15 to 20)
#    0.000    2.750    0.000    1.500    0.000    3.500 
#    2.250    3.750    0.000    0.000    0.000    0.000 
#    0.000    0.000    0.000    0.000    0.000    0.000 
#
# Total GULP energy -357203.564651 kJ/mol
# GULP energy per Si atom -5581.305698 kJ/mol
# Density = 2.285660 g / cm^3
# Si number density = 22.908741 Si / 1000 Ang^3
#
#
#
# Elastic Constant Matrix: (Units=GPa)
#
#
# Indices 1 2 3 4 5 6 
#
# 1 15.7140 -4.2423 2.9156 0.0000 0.0000 0.0000
# 2 -4.2423 63.9567 -8.5324 0.0000 0.0000 0.0000
# 3 2.9156 -8.5324 120.9424 0.0000 0.0000 0.0000
# 4 0.0000 0.0000 0.0000 17.0684 0.0000 0.0000
# 5 0.0000 0.0000 0.0000 0.0000 27.6356 0.0000
# 6 0.0000 0.0000 0.0000 0.0000 0.0000 7.0751
#
#
#
# Elastic Compliance Matrix: (Units=1/GPa)
#
#
# Indices 1 2 3 4 5 6 
#
# 1 0.064992 0.004141 -0.001275 0.000000 0.000000 0.000000
# 2 0.004141 0.016048 0.001032 0.000000 0.000000 0.000000
# 3 -0.001275 0.001032 0.008372 0.000000 0.000000 0.000000
# 4 0.000000 0.000000 0.000000 0.058588 0.000000 0.000000
# 5 0.000000 0.000000 0.000000 0.000000 0.036185 0.000000
# 6 0.000000 0.000000 0.000000 0.000000 0.000000 0.141341
#
#
# Mechanical properties :
#
#
# Convention : Reuss Voigt Hill
#
# Bulk Modulus (GPa) = 10.28714 20.09945 15.19329
# Shear Modulus (GPa) = 14.28035 24.38731 19.33383
#
# Velocity S-wave (km/s) = 2.49942 3.26627 2.90823
# Velocity P-wave (km/s) = 3.58186 4.79765 4.23363
#
# Compressibility (1/GPa) = 0.09720879
#
# Stress axis : x y z
#
# Youngs Moduli (GPa) = 15.38657 62.31322 119.44638
#
# Poissons Ratio (x) = -0.25803 0.15225
# Poissons Ratio (y) = -0.06371 -0.12331
# Poissons Ratio (z) = 0.01961 -0.06433
#
# Static dielectric constant tensor:
#      x y z
#    x 1.826700 0.000000 0.000000 
#    y 0.000000 1.873400 0.000000 
#    z 0.000000 0.000000 1.897580 
# 
# From -- ./inp_files/20830.got.cif
#   From: 2010.05.17/outbox.cif.g08.bks.cpg/sg62_11_cif.got.tgz:20830.got - 2010.06.03 15:25:27.
