data_PCOD9463329
_publ_section_title
;
Structure prediction by ZEFSAII (Michael W. Deem and Ramdas Pophale) SiO2 
 PCOD9463329
Probable space group: P N M A
;
_chemical_formula_sum "Si O2"
_cell_formula_units_Z 64
_cell_length_a 9.498916
_cell_length_b 14.126579
_cell_length_c 24.447006
_cell_angle_alpha 90.000000
_cell_angle_beta 90.000000
_cell_angle_gamma 90.000000
_cell_volume 3280.474973
_symmetry_space_group_name_H-M "P N M A"
_symmetry_group_IT_number 62
_symmetry_cell_setting 'orthorhombic'
loop_
_space_group_symop_operation_xyz
x,y,z
1/2-x,-y,1/2+z
1/2+x,1/2-y,1/2-z
-x,1/2+y,-z
-x,-y,-z
1/2+x,y,1/2-z
1/2-x,1/2+y,1/2+z
x,1/2-y,z
loop_
_atom_site_type_symbol
_atom_site_label
_atom_site_fract_x
_atom_site_fract_y
_atom_site_fract_z
Si Si1 0.367012 0.513454 0.961534
Si Si2 0.434847 0.142469 0.355676
Si Si3 0.394723 0.357196 0.237363
Si Si4 0.884486 0.582275 0.655780
Si Si5 0.904856 0.364350 0.024182
Si Si6 0.534613 0.136962 0.690662
Si Si7 0.363899 0.863285 0.431491
Si Si8 0.217454 0.537178 0.247843
O O1 0.426614 0.551922 0.904216
O O2 0.246273 0.585846 0.983049
O O3 0.276345 0.419502 0.947973
O O4 0.500000 0.500000 0.000000
O O5 0.485938 0.250000 0.357449
O O6 0.470910 0.109309 0.294229
O O7 0.265066 0.134046 0.351501
O O8 0.464866 0.102479 0.416078
O O9 0.340302 0.250000 0.245662
O O10 0.503638 0.356745 0.188204
O O11 0.280787 0.437985 0.226170
O O12 0.859631 0.492575 0.695607
O O13 0.886568 0.250000 0.027178
O O14 0.014372 0.384709 0.975913
O O15 0.521427 0.250000 0.692033
O O16 0.585805 0.109154 0.629628
O O17 0.652325 0.102280 0.733562
O O18 0.387702 0.089440 0.707377
O O19 0.341137 0.750000 0.431861
#
# Coordination Sequence:
#
# PCOD9463329 Si02
#       8
#     8   8   8   8   8   8   8   8
#     4  11  23  39  63  90 122 166 204 255 317 368
#     4   8  16  31  54  81 113 157 197 237 292 357
#     4  10  20  35  59  92 129 164 199 244 308 382
#     4  10  19  35  57  83 122 159 200 245 301 364
#     4   9  19  38  63  89 118 159 209 256 304 370
#     4  11  23  41  65  90 122 164 210 269 325 368
#     4  10  22  42  66  90 120 161 211 263 316 370
#     4  11  21  39  62  91 125 158 207 259 309 383
#
# _framework density 19.509369
#
# number of rings (size 3 to 8) (size 9 to 14) (size 15 to 20)
#    0.000    2.000    2.500    1.125    0.000    2.500 
#    0.000    2.500    0.000    6.750    0.000    0.000 
#    0.000    0.000    0.000    0.000    0.000    0.000 
#
# Total GULP energy -356968.397399 kJ/mol
# GULP energy per Si atom -5577.631209 kJ/mol
# Density = 1.946496 g / cm^3
# Si number density = 19.509369 Si / 1000 Ang^3
#
#
#
# Elastic Constant Matrix: (Units=GPa)
#
#
# Indices 1 2 3 4 5 6 
#
# 1 91.6580 43.4729 76.9454 0.0000 0.0000 0.0000
# 2 43.4729 94.7002 42.2345 0.0000 0.0000 0.0000
# 3 76.9454 42.2345 119.9869 0.0000 0.0000 0.0000
# 4 0.0000 0.0000 0.0000 22.7565 0.0000 0.0000
# 5 0.0000 0.0000 0.0000 0.0000 41.3003 0.0000
# 6 0.0000 0.0000 0.0000 0.0000 0.0000 20.7630
#
#
#
# Elastic Compliance Matrix: (Units=1/GPa)
#
#
# Indices 1 2 3 4 5 6 
#
# 1 0.025674 -0.005270 -0.014609 0.000000 0.000000 0.000000
# 2 -0.005270 0.013608 -0.001410 0.000000 0.000000 0.000000
# 3 -0.014609 -0.001410 0.018199 0.000000 0.000000 0.000000
# 4 0.000000 0.000000 0.000000 0.043944 0.000000 0.000000
# 5 0.000000 0.000000 0.000000 0.000000 0.024213 0.000000
# 6 0.000000 0.000000 0.000000 0.000000 0.000000 0.048163
#
#
# Mechanical properties :
#
#
# Convention : Reuss Voigt Hill
#
# Bulk Modulus (GPa) = 67.10582 70.18339 68.64460
# Shear Modulus (GPa) = 22.58902 26.54343 24.56622
#
# Velocity S-wave (km/s) = 3.40642 3.69256 3.55237
# Velocity P-wave (km/s) = 7.06703 7.36426 7.21718
#
# Compressibility (1/GPa) = 0.01490184
#
# Stress axis : x y z
#
# Youngs Moduli (GPa) = 38.95001 73.48648 54.94782
#
# Poissons Ratio (x) = 0.38731 0.80274
# Poissons Ratio (y) = 0.20529 0.07748
# Poissons Ratio (z) = 0.56902 0.10362
#
# Static dielectric constant tensor:
#      x y z
#    x 1.671680 0.000000 0.000000 
#    y 0.000000 1.732820 0.000000 
#    z 0.000000 0.000000 1.712460 
# 
# From -- ./inp_files/28983.got.cif
#   From: 2010.05.17/outbox.cif.g08.bks.cpg/sg62_15_cif.got.tgz:28983.got - 2010.06.03 15:25:27.
