data_PCOD9463930
_publ_section_title
;
Structure prediction by ZEFSAII (Michael W. Deem and Ramdas Pophale) SiO2 
 PCOD9463930
Probable space group: P N M A
;
_chemical_formula_sum "Si O2"
_cell_formula_units_Z 64
_cell_length_a 20.140741
_cell_length_b 8.853563
_cell_length_c 20.919050
_cell_angle_alpha 90.000000
_cell_angle_beta 90.000000
_cell_angle_gamma 90.000000
_cell_volume 3730.228919
_symmetry_space_group_name_H-M "P N M A"
_symmetry_group_IT_number 62
_symmetry_cell_setting 'orthorhombic'
loop_
_space_group_symop_operation_xyz
x,y,z
1/2-x,-y,1/2+z
1/2+x,1/2-y,1/2-z
-x,1/2+y,-z
-x,-y,-z
1/2+x,y,1/2-z
1/2-x,1/2+y,1/2+z
x,1/2-y,z
loop_
_atom_site_type_symbol
_atom_site_label
_atom_site_fract_x
_atom_site_fract_y
_atom_site_fract_z
Si Si1 0.677776 0.432440 0.571829
Si Si2 0.421776 0.069419 0.680663
Si Si3 0.077887 0.068079 0.317476
Si Si4 0.575953 0.568079 0.818142
Si Si5 0.575365 0.068023 0.681482
Si Si6 0.673046 0.567885 0.932098
Si Si7 0.172598 0.430919 0.074353
Si Si8 0.677182 0.068729 0.069643
O O1 0.684805 0.250000 0.573644
O O2 0.624167 0.479073 0.624559
O O3 0.656809 0.471873 0.499302
O O4 0.749535 0.504844 0.583803
O O5 0.419169 0.250000 0.682996
O O6 0.498744 0.023316 0.669228
O O7 0.402364 0.003197 0.749739
O O8 0.374569 0.009330 0.625155
O O9 0.080718 0.250000 0.311773
O O10 0.125790 0.022276 0.375172
O O11 0.001008 0.026003 0.330231
O O12 0.579321 0.750000 0.813771
O O13 0.595510 0.499314 0.749879
O O14 0.623642 0.520224 0.875797
O O15 0.577265 0.250000 0.685383
O O16 0.669447 0.750000 0.938886
O O17 0.749662 0.530569 0.915894
O O18 0.657015 0.494479 0.000275
O O19 0.165966 0.250000 0.080837
O O20 0.679373 0.250000 0.067308
#
# Coordination Sequence:
#
# PCOD9463930 Si02
#       8
#     8   8   8   8   8   8   8   8
#     4   9  19  36  54  72  99 133 164 199 248 298
#     4  10  20  33  51  75 100 128 165 206 245 290
#     4   9  19  35  52  72 101 133 164 202 246 291
#     4   9  18  34  54  74  98 132 170 201 238 294
#     4   9  19  35  52  73 101 129 162 207 251 288
#     4   9  19  35  53  73 100 133 166 201 244 294
#     4   9  18  33  51  71  99 133 163 197 245 295
#     4  10  20  33  51  76 102 128 164 207 245 287
#
# _framework density 17.157124
#
# number of rings (size 3 to 8) (size 9 to 14) (size 15 to 20)
#    0.000    2.750    0.000    1.500    0.000    6.500 
#    0.000    3.750    0.000    0.000    0.000    0.000 
#    0.000    0.000    0.000    0.000    0.000    0.000 
#
# Total GULP energy -356916.762255 kJ/mol
# GULP energy per Si atom -5576.824410 kJ/mol
# Density = 1.711807 g / cm^3
# Si number density = 17.157124 Si / 1000 Ang^3
#
#
#
# Elastic Constant Matrix: (Units=GPa)
#
#
# Indices 1 2 3 4 5 6 
#
# 1 101.7853 35.1532 127.3010 0.0000 0.0000 0.0000
# 2 35.1532 16.5677 46.8910 0.0000 0.0000 0.0000
# 3 127.3010 46.8910 192.4017 0.0000 0.0000 0.0000
# 4 0.0000 0.0000 0.0000 31.5310 0.0000 0.0000
# 5 0.0000 0.0000 0.0000 0.0000 42.9065 0.0000
# 6 0.0000 0.0000 0.0000 0.0000 0.0000 22.8700
#
#
#
# Elastic Compliance Matrix: (Units=1/GPa)
#
#
# Indices 1 2 3 4 5 6 
#
# 1 0.070215 -0.056395 -0.032713 0.000000 0.000000 0.000000
# 2 -0.056395 0.239859 -0.021143 0.000000 0.000000 0.000000
# 3 -0.032713 -0.021143 0.031995 0.000000 0.000000 0.000000
# 4 0.000000 0.000000 0.000000 0.031715 0.000000 0.000000
# 5 0.000000 0.000000 0.000000 0.000000 0.023306 0.000000
# 6 0.000000 0.000000 0.000000 0.000000 0.000000 0.043725
#
#
# Mechanical properties :
#
#
# Convention : Reuss Voigt Hill
#
# Bulk Modulus (GPa) = 8.22605 81.04946 44.63775
# Shear Modulus (GPa) = 7.12413 26.22214 16.67314
#
# Velocity S-wave (km/s) = 2.03993 3.91366 3.12074
# Velocity P-wave (km/s) = 3.21766 8.23191 6.24971
#
# Compressibility (1/GPa) = 0.12156510
#
# Stress axis : x y z
#
# Youngs Moduli (GPa) = 14.24200 4.16912 31.25533
#
# Poissons Ratio (x) = 0.23512 1.02245
# Poissons Ratio (y) = 0.80318 0.66085
# Poissons Ratio (z) = 0.46589 0.08815
#
# Static dielectric constant tensor:
#      x y z
#    x 1.571460 0.000000 0.000000 
#    y 0.000000 1.576660 0.000000 
#    z 0.000000 0.000000 1.555460 
# 
# From -- ./inp_files/27733.got.cif
#   From: 2010.05.17/outbox.cif.g08.bks.cpg/sg62_14_cif.got.tgz:27733.got - 2010.06.03 15:25:27.
