data_PCOD9463209
_publ_section_title
;
Structure prediction by ZEFSAII (Michael W. Deem and Ramdas Pophale) SiO2 
 PCOD9463209
Probable space group: P N M A
;
_chemical_formula_sum "Si O2"
_cell_formula_units_Z 56
_cell_length_a 23.312278
_cell_length_b 14.639429
_cell_length_c 6.864630
_cell_angle_alpha 90.000000
_cell_angle_beta 90.000000
_cell_angle_gamma 90.000000
_cell_volume 2342.750208
_symmetry_space_group_name_H-M "P N M A"
_symmetry_group_IT_number 62
_symmetry_cell_setting 'orthorhombic'
loop_
_space_group_symop_operation_xyz
x,y,z
1/2-x,-y,1/2+z
1/2+x,1/2-y,1/2-z
-x,1/2+y,-z
-x,-y,-z
1/2+x,y,1/2-z
1/2-x,1/2+y,1/2+z
x,1/2-y,z
loop_
_atom_site_type_symbol
_atom_site_label
_atom_site_fract_x
_atom_site_fract_y
_atom_site_fract_z
Si Si1 0.675380 0.646567 0.016598
Si Si2 0.681481 0.144075 0.872638
Si Si3 0.948717 0.409919 0.555608
Si Si4 0.193645 0.858654 0.022286
Si Si5 0.388928 0.990348 0.582743
Si Si6 0.060003 0.073388 0.705166
Si Si7 0.291152 0.856778 0.592745
O O1 0.692978 0.750000 0.985416
O O2 0.608156 0.641254 0.983950
O O3 0.683804 0.630535 0.244956
O O4 0.726219 0.601455 0.890452
O O5 0.669593 0.250000 0.912533
O O6 0.738485 0.120093 0.995676
O O7 0.621799 0.091680 0.891993
O O8 0.697718 0.139838 0.642611
O O9 0.925678 0.463381 0.747970
O O10 0.960372 0.475553 0.373381
O O11 0.007798 0.364178 0.628021
O O12 0.184482 0.750000 0.974075
O O13 0.146144 0.932229 0.956335
O O14 0.428332 0.932968 0.433993
O O15 0.340610 0.922990 0.669922
O O16 0.299005 0.750000 0.651935
#
# Coordination Sequence:
#
# PCOD9463209 Si02
#       7
#     8   8   8   8   8   8   8
#     4   8  15  30  51  75 104 135 171 218 263 311
#     4   8  15  30  51  75 104 135 171 218 263 311
#     4  10  21  35  51  75 105 138 179 218 256 317
#     4   8  15  29  51  81 108 132 171 218 265 318
#     4  10  19  34  58  78 103 142 174 216 276 314
#     4  10  21  35  51  75 105 138 179 218 256 317
#     4   8  15  29  51  81 108 132 171 218 265 318
#
# _framework density 23.903531000000001
#
# number of rings (size 3 to 8) (size 9 to 14) (size 15 to 20)
#    0.000    3.143    0.000    2.143    2.000    0.571 
#    0.000    1.429    0.000    7.714    0.000    0.000 
#    0.000    0.000    0.000    0.000    0.000    0.000 
#
# Total GULP energy -312011.157874 kJ/mol
# GULP energy per Si atom -5571.627819 kJ/mol
# Density = 2.384913 g / cm^3
# Si number density = 23.903531 Si / 1000 Ang^3
#
#
#
# Elastic Constant Matrix: (Units=GPa)
#
#
# Indices 1 2 3 4 5 6 
#
# 1 151.6020 22.7148 16.4528 0.0000 0.0000 0.0000
# 2 22.7148 62.7605 -5.6885 0.0000 0.0000 0.0000
# 3 16.4528 -5.6885 71.9773 0.0000 0.0000 0.0000
# 4 0.0000 0.0000 0.0000 4.0573 0.0000 0.0000
# 5 0.0000 0.0000 0.0000 0.0000 39.4081 0.0000
# 6 0.0000 0.0000 0.0000 0.0000 0.0000 -37.9864
#
#
#
# Elastic Compliance Matrix: (Units=1/GPa)
#
#
# Indices 1 2 3 4 5 6 
#
# 1 0.007216 -0.002781 -0.001869 0.000000 0.000000 0.000000
# 2 -0.002781 0.017120 0.001989 0.000000 0.000000 0.000000
# 3 -0.001869 0.001989 0.014478 0.000000 0.000000 0.000000
# 4 0.000000 0.000000 0.000000 0.246471 0.000000 0.000000
# 5 0.000000 0.000000 0.000000 0.000000 0.025375 0.000000
# 6 0.000000 0.000000 0.000000 0.000000 0.000000 -0.026325
#
#
# Mechanical properties :
#
#
# Convention : Reuss Voigt Hill
#
# Bulk Modulus (GPa) = 29.85882 39.25534 34.55708
# Shear Modulus (GPa) = 16.62116 17.95316 17.28716
#
# Velocity S-wave (km/s) = 2.63980 2.74353 2.69217
# Velocity P-wave (km/s) = 4.67010 5.14723 4.91446
#
# Compressibility (1/GPa) = 0.03349094
#
# Stress axis : x y z
#
# Youngs Moduli (GPa) = 138.58556 58.40993 69.07166
#
# Poissons Ratio (x) = 0.16244 0.12911
# Poissons Ratio (y) = 0.38541 -0.13737
# Poissons Ratio (z) = 0.25904 -0.11616
#
# Static dielectric constant tensor:
#      x y z
#    x 2.049750 0.000000 0.000000 
#    y 0.000000 1.973400 0.000000 
#    z 0.000000 0.000000 1.972570 
# 
# From -- ./inp_files/8829.got.cif
#   From: 2010.05.17/outbox.cif.g08.bks.cpg/sg62_5_cif.got.tgz:8829.got - 2010.06.03 15:25:27.
