data_PCOD9463326
_publ_section_title
;
Structure prediction by ZEFSAII (Michael W. Deem and Ramdas Pophale) SiO2 
 PCOD9463326
Probable space group: P N M A
;
_chemical_formula_sum "Si O2"
_cell_formula_units_Z 64
_cell_length_a 12.593015
_cell_length_b 8.009649
_cell_length_c 28.756973
_cell_angle_alpha 90.000000
_cell_angle_beta 90.000000
_cell_angle_gamma 90.000000
_cell_volume 2900.590199
_symmetry_space_group_name_H-M "P N M A"
_symmetry_group_IT_number 62
_symmetry_cell_setting 'orthorhombic'
loop_
_space_group_symop_operation_xyz
x,y,z
1/2-x,-y,1/2+z
1/2+x,1/2-y,1/2-z
-x,1/2+y,-z
-x,-y,-z
1/2+x,y,1/2-z
1/2-x,1/2+y,1/2+z
x,1/2-y,z
loop_
_atom_site_type_symbol
_atom_site_label
_atom_site_fract_x
_atom_site_fract_y
_atom_site_fract_z
Si Si1 0.976989 0.443160 0.432828
Si Si2 0.270985 0.054105 0.020125
Si Si3 0.819732 0.545878 0.619743
Si Si4 0.406456 0.444744 0.587284
Si Si5 0.127747 0.943929 0.936299
Si Si6 0.367154 0.557523 0.158859
Si Si7 0.368425 0.450670 0.687904
Si Si8 0.059037 0.054121 0.288369
O O1 0.993239 0.250000 0.445442
O O2 0.889860 0.513428 0.469045
O O3 0.913670 0.452830 0.383802
O O4 0.091338 0.515829 0.417681
O O5 0.279578 0.250000 0.008615
O O6 0.193596 0.036937 0.064795
O O7 0.204568 0.961919 0.980527
O O8 0.820191 0.750000 0.616924
O O9 0.702642 0.490324 0.605337
O O10 0.857361 0.500064 0.671482
O O11 0.377206 0.250000 0.588230
O O12 0.515500 0.466096 0.559251
O O13 0.428528 0.499258 0.640401
O O14 0.102850 0.750000 0.929019
O O15 0.360432 0.750000 0.142979
O O16 0.253023 0.504119 0.176639
O O17 0.451530 0.542447 0.200140
O O18 0.375210 0.250000 0.693057
O O19 0.404510 0.527510 0.736078
O O20 0.039330 0.250000 0.296116
#
# Coordination Sequence:
#
# PCOD9463326 Si02
#       8
#     8   8   8   8   8   8   8   8
#     4   9  18  35  60  85 112 147 192 240 285 342
#     4  11  22  37  60  89 117 149 195 244 295 350
#     4   8  18  38  58  81 115 153 190 236 287 342
#     4  11  23  41  60  82 116 152 196 244 293 347
#     4  11  23  39  59  83 118 159 197 236 292 351
#     4  10  19  35  57  82 114 148 187 236 292 344
#     4  10  22  38  58  85 114 148 191 241 293 347
#     4  10  21  37  59  86 116 151 193 237 289 348
#
# _framework density 22.064475999999999
#
# number of rings (size 3 to 8) (size 9 to 14) (size 15 to 20)
#    0.000    2.000    1.250    3.000    0.000    4.000 
#    0.000    8.750    0.000    0.000    0.000    0.000 
#    0.000    0.000    0.000    0.000    0.000    0.000 
#
# Total GULP energy -357428.516786 kJ/mol
# GULP energy per Si atom -5584.820575 kJ/mol
# Density = 2.201426 g / cm^3
# Si number density = 22.064476 Si / 1000 Ang^3
#
#
#
# Elastic Constant Matrix: (Units=GPa)
#
#
# Indices 1 2 3 4 5 6 
#
# 1 76.2297 6.4901 -0.9890 0.0000 0.0000 0.0000
# 2 6.4901 39.1530 -0.7849 0.0000 0.0000 0.0000
# 3 -0.9890 -0.7849 71.1710 0.0000 0.0000 0.0000
# 4 0.0000 0.0000 0.0000 22.3224 0.0000 0.0000
# 5 0.0000 0.0000 0.0000 0.0000 28.6194 0.0000
# 6 0.0000 0.0000 0.0000 0.0000 0.0000 -7.9749
#
#
#
# Elastic Compliance Matrix: (Units=1/GPa)
#
#
# Indices 1 2 3 4 5 6 
#
# 1 0.013308 -0.002203 0.000161 0.000000 0.000000 0.000000
# 2 -0.002203 0.025911 0.000255 0.000000 0.000000 0.000000
# 3 0.000161 0.000255 0.014056 0.000000 0.000000 0.000000
# 4 0.000000 0.000000 0.000000 0.044798 0.000000 0.000000
# 5 0.000000 0.000000 0.000000 0.000000 0.034941 0.000000
# 6 0.000000 0.000000 0.000000 0.000000 0.000000 -0.125393
#
#
# Mechanical properties :
#
#
# Convention : Reuss Voigt Hill
#
# Bulk Modulus (GPa) = 20.12042 21.77624 20.94833
# Shear Modulus (GPa) = 180.10403 20.71586 100.40994
#
# Velocity S-wave (km/s) = 9.04453 3.06744 6.75324
# Velocity P-wave (km/s) = 10.87244 4.73670 8.38589
#
# Compressibility (1/GPa) = 0.04970076
#
# Stress axis : x y z
#
# Youngs Moduli (GPa) = 75.14351 38.59352 71.14547
#
# Poissons Ratio (x) = 0.08501 -0.01143
# Poissons Ratio (y) = 0.16552 -0.01815
# Poissons Ratio (z) = -0.01207 -0.00985
#
# Static dielectric constant tensor:
#      x y z
#    x 1.806780 0.000000 0.000000 
#    y 0.000000 1.801590 0.000000 
#    z 0.000000 0.000000 1.841480 
# 
# From -- ./inp_files/32589.got.cif
#   From: 2010.05.17/outbox.cif.g08.bks.cpg/sg62_17_cif.got.tgz:32589.got - 2010.06.03 15:25:27.
