data_PCOD9463526
_publ_section_title
;
Structure prediction by ZEFSAII (Michael W. Deem and Ramdas Pophale) SiO2 
 PCOD9463526
Probable space group: P N M A
;
_chemical_formula_sum "Si O2"
_cell_formula_units_Z 64
_cell_length_a 14.973574
_cell_length_b 7.735228
_cell_length_c 25.892222
_cell_angle_alpha 90.000000
_cell_angle_beta 90.000000
_cell_angle_gamma 90.000000
_cell_volume 2998.940950
_symmetry_space_group_name_H-M "P N M A"
_symmetry_group_IT_number 62
_symmetry_cell_setting 'orthorhombic'
loop_
_space_group_symop_operation_xyz
x,y,z
1/2-x,-y,1/2+z
1/2+x,1/2-y,1/2-z
-x,1/2+y,-z
-x,-y,-z
1/2+x,y,1/2-z
1/2-x,1/2+y,1/2+z
x,1/2-y,z
loop_
_atom_site_type_symbol
_atom_site_label
_atom_site_fract_x
_atom_site_fract_y
_atom_site_fract_z
Si Si1 0.946069 0.454928 0.448747
Si Si2 0.442529 0.039704 0.751608
Si Si3 0.288679 0.537716 0.393586
Si Si4 0.604321 0.042108 0.505258
Si Si5 0.866231 0.547070 0.215493
Si Si6 0.249961 0.537743 0.576510
Si Si7 0.733565 0.046601 0.306109
Si Si8 0.593802 0.956077 0.132728
O O1 0.939149 0.250000 0.446322
O O2 0.844548 0.520750 0.447319
O O3 0.000000 0.500000 0.500000
O O4 0.005613 0.511518 0.400324
O O5 0.443976 0.250000 0.753480
O O6 0.539190 0.974810 0.733990
O O7 0.417084 0.976798 0.809026
O O8 0.367274 0.984181 0.711694
O O9 0.288939 0.750000 0.394621
O O10 0.348905 0.480098 0.441682
O O11 0.328014 0.478174 0.338474
O O12 0.184830 0.481413 0.394642
O O13 0.610347 0.250000 0.505869
O O14 0.665659 0.980579 0.457503
O O15 0.500000 0.000000 0.500000
O O16 0.880731 0.750000 0.205836
O O17 0.796334 0.531759 0.262036
O O18 0.251822 0.750000 0.576584
O O19 0.252695 0.479962 0.635964
O O20 0.753176 0.250000 0.306646
O O21 0.604282 0.750000 0.137035
#
# Coordination Sequence:
#
# PCOD9463526 Si02
#       8
#     8   8   8   8   8   8   8   8
#     4  11  22  38  61  87 115 150 192 237 289 350
#     4  10  21  36  59  86 116 153 196 243 292 348
#     4   9  18  35  59  81 112 152 188 228 291 351
#     4  10  21  39  60  82 109 150 195 237 283 337
#     4  10  20  37  59  86 116 152 195 242 292 347
#     4   9  21  40  58  79 117 160 190 226 291 357
#     4  11  22  37  58  85 119 159 195 235 292 351
#     4  10  19  36  59  85 116 152 188 234 292 348
#
# _framework density 21.340866999999999
#
# number of rings (size 3 to 8) (size 9 to 14) (size 15 to 20)
#    0.000    2.000    1.250    2.250    1.750    3.000 
#    0.000    6.250    0.000    0.000    0.000    0.000 
#    0.000    0.000    0.000    0.000    0.000    0.000 
#
# Total GULP energy -357540.312062 kJ/mol
# GULP energy per Si atom -5586.567376 kJ/mol
# Density = 2.129229 g / cm^3
# Si number density = 21.340867 Si / 1000 Ang^3
#
#
#
# Elastic Constant Matrix: (Units=GPa)
#
#
# Indices 1 2 3 4 5 6 
#
# 1 143.8742 -13.3074 37.4470 0.0000 0.0000 0.0000
# 2 -13.3074 20.7426 -10.1197 0.0000 0.0000 0.0000
# 3 37.4470 -10.1197 107.1422 0.0000 0.0000 0.0000
# 4 0.0000 0.0000 0.0000 9.2187 0.0000 0.0000
# 5 0.0000 0.0000 0.0000 0.0000 38.5952 0.0000
# 6 0.0000 0.0000 0.0000 0.0000 0.0000 25.4585
#
#
#
# Elastic Compliance Matrix: (Units=1/GPa)
#
#
# Indices 1 2 3 4 5 6 
#
# 1 0.007939 0.003920 -0.002404 0.000000 0.000000 0.000000
# 2 0.003920 0.052474 0.003586 0.000000 0.000000 0.000000
# 3 -0.002404 0.003586 0.010512 0.000000 0.000000 0.000000
# 4 0.000000 0.000000 0.000000 0.108475 0.000000 0.000000
# 5 0.000000 0.000000 0.000000 0.000000 0.025910 0.000000
# 6 0.000000 0.000000 0.000000 0.000000 0.000000 0.039280
#
#
# Mechanical properties :
#
#
# Convention : Reuss Voigt Hill
#
# Bulk Modulus (GPa) = 12.32599 33.31100 22.81850
# Shear Modulus (GPa) = 19.12558 31.83708 25.48133
#
# Velocity S-wave (km/s) = 2.99690 3.86662 3.45920
# Velocity P-wave (km/s) = 4.21468 5.96467 5.16434
#
# Compressibility (1/GPa) = 0.08112937
#
# Stress axis : x y z
#
# Youngs Moduli (GPa) = 125.96160 19.05693 95.12507
#
# Poissons Ratio (x) = -0.07471 0.22872
# Poissons Ratio (y) = -0.49379 -0.34113
# Poissons Ratio (z) = 0.30287 -0.06834
#
# Static dielectric constant tensor:
#      x y z
#    x 1.774950 0.000000 0.000000 
#    y 0.000000 1.802400 0.000000 
#    z 0.000000 0.000000 1.762060 
# 
# From -- ./inp_files/29777.got.cif
#   From: 2010.05.17/outbox.cif.g08.bks.cpg/sg62_15_cif.got.tgz:29777.got - 2010.06.03 15:25:27.
