data_PCOD9463148
_publ_section_title
;
Structure prediction by ZEFSAII (Michael W. Deem and Ramdas Pophale) SiO2 
 PCOD9463148
Probable space group: P N M A
;
_chemical_formula_sum "Si O2"
_cell_formula_units_Z 48
_cell_length_a 15.393112
_cell_length_b 8.525402
_cell_length_c 20.443530
_cell_angle_alpha 90.000000
_cell_angle_beta 90.000000
_cell_angle_gamma 90.000000
_cell_volume 2682.854893
_symmetry_space_group_name_H-M "P N M A"
_symmetry_group_IT_number 62
_symmetry_cell_setting 'orthorhombic'
loop_
_space_group_symop_operation_xyz
x,y,z
1/2-x,-y,1/2+z
1/2+x,1/2-y,1/2-z
-x,1/2+y,-z
-x,-y,-z
1/2+x,y,1/2-z
1/2-x,1/2+y,1/2+z
x,1/2-y,z
loop_
_atom_site_type_symbol
_atom_site_label
_atom_site_fract_x
_atom_site_fract_y
_atom_site_fract_z
Si Si1 0.005551 0.439859 0.194137
Si Si2 0.772174 0.436780 0.985806
Si Si3 0.695560 0.060130 0.340344
Si Si4 0.612785 0.559389 0.813411
Si Si5 0.915784 0.438434 0.462965
Si Si6 0.564219 0.063324 0.556366
O O1 0.003274 0.250000 0.194137
O O2 0.106900 0.487146 0.195161
O O3 0.949633 0.497069 0.255830
O O4 0.965358 0.497685 0.126154
O O5 0.775168 0.250000 0.989348
O O6 0.802616 0.492273 0.913637
O O7 0.673641 0.496084 0.992993
O O8 0.839247 0.508631 0.037306
O O9 0.696123 0.250000 0.346163
O O10 0.786076 0.012780 0.306478
O O11 0.610678 0.750000 0.812016
O O12 0.583788 0.512423 0.886400
O O13 0.913070 0.250000 0.464986
O O14 0.000000 0.500000 0.500000
O O15 0.559246 0.250000 0.556644
O O16 0.500000 0.000000 0.500000
#
# Coordination Sequence:
#
# PCOD9463148 Si02
#       6
#     8   8   8   8   8   8
#     4  10  19  34  56  80 110 147 188 231 279 336
#     4  11  21  35  57  83 110 146 189 232 281 336
#     4   9  17  32  55  77 106 147 186 227 276 330
#     4   8  17  34  54  80 110 147 189 227 274 336
#     4  10  20  38  61  86 117 151 191 235 280 332
#     4  12  23  36  55  83 116 147 184 231 285 339
#
# _framework density 17.891390000000001
#
# number of rings (size 3 to 8) (size 9 to 14) (size 15 to 20)
#    0.000    2.000    1.667    4.500    0.000    0.000 
#    3.000    4.167    0.000    0.000    0.000    0.000 
#    0.000    0.000    0.000    0.000    0.000    0.000 
#
# Total GULP energy -267920.092361 kJ/mol
# GULP energy per Si atom -5581.668591 kJ/mol
# Density = 1.785067 g / cm^3
# Si number density = 17.891390 Si / 1000 Ang^3
#
#
#
# Elastic Constant Matrix: (Units=GPa)
#
#
# Indices 1 2 3 4 5 6 
#
# 1 186.8489 29.5891 97.7453 0.0000 0.0000 0.0000
# 2 29.5891 34.5493 14.1912 0.0000 0.0000 0.0000
# 3 97.7453 14.1912 96.5769 0.0000 0.0000 0.0000
# 4 0.0000 0.0000 0.0000 22.7732 0.0000 0.0000
# 5 0.0000 0.0000 0.0000 0.0000 36.2107 0.0000
# 6 0.0000 0.0000 0.0000 0.0000 0.0000 25.8549
#
#
#
# Elastic Compliance Matrix: (Units=1/GPa)
#
#
# Indices 1 2 3 4 5 6 
#
# 1 0.012379 -0.005806 -0.011676 0.000000 0.000000 0.000000
# 2 -0.005806 0.033527 0.000950 0.000000 0.000000 0.000000
# 3 -0.011676 0.000950 0.022032 0.000000 0.000000 0.000000
# 4 0.000000 0.000000 0.000000 0.043911 0.000000 0.000000
# 5 0.000000 0.000000 0.000000 0.000000 0.027616 0.000000
# 6 0.000000 0.000000 0.000000 0.000000 0.000000 0.038677
#
#
# Mechanical properties :
#
#
# Convention : Reuss Voigt Hill
#
# Bulk Modulus (GPa) = 28.67498 66.78070 47.72784
# Shear Modulus (GPa) = 22.43847 28.73106 25.58476
#
# Velocity S-wave (km/s) = 3.54524 4.01167 3.78564
# Velocity P-wave (km/s) = 5.72890 7.67233 6.77071
#
# Compressibility (1/GPa) = 0.03487360
#
# Stress axis : x y z
#
# Youngs Moduli (GPa) = 80.77965 29.82714 45.38834
#
# Poissons Ratio (x) = 0.17318 0.52995
# Poissons Ratio (y) = 0.46902 -0.04312
# Poissons Ratio (z) = 0.94318 -0.02833
#
# Static dielectric constant tensor:
#      x y z
#    x 1.623130 0.000000 0.000000 
#    y 0.000000 1.605870 0.000000 
#    z 0.000000 0.000000 1.586080 
# 
# From -- ./inp_files/26887.got.cif
#   From: 2010.05.17/outbox.cif.g08.bks.cpg/sg62_14_cif.got.tgz:26887.got - 2010.06.03 15:25:27.
