data_PCOD9463703
_publ_section_title
;
Structure prediction by ZEFSAII (Michael W. Deem and Ramdas Pophale) SiO2 
 PCOD9463703
Probable space group: P N M A
;
_chemical_formula_sum "Si O2"
_cell_formula_units_Z 48
_cell_length_a 9.772644
_cell_length_b 29.152925
_cell_length_c 8.519791
_cell_angle_alpha 90.000000
_cell_angle_beta 90.000000
_cell_angle_gamma 90.000000
_cell_volume 2427.298318
_symmetry_space_group_name_H-M "P N M A"
_symmetry_group_IT_number 62
_symmetry_cell_setting 'orthorhombic'
loop_
_space_group_symop_operation_xyz
x,y,z
1/2-x,-y,1/2+z
1/2+x,1/2-y,1/2-z
-x,1/2+y,-z
-x,-y,-z
1/2+x,y,1/2-z
1/2-x,1/2+y,1/2+z
x,1/2-y,z
loop_
_atom_site_type_symbol
_atom_site_label
_atom_site_fract_x
_atom_site_fract_y
_atom_site_fract_z
Si Si1 0.083701 0.698371 0.584213
Si Si2 0.871786 0.576362 0.878885
Si Si3 0.787897 0.837671 0.662590
Si Si4 0.903616 0.959452 0.555887
Si Si5 0.625836 0.895317 0.076683
Si Si6 0.348091 0.410968 0.559163
O O1 0.107984 0.750000 0.528118
O O2 0.171064 0.689927 0.743411
O O3 0.132827 0.658403 0.465788
O O4 0.921897 0.690714 0.614906
O O5 0.839720 0.623288 0.784385
O O6 0.869951 0.538935 0.740550
O O7 0.754862 0.576255 0.009951
O O8 0.018579 0.577404 0.958473
O O9 0.719209 0.865476 0.518868
O O10 0.763718 0.951009 0.463431
O O11 0.996571 0.914865 0.518281
O O12 0.000000 0.000000 0.500000
O O13 0.614288 0.903167 0.260957
#
# Coordination Sequence:
#
# PCOD9463703 Si02
#       6
#     8   8   8   8   8   8
#     4  11  21  38  63  91 121 159 211 258 306 372
#     4  10  20  39  65  85 120 163 200 248 299 367
#     4  10  19  38  62  89 118 159 207 250 307 365
#     4  11  23  41  64  92 121 159 209 256 307 369
#     4  11  23  39  62  90 127 163 203 253 312 368
#     4  11  21  39  64  89 126 163 200 249 314 365
#
# _framework density 19.775072999999999
#
# number of rings (size 3 to 8) (size 9 to 14) (size 15 to 20)
#    0.000    1.333    5.000    3.500    0.000    2.667 
#    0.000    4.167    0.000    0.000    0.000    0.000 
#    0.000    0.000    0.000    0.000    0.000    0.000 
#
# Total GULP energy -268081.067618 kJ/mol
# GULP energy per Si atom -5585.022242 kJ/mol
# Density = 1.973006 g / cm^3
# Si number density = 19.775073 Si / 1000 Ang^3
#
#
#
# Elastic Constant Matrix: (Units=GPa)
#
#
# Indices 1 2 3 4 5 6 
#
# 1 92.7905 -8.1168 5.2416 0.0000 0.0000 0.0000
# 2 -8.1168 46.4109 17.1262 0.0000 0.0000 0.0000
# 3 5.2416 17.1262 82.0509 0.0000 0.0000 0.0000
# 4 0.0000 0.0000 0.0000 13.7655 0.0000 0.0000
# 5 0.0000 0.0000 0.0000 0.0000 22.8911 0.0000
# 6 0.0000 0.0000 0.0000 0.0000 0.0000 13.8934
#
#
#
# Elastic Compliance Matrix: (Units=1/GPa)
#
#
# Indices 1 2 3 4 5 6 
#
# 1 0.011053 0.002377 -0.001202 0.000000 0.000000 0.000000
# 2 0.002377 0.023856 -0.005131 0.000000 0.000000 0.000000
# 3 -0.001202 -0.005131 0.013335 0.000000 0.000000 0.000000
# 4 0.000000 0.000000 0.000000 0.072645 0.000000 0.000000
# 5 0.000000 0.000000 0.000000 0.000000 0.043685 0.000000
# 6 0.000000 0.000000 0.000000 0.000000 0.000000 0.071977
#
#
# Mechanical properties :
#
#
# Convention : Reuss Voigt Hill
#
# Bulk Modulus (GPa) = 24.79512 27.75049 26.27281
# Shear Modulus (GPa) = 19.38676 23.91007 21.64842
#
# Velocity S-wave (km/s) = 3.13447 3.48099 3.31226
# Velocity P-wave (km/s) = 5.06613 5.49726 5.28609
#
# Compressibility (1/GPa) = 0.04033051
#
# Stress axis : x y z
#
# Youngs Moduli (GPa) = 90.47506 41.91859 74.98859
#
# Poissons Ratio (x) = -0.09962 0.09015
# Poissons Ratio (y) = -0.21502 0.38478
# Poissons Ratio (z) = 0.10876 0.21509
#
# Static dielectric constant tensor:
#      x y z
#    x 1.701160 0.000000 0.000000 
#    y 0.000000 1.742050 0.000000 
#    z 0.000000 0.000000 1.660760 
# 
# From -- ./inp_files/4536.got.cif
#   From: 2010.05.17/outbox.cif.g08.bks.cpg/sg62_3_cif.got.tgz:4536.got - 2010.06.03 15:25:27.
