data_PCOD9463034
_publ_section_title
;
Structure prediction by ZEFSAII (Michael W. Deem and Ramdas Pophale) SiO2 
 PCOD9463034
Probable space group: P N M A
;
_chemical_formula_sum "Si O2"
_cell_formula_units_Z 64
_cell_length_a 15.242913
_cell_length_b 12.508169
_cell_length_c 17.691635
_cell_angle_alpha 90.000000
_cell_angle_beta 90.000000
_cell_angle_gamma 90.000000
_cell_volume 3373.103615
_symmetry_space_group_name_H-M "P N M A"
_symmetry_group_IT_number 62
_symmetry_cell_setting 'orthorhombic'
loop_
_space_group_symop_operation_xyz
x,y,z
1/2-x,-y,1/2+z
1/2+x,1/2-y,1/2-z
-x,1/2+y,-z
-x,-y,-z
1/2+x,y,1/2-z
1/2-x,1/2+y,1/2+z
x,1/2-y,z
loop_
_atom_site_type_symbol
_atom_site_label
_atom_site_fract_x
_atom_site_fract_y
_atom_site_fract_z
Si Si1 0.720052 0.628596 0.605396
Si Si2 0.254413 0.516591 0.738197
Si Si3 0.102725 0.514423 0.011459
Si Si4 0.750287 0.625109 0.922180
Si Si5 0.594181 0.876464 0.330723
Si Si6 0.519411 0.870786 0.091336
Si Si7 0.370496 0.962880 0.985994
Si Si8 0.919468 0.873414 0.249338
O O1 0.691300 0.750000 0.615007
O O2 0.753574 0.580939 0.684032
O O3 0.644817 0.559330 0.565209
O O4 0.799906 0.618050 0.546620
O O5 0.252883 0.595919 0.666361
O O6 0.337957 0.440650 0.722046
O O7 0.166292 0.445108 0.742437
O O8 0.158354 0.410714 0.037962
O O9 0.115663 0.595008 0.082478
O O10 0.000000 0.500000 0.000000
O O11 0.732597 0.750000 0.934023
O O12 0.677436 0.546417 0.958061
O O13 0.602601 0.750000 0.317231
O O14 0.493396 0.906734 0.311560
O O15 0.553275 0.750000 0.081006
O O16 0.471648 0.876336 0.171499
O O17 0.447099 0.899662 0.028082
O O18 0.591555 0.961891 0.080198
O O19 0.894121 0.750000 0.234088
#
# Coordination Sequence:
#
# PCOD9463034 Si02
#       8
#     8   8   8   8   8   8   8   8
#     4  11  23  38  59  82 112 153 194 237 289 347
#     4  11  21  38  57  82 117 153 194 245 289 351
#     4  10  22  40  60  86 116 153 199 249 293 350
#     4  10  21  37  58  83 114 154 190 233 291 345
#     4  10  21  37  60  87 118 154 196 247 301 355
#     4  10  19  33  57  84 115 146 180 228 282 340
#     4  10  20  36  55  83 115 146 184 231 278 343
#     4  10  20  35  57  85 113 149 191 238 296 349
#
# _framework density 18.973624000000001
#
# number of rings (size 3 to 8) (size 9 to 14) (size 15 to 20)
#    0.000    1.750    1.250    3.375    0.000    1.000 
#    0.000    6.875    0.000    3.000    0.000    0.000 
#    0.000    0.000    0.000    0.000    0.000    0.000 
#
# Total GULP energy -357247.974701 kJ/mol
# GULP energy per Si atom -5581.999605 kJ/mol
# Density = 1.893044 g / cm^3
# Si number density = 18.973624 Si / 1000 Ang^3
#
#
#
# Elastic Constant Matrix: (Units=GPa)
#
#
# Indices 1 2 3 4 5 6 
#
# 1 57.4505 8.4879 5.2394 0.0000 0.0000 0.0000
# 2 8.4879 69.9535 28.3947 0.0000 0.0000 0.0000
# 3 5.2394 28.3947 78.1895 0.0000 0.0000 0.0000
# 4 0.0000 0.0000 0.0000 16.4777 0.0000 0.0000
# 5 0.0000 0.0000 0.0000 0.0000 24.4410 0.0000
# 6 0.0000 0.0000 0.0000 0.0000 0.0000 6.9097
#
#
#
# Elastic Compliance Matrix: (Units=1/GPa)
#
#
# Indices 1 2 3 4 5 6 
#
# 1 0.017739 -0.001959 -0.000477 0.000000 0.000000 0.000000
# 2 -0.001959 0.016983 -0.006036 0.000000 0.000000 0.000000
# 3 -0.000477 -0.006036 0.015013 0.000000 0.000000 0.000000
# 4 0.000000 0.000000 0.000000 0.060688 0.000000 0.000000
# 5 0.000000 0.000000 0.000000 0.000000 0.040915 0.000000
# 6 0.000000 0.000000 0.000000 0.000000 0.000000 0.144724
#
#
# Mechanical properties :
#
#
# Convention : Reuss Voigt Hill
#
# Bulk Modulus (GPa) = 30.49593 32.20418 31.35005
# Shear Modulus (GPa) = 15.43507 20.46377 17.94942
#
# Velocity S-wave (km/s) = 2.85529 3.28767 3.07908
# Velocity P-wave (km/s) = 5.19403 5.60551 5.40369
#
# Compressibility (1/GPa) = 0.03279126
#
# Stress axis : x y z
#
# Youngs Moduli (GPa) = 56.37236 58.88234 66.60676
#
# Poissons Ratio (x) = 0.11533 0.03180
# Poissons Ratio (y) = 0.11041 0.40205
# Poissons Ratio (z) = 0.02691 0.35542
#
# Static dielectric constant tensor:
#      x y z
#    x 1.656410 0.000000 0.000000 
#    y 0.000000 1.629030 0.000000 
#    z 0.000000 0.000000 1.659100 
# 
# From -- ./inp_files/24031.got.cif
#   From: 2010.05.17/outbox.cif.g08.bks.cpg/sg62_13_cif.got.tgz:24031.got - 2010.06.03 15:25:27.
