data_PCOD9463694
_publ_section_title
;
Structure prediction by ZEFSAII (Michael W. Deem and Ramdas Pophale) SiO2 
 PCOD9463694
Probable space group: P N M A
;
_chemical_formula_sum "Si O2"
_cell_formula_units_Z 44
_cell_length_a 10.654400
_cell_length_b 13.790620
_cell_length_c 13.630960
_cell_angle_alpha 90.000000
_cell_angle_beta 90.000000
_cell_angle_gamma 90.000000
_cell_volume 2002.807609
_symmetry_space_group_name_H-M "P N M A"
_symmetry_group_IT_number 62
_symmetry_cell_setting 'orthorhombic'
loop_
_space_group_symop_operation_xyz
x,y,z
1/2-x,-y,1/2+z
1/2+x,1/2-y,1/2-z
-x,1/2+y,-z
-x,-y,-z
1/2+x,y,1/2-z
1/2-x,1/2+y,1/2+z
x,1/2-y,z
loop_
_atom_site_type_symbol
_atom_site_label
_atom_site_fract_x
_atom_site_fract_y
_atom_site_fract_z
Si Si1 0.595746 0.250000 0.453221
Si Si2 0.401423 0.083046 0.029265
Si Si3 0.304360 0.250000 0.397998
Si Si4 0.187452 0.936323 0.004812
Si Si5 0.846007 0.250000 0.332130
Si Si6 0.415376 0.250000 0.868611
Si Si7 0.660104 0.250000 0.751181
Si Si8 0.443098 0.591691 0.390267
O O1 0.453699 0.250000 0.418775
O O2 0.708412 0.250000 0.379849
O O3 0.606914 0.157299 0.521314
O O4 0.389366 0.156069 0.936561
O O5 0.280746 0.015697 0.045412
O O6 0.416134 0.154655 0.123345
O O7 0.500000 0.000000 0.000000
O O8 0.250292 0.156283 0.453676
O O9 0.309876 0.250000 0.281514
O O10 0.107440 0.985593 0.915711
O O11 0.092374 0.907163 0.091946
O O12 0.565822 0.250000 0.845248
O O13 0.310789 0.250000 0.778279
O O14 0.607838 0.150155 0.701728
#
# Coordination Sequence:
#
# PCOD9463694 Si02
#       8
#     4   8   4   8   4   4   4   8
#     4   9  16  37  64  88 113 158 210 256 320 371
#     4  11  24  43  66  87 131 177 217 254 332 406
#     4  10  24  33  61  96 130 153 210 281 309 362
#     4  10  19  38  60  94 121 163 213 262 319 384
#     4  11  22  43  60  88 125 175 206 259 325 385
#     4  11  25  44  65  98 132 172 218 278 325 385
#     4  11  21  41  66  96 134 162 214 284 323 381
#     4   9  17  35  69  88 111 161 214 263 315 386
#
# _framework density 21.969158
#
# number of rings (size 3 to 8) (size 9 to 14) (size 15 to 20)
#    0.000    1.818    3.636    1.636    0.000    5.818 
#    3.273    0.000    0.000    0.000    0.000    0.000 
#    0.000    0.000    0.000    0.000    0.000    0.000 
#
# Total GULP energy -245029.450639 kJ/mol
# GULP energy per Si atom -5568.851151 kJ/mol
# Density = 2.191916 g / cm^3
# Si number density = 21.969158 Si / 1000 Ang^3
#
#
#
# Elastic Constant Matrix: (Units=GPa)
#
#
# Indices 1 2 3 4 5 6 
#
# 1 45.8205 14.2716 -2.9344 0.0000 0.0000 0.0000
# 2 14.2716 148.5661 21.2243 0.0000 0.0000 0.0000
# 3 -2.9344 21.2243 26.9367 0.0000 0.0000 0.0000
# 4 0.0000 0.0000 0.0000 20.1125 0.0000 0.0000
# 5 0.0000 0.0000 0.0000 0.0000 17.0804 0.0000
# 6 0.0000 0.0000 0.0000 0.0000 0.0000 44.0070
#
#
#
# Elastic Compliance Matrix: (Units=1/GPa)
#
#
# Indices 1 2 3 4 5 6 
#
# 1 0.023034 -0.002897 0.004792 0.000000 0.000000 0.000000
# 2 -0.002897 0.007949 -0.006579 0.000000 0.000000 0.000000
# 3 0.004792 -0.006579 0.042830 0.000000 0.000000 0.000000
# 4 0.000000 0.000000 0.000000 0.049720 0.000000 0.000000
# 5 0.000000 0.000000 0.000000 0.000000 0.058547 0.000000
# 6 0.000000 0.000000 0.000000 0.000000 0.000000 0.022724
#
#
# Mechanical properties :
#
#
# Convention : Reuss Voigt Hill
#
# Bulk Modulus (GPa) = 15.51728 31.82737 23.67233
# Shear Modulus (GPa) = 21.21760 28.82410 25.02085
#
# Velocity S-wave (km/s) = 3.11109 3.62612 3.37843
# Velocity P-wave (km/s) = 4.47031 5.66131 5.10069
#
# Compressibility (1/GPa) = 0.06444429
#
# Stress axis : x y z
#
# Youngs Moduli (GPa) = 43.41482 125.79844 23.34813
#
# Poissons Ratio (x) = 0.36447 -0.11189
# Poissons Ratio (y) = 0.12578 0.15361
# Poissons Ratio (z) = -0.20805 0.82764
#
# Static dielectric constant tensor:
#      x y z
#    x 1.914240 0.000000 0.000000 
#    y 0.000000 1.769450 0.000000 
#    z 0.000000 0.000000 1.816940 
# 
# From -- ./inp_files/17952.got.cif
#   From: 2010.05.17/outbox.cif.g08.bks.cpg/sg62_9_cif.got.tgz:17952.got - 2010.06.03 15:25:27.
