data_PCOD9463171
_publ_section_title
;
Structure prediction by ZEFSAII (Michael W. Deem and Ramdas Pophale) SiO2 
 PCOD9463171
Probable space group: P N M A
;
_chemical_formula_sum "Si O2"
_cell_formula_units_Z 64
_cell_length_a 21.254311
_cell_length_b 8.248169
_cell_length_c 17.287753
_cell_angle_alpha 90.000000
_cell_angle_beta 90.000000
_cell_angle_gamma 90.000000
_cell_volume 3030.701268
_symmetry_space_group_name_H-M "P N M A"
_symmetry_group_IT_number 62
_symmetry_cell_setting 'orthorhombic'
loop_
_space_group_symop_operation_xyz
x,y,z
1/2-x,-y,1/2+z
1/2+x,1/2-y,1/2-z
-x,1/2+y,-z
-x,-y,-z
1/2+x,y,1/2-z
1/2-x,1/2+y,1/2+z
x,1/2-y,z
loop_
_atom_site_type_symbol
_atom_site_label
_atom_site_fract_x
_atom_site_fract_y
_atom_site_fract_z
Si Si1 0.225422 0.440027 0.174894
Si Si2 0.126389 0.940557 0.052469
Si Si3 0.523657 0.444297 0.342339
Si Si4 0.144106 0.061559 0.614991
Si Si5 0.894009 0.945818 0.224672
Si Si6 0.163924 0.941738 0.444976
Si Si7 0.695622 0.446444 0.595628
Si Si8 0.122157 0.055742 0.288105
O O1 0.242490 0.250000 0.182380
O O2 0.172993 0.457705 0.107844
O O3 0.285091 0.540276 0.147410
O O4 0.188354 0.501528 0.250584
O O5 0.138061 0.750000 0.063608
O O6 0.056638 0.981782 0.082027
O O7 0.145312 0.990292 0.966604
O O8 0.526471 0.250000 0.347955
O O9 0.453566 0.498525 0.324178
O O10 0.566557 0.499294 0.268739
O O11 0.129471 0.250000 0.604359
O O12 0.103618 0.993760 0.686811
O O13 0.141880 0.981917 0.531197
O O14 0.893349 0.750000 0.227926
O O15 0.830670 0.997354 0.179422
O O16 0.167334 0.750000 0.437481
O O17 0.235034 0.006486 0.428911
O O18 0.119626 0.005376 0.376676
O O19 0.696263 0.250000 0.592898
O O20 0.123415 0.250000 0.283499
#
# Coordination Sequence:
#
# PCOD9463171 Si02
#       8
#     8   8   8   8   8   8   8   8
#     4  10  19  34  56  84 117 152 189 235 291 346
#     4  11  21  34  58  88 117 155 194 235 287 345
#     4  10  22  41  62  84 115 155 199 247 292 343
#     4  11  22  37  58  85 118 153 192 240 295 351
#     4  10  23  41  60  84 115 155 198 245 293 345
#     4  11  22  36  59  89 120 153 190 237 293 352
#     4  10  21  38  58  85 123 154 187 238 293 348
#     4   9  20  37  58  83 113 148 190 241 291 342
#
# _framework density 21.117225000000001
#
# number of rings (size 3 to 8) (size 9 to 14) (size 15 to 20)
#    0.000    1.750    1.250    4.125    0.000    6.500 
#    0.000    0.625    0.000    0.000    0.000    0.000 
#    0.000    0.000    0.000    0.000    0.000    0.000 
#
# Total GULP energy -357508.213122 kJ/mol
# GULP energy per Si atom -5586.065830 kJ/mol
# Density = 2.106916 g / cm^3
# Si number density = 21.117225 Si / 1000 Ang^3
#
#
#
# Elastic Constant Matrix: (Units=GPa)
#
#
# Indices 1 2 3 4 5 6 
#
# 1 32.9721 -3.2268 -6.8612 0.0000 0.0000 0.0000
# 2 -3.2268 24.4743 1.3750 0.0000 0.0000 0.0000
# 3 -6.8612 1.3750 92.4643 0.0000 0.0000 0.0000
# 4 0.0000 0.0000 0.0000 23.7569 0.0000 0.0000
# 5 0.0000 0.0000 0.0000 0.0000 22.6160 0.0000
# 6 0.0000 0.0000 0.0000 0.0000 0.0000 19.7076
#
#
#
# Elastic Compliance Matrix: (Units=1/GPa)
#
#
# Indices 1 2 3 4 5 6 
#
# 1 0.031188 0.003985 0.002255 0.000000 0.000000 0.000000
# 2 0.003985 0.041403 -0.000320 0.000000 0.000000 0.000000
# 3 0.002255 -0.000320 0.010987 0.000000 0.000000 0.000000
# 4 0.000000 0.000000 0.000000 0.042093 0.000000 0.000000
# 5 0.000000 0.000000 0.000000 0.000000 0.044216 0.000000
# 6 0.000000 0.000000 0.000000 0.000000 0.000000 0.050742
#
#
# Mechanical properties :
#
#
# Convention : Reuss Voigt Hill
#
# Bulk Modulus (GPa) = 10.48020 14.72054 12.60037
# Shear Modulus (GPa) = 20.78184 23.79099 22.28642
#
# Velocity S-wave (km/s) = 3.14047 3.36015 3.25217
# Velocity P-wave (km/s) = 4.25719 4.69469 4.48129
#
# Compressibility (1/GPa) = 0.09541804
#
# Stress axis : x y z
#
# Youngs Moduli (GPa) = 32.06366 24.15310 91.01605
#
# Poissons Ratio (x) = -0.09626 -0.20524
# Poissons Ratio (y) = -0.12778 0.02912
# Poissons Ratio (z) = -0.07230 0.00773
#
# Static dielectric constant tensor:
#      x y z
#    x 1.764620 0.000000 0.000000 
#    y 0.000000 1.732840 0.000000 
#    z 0.000000 0.000000 1.785460 
# 
# From -- ./inp_files/20982.got.cif
#   From: 2010.05.17/outbox.cif.g08.bks.cpg/sg62_11_cif.got.tgz:20982.got - 2010.06.03 15:25:27.
