data_PCOD9463442
_publ_section_title
;
Structure prediction by ZEFSAII (Michael W. Deem and Ramdas Pophale) SiO2 
 PCOD9463442
Probable space group: P N M A
;
_chemical_formula_sum "Si O2"
_cell_formula_units_Z 56
_cell_length_a 9.686659
_cell_length_b 15.693272
_cell_length_c 19.682021
_cell_angle_alpha 90.000000
_cell_angle_beta 90.000000
_cell_angle_gamma 90.000000
_cell_volume 2991.969792
_symmetry_space_group_name_H-M "P N M A"
_symmetry_group_IT_number 62
_symmetry_cell_setting 'orthorhombic'
loop_
_space_group_symop_operation_xyz
x,y,z
1/2-x,-y,1/2+z
1/2+x,1/2-y,1/2-z
-x,1/2+y,-z
-x,-y,-z
1/2+x,y,1/2-z
1/2-x,1/2+y,1/2+z
x,1/2-y,z
loop_
_atom_site_type_symbol
_atom_site_label
_atom_site_fract_x
_atom_site_fract_y
_atom_site_fract_z
Si Si1 0.415452 0.564306 0.047326
Si Si2 0.360084 0.981105 0.390665
Si Si3 0.518308 0.350411 0.818952
Si Si4 0.326384 0.537577 0.622620
Si Si5 0.609651 0.153891 0.493534
Si Si6 0.770967 0.063470 0.752883
Si Si7 0.708097 0.655064 0.543672
O O1 0.503458 0.605551 0.107907
O O2 0.293168 0.510622 0.082130
O O3 0.500000 0.500000 0.000000
O O4 0.336563 0.637766 0.005692
O O5 0.336297 0.914400 0.451853
O O6 0.302497 0.952131 0.318756
O O7 0.524965 0.993753 0.387324
O O8 0.295444 0.073338 0.407485
O O9 0.497019 0.250000 0.822296
O O10 0.415789 0.393239 0.764953
O O11 0.673603 0.373468 0.795933
O O12 0.343886 0.626604 0.582636
O O13 0.290658 0.521999 0.701737
O O14 0.652756 0.250000 0.509590
O O15 0.441726 0.150792 0.493320
O O16 0.717164 0.750000 0.573961
#
# Coordination Sequence:
#
# PCOD9463442 Si02
#       7
#     8   8   8   8   8   8   8
#     4  11  21  37  58  83 121 160 198 251 310 363
#     4  11  19  39  62  90 123 156 203 257 307 375
#     4  11  24  39  58  87 123 161 208 255 304 377
#     4  10  20  40  57  84 120 158 201 245 304 368
#     4  10  20  35  64  93 118 155 203 260 308 363
#     4  11  23  40  61  84 121 171 202 248 321 370
#     4  10  19  35  61  91 118 153 202 252 311 368
#
# _framework density 18.716767000000001
#
# number of rings (size 3 to 8) (size 9 to 14) (size 15 to 20)
#    0.000    1.429    4.286    2.571    0.000    1.143 
#    0.000    1.429    0.000    0.000    0.000    0.000 
#    0.000    0.000    0.000    0.000    0.000    0.000 
#
# Total GULP energy -312309.754640 kJ/mol
# GULP energy per Si atom -5576.959904 kJ/mol
# Density = 1.867417 g / cm^3
# Si number density = 18.716767 Si / 1000 Ang^3
#
#
#
# Elastic Constant Matrix: (Units=GPa)
#
#
# Indices 1 2 3 4 5 6 
#
# 1 64.4871 14.7635 22.8101 0.0000 0.0000 0.0000
# 2 14.7635 114.9294 49.8580 0.0000 0.0000 0.0000
# 3 22.8101 49.8580 101.2072 0.0000 0.0000 0.0000
# 4 0.0000 0.0000 0.0000 9.1965 0.0000 0.0000
# 5 0.0000 0.0000 0.0000 0.0000 33.3178 0.0000
# 6 0.0000 0.0000 0.0000 0.0000 0.0000 14.8689
#
#
#
# Elastic Compliance Matrix: (Units=1/GPa)
#
#
# Indices 1 2 3 4 5 6 
#
# 1 0.016889 -0.000659 -0.003482 0.000000 0.000000 0.000000
# 2 -0.000659 0.011092 -0.005316 0.000000 0.000000 0.000000
# 3 -0.003482 -0.005316 0.013284 0.000000 0.000000 0.000000
# 4 0.000000 0.000000 0.000000 0.108737 0.000000 0.000000
# 5 0.000000 0.000000 0.000000 0.000000 0.030014 0.000000
# 6 0.000000 0.000000 0.000000 0.000000 0.000000 0.067254
#
#
# Mechanical properties :
#
#
# Convention : Reuss Voigt Hill
#
# Bulk Modulus (GPa) = 44.73842 50.60966 47.67404
# Shear Modulus (GPa) = 18.27254 24.35612 21.31433
#
# Velocity S-wave (km/s) = 3.12792 3.61127 3.37825
# Velocity P-wave (km/s) = 6.08275 6.66984 6.38305
#
# Compressibility (1/GPa) = 0.02235215
#
# Stress axis : x y z
#
# Youngs Moduli (GPa) = 59.20856 90.15814 75.27811
#
# Poissons Ratio (x) = 0.05942 0.26211
# Poissons Ratio (y) = 0.03902 0.40014
# Poissons Ratio (z) = 0.20616 0.47924
#
# Static dielectric constant tensor:
#      x y z
#    x 1.673500 0.000000 0.000000 
#    y 0.000000 1.637730 0.000000 
#    z 0.000000 0.000000 1.657740 
# 
# From -- ./inp_files/25982.got.cif
#   From: 2010.05.17/outbox.cif.g08.bks.cpg/sg62_13_cif.got.tgz:25982.got - 2010.06.03 15:25:27.
