data_PCOD9463815
_publ_section_title
;
Structure prediction by ZEFSAII (Michael W. Deem and Ramdas Pophale) SiO2 
 PCOD9463815
Probable space group: P N M A
;
_chemical_formula_sum "Si O2"
_cell_formula_units_Z 40
_cell_length_a 27.743207
_cell_length_b 8.751673
_cell_length_c 6.915094
_cell_angle_alpha 90.000000
_cell_angle_beta 90.000000
_cell_angle_gamma 90.000000
_cell_volume 1678.981197
_symmetry_space_group_name_H-M "P N M A"
_symmetry_group_IT_number 62
_symmetry_cell_setting 'orthorhombic'
loop_
_space_group_symop_operation_xyz
x,y,z
1/2-x,-y,1/2+z
1/2+x,1/2-y,1/2-z
-x,1/2+y,-z
-x,-y,-z
1/2+x,y,1/2-z
1/2-x,1/2+y,1/2+z
x,1/2-y,z
loop_
_atom_site_type_symbol
_atom_site_label
_atom_site_fract_x
_atom_site_fract_y
_atom_site_fract_z
Si Si1 0.386062 0.563709 0.613224
Si Si2 0.488318 0.564742 0.714205
Si Si3 0.815150 0.580154 0.417180
Si Si4 0.910241 0.067774 0.312197
Si Si5 0.715560 0.420972 0.470197
O O1 0.385488 0.750000 0.593237
O O2 0.432232 0.521846 0.745375
O O3 0.398607 0.487045 0.407110
O O4 0.330226 0.519233 0.653927
O O5 0.500000 0.500000 0.500000
O O6 0.489652 0.750000 0.710497
O O7 0.534406 0.512484 0.841044
O O8 0.823193 0.750000 0.491962
O O9 0.865244 0.491971 0.435400
O O10 0.764372 0.514819 0.486781
O O11 0.805283 0.587950 0.186257
O O12 0.909862 0.250000 0.322513
O O13 0.728501 0.250000 0.404586
#
# Coordination Sequence:
#
# PCOD9463815 Si02
#       5
#     8   8   8   8   8
#     4   8  14  25  39  58  86 114 141 176 217 259
#     4   8  13  21  35  56  82 111 139 170 212 258
#     4  10  20  32  46  65  90 119 149 183 222 261
#     4   9  15  23  38  60  85 113 144 176 213 258
#     4   9  18  31  46  65  89 117 148 181 217 260
#
# _framework density 23.823969000000002
#
# number of rings (size 3 to 8) (size 9 to 14) (size 15 to 20)
#    0.000    3.200    0.000    2.400    0.000    4.800 
#    0.000    0.000    0.000    0.000    0.000    1.400 
#    0.000    0.000    0.000    0.000    0.000    0.000 
#
# Total GULP energy -223035.134057 kJ/mol
# GULP energy per Si atom -5575.878351 kJ/mol
# Density = 2.376974 g / cm^3
# Si number density = 23.823969 Si / 1000 Ang^3
#
#
#
# Elastic Constant Matrix: (Units=GPa)
#
#
# Indices 1 2 3 4 5 6 
#
# 1 285.0023 70.5458 38.0160 0.0000 0.0000 0.0000
# 2 70.5458 38.7617 3.7025 0.0000 0.0000 0.0000
# 3 38.0160 3.7025 58.8231 0.0000 0.0000 0.0000
# 4 0.0000 0.0000 0.0000 -1.7683 0.0000 0.0000
# 5 0.0000 0.0000 0.0000 0.0000 54.3388 0.0000
# 6 0.0000 0.0000 0.0000 0.0000 0.0000 36.4171
#
#
#
# Elastic Compliance Matrix: (Units=1/GPa)
#
#
# Indices 1 2 3 4 5 6 
#
# 1 0.007149 -0.012646 -0.003824 0.000000 0.000000 0.000000
# 2 -0.012646 0.048324 0.005131 0.000000 0.000000 0.000000
# 3 -0.003824 0.005131 0.019149 0.000000 0.000000 0.000000
# 4 0.000000 0.000000 0.000000 -0.565502 0.000000 0.000000
# 5 0.000000 0.000000 0.000000 0.000000 0.018403 0.000000
# 6 0.000000 0.000000 0.000000 0.000000 0.000000 0.027460
#
#
# Mechanical properties :
#
#
# Convention : Reuss Voigt Hill
#
# Bulk Modulus (GPa) = 19.25168 67.45727 43.35448
# Shear Modulus (GPa) = -12.34491 35.81903 11.73706
#
# Velocity S-wave (km/s) = -2.27881 3.88169 2.22200
# Velocity P-wave (km/s) = 1.08369 6.96178 4.98200
#
# Compressibility (1/GPa) = 0.05194352
#
# Stress axis : x y z
#
# Youngs Moduli (GPa) = 139.87841 20.69366 52.22284
#
# Poissons Ratio (x) = 0.26169 0.19972
# Poissons Ratio (y) = 1.76889 -0.26796
# Poissons Ratio (z) = 0.53494 -0.10618
#
# Static dielectric constant tensor:
#      x y z
#    x 1.974960 0.000000 0.000000 
#    y 0.000000 1.836090 0.000000 
#    z 0.000000 0.000000 2.022760 
# 
# From -- ./inp_files/9089.got.cif
#   From: 2010.05.17/outbox.cif.g08.bks.cpg/sg62_5_cif.got.tgz:9089.got - 2010.06.03 15:25:27.
