data_PCOD9463369
_publ_section_title
;
Structure prediction by ZEFSAII (Michael W. Deem and Ramdas Pophale) SiO2 
 PCOD9463369
Probable space group: P N M A
;
_chemical_formula_sum "Si O2"
_cell_formula_units_Z 56
_cell_length_a 15.175511
_cell_length_b 8.732348
_cell_length_c 21.650241
_cell_angle_alpha 90.000000
_cell_angle_beta 90.000000
_cell_angle_gamma 90.000000
_cell_volume 2869.043241
_symmetry_space_group_name_H-M "P N M A"
_symmetry_group_IT_number 62
_symmetry_cell_setting 'orthorhombic'
loop_
_space_group_symop_operation_xyz
x,y,z
1/2-x,-y,1/2+z
1/2+x,1/2-y,1/2-z
-x,1/2+y,-z
-x,-y,-z
1/2+x,y,1/2-z
1/2-x,1/2+y,1/2+z
x,1/2-y,z
loop_
_atom_site_type_symbol
_atom_site_label
_atom_site_fract_x
_atom_site_fract_y
_atom_site_fract_z
Si Si1 0.790350 0.566224 0.098859
Si Si2 0.481186 0.067723 0.432499
Si Si3 0.573181 0.430714 0.782934
Si Si4 0.534354 0.569155 0.911271
Si Si5 0.143258 0.067691 0.484196
Si Si6 0.573646 0.932076 0.319204
Si Si7 0.764874 0.435631 0.734476
O O1 0.798900 0.750000 0.100978
O O2 0.887001 0.495528 0.091124
O O3 0.728524 0.515329 0.042496
O O4 0.743725 0.514090 0.163110
O O5 0.478198 0.250000 0.435645
O O6 0.500000 0.000000 0.500000
O O7 0.555273 0.014685 0.383549
O O8 0.570417 0.250000 0.798905
O O9 0.536996 0.524872 0.840182
O O10 0.512955 0.450905 0.722990
O O11 0.672795 0.473796 0.766921
O O12 0.544958 0.750000 0.920467
O O13 0.440551 0.524549 0.941092
O O14 0.611888 0.483257 0.948105
O O15 0.155763 0.250000 0.481870
O O16 0.585709 0.750000 0.330742
O O17 0.654324 0.989298 0.276674
O O18 0.772363 0.250000 0.732094
#
# Coordination Sequence:
#
# PCOD9463369 Si02
#       7
#     8   8   8   8   8   8   8
#     4  11  21  40  66  92 121 159 208 257 311 379
#     4  12  26  44  65  90 124 167 211 261 315 375
#     4  10  19  35  58  85 119 156 196 247 307 368
#     4  10  21  36  55  84 121 160 204 254 306 360
#     4  10  21  37  57  84 119 159 203 251 306 369
#     4  10  20  39  64  90 123 161 205 258 313 376
#     4   9  19  35  61  91 117 154 201 247 304 371
#
# _framework density 19.518702000000001
#
# number of rings (size 3 to 8) (size 9 to 14) (size 15 to 20)
#    0.000    1.714    1.429    3.429    0.000    4.571 
#    0.000    6.429    0.000    0.000    0.000    0.000 
#    0.000    0.000    0.000    0.000    0.000    0.000 
#
# Total GULP energy -312866.698652 kJ/mol
# GULP energy per Si atom -5586.905333 kJ/mol
# Density = 1.947428 g / cm^3
# Si number density = 19.518702 Si / 1000 Ang^3
#
#
#
# Elastic Constant Matrix: (Units=GPa)
#
#
# Indices 1 2 3 4 5 6 
#
# 1 82.4013 28.2469 16.4658 0.0000 0.0000 0.0000
# 2 28.2469 58.9859 36.8329 0.0000 0.0000 0.0000
# 3 16.4658 36.8329 86.5743 0.0000 0.0000 0.0000
# 4 0.0000 0.0000 0.0000 29.9291 0.0000 0.0000
# 5 0.0000 0.0000 0.0000 0.0000 23.8091 0.0000
# 6 0.0000 0.0000 0.0000 0.0000 0.0000 24.7492
#
#
#
# Elastic Compliance Matrix: (Units=1/GPa)
#
#
# Indices 1 2 3 4 5 6 
#
# 1 0.014524 -0.007122 0.000268 0.000000 0.000000 0.000000
# 2 -0.007122 0.026579 -0.009953 0.000000 0.000000 0.000000
# 3 0.000268 -0.009953 0.015735 0.000000 0.000000 0.000000
# 4 0.000000 0.000000 0.000000 0.033412 0.000000 0.000000
# 5 0.000000 0.000000 0.000000 0.000000 0.042001 0.000000
# 6 0.000000 0.000000 0.000000 0.000000 0.000000 0.040405
#
#
# Mechanical properties :
#
#
# Convention : Reuss Voigt Hill
#
# Bulk Modulus (GPa) = 43.06335 43.45031 43.25683
# Shear Modulus (GPa) = 23.36315 25.45854 24.41085
#
# Velocity S-wave (km/s) = 3.46347 3.61545 3.54027
# Velocity P-wave (km/s) = 6.17290 6.30379 6.23869
#
# Compressibility (1/GPa) = 0.02322160
#
# Stress axis : x y z
#
# Youngs Moduli (GPa) = 68.85299 37.62336 63.55455
#
# Poissons Ratio (x) = 0.26797 -0.01702
# Poissons Ratio (y) = 0.49039 0.63259
# Poissons Ratio (z) = -0.01844 0.37448
#
# Static dielectric constant tensor:
#      x y z
#    x 1.678270 0.000000 0.000000 
#    y 0.000000 1.661770 0.000000 
#    z 0.000000 0.000000 1.674610 
# 
# From -- ./inp_files/27211.got.cif
#   From: 2010.05.17/outbox.cif.g08.bks.cpg/sg62_14_cif.got.tgz:27211.got - 2010.06.03 15:25:27.
