data_PCOD9463516
_publ_section_title
;
Structure prediction by ZEFSAII (Michael W. Deem and Ramdas Pophale) SiO2 
 PCOD9463516
Probable space group: P N M A
;
_chemical_formula_sum "Si O2"
_cell_formula_units_Z 48
_cell_length_a 18.171072
_cell_length_b 9.010837
_cell_length_c 16.867828
_cell_angle_alpha 90.000000
_cell_angle_beta 90.000000
_cell_angle_gamma 90.000000
_cell_volume 2761.880265
_symmetry_space_group_name_H-M "P N M A"
_symmetry_group_IT_number 62
_symmetry_cell_setting 'orthorhombic'
loop_
_space_group_symop_operation_xyz
x,y,z
1/2-x,-y,1/2+z
1/2+x,1/2-y,1/2-z
-x,1/2+y,-z
-x,-y,-z
1/2+x,y,1/2-z
1/2-x,1/2+y,1/2+z
x,1/2-y,z
loop_
_atom_site_type_symbol
_atom_site_label
_atom_site_fract_x
_atom_site_fract_y
_atom_site_fract_z
Si Si1 0.400094 0.926336 0.177178
Si Si2 0.079488 0.927223 0.512865
Si Si3 0.822280 0.427972 0.641432
Si Si4 0.168292 0.572869 0.828741
Si Si5 0.015983 0.927161 0.915513
Si Si6 0.554316 0.573147 0.265006
O O1 0.389432 0.750000 0.170546
O O2 0.484141 0.952074 0.207166
O O3 0.388812 0.005318 0.093627
O O4 0.349336 0.994849 0.245229
O O5 0.071483 0.750000 0.519358
O O6 0.130694 0.958966 0.437417
O O7 0.000000 0.000000 0.500000
O O8 0.810479 0.250000 0.645387
O O9 0.745216 0.511357 0.640231
O O10 0.872566 0.470428 0.717213
O O11 0.170524 0.750000 0.818958
O O12 0.099038 0.537645 0.885862
O O13 0.008797 0.750000 0.920632
O O14 0.962628 0.989196 0.846504
O O15 0.000000 0.000000 0.000000
O O16 0.557120 0.750000 0.280377
#
# Coordination Sequence:
#
# PCOD9463516 Si02
#       6
#     8   8   8   8   8   8
#     4  10  19  36  59  83 111 150 188 227 281 334
#     4  11  21  35  57  87 119 151 192 235 280 340
#     4  10  21  38  57  83 117 152 187 230 284 339
#     4  10  22  39  58  84 114 147 189 236 285 338
#     4  10  21  38  60  85 110 144 191 238 282 334
#     4   9  18  35  58  82 110 144 185 228 275 335
#
# _framework density 17.379465
#
# number of rings (size 3 to 8) (size 9 to 14) (size 15 to 20)
#    0.000    2.000    1.667    2.000    0.000    4.667 
#    3.000    0.000    0.000    0.000    0.000    0.000 
#    0.000    0.000    0.000    0.000    0.000    0.000 
#
# Total GULP energy -267997.547200 kJ/mol
# GULP energy per Si atom -5583.282233 kJ/mol
# Density = 1.733991 g / cm^3
# Si number density = 17.379465 Si / 1000 Ang^3
#
#
#
# Elastic Constant Matrix: (Units=GPa)
#
#
# Indices 1 2 3 4 5 6 
#
# 1 93.6998 57.3924 68.2534 0.0000 0.0000 0.0000
# 2 57.3924 68.0897 78.5234 0.0000 0.0000 0.0000
# 3 68.2534 78.5234 163.1625 0.0000 0.0000 0.0000
# 4 0.0000 0.0000 0.0000 36.5141 0.0000 0.0000
# 5 0.0000 0.0000 0.0000 0.0000 17.3658 0.0000
# 6 0.0000 0.0000 0.0000 0.0000 0.0000 30.9262
#
#
#
# Elastic Compliance Matrix: (Units=1/GPa)
#
#
# Indices 1 2 3 4 5 6 
#
# 1 0.022092 -0.017896 -0.000629 0.000000 0.000000 0.000000
# 2 -0.017896 0.047501 -0.015374 0.000000 0.000000 0.000000
# 3 -0.000629 -0.015374 0.013791 0.000000 0.000000 0.000000
# 4 0.000000 0.000000 0.000000 0.027387 0.000000 0.000000
# 5 0.000000 0.000000 0.000000 0.000000 0.057585 0.000000
# 6 0.000000 0.000000 0.000000 0.000000 0.000000 0.032335
#
#
# Mechanical properties :
#
#
# Convention : Reuss Voigt Hill
#
# Bulk Modulus (GPa) = 64.16058 81.47669 72.81863
# Shear Modulus (GPa) = 18.26932 25.01339 21.64135
#
# Velocity S-wave (km/s) = 3.24574 3.79786 3.53260
# Velocity P-wave (km/s) = 7.14451 8.13723 7.65697
#
# Compressibility (1/GPa) = 0.01558589
#
# Stress axis : x y z
#
# Youngs Moduli (GPa) = 45.26525 21.05225 72.51232
#
# Poissons Ratio (x) = 0.37675 0.04559
# Poissons Ratio (y) = 0.81007 1.11480
# Poissons Ratio (z) = 0.02846 0.32366
#
# Static dielectric constant tensor:
#      x y z
#    x 1.577620 0.000000 0.000000 
#    y 0.000000 1.576060 0.000000 
#    z 0.000000 0.000000 1.577710 
# 
# From -- ./inp_files/19655.got.cif
#   From: 2010.05.17/outbox.cif.g08.bks.cpg/sg62_10_cif.got.tgz:19655.got - 2010.06.03 15:25:27.
