data_PCOD9463648
_publ_section_title
;
Structure prediction by ZEFSAII (Michael W. Deem and Ramdas Pophale) SiO2 
 PCOD9463648
Probable space group: P N M A
;
_chemical_formula_sum "Si O2"
_cell_formula_units_Z 48
_cell_length_a 14.211660
_cell_length_b 12.941263
_cell_length_c 11.854596
_cell_angle_alpha 90.000000
_cell_angle_beta 90.000000
_cell_angle_gamma 90.000000
_cell_volume 2180.259714
_symmetry_space_group_name_H-M "P N M A"
_symmetry_group_IT_number 62
_symmetry_cell_setting 'orthorhombic'
loop_
_space_group_symop_operation_xyz
x,y,z
1/2-x,-y,1/2+z
1/2+x,1/2-y,1/2-z
-x,1/2+y,-z
-x,-y,-z
1/2+x,y,1/2-z
1/2-x,1/2+y,1/2+z
x,1/2-y,z
loop_
_atom_site_type_symbol
_atom_site_label
_atom_site_fract_x
_atom_site_fract_y
_atom_site_fract_z
Si Si1 0.112965 0.070487 0.416620
Si Si2 0.610625 0.363176 0.323701
Si Si3 0.215688 0.564851 0.086864
Si Si4 0.073667 0.945017 0.917708
Si Si5 0.019259 0.861623 0.390355
Si Si6 0.343191 0.635049 0.281733
O O1 0.138007 0.135553 0.307622
O O2 0.193859 0.055060 0.507464
O O3 0.027011 0.120132 0.486602
O O4 0.084130 0.958859 0.369435
O O5 0.628377 0.250000 0.373162
O O6 0.671002 0.454287 0.380355
O O7 0.497890 0.386481 0.334217
O O8 0.253401 0.618737 0.200014
O O9 0.139289 0.618182 0.004348
O O10 0.136901 0.034108 0.858260
O O11 0.000000 0.000000 0.000000
O O12 0.066125 0.750000 0.385408
O O13 0.934636 0.863040 0.300356
O O14 0.338208 0.750000 0.335333
#
# Coordination Sequence:
#
# PCOD9463648 Si02
#       6
#     8   8   8   8   8   8
#     4  10  19  37  61  89 130 160 209 268 319 372
#     4  11  23  41  63  90 128 174 213 259 322 384
#     4  10  23  40  63  93 128 163 209 269 317 371
#     4  10  22  41  63  91 129 165 208 258 310 374
#     4   9  18  33  60  91 120 163 209 258 315 374
#     4  10  20  40  67  93 125 165 211 260 314 370
#
# _framework density 22.015726000000001
#
# number of rings (size 3 to 8) (size 9 to 14) (size 15 to 20)
#    0.000    2.000    1.667    1.500    0.000    4.667 
#    0.000    7.500    0.000    0.000    0.000    0.000 
#    0.000    0.000    0.000    0.000    0.000    0.000 
#
# Total GULP energy -267737.833137 kJ/mol
# GULP energy per Si atom -5577.871524 kJ/mol
# Density = 2.196562 g / cm^3
# Si number density = 22.015726 Si / 1000 Ang^3
#
#
#
# Elastic Constant Matrix: (Units=GPa)
#
#
# Indices 1 2 3 4 5 6 
#
# 1 60.8783 19.6947 12.6851 0.0000 0.0000 0.0000
# 2 19.6947 108.7465 17.4239 0.0000 0.0000 0.0000
# 3 12.6851 17.4239 86.1681 0.0000 0.0000 0.0000
# 4 0.0000 0.0000 0.0000 7.1425 0.0000 0.0000
# 5 0.0000 0.0000 0.0000 0.0000 37.9509 0.0000
# 6 0.0000 0.0000 0.0000 0.0000 0.0000 11.5595
#
#
#
# Elastic Compliance Matrix: (Units=1/GPa)
#
#
# Indices 1 2 3 4 5 6 
#
# 1 0.017787 -0.002896 -0.002033 0.000000 0.000000 0.000000
# 2 -0.002896 0.009975 -0.001591 0.000000 0.000000 0.000000
# 3 -0.002033 -0.001591 0.012226 0.000000 0.000000 0.000000
# 4 0.000000 0.000000 0.000000 0.140008 0.000000 0.000000
# 5 0.000000 0.000000 0.000000 0.000000 0.026350 0.000000
# 6 0.000000 0.000000 0.000000 0.000000 0.000000 0.086509
#
#
# Mechanical properties :
#
#
# Convention : Reuss Voigt Hill
#
# Bulk Modulus (GPa) = 37.10677 39.48891 38.29784
# Shear Modulus (GPa) = 15.87930 25.06321 20.47125
#
# Velocity S-wave (km/s) = 2.68856 3.37771 3.05265
# Velocity P-wave (km/s) = 5.15064 5.76086 5.46428
#
# Compressibility (1/GPa) = 0.02694926
#
# Stress axis : x y z
#
# Youngs Moduli (GPa) = 56.22229 100.25087 81.79187
#
# Poissons Ratio (x) = 0.29028 0.16628
# Poissons Ratio (y) = 0.16279 0.13011
# Poissons Ratio (z) = 0.11429 0.15947
#
# Static dielectric constant tensor:
#      x y z
#    x 1.827480 0.000000 0.000000 
#    y 0.000000 1.777240 0.000000 
#    z 0.000000 0.000000 1.798730 
# 
# From -- ./inp_files/13266.got.cif
#   From: 2010.05.17/outbox.cif.g08.bks.cpg/sg62_7_cif.got.tgz:13266.got - 2010.06.03 15:25:27.
