data_PCOD9463149
_publ_section_title
;
Structure prediction by ZEFSAII (Michael W. Deem and Ramdas Pophale) SiO2 
 PCOD9463149
Probable space group: P N M A
;
_chemical_formula_sum "Si O2"
_cell_formula_units_Z 64
_cell_length_a 15.275331
_cell_length_b 7.884747
_cell_length_c 26.547634
_cell_angle_alpha 90.000000
_cell_angle_beta 90.000000
_cell_angle_gamma 90.000000
_cell_volume 3197.453327
_symmetry_space_group_name_H-M "P N M A"
_symmetry_group_IT_number 62
_symmetry_cell_setting 'orthorhombic'
loop_
_space_group_symop_operation_xyz
x,y,z
1/2-x,-y,1/2+z
1/2+x,1/2-y,1/2-z
-x,1/2+y,-z
-x,-y,-z
1/2+x,y,1/2-z
1/2-x,1/2+y,1/2+z
x,1/2-y,z
loop_
_atom_site_type_symbol
_atom_site_label
_atom_site_fract_x
_atom_site_fract_y
_atom_site_fract_z
Si Si1 0.164859 0.542319 0.108648
Si Si2 0.359483 0.949742 0.860749
Si Si3 0.004019 0.952511 0.441891
Si Si4 0.897557 0.454661 0.000589
Si Si5 0.492759 0.948451 0.332586
Si Si6 0.325383 0.050011 0.393692
Si Si7 0.497250 0.451915 0.217667
Si Si8 0.857508 0.545086 0.363506
O O1 0.166138 0.750000 0.109101
O O2 0.258350 0.484806 0.129759
O O3 0.082407 0.486807 0.142159
O O4 0.147768 0.487924 0.051121
O O5 0.350662 0.750000 0.849366
O O6 0.262975 0.023383 0.869218
O O7 0.422215 0.020161 0.816656
O O8 0.413877 0.969576 0.912342
O O9 0.010626 0.750000 0.437435
O O10 0.917489 0.007487 0.411086
O O11 0.000000 0.000000 0.500000
O O12 0.892679 0.250000 0.001297
O O13 0.852151 0.520673 0.051537
O O14 0.000000 0.500000 0.000000
O O15 0.486110 0.750000 0.345132
O O16 0.408144 0.033020 0.357244
O O17 0.495110 0.970705 0.272849
O O18 0.308003 0.250000 0.401502
O O19 0.506521 0.250000 0.223131
O O20 0.409186 0.486039 0.185918
O O21 0.856164 0.750000 0.362479
#
# Coordination Sequence:
#
# PCOD9463149 Si02
#       8
#     8   8   8   8   8   8   8   8
#     4   9  19  35  56  83 112 145 185 225 270 324
#     4   9  20  38  58  80 110 145 183 230 281 332
#     4  10  20  33  54  81 112 148 187 229 273 329
#     4  10  19  34  56  80 113 150 183 224 273 326
#     4  11  22  37  58  81 110 145 186 231 274 328
#     4  10  21  36  58  85 113 148 187 227 277 331
#     4  10  21  39  59  80 111 142 179 232 282 329
#     4   9  19  37  59  81 108 145 187 226 273 329
#
# _framework density 20.015929
#
# number of rings (size 3 to 8) (size 9 to 14) (size 15 to 20)
#    0.000    2.250    1.250    1.125    1.750    2.500 
#    0.000    4.375    0.000    0.000    0.000    0.000 
#    0.000    0.000    0.000    0.000    0.000    0.000 
#
# Total GULP energy -357277.838364 kJ/mol
# GULP energy per Si atom -5582.466224 kJ/mol
# Density = 1.997037 g / cm^3
# Si number density = 20.015929 Si / 1000 Ang^3
#
#
#
# Elastic Constant Matrix: (Units=GPa)
#
#
# Indices 1 2 3 4 5 6 
#
# 1 168.4112 -1.5960 60.3625 0.0000 0.0000 0.0000
# 2 -1.5960 18.1442 -12.1031 0.0000 0.0000 0.0000
# 3 60.3625 -12.1031 133.7005 0.0000 0.0000 0.0000
# 4 0.0000 0.0000 0.0000 11.9160 0.0000 0.0000
# 5 0.0000 0.0000 0.0000 0.0000 2.3911 0.0000
# 6 0.0000 0.0000 0.0000 0.0000 0.0000 15.7142
#
#
#
# Elastic Compliance Matrix: (Units=1/GPa)
#
#
# Indices 1 2 3 4 5 6 
#
# 1 0.007129 -0.001617 -0.003365 0.000000 0.000000 0.000000
# 2 -0.001617 0.059023 0.006073 0.000000 0.000000 0.000000
# 3 -0.003365 0.006073 0.009548 0.000000 0.000000 0.000000
# 4 0.000000 0.000000 0.000000 0.083921 0.000000 0.000000
# 5 0.000000 0.000000 0.000000 0.000000 0.418223 0.000000
# 6 0.000000 0.000000 0.000000 0.000000 0.000000 0.063637
#
#
# Mechanical properties :
#
#
# Convention : Reuss Voigt Hill
#
# Bulk Modulus (GPa) = 12.83996 45.95364 29.39680
# Shear Modulus (GPa) = 7.51586 24.24374 15.87980
#
# Velocity S-wave (km/s) = 1.93987 3.48404 2.81972
# Velocity P-wave (km/s) = 3.38323 6.26044 5.03186
#
# Compressibility (1/GPa) = 0.07788185
#
# Stress axis : x y z
#
# Youngs Moduli (GPa) = 140.28124 16.94255 104.73071
#
# Poissons Ratio (x) = 0.02740 0.35240
# Poissons Ratio (y) = 0.22690 -0.63606
# Poissons Ratio (z) = 0.47202 -0.10290
#
# Static dielectric constant tensor:
#      x y z
#    x 1.700260 0.000000 0.000000 
#    y 0.000000 1.733130 0.000000 
#    z 0.000000 0.000000 1.678480 
# 
# From -- ./inp_files/29901.got.cif
#   From: 2010.05.17/outbox.cif.g08.bks.cpg/sg62_15_cif.got.tgz:29901.got - 2010.06.03 15:25:27.
