data_PCOD9463060
_publ_section_title
;
Structure prediction by ZEFSAII (Michael W. Deem and Ramdas Pophale) SiO2 
 PCOD9463060
Probable space group: P N M A
;
_chemical_formula_sum "Si O2"
_cell_formula_units_Z 56
_cell_length_a 14.849960
_cell_length_b 18.534041
_cell_length_c 9.158061
_cell_angle_alpha 90.000000
_cell_angle_beta 90.000000
_cell_angle_gamma 90.000000
_cell_volume 2520.571000
_symmetry_space_group_name_H-M "P N M A"
_symmetry_group_IT_number 62
_symmetry_cell_setting 'orthorhombic'
loop_
_space_group_symop_operation_xyz
x,y,z
1/2-x,-y,1/2+z
1/2+x,1/2-y,1/2-z
-x,1/2+y,-z
-x,-y,-z
1/2+x,y,1/2-z
1/2-x,1/2+y,1/2+z
x,1/2-y,z
loop_
_atom_site_type_symbol
_atom_site_label
_atom_site_fract_x
_atom_site_fract_y
_atom_site_fract_z
Si Si1 0.231169 0.333498 0.748321
Si Si2 0.133267 0.660799 0.991011
Si Si3 0.133532 0.017627 0.470499
Si Si4 0.806638 0.328435 0.435416
Si Si5 0.515503 0.620255 0.028896
Si Si6 0.289280 0.053288 0.255168
Si Si7 0.958959 0.668579 0.166639
O O1 0.208644 0.250000 0.710242
O O2 0.288815 0.358654 0.610226
O O3 0.137940 0.367376 0.806621
O O4 0.292638 0.332356 0.891449
O O5 0.136068 0.750000 0.968512
O O6 0.036502 0.640900 0.060173
O O7 0.152262 0.607573 0.856372
O O8 0.217472 0.016910 0.361053
O O9 0.079666 0.093035 0.465857
O O10 0.065335 0.954064 0.424277
O O11 0.161092 0.998157 0.637855
O O12 0.782100 0.250000 0.381252
O O13 0.913657 0.342909 0.420584
O O14 0.747270 0.388430 0.357293
O O15 0.500080 0.667719 0.171010
O O16 0.941485 0.750000 0.114461
#
# Coordination Sequence:
#
# PCOD9463060 Si02
#       7
#     8   8   8   8   8   8   8
#     4   9  18  34  60  94 126 156 197 246 317 393
#     4  10  20  37  63  94 125 158 201 262 325 376
#     4  10  25  42  60  89 120 172 218 256 305 369
#     4  10  20  40  67  93 123 163 202 262 333 378
#     4  10  20  39  63  86 126 160 215 253 302 390
#     4  11  24  41  64  85 126 164 214 263 310 373
#     4  10  19  33  62  96 120 153 201 258 318 376
#
# _framework density 22.217189000000001
#
# number of rings (size 3 to 8) (size 9 to 14) (size 15 to 20)
#    0.000    2.000    1.429    1.714    2.000    2.286 
#    7.714    2.857    0.000    0.000    0.000    0.000 
#    0.000    0.000    0.000    0.000    0.000    0.000 
#
# Total GULP energy -312004.135858 kJ/mol
# GULP energy per Si atom -5571.502426 kJ/mol
# Density = 2.216662 g / cm^3
# Si number density = 22.217189 Si / 1000 Ang^3
#
#
#
# Elastic Constant Matrix: (Units=GPa)
#
#
# Indices 1 2 3 4 5 6 
#
# 1 117.6185 8.4976 41.2704 0.0000 0.0000 0.0000
# 2 8.4976 60.6707 8.9840 0.0000 0.0000 0.0000
# 3 41.2704 8.9840 95.3144 0.0000 0.0000 0.0000
# 4 0.0000 0.0000 0.0000 37.9563 0.0000 0.0000
# 5 0.0000 0.0000 0.0000 0.0000 20.8498 0.0000
# 6 0.0000 0.0000 0.0000 0.0000 0.0000 9.9000
#
#
#
# Elastic Compliance Matrix: (Units=1/GPa)
#
#
# Indices 1 2 3 4 5 6 
#
# 1 0.010061 -0.000775 -0.004283 0.000000 0.000000 0.000000
# 2 -0.000775 0.016775 -0.001246 0.000000 0.000000 0.000000
# 3 -0.004283 -0.001246 0.012464 0.000000 0.000000 0.000000
# 4 0.000000 0.000000 0.000000 0.026346 0.000000 0.000000
# 5 0.000000 0.000000 0.000000 0.000000 0.047962 0.000000
# 6 0.000000 0.000000 0.000000 0.000000 0.000000 0.101010
#
#
# Mechanical properties :
#
#
# Convention : Reuss Voigt Hill
#
# Bulk Modulus (GPa) = 37.46395 43.45642 40.46018
# Shear Modulus (GPa) = 21.17535 28.06465 24.62000
#
# Velocity S-wave (km/s) = 3.09059 3.55800 3.33250
# Velocity P-wave (km/s) = 5.44379 6.03999 5.74962
#
# Compressibility (1/GPa) = 0.02669233
#
# Stress axis : x y z
#
# Youngs Moduli (GPa) = 99.39387 59.61102 80.23334
#
# Poissons Ratio (x) = 0.04619 0.34366
# Poissons Ratio (y) = 0.07702 0.09994
# Poissons Ratio (z) = 0.42573 0.07426
#
# Static dielectric constant tensor:
#      x y z
#    x 1.862210 0.000000 0.000000 
#    y 0.000000 1.921520 0.000000 
#    z 0.000000 0.000000 1.829490 
# 
# From -- ./inp_files/6788.got.cif
#   From: 2010.05.17/outbox.cif.g08.bks.cpg/sg62_4_cif.got.tgz:6788.got - 2010.06.03 15:25:27.
