data_PCOD9463854
_publ_section_title
;
Structure prediction by ZEFSAII (Michael W. Deem and Ramdas Pophale) SiO2 
 PCOD9463854
Probable space group: P N M A
;
_chemical_formula_sum "Si O2"
_cell_formula_units_Z 64
_cell_length_a 19.486769
_cell_length_b 8.745519
_cell_length_c 23.706927
_cell_angle_alpha 90.000000
_cell_angle_beta 90.000000
_cell_angle_gamma 90.000000
_cell_volume 4040.179745
_symmetry_space_group_name_H-M "P N M A"
_symmetry_group_IT_number 62
_symmetry_cell_setting 'orthorhombic'
loop_
_space_group_symop_operation_xyz
x,y,z
1/2-x,-y,1/2+z
1/2+x,1/2-y,1/2-z
-x,1/2+y,-z
-x,-y,-z
1/2+x,y,1/2-z
1/2-x,1/2+y,1/2+z
x,1/2-y,z
loop_
_atom_site_type_symbol
_atom_site_label
_atom_site_fract_x
_atom_site_fract_y
_atom_site_fract_z
Si Si1 0.360821 0.565898 0.438427
Si Si2 0.651839 0.432617 0.776042
Si Si3 0.999135 0.433028 0.116127
Si Si4 0.498665 0.567181 0.257931
Si Si5 0.862473 0.432193 0.937994
Si Si6 0.360918 0.568374 0.773950
Si Si7 0.724877 0.068352 0.339734
Si Si8 0.762976 0.932627 0.162943
O O1 0.366377 0.750000 0.439478
O O2 0.431333 0.497621 0.413866
O O3 0.349028 0.501629 0.500571
O O4 0.299899 0.524387 0.395088
O O5 0.657859 0.250000 0.784994
O O6 0.571994 0.474269 0.773555
O O7 0.699275 0.518154 0.820937
O O8 0.684194 0.465771 0.714263
O O9 0.000321 0.250000 0.113520
O O10 0.999649 0.487452 0.180964
O O11 0.066277 0.499203 0.085546
O O12 0.498356 0.750000 0.266629
O O13 0.566621 0.516179 0.225254
O O14 0.867855 0.250000 0.941058
O O15 0.804183 0.481541 0.893686
O O16 0.370993 0.750000 0.775881
O O17 0.323978 0.530995 0.714031
O O18 0.307531 0.515675 0.821595
O O19 0.721334 0.250000 0.348853
O O20 0.751377 0.750000 0.163049
#
# Coordination Sequence:
#
# PCOD9463854 Si02
#       8
#     8   8   8   8   8   8   8   8
#     4  11  22  38  55  74 102 137 178 217 255 303
#     4   9  18  33  52  75 101 133 170 209 256 308
#     4  12  23  35  50  73 105 139 178 216 252 299
#     4  11  20  33  53  77 105 139 174 209 256 309
#     4  12  24  37  53  73 101 140 179 216 256 300
#     4  10  20  32  50  76 105 134 169 212 258 303
#     4  10  20  34  51  75 102 134 171 214 258 300
#     4   9  18  34  53  73  99 134 172 210 256 303
#
# _framework density 15.840878999999999
#
# number of rings (size 3 to 8) (size 9 to 14) (size 15 to 20)
#    0.000    1.500    2.500    4.125    0.000    3.000 
#    0.000    0.000    0.000    0.000    0.000    0.875 
#    0.000    0.000    0.000    0.000    0.000    0.000 
#
# Total GULP energy -357502.804539 kJ/mol
# GULP energy per Si atom -5585.981321 kJ/mol
# Density = 1.580482 g / cm^3
# Si number density = 15.840879 Si / 1000 Ang^3
#
#
#
# Elastic Constant Matrix: (Units=GPa)
#
#
# Indices 1 2 3 4 5 6 
#
# 1 117.7255 53.3139 56.5513 0.0000 0.0000 0.0000
# 2 53.3139 79.8519 44.9049 0.0000 0.0000 0.0000
# 3 56.5513 44.9049 90.2074 0.0000 0.0000 0.0000
# 4 0.0000 0.0000 0.0000 25.5456 0.0000 0.0000
# 5 0.0000 0.0000 0.0000 0.0000 14.1537 0.0000
# 6 0.0000 0.0000 0.0000 0.0000 0.0000 21.4715
#
#
#
# Elastic Compliance Matrix: (Units=1/GPa)
#
#
# Indices 1 2 3 4 5 6 
#
# 1 0.014033 -0.006141 -0.005740 0.000000 0.000000 0.000000
# 2 -0.006141 0.020079 -0.006145 0.000000 0.000000 0.000000
# 3 -0.005740 -0.006145 0.017743 0.000000 0.000000 0.000000
# 4 0.000000 0.000000 0.000000 0.039146 0.000000 0.000000
# 5 0.000000 0.000000 0.000000 0.000000 0.070653 0.000000
# 6 0.000000 0.000000 0.000000 0.000000 0.000000 0.046573
#
#
# Mechanical properties :
#
#
# Convention : Reuss Voigt Hill
#
# Bulk Modulus (GPa) = 63.28397 66.36944 64.82671
# Shear Modulus (GPa) = 20.03620 21.10182 20.56901
#
# Velocity S-wave (km/s) = 3.56032 3.65377 3.60735
# Velocity P-wave (km/s) = 7.54571 7.73231 7.63958
#
# Compressibility (1/GPa) = 0.01580179
#
# Stress axis : x y z
#
# Youngs Moduli (GPa) = 71.26134 49.80243 56.35928
#
# Poissons Ratio (x) = 0.30585 0.32351
# Poissons Ratio (y) = 0.43763 0.34636
# Poissons Ratio (z) = 0.40905 0.30606
#
# Static dielectric constant tensor:
#      x y z
#    x 1.522160 0.000000 0.000000 
#    y 0.000000 1.530930 0.000000 
#    z 0.000000 0.000000 1.505730 
# 
# From -- ./inp_files/27627.got.cif
#   From: 2010.05.17/outbox.cif.g08.bks.cpg/sg62_14_cif.got.tgz:27627.got - 2010.06.03 15:25:27.
