data_PCOD9463145
_publ_section_title
;
Structure prediction by ZEFSAII (Michael W. Deem and Ramdas Pophale) SiO2 
 PCOD9463145
Probable space group: P N M A
;
_chemical_formula_sum "Si O2"
_cell_formula_units_Z 56
_cell_length_a 8.274970
_cell_length_b 15.104089
_cell_length_c 19.992322
_cell_angle_alpha 90.000000
_cell_angle_beta 90.000000
_cell_angle_gamma 90.000000
_cell_volume 2498.758025
_symmetry_space_group_name_H-M "P N M A"
_symmetry_group_IT_number 62
_symmetry_cell_setting 'orthorhombic'
loop_
_space_group_symop_operation_xyz
x,y,z
1/2-x,-y,1/2+z
1/2+x,1/2-y,1/2-z
-x,1/2+y,-z
-x,-y,-z
1/2+x,y,1/2-z
1/2-x,1/2+y,1/2+z
x,1/2-y,z
loop_
_atom_site_type_symbol
_atom_site_label
_atom_site_fract_x
_atom_site_fract_y
_atom_site_fract_z
Si Si1 0.112798 0.344064 0.408372
Si Si2 0.446732 0.148504 0.494492
Si Si3 0.953534 0.404356 0.530663
Si Si4 0.098713 0.484219 0.096966
Si Si5 0.249519 0.015600 0.858756
Si Si6 0.815728 0.605960 0.347809
Si Si7 0.115310 0.652510 0.260294
O O1 0.106352 0.250000 0.372362
O O2 0.280349 0.347706 0.451530
O O3 0.971171 0.347992 0.463781
O O4 0.132197 0.431139 0.363723
O O5 0.481312 0.250000 0.515986
O O6 0.413817 0.071587 0.549076
O O7 0.583830 0.103969 0.447246
O O8 0.085669 0.369840 0.585034
O O9 0.000000 0.500000 0.500000
O O10 0.796274 0.424188 0.575872
O O11 0.934921 0.486330 0.139595
O O12 0.259572 0.504792 0.138749
O O13 0.289883 0.073585 0.795480
O O14 0.649804 0.647974 0.318944
O O15 0.938038 0.635291 0.289593
O O16 0.164673 0.750000 0.283910
#
# Coordination Sequence:
#
# PCOD9463145 Si02
#       7
#     8   8   8   8   8   8   8
#     4   9  16  31  55  83 112 151 197 242 297 360
#     4   9  18  30  51  83 113 148 191 232 292 361
#     4   9  18  33  55  86 120 157 193 245 307 372
#     4  10  19  34  56  79 116 155 191 243 296 352
#     4   9  20  35  53  80 118 154 197 248 299 360
#     4  11  22  38  60  84 117 162 203 252 306 365
#     4  11  24  39  57  84 117 157 203 248 299 366
#
# _framework density 22.411134000000001
#
# number of rings (size 3 to 8) (size 9 to 14) (size 15 to 20)
#    0.000    2.286    1.429    1.286    2.000    4.571 
#    0.000    0.000    0.000    0.857    0.000    6.000 
#    0.000    0.000    0.000    0.000    0.000    0.000 
#
# Total GULP energy -311773.851687 kJ/mol
# GULP energy per Si atom -5567.390209 kJ/mol
# Density = 2.236013 g / cm^3
# Si number density = 22.411134 Si / 1000 Ang^3
#
#
#
# Elastic Constant Matrix: (Units=GPa)
#
#
# Indices 1 2 3 4 5 6 
#
# 1 51.7766 10.5618 14.5044 0.0000 0.0000 0.0000
# 2 10.5618 137.8832 39.5197 0.0000 0.0000 0.0000
# 3 14.5044 39.5197 60.1784 0.0000 0.0000 0.0000
# 4 0.0000 0.0000 0.0000 23.0971 0.0000 0.0000
# 5 0.0000 0.0000 0.0000 0.0000 39.9660 0.0000
# 6 0.0000 0.0000 0.0000 0.0000 0.0000 16.1656
#
#
#
# Elastic Compliance Matrix: (Units=1/GPa)
#
#
# Indices 1 2 3 4 5 6 
#
# 1 0.020716 -0.000192 -0.004867 0.000000 0.000000 0.000000
# 2 -0.000192 0.008936 -0.005822 0.000000 0.000000 0.000000
# 3 -0.004867 -0.005822 0.021614 0.000000 0.000000 0.000000
# 4 0.000000 0.000000 0.000000 0.043295 0.000000 0.000000
# 5 0.000000 0.000000 0.000000 0.000000 0.025021 0.000000
# 6 0.000000 0.000000 0.000000 0.000000 0.000000 0.061860
#
#
# Mechanical properties :
#
#
# Convention : Reuss Voigt Hill
#
# Bulk Modulus (GPa) = 33.89380 42.11222 38.00301
# Shear Modulus (GPa) = 23.46987 28.19590 25.83288
#
# Velocity S-wave (km/s) = 3.23962 3.55085 3.39880
# Velocity P-wave (km/s) = 5.39907 5.97017 5.69179
#
# Compressibility (1/GPa) = 0.02950392
#
# Stress axis : x y z
#
# Youngs Moduli (GPa) = 48.27106 111.90798 46.26685
#
# Poissons Ratio (x) = 0.02147 0.22519
# Poissons Ratio (y) = 0.00926 0.26937
# Poissons Ratio (z) = 0.23494 0.65153
#
# Static dielectric constant tensor:
#      x y z
#    x 1.956480 0.000000 0.000000 
#    y 0.000000 1.868170 0.000000 
#    z 0.000000 0.000000 1.893760 
# 
# From -- ./inp_files/26011.got.cif
#   From: 2010.05.17/outbox.cif.g08.bks.cpg/sg62_14_cif.got.tgz:26011.got - 2010.06.03 15:25:27.
