data_PCOD9463342
_publ_section_title
;
Structure prediction by ZEFSAII (Michael W. Deem and Ramdas Pophale) SiO2 
 PCOD9463342
Probable space group: P N M A
;
_chemical_formula_sum "Si O2"
_cell_formula_units_Z 48
_cell_length_a 8.286319
_cell_length_b 7.427089
_cell_length_c 29.678305
_cell_angle_alpha 90.000000
_cell_angle_beta 90.000000
_cell_angle_gamma 90.000000
_cell_volume 1826.498712
_symmetry_space_group_name_H-M "P N M A"
_symmetry_group_IT_number 62
_symmetry_cell_setting 'orthorhombic'
loop_
_space_group_symop_operation_xyz
x,y,z
1/2-x,-y,1/2+z
1/2+x,1/2-y,1/2-z
-x,1/2+y,-z
-x,-y,-z
1/2+x,y,1/2-z
1/2-x,1/2+y,1/2+z
x,1/2-y,z
loop_
_atom_site_type_symbol
_atom_site_label
_atom_site_fract_x
_atom_site_fract_y
_atom_site_fract_z
Si Si1 0.254915 0.528790 0.682625
Si Si2 0.569834 0.966119 0.901657
Si Si3 0.058052 0.469890 0.934243
Si Si4 0.230037 0.956142 0.513837
Si Si5 0.565869 0.955911 0.734054
Si Si6 0.739176 0.037963 0.650412
O O1 0.256302 0.750000 0.681665
O O2 0.208501 0.468304 0.632793
O O3 0.117797 0.467904 0.718122
O O4 0.420466 0.464124 0.705046
O O5 0.582647 0.750000 0.905016
O O6 0.596625 0.036246 0.952433
O O7 0.404263 0.005934 0.876222
O O8 0.054095 0.250000 0.935862
O O9 0.099943 0.528481 0.883878
O O10 0.892619 0.539315 0.955247
O O11 0.204370 0.533988 0.967035
O O12 0.187414 0.750000 0.504464
O O13 0.521256 0.750000 0.742846
O O14 0.717540 0.957101 0.699733
O O15 0.721285 0.250000 0.656105
#
# Coordination Sequence:
#
# PCOD9463342 Si02
#       6
#     8   8   8   8   8   8
#     4   9  18  33  57  84 105 129 167 218 266 304
#     4  10  20  35  55  79 105 135 176 220 258 302
#     4   9  19  35  53  76 108 140 170 211 262 311
#     4   9  18  34  57  81 102 131 175 219 258 308
#     4  10  19  35  58  80 103 133 171 213 259 308
#     4  11  23  36  50  74 109 144 175 209 255 308
#
# _framework density 26.279786999999999
#
# number of rings (size 3 to 8) (size 9 to 14) (size 15 to 20)
#    0.000    2.333    0.000    2.500    0.000    6.667 
#    0.000    4.167    0.000    0.000    0.000    0.000 
#    0.000    0.000    0.000    0.000    0.000    0.000 
#
# Total GULP energy -268531.126795 kJ/mol
# GULP energy per Si atom -5594.398475 kJ/mol
# Density = 2.621997 g / cm^3
# Si number density = 26.279787 Si / 1000 Ang^3
#
#
#
# Elastic Constant Matrix: (Units=GPa)
#
#
# Indices 1 2 3 4 5 6 
#
# 1 76.7130 0.5500 -1.6527 0.0000 0.0000 0.0000
# 2 0.5500 106.6980 10.2409 0.0000 0.0000 0.0000
# 3 -1.6527 10.2409 130.6970 0.0000 0.0000 0.0000
# 4 0.0000 0.0000 0.0000 7.2571 0.0000 0.0000
# 5 0.0000 0.0000 0.0000 0.0000 51.9321 0.0000
# 6 0.0000 0.0000 0.0000 0.0000 0.0000 12.0547
#
#
#
# Elastic Compliance Matrix: (Units=1/GPa)
#
#
# Indices 1 2 3 4 5 6 
#
# 1 0.013040 -0.000084 0.000171 0.000000 0.000000 0.000000
# 2 -0.000084 0.009444 -0.000741 0.000000 0.000000 0.000000
# 3 0.000171 -0.000741 0.007712 0.000000 0.000000 0.000000
# 4 0.000000 0.000000 0.000000 0.137797 0.000000 0.000000
# 5 0.000000 0.000000 0.000000 0.000000 0.019256 0.000000
# 6 0.000000 0.000000 0.000000 0.000000 0.000000 0.082955
#
#
# Mechanical properties :
#
#
# Convention : Reuss Voigt Hill
#
# Bulk Modulus (GPa) = 34.61561 36.93160 35.77361
# Shear Modulus (GPa) = 17.78481 34.58010 26.18246
#
# Velocity S-wave (km/s) = 2.60426 3.63139 3.15984
# Velocity P-wave (km/s) = 4.71630 5.62729 5.19181
#
# Compressibility (1/GPa) = 0.02888870
#
# Stress axis : x y z
#
# Youngs Moduli (GPa) = 76.68772 105.88950 129.67615
#
# Poissons Ratio (x) = 0.00886 -0.02223
# Poissons Ratio (y) = 0.00642 0.09610
# Poissons Ratio (z) = -0.01315 0.07847
#
# Static dielectric constant tensor:
#      x y z
#    x 2.142200 0.000000 0.000000 
#    y 0.000000 1.937400 0.000000 
#    z 0.000000 0.000000 2.022240 
# 
# From -- ./inp_files/31939.got.cif
#   From: 2010.05.17/outbox.cif.g08.bks.cpg/sg62_16_cif.got.tgz:31939.got - 2010.06.03 15:25:27.
