data_PCOD9463557
_publ_section_title
;
Structure prediction by ZEFSAII (Michael W. Deem and Ramdas Pophale) SiO2 
 PCOD9463557
Probable space group: P N M A
;
_chemical_formula_sum "Si O2"
_cell_formula_units_Z 56
_cell_length_a 22.464993
_cell_length_b 9.539609
_cell_length_c 13.757710
_cell_angle_alpha 90.000000
_cell_angle_beta 90.000000
_cell_angle_gamma 90.000000
_cell_volume 2948.376988
_symmetry_space_group_name_H-M "P N M A"
_symmetry_group_IT_number 62
_symmetry_cell_setting 'orthorhombic'
loop_
_space_group_symop_operation_xyz
x,y,z
1/2-x,-y,1/2+z
1/2+x,1/2-y,1/2-z
-x,1/2+y,-z
-x,-y,-z
1/2+x,y,1/2-z
1/2-x,1/2+y,1/2+z
x,1/2-y,z
loop_
_atom_site_type_symbol
_atom_site_label
_atom_site_fract_x
_atom_site_fract_y
_atom_site_fract_z
Si Si1 0.050730 0.918551 0.943217
Si Si2 0.158495 0.405639 0.013020
Si Si3 0.901096 0.085337 0.258356
Si Si4 0.561857 0.579076 0.975975
Si Si5 0.275233 0.513389 0.323370
Si Si6 0.832399 0.592559 0.550936
Si Si7 0.261422 0.099420 0.620171
O O1 0.045049 0.750000 0.947660
O O2 0.057606 0.966507 0.830500
O O3 0.110377 0.975087 0.993370
O O4 0.000000 0.000000 0.000000
O O5 0.134231 0.250000 0.029817
O O6 0.198857 0.405292 0.916140
O O7 0.198833 0.464250 0.099090
O O8 0.911099 0.250000 0.262750
O O9 0.918000 0.035117 0.365928
O O10 0.832917 0.064796 0.222666
O O11 0.557040 0.750000 0.981926
O O12 0.500000 0.500000 0.000000
O O13 0.614741 0.520354 0.045360
O O14 0.218812 0.430588 0.367754
O O15 0.253406 0.601501 0.232594
O O16 0.857124 0.750000 0.560814
O O17 0.796092 0.585337 0.449009
O O18 0.289155 0.250000 0.591277
#
# Coordination Sequence:
#
# PCOD9463557 Si02
#       7
#     8   8   8   8   8   8   8
#     4  10  20  38  61  85 114 150 196 246 296 350
#     4  10  21  35  55  85 117 151 192 238 291 352
#     4   9  19  37  63  89 116 156 199 243 299 363
#     4  11  23  42  64  88 121 164 212 258 303 365
#     4  10  19  36  60  91 119 153 195 245 300 359
#     4  10  21  37  60  91 122 155 196 251 308 365
#     4  10  20  35  56  83 119 154 190 240 298 354
#
# _framework density 18.993500000000001
#
# number of rings (size 3 to 8) (size 9 to 14) (size 15 to 20)
#    0.000    2.000    1.429    2.143    0.000    7.429 
#    2.571    2.143    0.000    0.000    0.000    0.000 
#    0.000    0.000    0.000    0.000    0.000    0.000 
#
# Total GULP energy -311748.569395 kJ/mol
# GULP energy per Si atom -5566.938739 kJ/mol
# Density = 1.895027 g / cm^3
# Si number density = 18.993500 Si / 1000 Ang^3
#
#
#
# Elastic Constant Matrix: (Units=GPa)
#
#
# Indices 1 2 3 4 5 6 
#
# 1 85.0050 40.7209 52.6150 0.0000 0.0000 0.0000
# 2 40.7209 92.1935 28.1598 0.0000 0.0000 0.0000
# 3 52.6150 28.1598 88.8158 0.0000 0.0000 0.0000
# 4 0.0000 0.0000 0.0000 10.4192 0.0000 0.0000
# 5 0.0000 0.0000 0.0000 0.0000 25.3058 0.0000
# 6 0.0000 0.0000 0.0000 0.0000 0.0000 17.2707
#
#
#
# Elastic Compliance Matrix: (Units=1/GPa)
#
#
# Indices 1 2 3 4 5 6 
#
# 1 0.021324 -0.006156 -0.010681 0.000000 0.000000 0.000000
# 2 -0.006156 0.013787 -0.000724 0.000000 0.000000 0.000000
# 3 -0.010681 -0.000724 0.017816 0.000000 0.000000 0.000000
# 4 0.000000 0.000000 0.000000 0.095977 0.000000 0.000000
# 5 0.000000 0.000000 0.000000 0.000000 0.039517 0.000000
# 6 0.000000 0.000000 0.000000 0.000000 0.000000 0.057902
#
#
# Mechanical properties :
#
#
# Convention : Reuss Voigt Hill
#
# Bulk Modulus (GPa) = 56.16411 56.55619 56.36015
# Shear Modulus (GPa) = 17.39859 20.23370 18.81614
#
# Velocity S-wave (km/s) = 3.02988 3.26743 3.15089
# Velocity P-wave (km/s) = 6.47106 6.63898 6.55556
#
# Compressibility (1/GPa) = 0.01780497
#
# Stress axis : x y z
#
# Youngs Moduli (GPa) = 46.89555 72.53130 56.12895
#
# Poissons Ratio (x) = 0.44652 0.59949
# Poissons Ratio (y) = 0.28870 0.04066
# Poissons Ratio (z) = 0.50087 0.05254
#
# Static dielectric constant tensor:
#      x y z
#    x 1.710490 0.000000 0.000000 
#    y 0.000000 1.672760 0.000000 
#    z 0.000000 0.000000 1.680590 
# 
# From -- ./inp_files/20245.got.cif
#   From: 2010.05.17/outbox.cif.g08.bks.cpg/sg62_11_cif.got.tgz:20245.got - 2010.06.03 15:25:27.
