data_PCOD9463757
_publ_section_title
;
Structure prediction by ZEFSAII (Michael W. Deem and Ramdas Pophale) SiO2 
 PCOD9463757
Probable space group: P N M A
;
_chemical_formula_sum "Si O2"
_cell_formula_units_Z 64
_cell_length_a 14.023289
_cell_length_b 22.668279
_cell_length_c 9.849025
_cell_angle_alpha 90.000000
_cell_angle_beta 90.000000
_cell_angle_gamma 90.000000
_cell_volume 3130.845765
_symmetry_space_group_name_H-M "P N M A"
_symmetry_group_IT_number 62
_symmetry_cell_setting 'orthorhombic'
loop_
_space_group_symop_operation_xyz
x,y,z
1/2-x,-y,1/2+z
1/2+x,1/2-y,1/2-z
-x,1/2+y,-z
-x,-y,-z
1/2+x,y,1/2-z
1/2-x,1/2+y,1/2+z
x,1/2-y,z
loop_
_atom_site_type_symbol
_atom_site_label
_atom_site_fract_x
_atom_site_fract_y
_atom_site_fract_z
Si Si1 0.493253 0.389600 0.350404
Si Si2 0.277718 0.367195 0.964281
Si Si3 0.647541 0.990925 0.045148
Si Si4 0.964868 0.510710 0.270171
Si Si5 0.421099 0.635827 0.357303
Si Si6 0.363346 0.623819 0.900013
Si Si7 0.485780 0.182315 0.897983
Si Si8 0.305620 0.180688 0.263385
O O1 0.468222 0.458915 0.340060
O O2 0.530649 0.370500 0.496217
O O3 0.574438 0.380859 0.236746
O O4 0.402098 0.351686 0.306951
O O5 0.277097 0.438437 0.953052
O O6 0.187656 0.344392 0.880264
O O7 0.380590 0.344695 0.914399
O O8 0.272180 0.346932 0.120214
O O9 0.677093 0.058764 0.065204
O O10 0.569054 0.979251 0.162689
O O11 0.596423 0.987797 0.898504
O O12 0.925533 0.571221 0.211691
O O13 0.479183 0.677336 0.256257
O O14 0.276519 0.667472 0.872927
O O15 0.437895 0.645554 0.013169
O O16 0.484631 0.250000 0.944706
O O17 0.320972 0.250000 0.246674
#
# Coordination Sequence:
#
# PCOD9463757 Si02
#       8
#     8   8   8   8   8   8   8   8
#     4  11  24  43  69 103 138 175 227 283 340 400
#     4  12  24  44  71 105 133 182 229 283 358 407
#     4  10  19  40  76  97 133 176 230 281 339 420
#     4  10  19  42  69 100 137 176 221 275 347 416
#     4  12  26  44  68 109 140 175 221 292 351 403
#     4  11  23  46  71 101 131 182 233 282 341 409
#     4  12  26  48  71  94 139 191 231 278 343 415
#     4  12  26  44  70 101 137 186 241 284 333 413
#
# _framework density 20.441761
#
# number of rings (size 3 to 8) (size 9 to 14) (size 15 to 20)
#    0.000    0.750    6.250    1.875    1.750    3.000 
#    0.000    0.000    0.000    0.000    0.000    0.000 
#    0.000    0.000    0.000    0.000    0.000    0.000 
#
# Total GULP energy -357901.573087 kJ/mol
# GULP energy per Si atom -5592.212079 kJ/mol
# Density = 2.039523 g / cm^3
# Si number density = 20.441761 Si / 1000 Ang^3
#
#
#
# Elastic Constant Matrix: (Units=GPa)
#
#
# Indices 1 2 3 4 5 6 
#
# 1 65.6986 33.9718 17.4783 0.0000 0.0000 0.0000
# 2 33.9718 99.6682 19.1545 0.0000 0.0000 0.0000
# 3 17.4783 19.1545 85.6474 0.0000 0.0000 0.0000
# 4 0.0000 0.0000 0.0000 9.4468 0.0000 0.0000
# 5 0.0000 0.0000 0.0000 0.0000 13.7269 0.0000
# 6 0.0000 0.0000 0.0000 0.0000 0.0000 16.9084
#
#
#
# Elastic Compliance Matrix: (Units=1/GPa)
#
#
# Indices 1 2 3 4 5 6 
#
# 1 0.018991 -0.005986 -0.002537 0.000000 0.000000 0.000000
# 2 -0.005986 0.012370 -0.001545 0.000000 0.000000 0.000000
# 3 -0.002537 -0.001545 0.012539 0.000000 0.000000 0.000000
# 4 0.000000 0.000000 0.000000 0.105856 0.000000 0.000000
# 5 0.000000 0.000000 0.000000 0.000000 0.072850 0.000000
# 6 0.000000 0.000000 0.000000 0.000000 0.000000 0.059142
#
#
# Mechanical properties :
#
#
# Convention : Reuss Voigt Hill
#
# Bulk Modulus (GPa) = 42.07800 43.58038 42.82919
# Shear Modulus (GPa) = 16.13919 20.04372 18.09146
#
# Velocity S-wave (km/s) = 2.81289 3.13474 2.97816
# Velocity P-wave (km/s) = 5.58380 5.87092 5.72916
#
# Compressibility (1/GPa) = 0.02376539
#
# Stress axis : x y z
#
# Youngs Moduli (GPa) = 52.65665 80.83825 79.75089
#
# Poissons Ratio (x) = 0.48386 0.20232
# Poissons Ratio (y) = 0.31518 0.12322
# Poissons Ratio (z) = 0.13359 0.12490
#
# Static dielectric constant tensor:
#      x y z
#    x 1.709970 0.000000 0.000000 
#    y 0.000000 1.733010 0.000000 
#    z 0.000000 0.000000 1.703010 
# 
# From -- ./inp_files/6969.got.cif
#   From: 2010.05.17/outbox.cif.g08.bks.cpg/sg62_4_cif.got.tgz:6969.got - 2010.06.03 15:25:27.
