data_PCOD9463521
_publ_section_title
;
Structure prediction by ZEFSAII (Michael W. Deem and Ramdas Pophale) SiO2 
 PCOD9463521
Probable space group: P N M A
;
_chemical_formula_sum "Si O2"
_cell_formula_units_Z 64
_cell_length_a 14.586225
_cell_length_b 13.054332
_cell_length_c 18.214890
_cell_angle_alpha 90.000000
_cell_angle_beta 90.000000
_cell_angle_gamma 90.000000
_cell_volume 3468.359569
_symmetry_space_group_name_H-M "P N M A"
_symmetry_group_IT_number 62
_symmetry_cell_setting 'orthorhombic'
loop_
_space_group_symop_operation_xyz
x,y,z
1/2-x,-y,1/2+z
1/2+x,1/2-y,1/2-z
-x,1/2+y,-z
-x,-y,-z
1/2+x,y,1/2-z
1/2-x,1/2+y,1/2+z
x,1/2-y,z
loop_
_atom_site_type_symbol
_atom_site_label
_atom_site_fract_x
_atom_site_fract_y
_atom_site_fract_z
Si Si1 0.457339 0.869180 0.157926
Si Si2 0.099056 0.633617 0.903421
Si Si3 0.586535 0.959109 0.045414
Si Si4 0.205548 0.506463 0.588851
Si Si5 0.488545 0.480331 0.690586
Si Si6 0.815958 0.867831 0.796529
Si Si7 0.113802 0.630302 0.064106
Si Si8 0.807727 0.862639 0.625079
O O1 0.434955 0.750000 0.170032
O O2 0.543460 0.877588 0.101527
O O3 0.372043 0.930490 0.121700
O O4 0.483468 0.926149 0.233802
O O5 0.073529 0.750000 0.880829
O O6 0.208650 0.631793 0.911732
O O7 0.067643 0.548561 0.846401
O O8 0.063916 0.613338 0.985818
O O9 0.627387 0.049821 0.095213
O O10 0.500000 0.000000 0.000000
O O11 0.663236 0.938389 0.983254
O O12 0.238654 0.586378 0.650379
O O13 0.295706 0.439954 0.569891
O O14 0.405252 0.560661 0.699875
O O15 0.452062 0.398701 0.631299
O O16 0.836148 0.750000 0.816217
O O17 0.788088 0.870581 0.711442
O O18 0.139312 0.750000 0.067083
O O19 0.848499 0.750000 0.610505
#
# Coordination Sequence:
#
# PCOD9463521 Si02
#       8
#     8   8   8   8   8   8   8   8
#     4  11  23  39  59  84 118 155 192 234 284 347
#     4  10  20  34  58  84 110 147 196 245 290 341
#     4  10  21  37  58  87 116 150 189 238 292 344
#     4  10  21  38  62  86 116 151 192 241 286 347
#     4  11  21  36  56  82 119 153 192 240 286 343
#     4  10  21  37  59  85 116 152 191 241 293 342
#     4  10  20  35  57  83 112 153 198 237 286 345
#     4  10  19  36  59  84 114 150 195 241 292 346
#
# _framework density 18.452528000000001
#
# number of rings (size 3 to 8) (size 9 to 14) (size 15 to 20)
#    0.000    1.750    2.500    2.250    0.000    2.500 
#    0.000    2.500    0.000    1.500    0.000    0.000 
#    0.000    0.000    0.000    0.000    0.000    0.000 
#
# Total GULP energy -356895.032536 kJ/mol
# GULP energy per Si atom -5576.484883 kJ/mol
# Density = 1.841053 g / cm^3
# Si number density = 18.452528 Si / 1000 Ang^3
#
#
#
# Elastic Constant Matrix: (Units=GPa)
#
#
# Indices 1 2 3 4 5 6 
#
# 1 36.7375 21.2988 11.4742 0.0000 0.0000 0.0000
# 2 21.2988 79.4183 47.2727 0.0000 0.0000 0.0000
# 3 11.4742 47.2727 95.7850 0.0000 0.0000 0.0000
# 4 0.0000 0.0000 0.0000 15.4309 0.0000 0.0000
# 5 0.0000 0.0000 0.0000 0.0000 32.0743 0.0000
# 6 0.0000 0.0000 0.0000 0.0000 0.0000 25.5248
#
#
#
# Elastic Compliance Matrix: (Units=1/GPa)
#
#
# Indices 1 2 3 4 5 6 
#
# 1 0.032254 -0.008992 0.000574 0.000000 0.000000 0.000000
# 2 -0.008992 0.020336 -0.008959 0.000000 0.000000 0.000000
# 3 0.000574 -0.008959 0.014793 0.000000 0.000000 0.000000
# 4 0.000000 0.000000 0.000000 0.064805 0.000000 0.000000
# 5 0.000000 0.000000 0.000000 0.000000 0.031178 0.000000
# 6 0.000000 0.000000 0.000000 0.000000 0.000000 0.039178
#
#
# Mechanical properties :
#
#
# Convention : Reuss Voigt Hill
#
# Bulk Modulus (GPa) = 30.64778 41.33691 35.99235
# Shear Modulus (GPa) = 20.14725 23.39901 21.77313
#
# Velocity S-wave (km/s) = 3.30789 3.56485 3.43877
# Velocity P-wave (km/s) = 5.58879 6.27651 5.94261
#
# Compressibility (1/GPa) = 0.03262879
#
# Stress axis : x y z
#
# Youngs Moduli (GPa) = 31.00402 49.17428 67.59980
#
# Poissons Ratio (x) = 0.44216 -0.03879
# Poissons Ratio (y) = 0.27878 0.60564
# Poissons Ratio (z) = -0.01779 0.44056
#
# Static dielectric constant tensor:
#      x y z
#    x 1.638230 0.000000 0.000000 
#    y 0.000000 1.636100 0.000000 
#    z 0.000000 0.000000 1.675910 
# 
# From -- ./inp_files/24051.got.cif
#   From: 2010.05.17/outbox.cif.g08.bks.cpg/sg62_13_cif.got.tgz:24051.got - 2010.06.03 15:25:27.
