data_PCOD9463885
_publ_section_title
;
Structure prediction by ZEFSAII (Michael W. Deem and Ramdas Pophale) SiO2 
 PCOD9463885
Probable space group: P N M A
;
_chemical_formula_sum "Si O2"
_cell_formula_units_Z 40
_cell_length_a 8.106146
_cell_length_b 16.588807
_cell_length_c 11.512004
_cell_angle_alpha 90.000000
_cell_angle_beta 90.000000
_cell_angle_gamma 90.000000
_cell_volume 1548.034046
_symmetry_space_group_name_H-M "P N M A"
_symmetry_group_IT_number 62
_symmetry_cell_setting 'orthorhombic'
loop_
_space_group_symop_operation_xyz
x,y,z
1/2-x,-y,1/2+z
1/2+x,1/2-y,1/2-z
-x,1/2+y,-z
-x,-y,-z
1/2+x,y,1/2-z
1/2-x,1/2+y,1/2+z
x,1/2-y,z
loop_
_atom_site_type_symbol
_atom_site_label
_atom_site_fract_x
_atom_site_fract_y
_atom_site_fract_z
Si Si1 0.736614 0.966170 0.351929
Si Si2 0.897323 0.661702 0.505048
Si Si3 0.886182 0.128595 0.287682
Si Si4 0.569011 0.378736 0.423046
Si Si5 0.737266 0.841289 0.143681
O O1 0.715860 0.904691 0.246525
O O2 0.792192 0.913074 0.460658
O O3 0.593911 0.026485 0.394278
O O4 0.870665 0.032200 0.309941
O O5 0.825427 0.750000 0.480804
O O6 0.958102 0.655020 0.636602
O O7 0.068874 0.655502 0.430937
O O8 0.724851 0.159863 0.353303
O O9 0.913368 0.148261 0.153015
O O10 0.609571 0.360484 0.556447
O O11 0.759390 0.750000 0.187337
#
# Coordination Sequence:
#
# PCOD9463885 Si02
#       5
#     8   8   8   8   8
#     4  10  20  32  60  81 114 145 196 235 279 347
#     4  10  20  36  58  82 116 155 194 237 290 346
#     4   9  20  36  58  86 112 150 197 238 282 346
#     4   9  21  35  60  83 118 148 195 238 287 340
#     4  10  21  37  56  84 119 154 188 241 298 341
#
# _framework density 25.839226
#
# number of rings (size 3 to 8) (size 9 to 14) (size 15 to 20)
#    1.200    1.200    0.000    2.400    2.800    1.600 
#    0.000    2.000    0.000    4.800    0.000    0.000 
#    0.000    0.000    0.000    0.000    0.000    0.000 
#
# Total GULP energy -223610.345257 kJ/mol
# GULP energy per Si atom -5590.258631 kJ/mol
# Density = 2.578041 g / cm^3
# Si number density = 25.839226 Si / 1000 Ang^3
#
#
#
# Elastic Constant Matrix: (Units=GPa)
#
#
# Indices 1 2 3 4 5 6 
#
# 1 48.3947 5.5127 14.7706 0.0000 0.0000 0.0000
# 2 5.5127 168.3386 35.1827 0.0000 0.0000 0.0000
# 3 14.7706 35.1827 119.6975 0.0000 0.0000 0.0000
# 4 0.0000 0.0000 0.0000 21.4036 0.0000 0.0000
# 5 0.0000 0.0000 0.0000 0.0000 46.3407 0.0000
# 6 0.0000 0.0000 0.0000 0.0000 0.0000 13.3257
#
#
#
# Elastic Compliance Matrix: (Units=1/GPa)
#
#
# Indices 1 2 3 4 5 6 
#
# 1 0.021476 -0.000159 -0.002603 0.000000 0.000000 0.000000
# 2 -0.000159 0.006330 -0.001841 0.000000 0.000000 0.000000
# 3 -0.002603 -0.001841 0.009217 0.000000 0.000000 0.000000
# 4 0.000000 0.000000 0.000000 0.046721 0.000000 0.000000
# 5 0.000000 0.000000 0.000000 0.000000 0.021579 0.000000
# 6 0.000000 0.000000 0.000000 0.000000 0.000000 0.075043
#
#
# Mechanical properties :
#
#
# Convention : Reuss Voigt Hill
#
# Bulk Modulus (GPa) = 35.95036 49.70697 42.82866
# Shear Modulus (GPa) = 25.14508 34.94499 30.04503
#
# Velocity S-wave (km/s) = 3.12290 3.68149 3.41364
# Velocity P-wave (km/s) = 5.19101 6.11146 5.66994
#
# Compressibility (1/GPa) = 0.02781614
#
# Stress axis : x y z
#
# Youngs Moduli (GPa) = 46.56329 157.96794 108.49772
#
# Poissons Ratio (x) = 0.02515 0.28246
# Poissons Ratio (y) = 0.00741 0.19975
# Poissons Ratio (z) = 0.12122 0.29083
#
# Static dielectric constant tensor:
#      x y z
#    x 2.147350 0.000000 0.000000 
#    y 0.000000 1.987290 0.000000 
#    z 0.000000 0.000000 1.995490 
# 
# From -- ./inp_files/11086.got.cif
#   From: 2010.05.17/outbox.cif.g08.bks.cpg/sg62_6_cif.got.tgz:11086.got - 2010.06.03 15:25:27.
