data_PCOD9463525
_publ_section_title
;
Structure prediction by ZEFSAII (Michael W. Deem and Ramdas Pophale) SiO2 
 PCOD9463525
Probable space group: P N M A
;
_chemical_formula_sum "Si O2"
_cell_formula_units_Z 40
_cell_length_a 11.501530
_cell_length_b 10.110068
_cell_length_c 14.996798
_cell_angle_alpha 90.000000
_cell_angle_beta 90.000000
_cell_angle_gamma 90.000000
_cell_volume 1743.846423
_symmetry_space_group_name_H-M "P N M A"
_symmetry_group_IT_number 62
_symmetry_cell_setting 'orthorhombic'
loop_
_space_group_symop_operation_xyz
x,y,z
1/2-x,-y,1/2+z
1/2+x,1/2-y,1/2-z
-x,1/2+y,-z
-x,-y,-z
1/2+x,y,1/2-z
1/2-x,1/2+y,1/2+z
x,1/2-y,z
loop_
_atom_site_type_symbol
_atom_site_label
_atom_site_fract_x
_atom_site_fract_y
_atom_site_fract_z
Si Si1 0.167973 0.897216 0.523598
Si Si2 0.581499 0.402577 0.671535
Si Si3 0.403896 0.902163 0.587859
Si Si4 0.981170 0.467027 0.639575
Si Si5 0.282691 0.606335 0.780561
O O1 0.164171 0.750000 0.562541
O O2 0.303437 0.932909 0.515768
O O3 0.099889 0.893149 0.430811
O O4 0.097758 0.994761 0.587657
O O5 0.603183 0.250000 0.645756
O O6 0.500452 0.486471 0.603842
O O7 0.512022 0.401456 0.766611
O O8 0.695537 0.489194 0.693933
O O9 0.447067 0.750000 0.576432
O O10 0.328071 0.903681 0.679558
O O11 0.901031 0.593211 0.662786
O O12 0.226774 0.750000 0.794504
#
# Coordination Sequence:
#
# PCOD9463525 Si02
#       5
#     8   8   8   8   8
#     4  10  19  36  59  85 116 149 187 231 286 343
#     4  11  22  36  56  85 118 150 187 237 289 337
#     4   9  19  36  58  81 109 149 194 235 275 337
#     4  10  21  36  56  88 117 149 185 235 288 339
#     4  10  20  36  59  83 112 152 195 234 274 338
#
# _framework density 22.937799999999999
#
# number of rings (size 3 to 8) (size 9 to 14) (size 15 to 20)
#    0.000    2.000    2.000    1.800    0.000    5.600 
#    0.000    3.000    0.000    0.000    0.000    0.000 
#    0.000    0.000    0.000    0.000    0.000    0.000 
#
# Total GULP energy -223425.671651 kJ/mol
# GULP energy per Si atom -5585.641791 kJ/mol
# Density = 2.288559 g / cm^3
# Si number density = 22.937800 Si / 1000 Ang^3
#
#
#
# Elastic Constant Matrix: (Units=GPa)
#
#
# Indices 1 2 3 4 5 6 
#
# 1 117.6224 70.8947 24.7633 0.0000 0.0000 0.0000
# 2 70.8947 158.8360 22.4304 0.0000 0.0000 0.0000
# 3 24.7633 22.4304 69.0928 0.0000 0.0000 0.0000
# 4 0.0000 0.0000 0.0000 12.4013 0.0000 0.0000
# 5 0.0000 0.0000 0.0000 0.0000 44.7817 0.0000
# 6 0.0000 0.0000 0.0000 0.0000 0.0000 30.6274
#
#
#
# Elastic Compliance Matrix: (Units=1/GPa)
#
#
# Indices 1 2 3 4 5 6 
#
# 1 0.012095 -0.005016 -0.002706 0.000000 0.000000 0.000000
# 2 -0.005016 0.008679 -0.001020 0.000000 0.000000 0.000000
# 3 -0.002706 -0.001020 0.015774 0.000000 0.000000 0.000000
# 4 0.000000 0.000000 0.000000 0.080637 0.000000 0.000000
# 5 0.000000 0.000000 0.000000 0.000000 0.022331 0.000000
# 6 0.000000 0.000000 0.000000 0.000000 0.000000 0.032650
#
#
# Mechanical properties :
#
#
# Convention : Reuss Voigt Hill
#
# Bulk Modulus (GPa) = 52.45649 64.63642 58.54646
# Shear Modulus (GPa) = 25.50956 32.72629 29.11792
#
# Velocity S-wave (km/s) = 3.33846 3.78132 3.56677
# Velocity P-wave (km/s) = 6.14647 6.87784 6.52241
#
# Compressibility (1/GPa) = 0.01906342
#
# Stress axis : x y z
#
# Youngs Moduli (GPa) = 82.67851 115.22396 63.39422
#
# Poissons Ratio (x) = 0.57800 0.17157
# Poissons Ratio (y) = 0.41474 0.06464
# Poissons Ratio (z) = 0.22376 0.11748
#
# Static dielectric constant tensor:
#      x y z
#    x 1.861720 0.000000 0.000000 
#    y 0.000000 1.847380 0.000000 
#    z 0.000000 0.000000 1.921240 
# 
# From -- ./inp_files/22777.got.cif
#   From: 2010.05.17/outbox.cif.g08.bks.cpg/sg62_12_cif.got.tgz:22777.got - 2010.06.03 15:25:27.
