data_PCOD9463396
_publ_section_title
;
Structure prediction by ZEFSAII (Michael W. Deem and Ramdas Pophale) SiO2 
 PCOD9463396
Probable space group: P N M A
;
_chemical_formula_sum "Si O2"
_cell_formula_units_Z 64
_cell_length_a 11.793721
_cell_length_b 7.368626
_cell_length_c 29.220464
_cell_angle_alpha 90.000000
_cell_angle_beta 90.000000
_cell_angle_gamma 90.000000
_cell_volume 2539.361154
_symmetry_space_group_name_H-M "P N M A"
_symmetry_group_IT_number 62
_symmetry_cell_setting 'orthorhombic'
loop_
_space_group_symop_operation_xyz
x,y,z
1/2-x,-y,1/2+z
1/2+x,1/2-y,1/2-z
-x,1/2+y,-z
-x,-y,-z
1/2+x,y,1/2-z
1/2-x,1/2+y,1/2+z
x,1/2-y,z
loop_
_atom_site_type_symbol
_atom_site_label
_atom_site_fract_x
_atom_site_fract_y
_atom_site_fract_z
Si Si1 0.930542 0.971629 0.230321
Si Si2 0.124170 0.027558 0.870140
Si Si3 0.544866 0.956811 0.441161
Si Si4 0.697657 0.038833 0.354819
Si Si5 0.098702 0.468976 0.586591
Si Si6 0.247243 0.529524 0.001294
Si Si7 0.650740 0.542540 0.096514
Si Si8 0.675026 0.953312 0.252145
O O1 0.930878 0.750000 0.234186
O O2 0.046899 0.031188 0.256242
O O3 0.937723 0.021865 0.176528
O O4 0.801569 0.032292 0.242785
O O5 0.122936 0.250000 0.872456
O O6 0.254174 0.965446 0.869955
O O7 0.063265 0.958008 0.916230
O O8 0.519737 0.750000 0.452808
O O9 0.622098 0.032078 0.482052
O O10 0.630797 0.955811 0.397631
O O11 0.668563 0.250000 0.351290
O O12 0.828095 0.021236 0.369605
O O13 0.675856 0.944378 0.307206
O O14 0.095830 0.250000 0.583540
O O15 0.164314 0.529238 0.540790
O O16 0.972061 0.540873 0.590962
O O17 0.245880 0.750000 0.000048
O O18 0.290542 0.459195 0.953199
O O19 0.632717 0.750000 0.111218
O O20 0.676540 0.750000 0.231687
#
# Coordination Sequence:
#
# PCOD9463396 Si02
#       8
#     8   8   8   8   8   8   8   8
#     4   9  18  32  57  85 108 138 181 224 267 321
#     4   9  17  32  54  79 105 136 177 227 272 313
#     4   9  17  34  57  76 102 140 178 220 267 314
#     4  11  21  33  54  82 106 138 180 219 264 323
#     4   9  19  35  53  75 105 144 183 225 271 318
#     4   9  18  31  49  73 104 144 182 218 272 325
#     4  10  20  32  51  78 107 139 180 227 272 317
#     4  10  19  35  59  86 110 140 179 226 274 323
#
# _framework density 25.203188999999998
#
# number of rings (size 3 to 8) (size 9 to 14) (size 15 to 20)
#    0.000    2.500    1.250    2.250    0.000    4.000 
#    0.000    5.000    0.000    0.000    0.000    0.000 
#    0.000    0.000    0.000    0.000    0.000    0.000 
#
# Total GULP energy -357361.716586 kJ/mol
# GULP energy per Si atom -5583.776822 kJ/mol
# Density = 2.514583 g / cm^3
# Si number density = 25.203189 Si / 1000 Ang^3
#
#
#
# Elastic Constant Matrix: (Units=GPa)
#
#
# Indices 1 2 3 4 5 6 
#
# 1 222.7961 10.3089 20.1258 0.0000 0.0000 0.0000
# 2 10.3089 108.4681 -0.6912 0.0000 0.0000 0.0000
# 3 20.1258 -0.6912 46.1986 0.0000 0.0000 0.0000
# 4 0.0000 0.0000 0.0000 -6.6136 0.0000 0.0000
# 5 0.0000 0.0000 0.0000 0.0000 33.8647 0.0000
# 6 0.0000 0.0000 0.0000 0.0000 0.0000 -19.3372
#
#
#
# Elastic Compliance Matrix: (Units=1/GPa)
#
#
# Indices 1 2 3 4 5 6 
#
# 1 0.004695 -0.000459 -0.002052 0.000000 0.000000 0.000000
# 2 -0.000459 0.009265 0.000339 0.000000 0.000000 0.000000
# 3 -0.002052 0.000339 0.022545 0.000000 0.000000 0.000000
# 4 0.000000 0.000000 0.000000 -0.151205 0.000000 0.000000
# 5 0.000000 0.000000 0.000000 0.000000 0.029529 0.000000
# 6 0.000000 0.000000 0.000000 0.000000 0.000000 -0.051714
#
#
# Mechanical properties :
#
#
# Convention : Reuss Voigt Hill
#
# Bulk Modulus (GPa) = 31.09519 48.54997 39.82258
# Shear Modulus (GPa) = -41.04456 24.76407 -8.14024
#
# Velocity S-wave (km/s) = -4.03990 3.13801 -1.79913
# Velocity P-wave (km/s) = 3.06537 5.69515 3.39398
#
# Compressibility (1/GPa) = 0.03215932
#
# Stress axis : x y z
#
# Youngs Moduli (GPa) = 212.99071 107.93183 44.35622
#
# Poissons Ratio (x) = 0.04957 0.09103
# Poissons Ratio (y) = 0.09783 -0.01502
# Poissons Ratio (z) = 0.43710 -0.03656
#
# Static dielectric constant tensor:
#      x y z
#    x 2.078990 0.000000 0.000000 
#    y 0.000000 1.940350 0.000000 
#    z 0.000000 0.000000 1.936350 
# 
# From -- ./inp_files/32498.got.cif
#   From: 2010.05.17/outbox.cif.g08.bks.cpg/sg62_17_cif.got.tgz:32498.got - 2010.06.03 15:25:27.
