data_PCOD9463373
_publ_section_title
;
Structure prediction by ZEFSAII (Michael W. Deem and Ramdas Pophale) SiO2 
 PCOD9463373
Probable space group: P N M A
;
_chemical_formula_sum "Si O2"
_cell_formula_units_Z 52
_cell_length_a 16.227747
_cell_length_b 19.617379
_cell_length_c 7.128482
_cell_angle_alpha 90.000000
_cell_angle_beta 90.000000
_cell_angle_gamma 90.000000
_cell_volume 2269.322756
_symmetry_space_group_name_H-M "P N M A"
_symmetry_group_IT_number 62
_symmetry_cell_setting 'orthorhombic'
loop_
_space_group_symop_operation_xyz
x,y,z
1/2-x,-y,1/2+z
1/2+x,1/2-y,1/2-z
-x,1/2+y,-z
-x,-y,-z
1/2+x,y,1/2-z
1/2-x,1/2+y,1/2+z
x,1/2-y,z
loop_
_atom_site_type_symbol
_atom_site_label
_atom_site_fract_x
_atom_site_fract_y
_atom_site_fract_z
Si Si1 0.299768 0.878449 0.292930
Si Si2 0.683662 0.397916 0.257973
Si Si3 0.626003 0.250000 0.208008
Si Si4 0.595578 0.250000 0.654182
Si Si5 0.024517 0.494196 0.280881
Si Si6 0.120664 0.884530 0.352671
Si Si7 0.153429 0.527573 0.719138
Si Si8 0.531860 0.750000 0.059660
O O1 0.306965 0.890226 0.517246
O O2 0.359145 0.815487 0.259848
O O3 0.204402 0.864578 0.248522
O O4 0.327803 0.947832 0.197374
O O5 0.673915 0.321434 0.177852
O O6 0.599552 0.441224 0.235759
O O7 0.766028 0.437360 0.188846
O O8 0.603381 0.250000 0.430373
O O9 0.543267 0.250000 0.085312
O O10 0.503656 0.250000 0.728961
O O11 0.056691 0.570318 0.233327
O O12 0.000000 0.500000 0.500000
O O13 0.937958 0.471019 0.188320
O O14 0.146300 0.935494 0.519688
O O15 0.083227 0.818840 0.452739
#
# Coordination Sequence:
#
# PCOD9463373 Si02
#       8
#     8   8   4   4   8   8   8   4
#     4  10  20  39  62  90 133 178 217 283 342 400
#     4  10  21  38  60  92 125 176 221 274 345 402
#     4  10  22  42  66  90 137 171 223 286 339 419
#     4  10  23  41  65  95 133 175 227 278 345 409
#     4  10  19  35  58  88 122 164 221 273 326 397
#     4  10  21  37  64  95 129 177 227 280 334 422
#     4  10  20  35  60  90 126 172 217 272 335 393
#     4  12  23  43  71 101 130 180 230 278 352 400
#
# _framework density 22.914327
#
# number of rings (size 3 to 8) (size 9 to 14) (size 15 to 20)
#    0.000    1.846    1.538    3.231    0.000    3.692 
#    0.000    2.308    0.000    9.231    0.000    0.000 
#    0.000    0.000    0.000    0.000    0.000    0.000 
#
# Total GULP energy -290480.108264 kJ/mol
# GULP energy per Si atom -5586.155928 kJ/mol
# Density = 2.286217 g / cm^3
# Si number density = 22.914327 Si / 1000 Ang^3
#
#
#
# Elastic Constant Matrix: (Units=GPa)
#
#
# Indices 1 2 3 4 5 6 
#
# 1 147.1922 59.3909 4.7531 0.0000 0.0000 0.0000
# 2 59.3909 179.3150 9.4231 0.0000 0.0000 0.0000
# 3 4.7531 9.4231 63.9329 0.0000 0.0000 0.0000
# 4 0.0000 0.0000 0.0000 24.6062 0.0000 0.0000
# 5 0.0000 0.0000 0.0000 0.0000 16.3536 0.0000
# 6 0.0000 0.0000 0.0000 0.0000 0.0000 55.5835
#
#
#
# Elastic Compliance Matrix: (Units=1/GPa)
#
#
# Indices 1 2 3 4 5 6 
#
# 1 0.007844 -0.002588 -0.000202 0.000000 0.000000 0.000000
# 2 -0.002588 0.006474 -0.000762 0.000000 0.000000 0.000000
# 3 -0.000202 -0.000762 0.015769 0.000000 0.000000 0.000000
# 4 0.000000 0.000000 0.000000 0.040640 0.000000 0.000000
# 5 0.000000 0.000000 0.000000 0.000000 0.061149 0.000000
# 6 0.000000 0.000000 0.000000 0.000000 0.000000 0.017991
#
#
# Mechanical properties :
#
#
# Convention : Reuss Voigt Hill
#
# Bulk Modulus (GPa) = 43.50738 59.73047 51.61893
# Shear Modulus (GPa) = 30.37105 40.43353 35.40229
#
# Velocity S-wave (km/s) = 3.64458 4.20521 3.93489
# Velocity P-wave (km/s) = 6.06125 7.04996 6.57422
#
# Compressibility (1/GPa) = 0.02298460
#
# Stress axis : x y z
#
# Youngs Moduli (GPa) = 127.47937 154.46808 63.41677
#
# Poissons Ratio (x) = 0.39969 0.01280
# Poissons Ratio (y) = 0.32986 0.04831
# Poissons Ratio (z) = 0.02573 0.11768
#
# Static dielectric constant tensor:
#      x y z
#    x 1.938250 0.000000 0.000000 
#    y 0.000000 1.865090 0.000000 
#    z 0.000000 0.000000 1.924120 
# 
# From -- ./inp_files/6739.got.cif
#   From: 2010.05.17/outbox.cif.g08.bks.cpg/sg62_4_cif.got.tgz:6739.got - 2010.06.03 15:25:27.
