data_PCOD9463925
_publ_section_title
;
Structure prediction by ZEFSAII (Michael W. Deem and Ramdas Pophale) SiO2 
 PCOD9463925
Probable space group: P N M A
;
_chemical_formula_sum "Si O2"
_cell_formula_units_Z 64
_cell_length_a 8.784713
_cell_length_b 26.129631
_cell_length_c 15.779205
_cell_angle_alpha 90.000000
_cell_angle_beta 90.000000
_cell_angle_gamma 90.000000
_cell_volume 3621.979373
_symmetry_space_group_name_H-M "P N M A"
_symmetry_group_IT_number 62
_symmetry_cell_setting 'orthorhombic'
loop_
_space_group_symop_operation_xyz
x,y,z
1/2-x,-y,1/2+z
1/2+x,1/2-y,1/2-z
-x,1/2+y,-z
-x,-y,-z
1/2+x,y,1/2-z
1/2-x,1/2+y,1/2+z
x,1/2-y,z
loop_
_atom_site_type_symbol
_atom_site_label
_atom_site_fract_x
_atom_site_fract_y
_atom_site_fract_z
Si Si1 0.909917 0.310830 0.345509
Si Si2 0.651701 0.055396 0.347873
Si Si3 0.636627 0.424732 0.636460
Si Si4 0.203129 0.943138 0.196386
Si Si5 0.202562 0.367276 0.288968
Si Si6 0.587188 0.048913 0.958301
Si Si7 0.178824 0.886956 0.518826
Si Si8 0.661833 0.956324 0.592141
O O1 0.912732 0.250000 0.346013
O O2 0.819381 0.331580 0.262679
O O3 0.830707 0.334280 0.429580
O O4 0.079189 0.334761 0.340069
O O5 0.616242 0.100993 0.284280
O O6 0.794470 0.071931 0.404295
O O7 0.517675 0.049981 0.415203
O O8 0.663347 0.003606 0.294773
O O9 0.740231 0.414555 0.719580
O O10 0.455522 0.420900 0.657552
O O11 0.695716 0.393314 0.554873
O O12 0.677564 0.484660 0.619402
O O13 0.354726 0.948696 0.137668
O O14 0.279003 0.412477 0.343965
O O15 0.479344 0.096687 0.977039
O O16 0.745457 0.051345 0.007698
O O17 0.500000 0.000000 0.000000
#
# Coordination Sequence:
#
# PCOD9463925 Si02
#       8
#     8   8   8   8   8   8   8   8
#     4  11  24  40  59  82 111 149 198 249 291 332
#     4  10  20  33  50  77 114 155 188 222 277 336
#     4  11  22  34  52  81 116 156 191 230 283 344
#     4  11  22  33  53  79 120 152 192 230 273 341
#     4  11  20  35  57  82 110 149 189 233 281 346
#     4  12  21  32  51  79 112 153 194 232 274 338
#     4  11  22  36  55  77 112 149 195 238 288 338
#     4  11  20  31  51  76 114 151 188 223 275 344
#
# _framework density 17.669896000000001
#
# number of rings (size 3 to 8) (size 9 to 14) (size 15 to 20)
#    0.000    1.000    6.250    1.875    0.000    2.000 
#    0.000    0.000    0.000    0.000    0.000    3.500 
#    0.000    0.000    0.000    0.000    0.000    0.000 
#
# Total GULP energy -356636.334524 kJ/mol
# GULP energy per Si atom -5572.442727 kJ/mol
# Density = 1.762968 g / cm^3
# Si number density = 17.669896 Si / 1000 Ang^3
#
#
#
# Elastic Constant Matrix: (Units=GPa)
#
#
# Indices 1 2 3 4 5 6 
#
# 1 48.4570 17.5318 16.7916 0.0000 0.0000 0.0000
# 2 17.5318 66.4509 22.6655 0.0000 0.0000 0.0000
# 3 16.7916 22.6655 71.9735 0.0000 0.0000 0.0000
# 4 0.0000 0.0000 0.0000 17.2965 0.0000 0.0000
# 5 0.0000 0.0000 0.0000 0.0000 33.5243 0.0000
# 6 0.0000 0.0000 0.0000 0.0000 0.0000 11.8942
#
#
#
# Elastic Compliance Matrix: (Units=1/GPa)
#
#
# Indices 1 2 3 4 5 6 
#
# 1 0.023803 -0.004914 -0.004006 0.000000 0.000000 0.000000
# 2 -0.004914 0.017874 -0.004482 0.000000 0.000000 0.000000
# 3 -0.004006 -0.004482 0.016240 0.000000 0.000000 0.000000
# 4 0.000000 0.000000 0.000000 0.057815 0.000000 0.000000
# 5 0.000000 0.000000 0.000000 0.000000 0.029829 0.000000
# 6 0.000000 0.000000 0.000000 0.000000 0.000000 0.084074
#
#
# Mechanical properties :
#
#
# Convention : Reuss Voigt Hill
#
# Bulk Modulus (GPa) = 32.14077 33.42880 32.78479
# Shear Modulus (GPa) = 18.73993 21.20251 19.97122
#
# Velocity S-wave (km/s) = 3.26015 3.46775 3.36555
# Velocity P-wave (km/s) = 5.69214 5.91551 5.80490
#
# Compressibility (1/GPa) = 0.03111313
#
# Stress axis : x y z
#
# Youngs Moduli (GPa) = 42.01207 55.94741 61.57571
#
# Poissons Ratio (x) = 0.27490 0.24666
# Poissons Ratio (y) = 0.20643 0.27601
# Poissons Ratio (z) = 0.16830 0.25078
#
# Static dielectric constant tensor:
#      x y z
#    x 1.664130 0.000000 0.000000 
#    y 0.000000 1.571640 0.000000 
#    z 0.000000 0.000000 1.671500 
# 
# From -- ./inp_files/17364.got.cif
#   From: 2010.05.17/outbox.cif.g08.bks.cpg/sg62_9_cif.got.tgz:17364.got - 2010.06.03 15:25:27.
