data_PCOD9463305
_publ_section_title
;
Structure prediction by ZEFSAII (Michael W. Deem and Ramdas Pophale) SiO2 
 PCOD9463305
Probable space group: P N M A
;
_chemical_formula_sum "Si O2"
_cell_formula_units_Z 56
_cell_length_a 7.434979
_cell_length_b 16.797487
_cell_length_c 21.488862
_cell_angle_alpha 90.000000
_cell_angle_beta 90.000000
_cell_angle_gamma 90.000000
_cell_volume 2683.721693
_symmetry_space_group_name_H-M "P N M A"
_symmetry_group_IT_number 62
_symmetry_cell_setting 'orthorhombic'
loop_
_space_group_symop_operation_xyz
x,y,z
1/2-x,-y,1/2+z
1/2+x,1/2-y,1/2-z
-x,1/2+y,-z
-x,-y,-z
1/2+x,y,1/2-z
1/2-x,1/2+y,1/2+z
x,1/2-y,z
loop_
_atom_site_type_symbol
_atom_site_label
_atom_site_fract_x
_atom_site_fract_y
_atom_site_fract_z
Si Si1 0.173837 0.434081 0.289530
Si Si2 0.839209 0.585629 0.947755
Si Si3 0.607218 0.440032 0.580409
Si Si4 0.301347 0.613481 0.295544
Si Si5 0.017640 0.001706 0.602569
Si Si6 0.018270 0.342262 0.172948
Si Si7 0.920764 0.836520 0.339173
O O1 0.247673 0.522965 0.277471
O O2 0.121642 0.389373 0.227143
O O3 0.322023 0.383152 0.326393
O O4 0.003823 0.450833 0.333938
O O5 0.636951 0.550862 0.943245
O O6 0.883140 0.646580 0.892911
O O7 0.968234 0.510838 0.931335
O O8 0.885119 0.611930 0.017750
O O9 0.563902 0.397676 0.646203
O O10 0.810234 0.477470 0.585719
O O11 0.350342 0.653781 0.231255
O O12 0.134764 0.657620 0.327281
O O13 0.113880 0.085707 0.618808
O O14 0.003821 0.250000 0.188979
O O15 0.869335 0.750000 0.364477
#
# Coordination Sequence:
#
# PCOD9463305 Si02
#       7
#     8   8   8   8   8   8   8
#     4  10  20  37  54  85 116 149 194 238 290 355
#     4  11  20  38  62  83 113 152 200 238 276 343
#     4   9  21  37  59  88 107 148 203 236 274 330
#     4  10  19  35  56  81 112 149 186 238 277 338
#     4  10  21  36  64  86 113 149 195 246 283 339
#     4  12  22  35  56  86 122 152 188 245 298 347
#     4  10  20  32  52  86 118 143 178 233 298 341
#
# _framework density 20.866547000000001
#
# number of rings (size 3 to 8) (size 9 to 14) (size 15 to 20)
#    0.000    2.000    2.857    4.714    2.000    0.000 
#    0.000    4.286    0.000    3.429    0.000    0.000 
#    0.000    0.000    0.000    0.000    0.000    0.000 
#
# Total GULP energy -312363.809697 kJ/mol
# GULP energy per Si atom -5577.925173 kJ/mol
# Density = 2.081905 g / cm^3
# Si number density = 20.866547 Si / 1000 Ang^3
#
#
#
# Elastic Constant Matrix: (Units=GPa)
#
#
# Indices 1 2 3 4 5 6 
#
# 1 40.5966 5.4778 -9.1975 0.0000 0.0000 0.0000
# 2 5.4778 99.5882 13.2980 0.0000 0.0000 0.0000
# 3 -9.1975 13.2980 39.1267 0.0000 0.0000 0.0000
# 4 0.0000 0.0000 0.0000 10.6874 0.0000 0.0000
# 5 0.0000 0.0000 0.0000 0.0000 18.2701 0.0000
# 6 0.0000 0.0000 0.0000 0.0000 0.0000 10.3396
#
#
#
# Elastic Compliance Matrix: (Units=1/GPa)
#
#
# Indices 1 2 3 4 5 6 
#
# 1 0.026556 -0.002403 0.007059 0.000000 0.000000 0.000000
# 2 -0.002403 0.010736 -0.004214 0.000000 0.000000 0.000000
# 3 0.007059 -0.004214 0.028650 0.000000 0.000000 0.000000
# 4 0.000000 0.000000 0.000000 0.093568 0.000000 0.000000
# 5 0.000000 0.000000 0.000000 0.000000 0.054734 0.000000
# 6 0.000000 0.000000 0.000000 0.000000 0.000000 0.096715
#
#
# Mechanical properties :
#
#
# Convention : Reuss Voigt Hill
#
# Bulk Modulus (GPa) = 14.96414 22.05202 18.50808
# Shear Modulus (GPa) = 15.04433 19.17497 17.10965
#
# Velocity S-wave (km/s) = 2.68802 3.03468 2.86659
# Velocity P-wave (km/s) = 4.10132 4.78227 4.45483
#
# Compressibility (1/GPa) = 0.06682642
#
# Stress axis : x y z
#
# Youngs Moduli (GPa) = 37.65591 93.14263 34.90446
#
# Poissons Ratio (x) = 0.22385 -0.24640
# Poissons Ratio (y) = 0.09050 0.14708
# Poissons Ratio (z) = -0.26583 0.39249
#
# Static dielectric constant tensor:
#      x y z
#    x 1.810470 0.000000 0.000000 
#    y 0.000000 1.734260 0.000000 
#    z 0.000000 0.000000 1.827090 
# 
# From -- ./inp_files/26134.got.cif
#   From: 2010.05.17/outbox.cif.g08.bks.cpg/sg62_14_cif.got.tgz:26134.got - 2010.06.03 15:25:27.
