data_PCOD9463730
_publ_section_title
;
Structure prediction by ZEFSAII (Michael W. Deem and Ramdas Pophale) SiO2 
 PCOD9463730
Probable space group: P N M A
;
_chemical_formula_sum "Si O2"
_cell_formula_units_Z 28
_cell_length_a 26.550498
_cell_length_b 5.255673
_cell_length_c 10.777849
_cell_angle_alpha 90.000000
_cell_angle_beta 90.000000
_cell_angle_gamma 90.000000
_cell_volume 1503.948976
_symmetry_space_group_name_H-M "P N M A"
_symmetry_group_IT_number 62
_symmetry_cell_setting 'orthorhombic'
loop_
_space_group_symop_operation_xyz
x,y,z
1/2-x,-y,1/2+z
1/2+x,1/2-y,1/2-z
-x,1/2+y,-z
-x,-y,-z
1/2+x,y,1/2-z
1/2-x,1/2+y,1/2+z
x,1/2-y,z
loop_
_atom_site_type_symbol
_atom_site_label
_atom_site_fract_x
_atom_site_fract_y
_atom_site_fract_z
Si Si1 0.843086 0.750000 0.824068
Si Si2 0.384541 0.250000 0.793533
Si Si3 0.817644 0.750000 0.112941
Si Si4 0.768542 0.250000 0.228082
Si Si5 0.348686 0.250000 0.061232
Si Si6 0.601938 0.250000 0.822139
Si Si7 0.505430 0.750000 0.085306
O O1 0.873528 0.499964 0.785669
O O2 0.829134 0.750000 0.968355
O O3 0.790651 0.750000 0.748848
O O4 0.440825 0.250000 0.848034
O O5 0.347483 0.250000 0.913336
O O6 0.787407 0.499725 0.155910
O O7 0.869785 0.750000 0.190873
O O8 0.796536 0.250000 0.362642
O O9 0.378621 0.500808 0.105112
O O10 0.541853 0.250000 0.821160
O O11 0.500000 0.500000 0.000000
#
# Coordination Sequence:
#
# PCOD9463730 Si02
#       7
#     4   4   4   4   4   4   4
#     4  12  26  40  58  88 128 162 196 254 299 368
#     4  12  24  39  60  96 129 154 201 257 311 354
#     4  10  23  44  60  88 121 163 209 244 304 373
#     4  10  23  39  65  83 116 164 207 249 299 360
#     4  10  20  37  61  91 117 149 203 251 306 346
#     4  10  19  39  64  88 117 157 197 257 297 364
#     4  12  21  38  64  94 124 155 201 258 314 355
#
# _framework density 18.617654000000002
#
# number of rings (size 3 to 8) (size 9 to 14) (size 15 to 20)
#    0.000    1.143    2.857    3.429    4.000    0.000 
#    0.000    1.429    0.000    0.000    0.000    0.000 
#    0.000    0.000    0.000    0.000    0.000    0.000 
#
# Total GULP energy -156582.979102 kJ/mol
# GULP energy per Si atom -5592.249254 kJ/mol
# Density = 1.857528 g / cm^3
# Si number density = 18.617654 Si / 1000 Ang^3
#
#
#
# Elastic Constant Matrix: (Units=GPa)
#
#
# Indices 1 2 3 4 5 6 
#
# 1 122.3936 52.5058 26.5881 0.0000 0.0000 0.0000
# 2 52.5058 182.3781 54.7081 0.0000 0.0000 0.0000
# 3 26.5881 54.7081 106.9985 0.0000 0.0000 0.0000
# 4 0.0000 0.0000 0.0000 -25.7203 0.0000 0.0000
# 5 0.0000 0.0000 0.0000 0.0000 17.9787 0.0000
# 6 0.0000 0.0000 0.0000 0.0000 0.0000 3.4163
#
#
#
# Elastic Compliance Matrix: (Units=1/GPa)
#
#
# Indices 1 2 3 4 5 6 
#
# 1 0.009436 -0.002378 -0.001129 0.000000 0.000000 0.000000
# 2 -0.002378 0.007076 -0.003027 0.000000 0.000000 0.000000
# 3 -0.001129 -0.003027 0.011174 0.000000 0.000000 0.000000
# 4 0.000000 0.000000 0.000000 -0.038880 0.000000 0.000000
# 5 0.000000 0.000000 0.000000 0.000000 0.055621 0.000000
# 6 0.000000 0.000000 0.000000 0.000000 0.000000 0.292711
#
#
# Mechanical properties :
#
#
# Convention : Reuss Voigt Hill
#
# Bulk Modulus (GPa) = 68.40806 75.48600 71.94703
# Shear Modulus (GPa) = 14.08143 17.66618 15.87380
#
# Velocity S-wave (km/s) = 2.75316 3.08375 2.92314
# Velocity P-wave (km/s) = 6.85054 7.30156 7.07964
#
# Compressibility (1/GPa) = 0.01461816
#
# Stress axis : x y z
#
# Youngs Moduli (GPa) = 105.98081 141.32939 89.49277
#
# Poissons Ratio (x) = 0.33606 0.10103
# Poissons Ratio (y) = 0.25201 0.27089
# Poissons Ratio (z) = 0.11964 0.42779
#
# Static dielectric constant tensor:
#      x y z
#    x 1.631410 0.000000 0.000000 
#    y 0.000000 1.621940 0.000000 
#    z 0.000000 0.000000 1.617350 
# 
# From -- ./inp_files/9019.got.cif
#   From: 2010.05.17/outbox.cif.g08.bks.cpg/sg62_5_cif.got.tgz:9019.got - 2010.06.03 15:25:27.
