data_PCOD9463750
_publ_section_title
;
Structure prediction by ZEFSAII (Michael W. Deem and Ramdas Pophale) SiO2 
 PCOD9463750
Probable space group: P N M A
;
_chemical_formula_sum "Si O2"
_cell_formula_units_Z 44
_cell_length_a 13.058321
_cell_length_b 19.501127
_cell_length_c 6.867471
_cell_angle_alpha 90.000000
_cell_angle_beta 90.000000
_cell_angle_gamma 90.000000
_cell_volume 1748.815062
_symmetry_space_group_name_H-M "P N M A"
_symmetry_group_IT_number 62
_symmetry_cell_setting 'orthorhombic'
loop_
_space_group_symop_operation_xyz
x,y,z
1/2-x,-y,1/2+z
1/2+x,1/2-y,1/2-z
-x,1/2+y,-z
-x,-y,-z
1/2+x,y,1/2-z
1/2-x,1/2+y,1/2+z
x,1/2-y,z
loop_
_atom_site_type_symbol
_atom_site_label
_atom_site_fract_x
_atom_site_fract_y
_atom_site_fract_z
Si Si1 0.448355 0.250000 0.983606
Si Si2 0.296901 0.250000 0.260621
Si Si3 0.892977 0.624474 0.172259
Si Si4 0.222241 0.378341 0.465184
Si Si5 0.500551 0.250000 0.528061
Si Si6 0.103218 0.520225 0.887858
Si Si7 0.494591 0.598027 0.951708
O O1 0.329718 0.250000 0.037709
O O2 0.490058 0.179686 0.077370
O O3 0.469089 0.250000 0.756405
O O4 0.239802 0.318378 0.314482
O O5 0.399721 0.250000 0.396953
O O6 0.815272 0.655368 0.331671
O O7 0.934191 0.679355 0.019892
O O8 0.840890 0.553372 0.113025
O O9 0.987835 0.597117 0.311917
O O10 0.322386 0.424061 0.482298
O O11 0.122429 0.421094 0.398653
O O12 0.070883 0.553667 0.678299
O O13 0.000000 0.500000 0.000000
#
# Coordination Sequence:
#
# PCOD9463750 Si02
#       7
#     4   4   8   8   4   8   8
#     4  10  19  40  65  93 125 166 215 262 326 384
#     4  12  20  40  70  96 128 169 225 268 320 398
#     4   9  22  41  63  86 128 172 209 270 331 382
#     4  10  23  38  66  88 133 172 207 271 327 383
#     4  10  21  42  65  91 123 175 214 274 334 376
#     4  12  23  38  62 100 123 170 221 263 324 402
#     4   9  21  40  63  86 129 173 202 264 332 378
#
# _framework density 25.159890999999998
#
# number of rings (size 3 to 8) (size 9 to 14) (size 15 to 20)
#    1.091    0.727    1.818    2.727    2.545    0.000 
#    0.000    1.818    4.000    0.000    0.000    0.000 
#    0.000    0.000    0.000    0.000    0.000    0.000 
#
# Total GULP energy -245449.398601 kJ/mol
# GULP energy per Si atom -5578.395423 kJ/mol
# Density = 2.510263 g / cm^3
# Si number density = 25.159891 Si / 1000 Ang^3
#
#
#
# Elastic Constant Matrix: (Units=GPa)
#
#
# Indices 1 2 3 4 5 6 
#
# 1 66.5721 8.5363 21.2503 0.0000 0.0000 0.0000
# 2 8.5363 121.2206 17.1786 0.0000 0.0000 0.0000
# 3 21.2503 17.1786 70.3753 0.0000 0.0000 0.0000
# 4 0.0000 0.0000 0.0000 12.3880 0.0000 0.0000
# 5 0.0000 0.0000 0.0000 0.0000 45.1265 0.0000
# 6 0.0000 0.0000 0.0000 0.0000 0.0000 19.9992
#
#
#
# Elastic Compliance Matrix: (Units=1/GPa)
#
#
# Indices 1 2 3 4 5 6 
#
# 1 0.016650 -0.000476 -0.004911 0.000000 0.000000 0.000000
# 2 -0.000476 0.008559 -0.001945 0.000000 0.000000 0.000000
# 3 -0.004911 -0.001945 0.016167 0.000000 0.000000 0.000000
# 4 0.000000 0.000000 0.000000 0.080723 0.000000 0.000000
# 5 0.000000 0.000000 0.000000 0.000000 0.022160 0.000000
# 6 0.000000 0.000000 0.000000 0.000000 0.000000 0.050002
#
#
# Mechanical properties :
#
#
# Convention : Reuss Voigt Hill
#
# Bulk Modulus (GPa) = 37.43919 39.12205 38.28062
# Shear Modulus (GPa) = 22.95356 29.58293 26.26825
#
# Velocity S-wave (km/s) = 3.02372 3.43271 3.23469
# Velocity P-wave (km/s) = 5.20609 5.59415 5.40360
#
# Compressibility (1/GPa) = 0.02670998
#
# Stress axis : x y z
#
# Youngs Moduli (GPa) = 60.05956 116.84089 61.85288
#
# Poissons Ratio (x) = 0.05567 0.30378
# Poissons Ratio (y) = 0.02862 0.12032
# Poissons Ratio (z) = 0.29497 0.22729
#
# Static dielectric constant tensor:
#      x y z
#    x 2.005650 0.000000 0.000000 
#    y 0.000000 2.078960 0.000000 
#    z 0.000000 0.000000 2.101150 
# 
# From -- ./inp_files/6382.got.cif
#   From: 2010.05.17/outbox.cif.g08.bks.cpg/sg62_4_cif.got.tgz:6382.got - 2010.06.03 15:25:27.
