data_PCOD9463068
_publ_section_title
;
Structure prediction by ZEFSAII (Michael W. Deem and Ramdas Pophale) SiO2 
 PCOD9463068
Probable space group: P N M A
;
_chemical_formula_sum "Si O2"
_cell_formula_units_Z 64
_cell_length_a 19.720045
_cell_length_b 8.597250
_cell_length_c 23.840327
_cell_angle_alpha 90.000000
_cell_angle_beta 90.000000
_cell_angle_gamma 90.000000
_cell_volume 4041.845099
_symmetry_space_group_name_H-M "P N M A"
_symmetry_group_IT_number 62
_symmetry_cell_setting 'orthorhombic'
loop_
_space_group_symop_operation_xyz
x,y,z
1/2-x,-y,1/2+z
1/2+x,1/2-y,1/2-z
-x,1/2+y,-z
-x,-y,-z
1/2+x,y,1/2-z
1/2-x,1/2+y,1/2+z
x,1/2-y,z
loop_
_atom_site_type_symbol
_atom_site_label
_atom_site_fract_x
_atom_site_fract_y
_atom_site_fract_z
Si Si1 0.712890 0.061970 0.829826
Si Si2 0.993349 0.563396 0.622331
Si Si3 0.126957 0.438330 0.563966
Si Si4 0.242069 0.936059 0.342911
Si Si5 0.505958 0.936681 0.248611
Si Si6 0.851452 0.937484 0.563789
Si Si7 0.134428 0.565189 0.778446
Si Si8 0.156982 0.561215 0.233226
O O1 0.710342 0.250000 0.826443
O O2 0.683002 0.015734 0.889756
O O3 0.789535 0.012848 0.814530
O O4 0.665445 0.997808 0.780227
O O5 0.995371 0.750000 0.627606
O O6 0.055614 0.507311 0.584230
O O7 0.999345 0.489094 0.683802
O O8 0.922042 0.517842 0.594013
O O9 0.121416 0.250000 0.564611
O O10 0.145477 0.486583 0.501024
O O11 0.245647 0.750000 0.341684
O O12 0.190761 0.986192 0.292555
O O13 0.210102 0.993197 0.400677
O O14 0.315061 0.003489 0.326350
O O15 0.503129 0.750000 0.250679
O O16 0.579594 0.991569 0.270406
O O17 0.442100 0.004503 0.281635
O O18 0.846886 0.750000 0.565443
O O19 0.135355 0.750000 0.777531
O O20 0.155284 0.750000 0.233252
#
# Coordination Sequence:
#
# PCOD9463068 Si02
#       8
#     8   8   8   8   8   8   8   8
#     4   9  17  32  50  70  94 127 166 202 240 292
#     4  11  21  31  44  67 101 133 171 209 239 281
#     4  10  20  33  50  68  97 137 172 204 244 291
#     4  10  19  34  52  71  93 128 167 202 244 293
#     4  11  19  31  49  70  96 129 163 197 243 298
#     4  10  21  34  47  70 100 134 170 207 247 287
#     4  11  21  32  48  72  99 125 156 202 250 293
#     4   8  16  29  48  70  91 118 160 201 239 287
#
# _framework density 15.834353
#
# number of rings (size 3 to 8) (size 9 to 14) (size 15 to 20)
#    0.000    2.000    2.500    3.375    0.000    1.000 
#    0.000    0.625    0.000    0.000    0.000    0.875 
#    0.000    0.000    0.000    0.000    0.000    0.000 
#
# Total GULP energy -357086.462299 kJ/mol
# GULP energy per Si atom -5579.475973 kJ/mol
# Density = 1.579831 g / cm^3
# Si number density = 15.834353 Si / 1000 Ang^3
#
#
#
# Elastic Constant Matrix: (Units=GPa)
#
#
# Indices 1 2 3 4 5 6 
#
# 1 108.2297 21.7026 31.6655 0.0000 0.0000 0.0000
# 2 21.7026 26.0600 17.9798 0.0000 0.0000 0.0000
# 3 31.6655 17.9798 56.3832 0.0000 0.0000 0.0000
# 4 0.0000 0.0000 0.0000 16.7967 0.0000 0.0000
# 5 0.0000 0.0000 0.0000 0.0000 20.8977 0.0000
# 6 0.0000 0.0000 0.0000 0.0000 0.0000 17.9381
#
#
#
# Elastic Compliance Matrix: (Units=1/GPa)
#
#
# Indices 1 2 3 4 5 6 
#
# 1 0.011930 -0.006811 -0.004528 0.000000 0.000000 0.000000
# 2 -0.006811 0.053086 -0.013103 0.000000 0.000000 0.000000
# 3 -0.004528 -0.013103 0.024457 0.000000 0.000000 0.000000
# 4 0.000000 0.000000 0.000000 0.059536 0.000000 0.000000
# 5 0.000000 0.000000 0.000000 0.000000 0.047852 0.000000
# 6 0.000000 0.000000 0.000000 0.000000 0.000000 0.055747
#
#
# Mechanical properties :
#
#
# Convention : Reuss Voigt Hill
#
# Bulk Modulus (GPa) = 24.63764 37.04096 30.83930
# Shear Modulus (GPa) = 15.87187 19.08148 17.47668
#
# Velocity S-wave (km/s) = 3.16946 3.47518 3.32583
# Velocity P-wave (km/s) = 5.38399 6.28856 5.85378
#
# Compressibility (1/GPa) = 0.04058830
#
# Stress axis : x y z
#
# Youngs Moduli (GPa) = 83.82036 18.83746 40.88781
#
# Poissons Ratio (x) = 0.12831 0.18515
# Poissons Ratio (y) = 0.57093 0.53575
# Poissons Ratio (z) = 0.37955 0.24683
#
# Static dielectric constant tensor:
#      x y z
#    x 1.539210 0.000000 0.000000 
#    y 0.000000 1.534460 0.000000 
#    z 0.000000 0.000000 1.509560 
# 
# From -- ./inp_files/30061.got.cif
#   From: 2010.05.17/outbox.cif.g08.bks.cpg/sg62_16_cif.got.tgz:30061.got - 2010.06.03 15:25:27.
