data_PCOD9463633
_publ_section_title
;
Structure prediction by ZEFSAII (Michael W. Deem and Ramdas Pophale) SiO2 
 PCOD9463633
Probable space group: P N M A
;
_chemical_formula_sum "Si O2"
_cell_formula_units_Z 40
_cell_length_a 11.156921
_cell_length_b 9.046992
_cell_length_c 19.570865
_cell_angle_alpha 90.000000
_cell_angle_beta 90.000000
_cell_angle_gamma 90.000000
_cell_volume 1975.416084
_symmetry_space_group_name_H-M "P N M A"
_symmetry_group_IT_number 62
_symmetry_cell_setting 'orthorhombic'
loop_
_space_group_symop_operation_xyz
x,y,z
1/2-x,-y,1/2+z
1/2+x,1/2-y,1/2-z
-x,1/2+y,-z
-x,-y,-z
1/2+x,y,1/2-z
1/2-x,1/2+y,1/2+z
x,1/2-y,z
loop_
_atom_site_type_symbol
_atom_site_label
_atom_site_fract_x
_atom_site_fract_y
_atom_site_fract_z
Si Si1 0.020609 0.917075 0.392682
Si Si2 0.889137 0.426288 0.037099
Si Si3 0.589146 0.929222 0.694877
Si Si4 0.670857 0.584075 0.968001
Si Si5 0.848257 0.570953 0.729580
O O1 0.998627 0.750000 0.367798
O O2 0.083083 0.904379 0.466644
O O3 0.900965 0.010679 0.406063
O O4 0.106972 0.005994 0.342471
O O5 0.897012 0.250000 0.036070
O O6 0.887861 0.473887 0.116490
O O7 0.775154 0.480690 0.995074
O O8 0.000000 0.500000 0.000000
O O9 0.586888 0.750000 0.697134
O O10 0.456822 0.977236 0.720006
O O11 0.708386 0.974947 0.737787
O O12 0.712683 0.750000 0.950614
O O13 0.849064 0.750000 0.727750
#
# Coordination Sequence:
#
# PCOD9463633 Si02
#       5
#     8   8   8   8   8
#     4  10  20  34  56  87 116 147 188 240 296 348
#     4  11  22  38  58  86 120 156 197 247 301 360
#     4   9  20  36  59  85 115 153 201 244 293 353
#     4  10  20  35  57  84 114 152 194 238 291 352
#     4  10  19  37  60  84 113 155 199 246 292 354
#
# _framework density 20.248899000000002
#
# number of rings (size 3 to 8) (size 9 to 14) (size 15 to 20)
#    0.000    2.000    2.000    1.800    0.000    3.200 
#    0.000    7.000    0.000    0.000    0.000    0.000 
#    0.000    0.000    0.000    0.000    0.000    0.000 
#
# Total GULP energy -223038.524912 kJ/mol
# GULP energy per Si atom -5575.963123 kJ/mol
# Density = 2.020281 g / cm^3
# Si number density = 20.248899 Si / 1000 Ang^3
#
#
#
# Elastic Constant Matrix: (Units=GPa)
#
#
# Indices 1 2 3 4 5 6 
#
# 1 117.3567 25.4753 41.1979 0.0000 0.0000 0.0000
# 2 25.4753 55.0700 9.3259 0.0000 0.0000 0.0000
# 3 41.1979 9.3259 28.3373 0.0000 0.0000 0.0000
# 4 0.0000 0.0000 0.0000 17.7800 0.0000 0.0000
# 5 0.0000 0.0000 0.0000 0.0000 32.6644 0.0000
# 6 0.0000 0.0000 0.0000 0.0000 0.0000 21.1765
#
#
#
# Elastic Compliance Matrix: (Units=1/GPa)
#
#
# Indices 1 2 3 4 5 6 
#
# 1 0.018271 -0.004187 -0.025186 0.000000 0.000000 0.000000
# 2 -0.004187 0.020190 -0.000557 0.000000 0.000000 0.000000
# 3 -0.025186 -0.000557 0.072088 0.000000 0.000000 0.000000
# 4 0.000000 0.000000 0.000000 0.056243 0.000000 0.000000
# 5 0.000000 0.000000 0.000000 0.000000 0.030614 0.000000
# 6 0.000000 0.000000 0.000000 0.000000 0.000000 0.047222
#
#
# Mechanical properties :
#
#
# Convention : Reuss Voigt Hill
#
# Bulk Modulus (GPa) = 19.72776 39.19581 29.46178
# Shear Modulus (GPa) = 15.55763 22.64183 19.09973
#
# Velocity S-wave (km/s) = 2.77487 3.34754 3.07457
# Velocity P-wave (km/s) = 4.47552 5.86007 5.21396
#
# Compressibility (1/GPa) = 0.05069000
#
# Stress axis : x y z
#
# Youngs Moduli (GPa) = 54.73044 49.52934 13.87187
#
# Poissons Ratio (x) = 0.20739 0.34937
# Poissons Ratio (y) = 0.22917 0.00773
# Poissons Ratio (z) = 1.37842 0.02759
#
# Static dielectric constant tensor:
#      x y z
#    x 1.693810 0.000000 0.000000 
#    y 0.000000 1.688340 0.000000 
#    z 0.000000 0.000000 1.733680 
# 
# From -- ./inp_files/22780.got.cif
#   From: 2010.05.17/outbox.cif.g08.bks.cpg/sg62_12_cif.got.tgz:22780.got - 2010.06.03 15:25:27.
