data_PCOD9463775
_publ_section_title
;
Structure prediction by ZEFSAII (Michael W. Deem and Ramdas Pophale) SiO2 
 PCOD9463775
Probable space group: P N M A
;
_chemical_formula_sum "Si O2"
_cell_formula_units_Z 40
_cell_length_a 14.834283
_cell_length_b 14.336157
_cell_length_c 9.565107
_cell_angle_alpha 90.000000
_cell_angle_beta 90.000000
_cell_angle_gamma 90.000000
_cell_volume 2034.178881
_symmetry_space_group_name_H-M "P N M A"
_symmetry_group_IT_number 62
_symmetry_cell_setting 'orthorhombic'
loop_
_space_group_symop_operation_xyz
x,y,z
1/2-x,-y,1/2+z
1/2+x,1/2-y,1/2-z
-x,1/2+y,-z
-x,-y,-z
1/2+x,y,1/2-z
1/2-x,1/2+y,1/2+z
x,1/2-y,z
loop_
_atom_site_type_symbol
_atom_site_label
_atom_site_fract_x
_atom_site_fract_y
_atom_site_fract_z
Si Si1 0.281005 0.750000 0.006160
Si Si2 0.569878 0.437116 0.691267
Si Si3 0.808684 0.750000 0.800018
Si Si4 0.767420 0.409379 0.785314
Si Si5 0.024514 0.250000 0.636662
Si Si6 0.178621 0.750000 0.432939
Si Si7 0.086286 0.435000 0.142955
O O1 0.257130 0.750000 0.845677
O O2 0.243609 0.840698 0.083588
O O3 0.388665 0.750000 0.035753
O O4 0.670371 0.452146 0.748035
O O5 0.533350 0.342779 0.766145
O O6 0.504835 0.525472 0.712083
O O7 0.573025 0.423459 0.523844
O O8 0.873061 0.839366 0.803617
O O9 0.738847 0.750000 0.928418
O O10 0.794683 0.341371 0.657604
O O11 0.840269 0.486017 0.822430
O O12 0.929511 0.250000 0.557145
#
# Coordination Sequence:
#
# PCOD9463775 Si02
#       7
#     4   8   4   8   4   4   8
#     4   9  24  41  63  94 135 161 215 279 318 395
#     4  10  21  40  67  96 125 168 216 274 313 399
#     4  12  25  42  57  94 136 160 213 279 320 371
#     4  10  21  43  68  94 124 176 221 259 329 394
#     4  10  19  44  69  93 125 174 225 263 335 390
#     4  11  20  41  71  93 126 175 213 265 321 398
#     4  11  23  39  65  96 131 168 219 267 334 375
#
# _framework density 19.663954
#
# number of rings (size 3 to 8) (size 9 to 14) (size 15 to 20)
#    0.000    1.600    4.000    1.200    2.800    0.000 
#    3.600    2.000    0.000    0.000    0.000    0.000 
#    0.000    0.000    0.000    0.000    0.000    0.000 
#
# Total GULP energy -223493.727498 kJ/mol
# GULP energy per Si atom -5587.343187 kJ/mol
# Density = 1.961920 g / cm^3
# Si number density = 19.663954 Si / 1000 Ang^3
#
#
#
# Elastic Constant Matrix: (Units=GPa)
#
#
# Indices 1 2 3 4 5 6 
#
# 1 83.9245 51.6255 1.5466 0.0000 0.0000 0.0000
# 2 51.6255 95.4977 32.4068 0.0000 0.0000 0.0000
# 3 1.5466 32.4068 82.1799 0.0000 0.0000 0.0000
# 4 0.0000 0.0000 0.0000 -49.1171 0.0000 0.0000
# 5 0.0000 0.0000 0.0000 0.0000 7.8109 0.0000
# 6 0.0000 0.0000 0.0000 0.0000 0.0000 443.5745
#
#
#
# Elastic Compliance Matrix: (Units=1/GPa)
#
#
# Indices 1 2 3 4 5 6 
#
# 1 0.019072 -0.011763 0.004280 0.000000 0.000000 0.000000
# 2 -0.011763 0.019344 -0.007407 0.000000 0.000000 0.000000
# 3 0.004280 -0.007407 0.015009 0.000000 0.000000 0.000000
# 4 0.000000 0.000000 0.000000 -0.020360 0.000000 0.000000
# 5 0.000000 0.000000 0.000000 0.000000 0.128027 0.000000
# 6 0.000000 0.000000 0.000000 0.000000 0.000000 0.002254
#
#
# Mechanical properties :
#
#
# Convention : Reuss Voigt Hill
#
# Bulk Modulus (GPa) = 42.29190 48.08444 45.18817
# Shear Modulus (GPa) = 24.87467 92.18852 58.53160
#
# Velocity S-wave (km/s) = 3.56053 6.85447 5.46174
# Velocity P-wave (km/s) = 6.20138 9.33548 7.92491
#
# Compressibility (1/GPa) = 0.02364519
#
# Stress axis : x y z
#
# Youngs Moduli (GPa) = 52.43203 51.69648 66.62843
#
# Poissons Ratio (x) = 0.60809 -0.28514
# Poissons Ratio (y) = 0.61674 0.49349
# Poissons Ratio (z) = -0.22439 0.38290
#
# Static dielectric constant tensor:
#      x y z
#    x 1.669270 0.000000 0.000000 
#    y 0.000000 1.666360 0.000000 
#    z 0.000000 0.000000 1.674070 
# 
# From -- ./inp_files/6160.got.cif
#   From: 2010.05.17/outbox.cif.g08.bks.cpg/sg62_4_cif.got.tgz:6160.got - 2010.06.03 15:25:27.
