data_PCOD9463212
_publ_section_title
;
Structure prediction by ZEFSAII (Michael W. Deem and Ramdas Pophale) SiO2 
 PCOD9463212
Probable space group: P N M A
;
_chemical_formula_sum "Si O2"
_cell_formula_units_Z 64
_cell_length_a 19.184247
_cell_length_b 12.007518
_cell_length_c 13.653390
_cell_angle_alpha 90.000000
_cell_angle_beta 90.000000
_cell_angle_gamma 90.000000
_cell_volume 3145.129264
_symmetry_space_group_name_H-M "P N M A"
_symmetry_group_IT_number 62
_symmetry_cell_setting 'orthorhombic'
loop_
_space_group_symop_operation_xyz
x,y,z
1/2-x,-y,1/2+z
1/2+x,1/2-y,1/2-z
-x,1/2+y,-z
-x,-y,-z
1/2+x,y,1/2-z
1/2-x,1/2+y,1/2+z
x,1/2-y,z
loop_
_atom_site_type_symbol
_atom_site_label
_atom_site_fract_x
_atom_site_fract_y
_atom_site_fract_z
Si Si1 0.079216 0.623562 0.713759
Si Si2 0.270268 0.376403 0.270892
Si Si3 0.476062 0.011911 0.658311
Si Si4 0.280451 0.043169 0.486254
Si Si5 0.178341 0.869870 0.413258
Si Si6 0.414084 0.620359 0.480530
Si Si7 0.820664 0.067695 0.801632
Si Si8 0.533621 0.875893 0.006144
O O1 0.075642 0.750000 0.755722
O O2 0.154921 0.575455 0.739108
O O3 0.070694 0.632257 0.598646
O O4 0.017471 0.549012 0.755911
O O5 0.266782 0.250000 0.237938
O O6 0.271855 0.382577 0.389193
O O7 0.207596 0.443476 0.221461
O O8 0.453311 0.917888 0.579491
O O9 0.530548 0.093559 0.605034
O O10 0.403983 0.069850 0.688141
O O11 0.213496 0.963903 0.478410
O O12 0.347759 0.962218 0.472333
O O13 0.289578 0.099786 0.592291
O O14 0.196957 0.750000 0.454947
O O15 0.201869 0.874867 0.299780
O O16 0.095214 0.881755 0.414840
O O17 0.394800 0.750000 0.481542
O O18 0.498441 0.750000 0.018853
O O19 0.500000 0.000000 0.000000
#
# Coordination Sequence:
#
# PCOD9463212 Si02
#       8
#     8   8   8   8   8   8   8   8
#     4  10  19  34  58  82 111 153 199 241 289 354
#     4  10  21  37  58  83 112 151 194 239 292 353
#     4  10  20  35  52  84 117 148 193 246 293 347
#     4  10  20  38  58  85 119 152 193 249 297 362
#     4  10  21  38  60  85 117 159 204 251 307 370
#     4  10  20  34  55  82 116 155 191 236 299 360
#     4  10  22  36  57  84 117 150 192 245 298 357
#     4  10  21  38  61  87 117 159 207 256 308 363
#
# _framework density 20.348925999999999
#
# number of rings (size 3 to 8) (size 9 to 14) (size 15 to 20)
#    0.000    2.000    1.250    2.250    0.000    5.000 
#    0.000    4.375    0.000    1.500    0.000    0.000 
#    0.000    0.000    0.000    0.000    0.000    0.000 
#
# Total GULP energy -356554.747979 kJ/mol
# GULP energy per Si atom -5571.167937 kJ/mol
# Density = 2.030261 g / cm^3
# Si number density = 20.348926 Si / 1000 Ang^3
#
#
#
# Elastic Constant Matrix: (Units=GPa)
#
#
# Indices 1 2 3 4 5 6 
#
# 1 44.1834 14.0060 -2.5538 0.0000 0.0000 0.0000
# 2 14.0060 65.7108 -11.5166 0.0000 0.0000 0.0000
# 3 -2.5538 -11.5166 77.9263 0.0000 0.0000 0.0000
# 4 0.0000 0.0000 0.0000 2.9325 0.0000 0.0000
# 5 0.0000 0.0000 0.0000 0.0000 31.8799 0.0000
# 6 0.0000 0.0000 0.0000 0.0000 0.0000 17.8180
#
#
#
# Elastic Compliance Matrix: (Units=1/GPa)
#
#
# Indices 1 2 3 4 5 6 
#
# 1 0.024273 -0.005168 0.000032 0.000000 0.000000 0.000000
# 2 -0.005168 0.016723 0.002302 0.000000 0.000000 0.000000
# 3 0.000032 0.002302 0.013174 0.000000 0.000000 0.000000
# 4 0.000000 0.000000 0.000000 0.341009 0.000000 0.000000
# 5 0.000000 0.000000 0.000000 0.000000 0.031368 0.000000
# 6 0.000000 0.000000 0.000000 0.000000 0.000000 0.056123
#
#
# Mechanical properties :
#
#
# Convention : Reuss Voigt Hill
#
# Bulk Modulus (GPa) = 20.61789 20.85461 20.73625
# Shear Modulus (GPa) = 9.91070 23.05176 16.48123
#
# Velocity S-wave (km/s) = 2.20929 3.36940 2.84902
# Velocity P-wave (km/s) = 4.08192 5.04062 4.58639
#
# Compressibility (1/GPa) = 0.04850157
#
# Stress axis : x y z
#
# Youngs Moduli (GPa) = 41.19794 59.79705 75.90763
#
# Poissons Ratio (x) = 0.30904 -0.00241
# Poissons Ratio (y) = 0.21292 -0.17475
# Poissons Ratio (z) = -0.00131 -0.13766
#
# Static dielectric constant tensor:
#      x y z
#    x 1.726460 0.000000 0.000000 
#    y 0.000000 1.752930 0.000000 
#    z 0.000000 0.000000 1.740390 
# 
# From -- ./inp_files/19898.got.cif
#   From: 2010.05.17/outbox.cif.g08.bks.cpg/sg62_10_cif.got.tgz:19898.got - 2010.06.03 15:25:27.
