data_PCOD9463967
_publ_section_title
;
Structure prediction by ZEFSAII (Michael W. Deem and Ramdas Pophale) SiO2 
 PCOD9463967
Probable space group: P N M A
;
_chemical_formula_sum "Si O2"
_cell_formula_units_Z 40
_cell_length_a 7.493020
_cell_length_b 8.111279
_cell_length_c 29.939924
_cell_angle_alpha 90.000000
_cell_angle_beta 90.000000
_cell_angle_gamma 90.000000
_cell_volume 1819.687976
_symmetry_space_group_name_H-M "P N M A"
_symmetry_group_IT_number 62
_symmetry_cell_setting 'orthorhombic'
loop_
_space_group_symop_operation_xyz
x,y,z
1/2-x,-y,1/2+z
1/2+x,1/2-y,1/2-z
-x,1/2+y,-z
-x,-y,-z
1/2+x,y,1/2-z
1/2-x,1/2+y,1/2+z
x,1/2-y,z
loop_
_atom_site_type_symbol
_atom_site_label
_atom_site_fract_x
_atom_site_fract_y
_atom_site_fract_z
Si Si1 0.531477 0.935082 0.049755
Si Si2 0.021768 0.566001 0.856761
Si Si3 0.952877 0.250000 0.697434
Si Si4 0.584234 0.944636 0.546258
Si Si5 0.540247 0.069290 0.143371
Si Si6 0.973971 0.750000 0.197813
O O1 0.461746 0.750000 0.054128
O O2 0.745186 0.940887 0.053214
O O3 0.475256 0.041937 0.092455
O O4 0.500000 0.000000 0.000000
O O5 0.965581 0.750000 0.842731
O O6 0.969730 0.539361 0.908633
O O7 0.240957 0.568157 0.856800
O O8 0.959759 0.416503 0.826040
O O9 0.019159 0.415665 0.673235
O O10 0.739393 0.250000 0.691564
O O11 0.990181 0.250000 0.749766
O O12 0.636315 0.750000 0.543747
O O13 0.500000 0.000000 0.500000
O O14 0.485254 0.250000 0.159467
#
# Coordination Sequence:
#
# PCOD9463967 Si02
#       6
#     8   8   4   8   8   4
#     4  11  20  33  53  79 109 142 182 221 264 319
#     4   8  17  32  52  76 102 136 176 213 255 316
#     4  10  20  36  54  82  98 138 176 220 265 316
#     4  10  20  33  52  79 108 143 183 220 265 317
#     4   9  17  33  54  76 104 137 176 215 258 318
#     4  10  20  34  58  74 104 134 178 216 267 312
#
# _framework density 21.981788999999999
#
# number of rings (size 3 to 8) (size 9 to 14) (size 15 to 20)
#    0.000    2.400    1.000    3.600    5.600    0.800 
#    0.000    2.000    0.000    2.400    0.000    0.000 
#    0.000    0.000    0.000    0.000    0.000    0.000 
#
# Total GULP energy -223266.875121 kJ/mol
# GULP energy per Si atom -5581.671878 kJ/mol
# Density = 2.193176 g / cm^3
# Si number density = 21.981789 Si / 1000 Ang^3
#
#
#
# Elastic Constant Matrix: (Units=GPa)
#
#
# Indices 1 2 3 4 5 6 
#
# 1 41.7182 1.7553 -3.9334 0.0000 0.0000 0.0000
# 2 1.7553 205.1105 111.8646 0.0000 0.0000 0.0000
# 3 -3.9334 111.8646 161.4196 0.0000 0.0000 0.0000
# 4 0.0000 0.0000 0.0000 33.2501 0.0000 0.0000
# 5 0.0000 0.0000 0.0000 0.0000 25.1804 0.0000
# 6 0.0000 0.0000 0.0000 0.0000 0.0000 2.8085
#
#
#
# Elastic Compliance Matrix: (Units=1/GPa)
#
#
# Indices 1 2 3 4 5 6 
#
# 1 0.024117 -0.000847 0.001175 0.000000 0.000000 0.000000
# 2 -0.000847 0.007867 -0.005473 0.000000 0.000000 0.000000
# 3 0.001175 -0.005473 0.010016 0.000000 0.000000 0.000000
# 4 0.000000 0.000000 0.000000 0.030075 0.000000 0.000000
# 5 0.000000 0.000000 0.000000 0.000000 0.039713 0.000000
# 6 0.000000 0.000000 0.000000 0.000000 0.000000 0.356066
#
#
# Mechanical properties :
#
#
# Convention : Reuss Voigt Hill
#
# Bulk Modulus (GPa) = 31.53560 69.73568 50.63564
# Shear Modulus (GPa) = 10.23089 32.15190 21.19140
#
# Velocity S-wave (km/s) = 2.15971 3.82862 3.10827
# Velocity P-wave (km/s) = 4.53834 7.16503 5.99726
#
# Compressibility (1/GPa) = 0.03171019
#
# Stress axis : x y z
#
# Youngs Moduli (GPa) = 41.46494 127.10533 99.83654
#
# Poissons Ratio (x) = 0.10766 -0.11728
# Poissons Ratio (y) = 0.03512 0.54639
# Poissons Ratio (z) = -0.04871 0.69563
#
# Static dielectric constant tensor:
#      x y z
#    x 1.856060 0.000000 0.000000 
#    y 0.000000 1.792870 0.000000 
#    z 0.000000 0.000000 1.796430 
# 
# From -- ./inp_files/28642.got.cif
#   From: 2010.05.17/outbox.cif.g08.bks.cpg/sg62_15_cif.got.tgz:28642.got - 2010.06.03 15:25:27.
