data_PCOD9463213
_publ_section_title
;
Structure prediction by ZEFSAII (Michael W. Deem and Ramdas Pophale) SiO2 
 PCOD9463213
Probable space group: P N M A
;
_chemical_formula_sum "Si O2"
_cell_formula_units_Z 64
_cell_length_a 19.609648
_cell_length_b 12.617116
_cell_length_c 12.570895
_cell_angle_alpha 90.000000
_cell_angle_beta 90.000000
_cell_angle_gamma 90.000000
_cell_volume 3110.255687
_symmetry_space_group_name_H-M "P N M A"
_symmetry_group_IT_number 62
_symmetry_cell_setting 'orthorhombic'
loop_
_space_group_symop_operation_xyz
x,y,z
1/2-x,-y,1/2+z
1/2+x,1/2-y,1/2-z
-x,1/2+y,-z
-x,-y,-z
1/2+x,y,1/2-z
1/2-x,1/2+y,1/2+z
x,1/2-y,z
loop_
_atom_site_type_symbol
_atom_site_label
_atom_site_fract_x
_atom_site_fract_y
_atom_site_fract_z
Si Si1 0.202535 0.134314 0.578698
Si Si2 0.294747 0.865670 0.511865
Si Si3 0.098455 0.368978 0.202485
Si Si4 0.521173 0.879463 0.550860
Si Si5 0.812543 0.073994 0.315157
Si Si6 0.096024 0.034561 0.412545
Si Si7 0.055734 0.874045 0.572248
Si Si8 0.681608 0.587681 0.580605
O O1 0.184294 0.250000 0.617278
O O2 0.206687 0.048769 0.671616
O O3 0.146472 0.093760 0.493424
O O4 0.272442 0.135582 0.512283
O O5 0.298058 0.750000 0.461879
O O6 0.355566 0.876882 0.597699
O O7 0.303056 0.962313 0.432257
O O8 0.227821 0.873754 0.586503
O O9 0.107386 0.250000 0.247459
O O10 0.119534 0.452271 0.291871
O O11 0.021788 0.380981 0.159962
O O12 0.508152 0.750000 0.512210
O O13 0.500000 0.000000 0.500000
O O14 0.602254 0.887520 0.563805
O O15 0.796759 0.119292 0.199660
O O16 0.892822 0.083467 0.338168
O O17 0.021224 0.086931 0.415235
O O18 0.084969 0.918954 0.461014
O O19 0.057434 0.750000 0.575826
#
# Coordination Sequence:
#
# PCOD9463213 Si02
#       8
#     8   8   8   8   8   8   8   8
#     4  10  21  37  56  83 116 152 193 243 299 357
#     4  10  21  37  58  83 115 152 193 244 297 355
#     4  10  19  34  58  83 109 149 196 238 286 351
#     4  11  23  40  61  88 122 159 202 252 304 360
#     4  10  22  36  56  86 116 150 197 246 297 356
#     4  10  20  34  56  82 111 146 192 238 288 347
#     4  10  20  35  54  80 113 147 187 237 291 347
#     4  11  22  38  60  86 118 154 198 249 300 355
#
# _framework density 20.577086999999999
#
# number of rings (size 3 to 8) (size 9 to 14) (size 15 to 20)
#    0.000    1.750    1.250    3.375    0.000    4.500 
#    0.000    0.625    0.000    4.500    0.000    0.000 
#    0.000    0.000    0.000    0.000    0.000    0.000 
#
# Total GULP energy -356640.897764 kJ/mol
# GULP energy per Si atom -5572.514028 kJ/mol
# Density = 2.053025 g / cm^3
# Si number density = 20.577087 Si / 1000 Ang^3
#
#
#
# Elastic Constant Matrix: (Units=GPa)
#
#
# Indices 1 2 3 4 5 6 
#
# 1 97.0775 -3.7799 -0.3110 0.0000 0.0000 0.0000
# 2 -3.7799 97.8808 13.7579 0.0000 0.0000 0.0000
# 3 -0.3110 13.7579 49.6486 0.0000 0.0000 0.0000
# 4 0.0000 0.0000 0.0000 -13.8405 0.0000 0.0000
# 5 0.0000 0.0000 0.0000 0.0000 11.8684 0.0000
# 6 0.0000 0.0000 0.0000 0.0000 0.0000 13.0714
#
#
#
# Elastic Compliance Matrix: (Units=1/GPa)
#
#
# Indices 1 2 3 4 5 6 
#
# 1 0.010317 0.000405 -0.000048 0.000000 0.000000 0.000000
# 2 0.000405 0.010646 -0.002948 0.000000 0.000000 0.000000
# 3 -0.000048 -0.002948 0.020958 0.000000 0.000000 0.000000
# 4 0.000000 0.000000 0.000000 -0.072252 0.000000 0.000000
# 5 0.000000 0.000000 0.000000 0.000000 0.084257 0.000000
# 6 0.000000 0.000000 0.000000 0.000000 0.000000 0.076503
#
#
# Mechanical properties :
#
#
# Convention : Reuss Voigt Hill
#
# Bulk Modulus (GPa) = 27.21769 29.32678 28.27223
# Shear Modulus (GPa) = 33.81646 17.88252 25.84949
#
# Velocity S-wave (km/s) = 4.05829 2.95116 3.54817
# Velocity P-wave (km/s) = 5.93427 5.08877 5.52771
#
# Compressibility (1/GPa) = 0.03674082
#
# Stress axis : x y z
#
# Youngs Moduli (GPa) = 96.93054 93.92785 47.71429
#
# Poissons Ratio (x) = -0.03805 0.00227
# Poissons Ratio (y) = -0.03927 0.14065
# Poissons Ratio (z) = 0.00462 0.27687
#
# Static dielectric constant tensor:
#      x y z
#    x 1.801470 0.000000 0.000000 
#    y 0.000000 1.796870 0.000000 
#    z 0.000000 0.000000 1.715060 
# 
# From -- ./inp_files/19900.got.cif
#   From: 2010.05.17/outbox.cif.g08.bks.cpg/sg62_10_cif.got.tgz:19900.got - 2010.06.03 15:25:27.
