data_PCOD9463473
_publ_section_title
;
Structure prediction by ZEFSAII (Michael W. Deem and Ramdas Pophale) SiO2 
 PCOD9463473
Probable space group: P N M A
;
_chemical_formula_sum "Si O2"
_cell_formula_units_Z 64
_cell_length_a 8.319405
_cell_length_b 24.217821
_cell_length_c 17.235416
_cell_angle_alpha 90.000000
_cell_angle_beta 90.000000
_cell_angle_gamma 90.000000
_cell_volume 3472.554751
_symmetry_space_group_name_H-M "P N M A"
_symmetry_group_IT_number 62
_symmetry_cell_setting 'orthorhombic'
loop_
_space_group_symop_operation_xyz
x,y,z
1/2-x,-y,1/2+z
1/2+x,1/2-y,1/2-z
-x,1/2+y,-z
-x,-y,-z
1/2+x,y,1/2-z
1/2-x,1/2+y,1/2+z
x,1/2-y,z
loop_
_atom_site_type_symbol
_atom_site_label
_atom_site_fract_x
_atom_site_fract_y
_atom_site_fract_z
Si Si1 0.653998 0.972691 0.425029
Si Si2 0.462271 0.616161 0.518455
Si Si3 0.951013 0.918666 0.361542
Si Si4 0.027388 0.314840 0.866747
Si Si5 0.428445 0.962527 0.824819
Si Si6 0.444010 0.063120 0.336124
Si Si7 0.872622 0.433244 0.475847
Si Si8 0.128159 0.683594 0.291185
O O1 0.532760 0.938876 0.477592
O O2 0.763454 0.931857 0.373848
O O3 0.559693 0.015625 0.371372
O O4 0.778884 0.008067 0.476792
O O5 0.497740 0.659952 0.451526
O O6 0.540030 0.614223 0.603852
O O7 0.271390 0.610672 0.530314
O O8 0.031607 0.921911 0.446495
O O9 0.001730 0.860055 0.326677
O O10 0.020906 0.972792 0.317093
O O11 0.040030 0.250000 0.876841
O O12 0.198727 0.332022 0.827764
O O13 0.891724 0.324151 0.801346
O O14 0.238213 0.957221 0.832508
O O15 0.491607 0.929179 0.750423
O O16 0.515958 0.938318 0.900758
O O17 0.098601 0.750000 0.305585
#
# Coordination Sequence:
#
# PCOD9463473 Si02
#       8
#     8   8   8   8   8   8   8   8
#     4  10  21  32  50  79 111 147 190 226 276 335
#     4  11  20  36  57  78 113 150 189 233 288 335
#     4  11  20  34  56  79 109 155 192 230 288 333
#     4  10  23  41  59  82 110 147 190 241 287 335
#     4  11  22  35  55  82 120 148 194 231 280 341
#     4  11  22  36  52  83 114 152 187 235 278 345
#     4  10  19  36  52  79 113 151 191 235 276 342
#     4  10  23  40  57  80 110 143 193 241 282 329
#
# _framework density 18.430236000000001
#
# number of rings (size 3 to 8) (size 9 to 14) (size 15 to 20)
#    0.000    1.500    1.250    7.500    3.500    0.000 
#    0.000    0.000    0.000    0.000    0.000    4.375 
#    0.000    0.000    0.000    0.000    0.000    0.000 
#
# Total GULP energy -357091.733879 kJ/mol
# GULP energy per Si atom -5579.558342 kJ/mol
# Density = 1.838829 g / cm^3
# Si number density = 18.430236 Si / 1000 Ang^3
#
#
#
# Elastic Constant Matrix: (Units=GPa)
#
#
# Indices 1 2 3 4 5 6 
#
# 1 86.4789 15.3769 35.2561 0.0000 0.0000 0.0000
# 2 15.3769 39.2645 35.0186 0.0000 0.0000 0.0000
# 3 35.2561 35.0186 119.7993 0.0000 0.0000 0.0000
# 4 0.0000 0.0000 0.0000 32.0828 0.0000 0.0000
# 5 0.0000 0.0000 0.0000 0.0000 32.4655 0.0000
# 6 0.0000 0.0000 0.0000 0.0000 0.0000 19.0484
#
#
#
# Elastic Compliance Matrix: (Units=1/GPa)
#
#
# Indices 1 2 3 4 5 6 
#
# 1 0.013295 -0.002323 -0.003234 0.000000 0.000000 0.000000
# 2 -0.002323 0.034855 -0.009505 0.000000 0.000000 0.000000
# 3 -0.003234 -0.009505 0.012077 0.000000 0.000000 0.000000
# 4 0.000000 0.000000 0.000000 0.031169 0.000000 0.000000
# 5 0.000000 0.000000 0.000000 0.000000 0.030802 0.000000
# 6 0.000000 0.000000 0.000000 0.000000 0.000000 0.052498
#
#
# Mechanical properties :
#
#
# Convention : Reuss Voigt Hill
#
# Bulk Modulus (GPa) = 33.21733 46.31620 39.76677
# Shear Modulus (GPa) = 23.27164 27.37873 25.32519
#
# Velocity S-wave (km/s) = 3.55729 3.85844 3.71092
# Velocity P-wave (km/s) = 5.91057 6.71083 6.32337
#
# Compressibility (1/GPa) = 0.03010477
#
# Stress axis : x y z
#
# Youngs Moduli (GPa) = 75.21734 28.69025 82.79963
#
# Poissons Ratio (x) = 0.06664 0.26775
# Poissons Ratio (y) = 0.17470 0.78701
# Poissons Ratio (z) = 0.24323 0.27270
#
# Static dielectric constant tensor:
#      x y z
#    x 1.683050 0.000000 0.000000 
#    y 0.000000 1.603290 0.000000 
#    z 0.000000 0.000000 1.685660 
# 
# From -- ./inp_files/17345.got.cif
#   From: 2010.05.17/outbox.cif.g08.bks.cpg/sg62_9_cif.got.tgz:17345.got - 2010.06.03 15:25:27.
