data_PCOD9463485
_publ_section_title
;
Structure prediction by ZEFSAII (Michael W. Deem and Ramdas Pophale) SiO2 
 PCOD9463485
Probable space group: P N M A
;
_chemical_formula_sum "Si O2"
_cell_formula_units_Z 60
_cell_length_a 5.262678
_cell_length_b 16.543403
_cell_length_c 34.367253
_cell_angle_alpha 90.000000
_cell_angle_beta 90.000000
_cell_angle_gamma 90.000000
_cell_volume 2992.102505
_symmetry_space_group_name_H-M "P N M A"
_symmetry_group_IT_number 62
_symmetry_cell_setting 'orthorhombic'
loop_
_space_group_symop_operation_xyz
x,y,z
1/2-x,-y,1/2+z
1/2+x,1/2-y,1/2-z
-x,1/2+y,-z
-x,-y,-z
1/2+x,y,1/2-z
1/2-x,1/2+y,1/2+z
x,1/2-y,z
loop_
_atom_site_type_symbol
_atom_site_label
_atom_site_fract_x
_atom_site_fract_y
_atom_site_fract_z
Si Si1 0.749430 0.250000 0.775143
Si Si2 0.798380 0.844131 0.724708
Si Si3 0.251710 0.955342 0.483375
Si Si4 0.332881 0.071742 0.723602
Si Si5 0.111861 0.662697 0.544195
Si Si6 0.675767 0.469577 0.093050
Si Si7 0.111295 0.558998 0.666626
Si Si8 0.457290 0.838116 0.619772
O O1 0.458968 0.250000 0.759904
O O2 0.801268 0.337451 0.794174
O O3 0.521463 0.856079 0.743218
O O4 0.814882 0.750000 0.712383
O O5 0.873831 0.907238 0.691460
O O6 0.231468 0.869073 0.504307
O O7 0.500000 0.000000 0.500000
O O8 0.252118 0.959764 0.436514
O O9 0.000000 0.000000 0.500000
O O10 0.609277 0.065534 0.743631
O O11 0.272215 0.002085 0.692806
O O12 0.990295 0.750000 0.539397
O O13 0.321449 0.667366 0.578002
O O14 0.920224 0.598947 0.562898
O O15 0.470160 0.485286 0.126478
O O16 0.887551 0.420501 0.116144
O O17 0.255602 0.640703 0.653189
O O18 0.581225 0.750000 0.626710
#
# Coordination Sequence:
#
# PCOD9463485 Si02
#       8
#     4   8   8   8   8   8   8   8
#     4   8  16  34  58  86 106 128 172 236 288 324
#     4  10  22  38  53  72 105 148 192 232 272 320
#     4  10  19  36  57  81 108 144 182 231 278 328
#     4  10  21  37  61  86 111 142 190 238 283 339
#     4   9  18  34  55  82 107 142 189 234 274 327
#     4  10  21  34  54  80 115 150 188 231 284 339
#     4  11  23  34  52  81 111 152 187 233 279 337
#     4  10  20  33  51  78 111 147 189 232 277 324
#
# _framework density 20.052790000000002
#
# number of rings (size 3 to 8) (size 9 to 14) (size 15 to 20)
#    0.000    2.133    1.333    1.600    3.733    1.600 
#    0.000    0.000    1.467    0.000    1.733    0.000 
#    0.000    0.000    0.000    0.000    0.000    0.000 
#
# Total GULP energy -334443.550032 kJ/mol
# GULP energy per Si atom -5574.059167 kJ/mol
# Density = 2.000715 g / cm^3
# Si number density = 20.052790 Si / 1000 Ang^3
#
#
#
# Elastic Constant Matrix: (Units=GPa)
#
#
# Indices 1 2 3 4 5 6 
#
# 1 70.3303 -5.1304 15.5644 0.0000 0.0000 0.0000
# 2 -5.1304 73.1187 40.3801 0.0000 0.0000 0.0000
# 3 15.5644 40.3801 96.1176 0.0000 0.0000 0.0000
# 4 0.0000 0.0000 0.0000 -47.8452 0.0000 0.0000
# 5 0.0000 0.0000 0.0000 0.0000 14.7901 0.0000
# 6 0.0000 0.0000 0.0000 0.0000 0.0000 19.0131
#
#
#
# Elastic Compliance Matrix: (Units=1/GPa)
#
#
# Indices 1 2 3 4 5 6 
#
# 1 0.015294 0.003178 -0.003812 0.000000 0.000000 0.000000
# 2 0.003178 0.018468 -0.008273 0.000000 0.000000 0.000000
# 3 -0.003812 -0.008273 0.014497 0.000000 0.000000 0.000000
# 4 0.000000 0.000000 0.000000 -0.020901 0.000000 0.000000
# 5 0.000000 0.000000 0.000000 0.000000 0.067613 0.000000
# 6 0.000000 0.000000 0.000000 0.000000 0.000000 0.052595
#
#
# Mechanical properties :
#
#
# Convention : Reuss Voigt Hill
#
# Bulk Modulus (GPa) = 32.84576 37.91052 35.37814
# Shear Modulus (GPa) = 28.48526 9.77510 19.13018
#
# Velocity S-wave (km/s) = 3.77306 2.21026 3.09203
# Velocity P-wave (km/s) = 5.94950 5.04580 5.51619
#
# Compressibility (1/GPa) = 0.03044533
#
# Stress axis : x y z
#
# Youngs Moduli (GPa) = 65.38504 54.14642 68.98013
#
# Poissons Ratio (x) = -0.17209 0.26293
# Poissons Ratio (y) = -0.20780 0.57070
# Poissons Ratio (z) = 0.24923 0.44798
#
# Static dielectric constant tensor:
#      x y z
#    x 1.806400 0.000000 0.000000 
#    y 0.000000 1.807590 0.000000 
#    z 0.000000 0.000000 1.739660 
# 
# From -- ./inp_files/30514.got.cif
#   From: 2010.05.17/outbox.cif.g08.bks.cpg/sg62_16_cif.got.tgz:30514.got - 2010.06.03 15:25:27.
