data_PCOD9463013
_publ_section_title
;
Structure prediction by ZEFSAII (Michael W. Deem and Ramdas Pophale) SiO2 
 PCOD9463013
Probable space group: P N M A
;
_chemical_formula_sum "Si O2"
_cell_formula_units_Z 48
_cell_length_a 29.891073
_cell_length_b 8.722099
_cell_length_c 10.488023
_cell_angle_alpha 90.000000
_cell_angle_beta 90.000000
_cell_angle_gamma 90.000000
_cell_volume 2734.362870
_symmetry_space_group_name_H-M "P N M A"
_symmetry_group_IT_number 62
_symmetry_cell_setting 'orthorhombic'
loop_
_space_group_symop_operation_xyz
x,y,z
1/2-x,-y,1/2+z
1/2+x,1/2-y,1/2-z
-x,1/2+y,-z
-x,-y,-z
1/2+x,y,1/2-z
1/2-x,1/2+y,1/2+z
x,1/2-y,z
loop_
_atom_site_type_symbol
_atom_site_label
_atom_site_fract_x
_atom_site_fract_y
_atom_site_fract_z
Si Si1 0.113695 0.932774 0.521606
Si Si2 0.284529 0.934623 0.729083
Si Si3 0.979019 0.933342 0.872415
Si Si4 0.613337 0.065917 0.258113
Si Si5 0.474074 0.567504 0.122351
Si Si6 0.716641 0.934966 0.990294
O O1 0.108771 0.750000 0.534654
O O2 0.165439 0.975692 0.545608
O O3 0.104508 0.981938 0.375582
O O4 0.077439 0.016774 0.608150
O O5 0.281576 0.750000 0.735574
O O6 0.336360 0.974299 0.699870
O O7 0.251182 0.987515 0.618006
O O8 0.273884 0.999654 0.869140
O O9 0.983168 0.750000 0.872277
O O10 0.926409 0.971561 0.854970
O O11 0.004239 0.000077 0.749581
O O12 0.000000 0.000000 0.000000
O O13 0.612045 0.250000 0.234975
O O14 0.477909 0.750000 0.121030
O O15 0.500000 0.500000 0.000000
O O16 0.718662 0.750000 0.998142
#
# Coordination Sequence:
#
# PCOD9463013 Si02
#       6
#     8   8   8   8   8   8
#     4  10  19  33  56  83 111 143 184 231 275 324
#     4   9  18  35  57  80 109 142 180 226 272 325
#     4  11  23  39  57  81 115 151 186 228 277 332
#     4   9  18  34  57  79 106 146 188 224 270 329
#     4  12  23  37  59  85 111 144 185 230 276 330
#     4   9  19  35  55  81 113 143 180 228 275 325
#
# _framework density 17.554362999999999
#
# number of rings (size 3 to 8) (size 9 to 14) (size 15 to 20)
#    0.000    2.000    1.667    2.500    0.000    2.000 
#    3.000    0.000    0.000    0.000    0.000    0.000 
#    0.000    0.000    0.000    0.000    0.000    0.000 
#
# Total GULP energy -267912.835042 kJ/mol
# GULP energy per Si atom -5581.517397 kJ/mol
# Density = 1.751441 g / cm^3
# Si number density = 17.554363 Si / 1000 Ang^3
#
#
#
# Elastic Constant Matrix: (Units=GPa)
#
#
# Indices 1 2 3 4 5 6 
#
# 1 143.5253 47.5806 100.7901 0.0000 0.0000 0.0000
# 2 47.5806 50.0543 42.5607 0.0000 0.0000 0.0000
# 3 100.7901 42.5607 137.0595 0.0000 0.0000 0.0000
# 4 0.0000 0.0000 0.0000 31.7713 0.0000 0.0000
# 5 0.0000 0.0000 0.0000 0.0000 36.4850 0.0000
# 6 0.0000 0.0000 0.0000 0.0000 0.0000 23.4487
#
#
#
# Elastic Compliance Matrix: (Units=1/GPa)
#
#
# Indices 1 2 3 4 5 6 
#
# 1 0.016075 -0.007105 -0.009615 0.000000 0.000000 0.000000
# 2 -0.007105 0.030286 -0.004180 0.000000 0.000000 0.000000
# 3 -0.009615 -0.004180 0.015664 0.000000 0.000000 0.000000
# 4 0.000000 0.000000 0.000000 0.031475 0.000000 0.000000
# 5 0.000000 0.000000 0.000000 0.000000 0.027409 0.000000
# 6 0.000000 0.000000 0.000000 0.000000 0.000000 0.042646
#
#
# Mechanical properties :
#
#
# Convention : Reuss Voigt Hill
#
# Bulk Modulus (GPa) = 49.44034 79.16686 64.30360
# Shear Modulus (GPa) = 23.57421 27.65483 25.61452
#
# Velocity S-wave (km/s) = 3.66857 3.97341 3.82403
# Velocity P-wave (km/s) = 6.79484 8.13921 7.49722
#
# Compressibility (1/GPa) = 0.02022640
#
# Stress axis : x y z
#
# Youngs Moduli (GPa) = 62.20990 33.01820 63.83918
#
# Poissons Ratio (x) = 0.23460 0.61379
# Poissons Ratio (y) = 0.44200 0.26684
# Poissons Ratio (z) = 0.59812 0.13801
#
# Static dielectric constant tensor:
#      x y z
#    x 1.625580 0.000000 0.000000 
#    y 0.000000 1.586500 0.000000 
#    z 0.000000 0.000000 1.552070 
# 
# From -- ./inp_files/10226.got.cif
#   From: 2010.05.17/outbox.cif.g08.bks.cpg/sg62_6_cif.got.tgz:10226.got - 2010.06.03 15:25:27.
