data_PCOD9463449
_publ_section_title
;
Structure prediction by ZEFSAII (Michael W. Deem and Ramdas Pophale) SiO2 
 PCOD9463449
Probable space group: P N M A
;
_chemical_formula_sum "Si O2"
_cell_formula_units_Z 48
_cell_length_a 18.279762
_cell_length_b 28.102958
_cell_length_c 5.177762
_cell_angle_alpha 90.000000
_cell_angle_beta 90.000000
_cell_angle_gamma 90.000000
_cell_volume 2659.895993
_symmetry_space_group_name_H-M "P N M A"
_symmetry_group_IT_number 62
_symmetry_cell_setting 'orthorhombic'
loop_
_space_group_symop_operation_xyz
x,y,z
1/2-x,-y,1/2+z
1/2+x,1/2-y,1/2-z
-x,1/2+y,-z
-x,-y,-z
1/2+x,y,1/2-z
1/2-x,1/2+y,1/2+z
x,1/2-y,z
loop_
_atom_site_type_symbol
_atom_site_label
_atom_site_fract_x
_atom_site_fract_y
_atom_site_fract_z
Si Si1 0.895847 0.898731 0.556739
Si Si2 0.258860 0.966920 0.961465
Si Si3 0.993885 0.843797 0.897080
Si Si4 0.390901 0.078923 0.387234
Si Si5 0.032825 0.952445 0.379650
Si Si6 0.928574 0.696777 0.405486
O O1 0.835144 0.938894 0.562795
O O2 0.965215 0.915827 0.387778
O O3 0.872040 0.847004 0.449436
O O4 0.934123 0.885643 0.830059
O O5 0.193864 0.928416 0.941434
O O6 0.247625 0.004229 0.728369
O O7 0.067705 0.954861 0.096963
O O8 0.968436 0.813124 0.136999
O O9 0.071128 0.869961 0.930374
O O10 0.408561 0.064976 0.092216
O O11 0.513876 0.187504 0.137897
O O12 0.000000 0.000000 0.500000
O O13 0.899069 0.750000 0.418569
#
# Coordination Sequence:
#
# PCOD9463449 Si02
#       6
#     8   8   8   8   8   8
#     4   9  22  36  56  84 113 145 195 230 279 339
#     4  12  26  37  54  83 121 159 193 228 280 338
#     4   9  19  35  58  83 106 141 187 230 286 330
#     4  11  20  37  52  79 109 151 180 231 275 322
#     4  11  20  34  55  77 109 148 189 227 268 327
#     4  10  19  35  62  86 107 136 187 244 289 336
#
# _framework density 18.045818000000001
#
# number of rings (size 3 to 8) (size 9 to 14) (size 15 to 20)
#    1.000    0.667    1.667    4.000    2.333    1.333 
#    0.000    0.000    0.000    2.000    0.000    0.000 
#    0.000    0.000    0.000    0.000    0.000    0.000 
#
# Total GULP energy -267316.157149 kJ/mol
# GULP energy per Si atom -5569.086607 kJ/mol
# Density = 1.800475 g / cm^3
# Si number density = 18.045818 Si / 1000 Ang^3
#
#
#
# Elastic Constant Matrix: (Units=GPa)
#
#
# Indices 1 2 3 4 5 6 
#
# 1 63.8583 -1.5895 8.6825 0.0000 0.0000 0.0000
# 2 -1.5895 62.2777 3.8385 0.0000 0.0000 0.0000
# 3 8.6825 3.8385 100.5180 0.0000 0.0000 0.0000
# 4 0.0000 0.0000 0.0000 18.2255 0.0000 0.0000
# 5 0.0000 0.0000 0.0000 0.0000 12.8285 0.0000
# 6 0.0000 0.0000 0.0000 0.0000 0.0000 17.6847
#
#
#
# Elastic Compliance Matrix: (Units=1/GPa)
#
#
# Indices 1 2 3 4 5 6 
#
# 1 0.015861 0.000490 -0.001389 0.000000 0.000000 0.000000
# 2 0.000490 0.016110 -0.000658 0.000000 0.000000 0.000000
# 3 -0.001389 -0.000658 0.010094 0.000000 0.000000 0.000000
# 4 0.000000 0.000000 0.000000 0.054868 0.000000 0.000000
# 5 0.000000 0.000000 0.000000 0.000000 0.077952 0.000000
# 6 0.000000 0.000000 0.000000 0.000000 0.000000 0.056546
#
#
# Mechanical properties :
#
#
# Convention : Reuss Voigt Hill
#
# Bulk Modulus (GPa) = 25.67223 27.61300 26.64262
# Shear Modulus (GPa) = 20.19991 24.12926 22.16458
#
# Velocity S-wave (km/s) = 3.34932 3.66062 3.50843
# Velocity P-wave (km/s) = 5.40503 5.76209 5.58641
#
# Compressibility (1/GPa) = 0.03895259
#
# Stress axis : x y z
#
# Youngs Moduli (GPa) = 63.04897 62.07266 99.07334
#
# Poissons Ratio (x) = -0.03044 0.13759
# Poissons Ratio (y) = -0.03092 0.06515
# Poissons Ratio (z) = 0.08756 0.04082
#
# Static dielectric constant tensor:
#      x y z
#    x 1.603210 0.000000 0.000000 
#    y 0.000000 1.694950 0.000000 
#    z 0.000000 0.000000 1.646250 
# 
# From -- ./inp_files/1764.got.cif
#   From: 2010.05.17/outbox.cif.g08.bks.cpg/sg62_1_cif.got.tgz:1764.got - 2010.06.03 15:25:27.
