data_PCOD9463041
_publ_section_title
;
Structure prediction by ZEFSAII (Michael W. Deem and Ramdas Pophale) SiO2 
 PCOD9463041
Probable space group: P N M A
;
_chemical_formula_sum "Si O2"
_cell_formula_units_Z 64
_cell_length_a 29.887920
_cell_length_b 8.902322
_cell_length_c 12.289027
_cell_angle_alpha 90.000000
_cell_angle_beta 90.000000
_cell_angle_gamma 90.000000
_cell_volume 3269.764613
_symmetry_space_group_name_H-M "P N M A"
_symmetry_group_IT_number 62
_symmetry_cell_setting 'orthorhombic'
loop_
_space_group_symop_operation_xyz
x,y,z
1/2-x,-y,1/2+z
1/2+x,1/2-y,1/2-z
-x,1/2+y,-z
-x,-y,-z
1/2+x,y,1/2-z
1/2-x,1/2+y,1/2+z
x,1/2-y,z
loop_
_atom_site_type_symbol
_atom_site_label
_atom_site_fract_x
_atom_site_fract_y
_atom_site_fract_z
Si Si1 0.435267 0.922159 0.038517
Si Si2 0.317516 0.928680 0.520778
Si Si3 0.665597 0.569831 0.253806
Si Si4 0.719447 0.570160 0.037243
Si Si5 0.118730 0.929884 0.853618
Si Si6 0.161998 0.077391 0.645880
Si Si7 0.930417 0.568219 0.713596
Si Si8 0.473068 0.430046 0.249835
O O1 0.451330 0.750000 0.046674
O O2 0.383328 0.924397 0.073807
O O3 0.460789 0.020236 0.127292
O O4 0.437897 0.969823 0.913796
O O5 0.322765 0.750000 0.528094
O O6 0.272116 0.961732 0.454161
O O7 0.312450 0.998111 0.639978
O O8 0.360006 0.999459 0.460693
O O9 0.666580 0.750000 0.260325
O O10 0.691642 0.523585 0.143845
O O11 0.614710 0.511279 0.250129
O O12 0.714013 0.750000 0.025042
O O13 0.699908 0.491615 0.930105
O O14 0.118978 0.750000 0.860360
O O15 0.068083 0.982581 0.825243
O O16 0.149475 0.983832 0.752790
O O17 0.171958 0.250000 0.675940
O O18 0.924968 0.750000 0.720858
O O19 0.976170 0.522154 0.774496
O O20 0.472822 0.250000 0.252898
#
# Coordination Sequence:
#
# PCOD9463041 Si02
#       8
#     8   8   8   8   8   8   8   8
#     4   9  17  29  49  81 120 156 193 236 290 349
#     4  11  25  44  64  87 116 156 202 249 301 360
#     4  11  24  42  63  90 122 157 198 249 302 359
#     4  10  23  41  61  88 119 151 193 242 299 359
#     4  10  21  39  60  87 122 159 201 249 298 350
#     4  10  19  33  57  88 120 156 195 236 289 351
#     4  10  19  35  56  84 120 160 201 247 299 354
#     4   9  19  33  55  84 119 159 201 246 298 354
#
# _framework density 19.573274000000001
#
# number of rings (size 3 to 8) (size 9 to 14) (size 15 to 20)
#    0.000    2.000    1.250    1.875    1.750    3.500 
#    0.000    0.625    0.000    0.000    0.000    0.000 
#    0.000    0.000    0.000    0.000    0.000    0.000 
#
# Total GULP energy -357346.084322 kJ/mol
# GULP energy per Si atom -5583.532568 kJ/mol
# Density = 1.952872 g / cm^3
# Si number density = 19.573274 Si / 1000 Ang^3
#
#
#
# Elastic Constant Matrix: (Units=GPa)
#
#
# Indices 1 2 3 4 5 6 
#
# 1 100.6001 36.5248 28.3556 0.0000 0.0000 0.0000
# 2 36.5248 28.5977 10.2008 0.0000 0.0000 0.0000
# 3 28.3556 10.2008 35.3982 0.0000 0.0000 0.0000
# 4 0.0000 0.0000 0.0000 30.4772 0.0000 0.0000
# 5 0.0000 0.0000 0.0000 0.0000 12.6553 0.0000
# 6 0.0000 0.0000 0.0000 0.0000 0.0000 25.3024
#
#
#
# Elastic Compliance Matrix: (Units=1/GPa)
#
#
# Indices 1 2 3 4 5 6 
#
# 1 0.021480 -0.023737 -0.010366 0.000000 0.000000 0.000000
# 2 -0.023737 0.065205 0.000224 0.000000 0.000000 0.000000
# 3 -0.010366 0.000224 0.036489 0.000000 0.000000 0.000000
# 4 0.000000 0.000000 0.000000 0.032811 0.000000 0.000000
# 5 0.000000 0.000000 0.000000 0.000000 0.079018 0.000000
# 6 0.000000 0.000000 0.000000 0.000000 0.000000 0.039522
#
#
# Mechanical properties :
#
#
# Convention : Reuss Voigt Hill
#
# Bulk Modulus (GPa) = 18.04535 34.97318 26.50927
# Shear Modulus (GPa) = 13.85977 19.65465 16.75721
#
# Velocity S-wave (km/s) = 2.66390 3.17228 2.92914
# Velocity P-wave (km/s) = 4.32449 5.59682 5.00128
#
# Compressibility (1/GPa) = 0.05541594
#
# Stress axis : x y z
#
# Youngs Moduli (GPa) = 46.55390 15.33635 27.40521
#
# Poissons Ratio (x) = 0.36404 0.28410
# Poissons Ratio (y) = 1.10505 -0.00614
# Poissons Ratio (z) = 0.48260 -0.00344
#
# Static dielectric constant tensor:
#      x y z
#    x 1.711940 0.000000 0.000000 
#    y 0.000000 1.659650 0.000000 
#    z 0.000000 0.000000 1.662770 
# 
# From -- ./inp_files/15779.got.cif
#   From: 2010.05.17/outbox.cif.g08.bks.cpg/sg62_8_cif.got.tgz:15779.got - 2010.06.03 15:25:27.
