data_PCOD9463231
_publ_section_title
;
Structure prediction by ZEFSAII (Michael W. Deem and Ramdas Pophale) SiO2 
 PCOD9463231
Probable space group: P N M A
;
_chemical_formula_sum "Si O2"
_cell_formula_units_Z 64
_cell_length_a 19.603058
_cell_length_b 13.686925
_cell_length_c 11.298356
_cell_angle_alpha 90.000000
_cell_angle_beta 90.000000
_cell_angle_gamma 90.000000
_cell_volume 3031.412012
_symmetry_space_group_name_H-M "P N M A"
_symmetry_group_IT_number 62
_symmetry_cell_setting 'orthorhombic'
loop_
_space_group_symop_operation_xyz
x,y,z
1/2-x,-y,1/2+z
1/2+x,1/2-y,1/2-z
-x,1/2+y,-z
-x,-y,-z
1/2+x,y,1/2-z
1/2-x,1/2+y,1/2+z
x,1/2-y,z
loop_
_atom_site_type_symbol
_atom_site_label
_atom_site_fract_x
_atom_site_fract_y
_atom_site_fract_z
Si Si1 0.653571 0.134089 0.238456
Si Si2 0.196394 0.631673 0.149666
Si Si3 0.658463 0.364671 0.956555
Si Si4 0.009109 0.041327 0.211255
Si Si5 0.426584 0.133532 0.806874
Si Si6 0.919099 0.051041 0.435948
Si Si7 0.202857 0.867044 0.693815
Si Si8 0.110572 0.631801 0.920619
O O1 0.647646 0.250000 0.257342
O O2 0.668609 0.121923 0.098025
O O3 0.583855 0.087433 0.281897
O O4 0.720227 0.094959 0.305688
O O5 0.198902 0.750000 0.145652
O O6 0.151740 0.609422 0.266513
O O7 0.274542 0.605148 0.119077
O O8 0.147641 0.602301 0.040858
O O9 0.644722 0.250000 0.936281
O O10 0.596415 0.436053 0.927921
O O11 0.970787 0.077455 0.331528
O O12 0.960162 0.077955 0.107423
O O13 0.022596 0.925466 0.220501
O O14 0.435413 0.250000 0.804484
O O15 0.439751 0.088172 0.935813
O O16 0.846023 0.099889 0.410275
O O17 0.207142 0.750000 0.693191
O O18 0.162993 0.893376 0.814407
O O19 0.100577 0.750000 0.919932
#
# Coordination Sequence:
#
# PCOD9463231 Si02
#       8
#     8   8   8   8   8   8   8   8
#     4  10  19  34  58  89 116 141 186 248 296 333
#     4   9  19  38  61  84 112 152 196 237 287 348
#     4  10  20  35  60  88 112 146 197 247 289 340
#     4  11  23  37  55  91 117 150 196 237 295 344
#     4  11  24  39  56  80 120 162 194 228 286 362
#     4  11  23  38  57  86 119 155 193 236 296 353
#     4   9  18  34  59  86 111 144 188 241 291 331
#     4   9  17  35  61  86 111 141 188 244 288 335
#
# _framework density 21.112272000000001
#
# number of rings (size 3 to 8) (size 9 to 14) (size 15 to 20)
#    0.000    2.000    2.500    1.125    1.750    2.500 
#    0.000    0.000    0.000    0.000    0.000    0.000 
#    0.000    0.000    0.000    0.000    0.000    0.000 
#
# Total GULP energy -357342.158180 kJ/mol
# GULP energy per Si atom -5583.471222 kJ/mol
# Density = 2.106422 g / cm^3
# Si number density = 21.112272 Si / 1000 Ang^3
#
#
#
# Elastic Constant Matrix: (Units=GPa)
#
#
# Indices 1 2 3 4 5 6 
#
# 1 143.3853 35.7739 17.0329 0.0000 0.0000 0.0000
# 2 35.7739 61.4345 -0.0169 0.0000 0.0000 0.0000
# 3 17.0329 -0.0169 36.5470 0.0000 0.0000 0.0000
# 4 0.0000 0.0000 0.0000 14.0234 0.0000 0.0000
# 5 0.0000 0.0000 0.0000 0.0000 25.7927 0.0000
# 6 0.0000 0.0000 0.0000 0.0000 0.0000 33.0448
#
#
#
# Elastic Compliance Matrix: (Units=1/GPa)
#
#
# Indices 1 2 3 4 5 6 
#
# 1 0.008726 -0.005082 -0.004069 0.000000 0.000000 0.000000
# 2 -0.005082 0.019237 0.002377 0.000000 0.000000 0.000000
# 3 -0.004069 0.002377 0.029259 0.000000 0.000000 0.000000
# 4 0.000000 0.000000 0.000000 0.071309 0.000000 0.000000
# 5 0.000000 0.000000 0.000000 0.000000 0.038771 0.000000
# 6 0.000000 0.000000 0.000000 0.000000 0.000000 0.030262
#
#
# Mechanical properties :
#
#
# Convention : Reuss Voigt Hill
#
# Bulk Modulus (GPa) = 22.89623 38.54964 30.72293
# Shear Modulus (GPa) = 22.15623 27.14396 24.65010
#
# Velocity S-wave (km/s) = 3.24303 3.58955 3.42068
# Velocity P-wave (km/s) = 4.98914 5.95641 5.49410
#
# Compressibility (1/GPa) = 0.04367532
#
# Stress axis : x y z
#
# Youngs Moduli (GPa) = 114.60640 51.98184 34.17696
#
# Poissons Ratio (x) = 0.26418 0.13906
# Poissons Ratio (y) = 0.58244 -0.08125
# Poissons Ratio (z) = 0.46632 -0.12358
#
# Static dielectric constant tensor:
#      x y z
#    x 1.775560 0.000000 0.000000 
#    y 0.000000 1.794550 0.000000 
#    z 0.000000 0.000000 1.760190 
# 
# From -- ./inp_files/14348.got.cif
#   From: 2010.05.17/outbox.cif.g08.bks.cpg/sg62_8_cif.got.tgz:14348.got - 2010.06.03 15:25:27.
