data_PCOD9463636
_publ_section_title
;
Structure prediction by ZEFSAII (Michael W. Deem and Ramdas Pophale) SiO2 
 PCOD9463636
Probable space group: P N M A
;
_chemical_formula_sum "Si O2"
_cell_formula_units_Z 64
_cell_length_a 7.571524
_cell_length_b 18.242866
_cell_length_c 20.913391
_cell_angle_alpha 90.000000
_cell_angle_beta 90.000000
_cell_angle_gamma 90.000000
_cell_volume 2888.689272
_symmetry_space_group_name_H-M "P N M A"
_symmetry_group_IT_number 62
_symmetry_cell_setting 'orthorhombic'
loop_
_space_group_symop_operation_xyz
x,y,z
1/2-x,-y,1/2+z
1/2+x,1/2-y,1/2-z
-x,1/2+y,-z
-x,-y,-z
1/2+x,y,1/2-z
1/2-x,1/2+y,1/2+z
x,1/2-y,z
loop_
_atom_site_type_symbol
_atom_site_label
_atom_site_fract_x
_atom_site_fract_y
_atom_site_fract_z
Si Si1 0.283865 0.031389 0.180210
Si Si2 0.837455 0.425808 0.068910
Si Si3 0.972411 0.831629 0.158465
Si Si4 0.090986 0.548592 0.079021
Si Si5 0.501173 0.663882 0.961916
Si Si6 0.084662 0.833012 0.390959
Si Si7 0.460724 0.438289 0.770687
Si Si8 0.652468 0.333974 0.373068
O O1 0.212748 0.112740 0.184183
O O2 0.236943 0.005103 0.108634
O O3 0.479950 0.017286 0.201072
O O4 0.194473 0.969957 0.225438
O O5 0.641169 0.392181 0.068735
O O6 0.905713 0.505384 0.096113
O O7 0.971639 0.367241 0.099320
O O8 0.887009 0.436640 0.994755
O O9 0.024408 0.750000 0.177709
O O10 0.797247 0.828115 0.115341
O O11 0.109374 0.874216 0.114329
O O12 0.945870 0.882755 0.219991
O O13 0.441619 0.750000 0.958305
O O14 0.688720 0.661227 0.925288
O O15 0.529112 0.645957 0.037196
O O16 0.017150 0.750000 0.378085
O O17 0.043511 0.889229 0.334393
O O18 0.631439 0.250000 0.354956
#
# Coordination Sequence:
#
# PCOD9463636 Si02
#       8
#     8   8   8   8   8   8   8   8
#     4  10  22  39  61  84 117 153 201 247 301 354
#     4  10  19  37  60  87 123 159 197 244 296 357
#     4  10  20  34  53  79 116 161 196 241 299 347
#     4   9  20  35  55  87 121 155 203 242 288 366
#     4  10  21  36  60  94 124 159 204 248 305 368
#     4  10  20  34  55  87 123 157 201 244 290 362
#     4  11  20  39  57  83 115 156 200 248 296 357
#     4  10  22  42  63  88 123 156 196 253 314 368
#
# _framework density 22.155376
#
# number of rings (size 3 to 8) (size 9 to 14) (size 15 to 20)
#    0.000    2.000    1.250    2.250    0.000    3.000 
#    2.250    9.375    0.000    0.000    0.000    0.000 
#    0.000    0.000    0.000    0.000    0.000    0.000 
#
# Total GULP energy -356426.427841 kJ/mol
# GULP energy per Si atom -5569.162935 kJ/mol
# Density = 2.210495 g / cm^3
# Si number density = 22.155376 Si / 1000 Ang^3
#
#
#
# Elastic Constant Matrix: (Units=GPa)
#
#
# Indices 1 2 3 4 5 6 
#
# 1 12.5752 10.1336 0.4028 0.0000 0.0000 0.0000
# 2 10.1336 141.6801 37.6547 0.0000 0.0000 0.0000
# 3 0.4028 37.6547 42.5810 0.0000 0.0000 0.0000
# 4 0.0000 0.0000 0.0000 32.9416 0.0000 0.0000
# 5 0.0000 0.0000 0.0000 0.0000 13.8405 0.0000
# 6 0.0000 0.0000 0.0000 0.0000 0.0000 25.5837
#
#
#
# Elastic Compliance Matrix: (Units=1/GPa)
#
#
# Indices 1 2 3 4 5 6 
#
# 1 0.085548 -0.007717 0.006015 0.000000 0.000000 0.000000
# 2 -0.007717 0.009923 -0.008702 0.000000 0.000000 0.000000
# 3 0.006015 -0.008702 0.031123 0.000000 0.000000 0.000000
# 4 0.000000 0.000000 0.000000 0.030357 0.000000 0.000000
# 5 0.000000 0.000000 0.000000 0.000000 0.072252 0.000000
# 6 0.000000 0.000000 0.000000 0.000000 0.000000 0.039087
#
#
# Mechanical properties :
#
#
# Convention : Reuss Voigt Hill
#
# Bulk Modulus (GPa) = 9.45306 32.57983 21.01645
# Shear Modulus (GPa) = 15.41498 24.38283 19.89890
#
# Velocity S-wave (km/s) = 2.64060 3.32103 3.00017
# Velocity P-wave (km/s) = 3.68416 5.42612 4.63766
#
# Compressibility (1/GPa) = 0.10578585
#
# Stress axis : x y z
#
# Youngs Moduli (GPa) = 11.68931 100.77756 32.13078
#
# Poissons Ratio (x) = 0.77775 -0.19328
# Poissons Ratio (y) = 0.09021 0.27960
# Poissons Ratio (z) = -0.07031 0.87695
#
# Static dielectric constant tensor:
#      x y z
#    x 1.972640 0.000000 0.000000 
#    y 0.000000 1.839130 0.000000 
#    z 0.000000 0.000000 1.763030 
# 
# From -- ./inp_files/26169.got.cif
#   From: 2010.05.17/outbox.cif.g08.bks.cpg/sg62_14_cif.got.tgz:26169.got - 2010.06.03 15:25:27.
