data_PCOD9463204
_publ_section_title
;
Structure prediction by ZEFSAII (Michael W. Deem and Ramdas Pophale) SiO2 
 PCOD9463204
Probable space group: P N M A
;
_chemical_formula_sum "Si O2"
_cell_formula_units_Z 64
_cell_length_a 8.980003
_cell_length_b 13.392403
_cell_length_c 27.575146
_cell_angle_alpha 90.000000
_cell_angle_beta 90.000000
_cell_angle_gamma 90.000000
_cell_volume 3316.292371
_symmetry_space_group_name_H-M "P N M A"
_symmetry_group_IT_number 62
_symmetry_cell_setting 'orthorhombic'
loop_
_space_group_symop_operation_xyz
x,y,z
1/2-x,-y,1/2+z
1/2+x,1/2-y,1/2-z
-x,1/2+y,-z
-x,-y,-z
1/2+x,y,1/2-z
1/2-x,1/2+y,1/2+z
x,1/2-y,z
loop_
_atom_site_type_symbol
_atom_site_label
_atom_site_fract_x
_atom_site_fract_y
_atom_site_fract_z
Si Si1 0.274666 0.363846 0.961538
Si Si2 0.042993 0.631305 0.802312
Si Si3 0.248451 0.363288 0.809492
Si Si4 0.622193 0.138873 0.955161
Si Si5 0.634564 0.021641 0.464094
Si Si6 0.239852 0.979774 0.725099
Si Si7 0.410206 0.513434 0.382842
Si Si8 0.579995 0.361286 0.841738
O O1 0.250926 0.250000 0.943550
O O2 0.450192 0.380887 0.966566
O O3 0.201044 0.443008 0.924142
O O4 0.201318 0.376292 0.014756
O O5 0.027727 0.750000 0.804877
O O6 0.883610 0.575826 0.796334
O O7 0.138753 0.598069 0.755333
O O8 0.120261 0.585875 0.850987
O O9 0.223082 0.250000 0.794331
O O10 0.281052 0.436519 0.765051
O O11 0.108405 0.403030 0.840716
O O12 0.400319 0.367144 0.840666
O O13 0.660738 0.250000 0.972662
O O14 0.631993 0.137636 0.896933
O O15 0.736386 0.057993 0.973499
O O16 0.500000 0.000000 0.500000
O O17 0.564668 0.007392 0.410896
O O18 0.148736 0.044959 0.686171
O O19 0.617473 0.250000 0.821352
#
# Coordination Sequence:
#
# PCOD9463204 Si02
#       8
#     8   8   8   8   8   8   8   8
#     4  10  20  38  63  87 115 154 194 243 308 369
#     4  11  24  40  60  82 115 161 209 252 295 349
#     4  10  19  34  57  87 123 157 191 238 302 366
#     4  10  20  36  59  87 119 154 196 239 292 363
#     4  10  22  37  56  87 117 154 192 243 300 358
#     4  11  21  39  57  86 119 158 204 249 297 349
#     4  10  21  38  59  87 117 154 195 247 307 356
#     4  10  19  34  59  91 122 154 192 241 299 362
#
# _framework density 19.298660000000002
#
# number of rings (size 3 to 8) (size 9 to 14) (size 15 to 20)
#    0.000    1.750    2.500    2.250    0.000    3.000 
#    0.000    5.000    0.000    0.750    0.000    0.000 
#    0.000    0.000    0.000    0.000    0.000    0.000 
#
# Total GULP energy -356556.915981 kJ/mol
# GULP energy per Si atom -5571.201812 kJ/mol
# Density = 1.925474 g / cm^3
# Si number density = 19.298660 Si / 1000 Ang^3
#
#
#
# Elastic Constant Matrix: (Units=GPa)
#
#
# Indices 1 2 3 4 5 6 
#
# 1 58.4638 46.6356 35.5162 0.0000 0.0000 0.0000
# 2 46.6356 136.0752 44.7130 0.0000 0.0000 0.0000
# 3 35.5162 44.7130 52.4423 0.0000 0.0000 0.0000
# 4 0.0000 0.0000 0.0000 23.3381 0.0000 0.0000
# 5 0.0000 0.0000 0.0000 0.0000 34.3829 0.0000
# 6 0.0000 0.0000 0.0000 0.0000 0.0000 21.3573
#
#
#
# Elastic Compliance Matrix: (Units=1/GPa)
#
#
# Indices 1 2 3 4 5 6 
#
# 1 0.031565 -0.005270 -0.016884 0.000000 0.000000 0.000000
# 2 -0.005270 0.011089 -0.005885 0.000000 0.000000 0.000000
# 3 -0.016884 -0.005885 0.035521 0.000000 0.000000 0.000000
# 4 0.000000 0.000000 0.000000 0.042848 0.000000 0.000000
# 5 0.000000 0.000000 0.000000 0.000000 0.029084 0.000000
# 6 0.000000 0.000000 0.000000 0.000000 0.000000 0.046822
#
#
# Mechanical properties :
#
#
# Convention : Reuss Voigt Hill
#
# Bulk Modulus (GPa) = 45.25649 55.63455 50.44552
# Shear Modulus (GPa) = 19.20306 23.82344 21.51325
#
# Velocity S-wave (km/s) = 3.15786 3.51730 3.34241
# Velocity P-wave (km/s) = 6.06610 6.73691 6.41029
#
# Compressibility (1/GPa) = 0.02209628
#
# Stress axis : x y z
#
# Youngs Moduli (GPa) = 31.68028 90.17992 28.15220
#
# Poissons Ratio (x) = 0.47526 0.47532
# Poissons Ratio (y) = 0.16696 0.16569
# Poissons Ratio (z) = 0.53489 0.53075
#
# Static dielectric constant tensor:
#      x y z
#    x 1.694200 0.000000 0.000000 
#    y 0.000000 1.681380 0.000000 
#    z 0.000000 0.000000 1.731380 
# 
# From -- ./inp_files/32235.got.cif
#   From: 2010.05.17/outbox.cif.g08.bks.cpg/sg62_17_cif.got.tgz:32235.got - 2010.06.03 15:25:27.
