data_PCOD9463745
_publ_section_title
;
Structure prediction by ZEFSAII (Michael W. Deem and Ramdas Pophale) SiO2 
 PCOD9463745
Probable space group: P N M A
;
_chemical_formula_sum "Si O2"
_cell_formula_units_Z 64
_cell_length_a 14.573797
_cell_length_b 19.314790
_cell_length_c 12.264296
_cell_angle_alpha 90.000000
_cell_angle_beta 90.000000
_cell_angle_gamma 90.000000
_cell_volume 3452.274578
_symmetry_space_group_name_H-M "P N M A"
_symmetry_group_IT_number 62
_symmetry_cell_setting 'orthorhombic'
loop_
_space_group_symop_operation_xyz
x,y,z
1/2-x,-y,1/2+z
1/2+x,1/2-y,1/2-z
-x,1/2+y,-z
-x,-y,-z
1/2+x,y,1/2-z
1/2-x,1/2+y,1/2+z
x,1/2-y,z
loop_
_atom_site_type_symbol
_atom_site_label
_atom_site_fract_x
_atom_site_fract_y
_atom_site_fract_z
Si Si1 0.189468 0.565369 0.447263
Si Si2 0.827495 0.325847 0.912125
Si Si3 0.004274 0.347417 0.760627
Si Si4 0.352399 0.021109 0.510090
Si Si5 0.951266 0.952442 0.593487
Si Si6 0.211900 0.175375 0.797262
Si Si7 0.530518 0.829005 0.008101
Si Si8 0.511512 0.504693 0.684558
O O1 0.264131 0.527626 0.522075
O O2 0.138568 0.500101 0.390401
O O3 0.242756 0.612521 0.360532
O O4 0.118980 0.619637 0.503525
O O5 0.824476 0.250000 0.967613
O O6 0.830361 0.397591 0.976659
O O7 0.742907 0.329588 0.828015
O O8 0.919718 0.327157 0.837436
O O9 0.102593 0.324327 0.804677
O O10 0.986216 0.324903 0.637710
O O11 0.011228 0.429823 0.760148
O O12 0.399936 0.012851 0.391812
O O13 0.426153 0.996777 0.600613
O O14 0.000146 0.946461 0.711044
O O15 0.948965 0.875199 0.544490
O O16 0.000000 0.000000 0.500000
O O17 0.247787 0.250000 0.838524
O O18 0.539890 0.750000 0.967408
#
# Coordination Sequence:
#
# PCOD9463745 Si02
#       8
#     8   8   8   8   8   8   8   8
#     4  11  20  36  56  87 115 150 196 238 297 347
#     4  10  21  37  55  86 122 154 197 246 303 358
#     4  11  19  35  59  86 117 151 191 246 305 351
#     4  10  22  35  60  85 119 161 191 240 291 358
#     4  10  21  38  59  84 113 154 198 242 286 346
#     4  11  21  32  56  88 121 153 192 252 305 345
#     4  11  22  38  59  84 117 150 193 250 303 347
#     4  10  19  40  57  85 120 154 200 236 287 352
#
# _framework density 18.538502000000001
#
# number of rings (size 3 to 8) (size 9 to 14) (size 15 to 20)
#    0.000    1.500    5.000    2.250    1.750    0.000 
#    4.500    0.625    0.000    1.500    0.000    0.000 
#    0.000    0.000    0.000    0.000    0.000    0.000 
#
# Total GULP energy -356543.281460 kJ/mol
# GULP energy per Si atom -5570.988773 kJ/mol
# Density = 1.849631 g / cm^3
# Si number density = 18.538502 Si / 1000 Ang^3
#
#
#
# Elastic Constant Matrix: (Units=GPa)
#
#
# Indices 1 2 3 4 5 6 
#
# 1 49.3758 29.9971 4.0665 0.0000 0.0000 0.0000
# 2 29.9971 149.0434 25.1461 0.0000 0.0000 0.0000
# 3 4.0665 25.1461 54.1337 0.0000 0.0000 0.0000
# 4 0.0000 0.0000 0.0000 13.8773 0.0000 0.0000
# 5 0.0000 0.0000 0.0000 0.0000 13.7649 0.0000
# 6 0.0000 0.0000 0.0000 0.0000 0.0000 1.2355
#
#
#
# Elastic Compliance Matrix: (Units=1/GPa)
#
#
# Indices 1 2 3 4 5 6 
#
# 1 0.023085 -0.004724 0.000460 0.000000 0.000000 0.000000
# 2 -0.004724 0.008247 -0.003476 0.000000 0.000000 0.000000
# 3 0.000460 -0.003476 0.020053 0.000000 0.000000 0.000000
# 4 0.000000 0.000000 0.000000 0.072060 0.000000 0.000000
# 5 0.000000 0.000000 0.000000 0.000000 0.072649 0.000000
# 6 0.000000 0.000000 0.000000 0.000000 0.000000 0.809380
#
#
# Mechanical properties :
#
#
# Convention : Reuss Voigt Hill
#
# Bulk Modulus (GPa) = 27.85107 41.21913 34.53510
# Shear Modulus (GPa) = 4.84064 18.66509 11.75287
#
# Velocity S-wave (km/s) = 1.61765 3.17650 2.52061
# Velocity P-wave (km/s) = 4.30640 5.97797 5.20966
#
# Compressibility (1/GPa) = 0.03590526
#
# Stress axis : x y z
#
# Youngs Moduli (GPa) = 43.31860 121.26184 49.86833
#
# Poissons Ratio (x) = 0.57281 -0.02295
# Poissons Ratio (y) = 0.20463 0.17333
# Poissons Ratio (z) = -0.01993 0.42149
#
# Static dielectric constant tensor:
#      x y z
#    x 1.717120 0.000000 0.000000 
#    y 0.000000 1.680440 0.000000 
#    z 0.000000 0.000000 1.624030 
# 
# From -- ./inp_files/13585.got.cif
#   From: 2010.05.17/outbox.cif.g08.bks.cpg/sg62_7_cif.got.tgz:13585.got - 2010.06.03 15:25:27.
