data_PCOD9463707
_publ_section_title
;
Structure prediction by ZEFSAII (Michael W. Deem and Ramdas Pophale) SiO2 
 PCOD9463707
Probable space group: P N M A
;
_chemical_formula_sum "Si O2"
_cell_formula_units_Z 40
_cell_length_a 11.541757
_cell_length_b 10.351144
_cell_length_c 15.737128
_cell_angle_alpha 90.000000
_cell_angle_beta 90.000000
_cell_angle_gamma 90.000000
_cell_volume 1880.120799
_symmetry_space_group_name_H-M "P N M A"
_symmetry_group_IT_number 62
_symmetry_cell_setting 'orthorhombic'
loop_
_space_group_symop_operation_xyz
x,y,z
1/2-x,-y,1/2+z
1/2+x,1/2-y,1/2-z
-x,1/2+y,-z
-x,-y,-z
1/2+x,y,1/2-z
1/2-x,1/2+y,1/2+z
x,1/2-y,z
loop_
_atom_site_type_symbol
_atom_site_label
_atom_site_fract_x
_atom_site_fract_y
_atom_site_fract_z
Si Si1 0.261902 0.250000 0.882249
Si Si2 0.785379 0.479082 0.371687
Si Si3 0.364710 0.750000 0.067734
Si Si4 0.422246 0.250000 0.047856
Si Si5 0.470088 0.250000 0.766338
Si Si6 0.465650 0.607303 0.568047
Si Si7 0.384657 0.969862 0.311589
O O1 0.339393 0.250000 0.796636
O O2 0.188206 0.119731 0.875724
O O3 0.342041 0.250000 0.963828
O O4 0.795631 0.616669 0.420262
O O5 0.884953 0.379360 0.402686
O O6 0.661477 0.418574 0.393667
O O7 0.809485 0.500757 0.271872
O O8 0.451809 0.750000 0.148611
O O9 0.445471 0.750000 0.984304
O O10 0.508758 0.376945 0.716310
O O11 0.500000 0.500000 0.500000
O O12 0.468835 0.750000 0.530412
O O13 0.560346 0.591570 0.642550
#
# Coordination Sequence:
#
# PCOD9463707 Si02
#       7
#     4   8   4   4   4   8   8
#     4  10  19  38  63  92 125 175 220 271 325 401
#     4  11  23  43  68  99 136 175 221 284 332 397
#     4   9  21  38  65  99 127 178 218 263 332 402
#     4  11  21  39  67  96 142 168 216 279 341 387
#     4   8  17  35  61  95 124 167 220 267 322 396
#     4  12  28  45  68  97 136 180 223 281 345 408
#     4  10  22  38  67  94 130 173 228 268 332 401
#
# _framework density 21.275229
#
# number of rings (size 3 to 8) (size 9 to 14) (size 15 to 20)
#    0.000    1.600    1.000    3.600    5.600    0.000 
#    0.000    2.000    0.000    0.000    0.000    0.000 
#    0.000    0.000    0.000    0.000    0.000    0.000 
#
# Total GULP energy -223640.181060 kJ/mol
# GULP energy per Si atom -5591.004527 kJ/mol
# Density = 2.122681 g / cm^3
# Si number density = 21.275229 Si / 1000 Ang^3
#
#
#
# Elastic Constant Matrix: (Units=GPa)
#
#
# Indices 1 2 3 4 5 6 
#
# 1 56.9283 19.9942 8.5550 0.0000 0.0000 0.0000
# 2 19.9942 140.5714 26.4525 0.0000 0.0000 0.0000
# 3 8.5550 26.4525 65.9653 0.0000 0.0000 0.0000
# 4 0.0000 0.0000 0.0000 7.7927 0.0000 0.0000
# 5 0.0000 0.0000 0.0000 0.0000 31.9110 0.0000
# 6 0.0000 0.0000 0.0000 0.0000 0.0000 27.3878
#
#
#
# Elastic Compliance Matrix: (Units=1/GPa)
#
#
# Indices 1 2 3 4 5 6 
#
# 1 0.018619 -0.002373 -0.001463 0.000000 0.000000 0.000000
# 2 -0.002373 0.007997 -0.002899 0.000000 0.000000 0.000000
# 3 -0.001463 -0.002899 0.016512 0.000000 0.000000 0.000000
# 4 0.000000 0.000000 0.000000 0.128324 0.000000 0.000000
# 5 0.000000 0.000000 0.000000 0.000000 0.031337 0.000000
# 6 0.000000 0.000000 0.000000 0.000000 0.000000 0.036513
#
#
# Mechanical properties :
#
#
# Convention : Reuss Voigt Hill
#
# Bulk Modulus (GPa) = 33.71820 41.49650 37.60735
# Shear Modulus (GPa) = 19.03613 27.31584 23.17598
#
# Velocity S-wave (km/s) = 2.99449 3.58708 3.30410
# Velocity P-wave (km/s) = 5.27626 6.05831 5.68076
#
# Compressibility (1/GPa) = 0.02965757
#
# Stress axis : x y z
#
# Youngs Moduli (GPa) = 53.70780 125.04864 60.56280
#
# Poissons Ratio (x) = 0.29674 0.08861
# Poissons Ratio (y) = 0.12745 0.17557
# Poissons Ratio (z) = 0.07858 0.36252
#
# Static dielectric constant tensor:
#      x y z
#    x 1.754840 0.000000 0.000000 
#    y 0.000000 1.758360 0.000000 
#    z 0.000000 0.000000 1.780570 
# 
# From -- ./inp_files/22850.got.cif
#   From: 2010.05.17/outbox.cif.g08.bks.cpg/sg62_12_cif.got.tgz:22850.got - 2010.06.03 15:25:27.
