data_PCOD9463143
_publ_section_title
;
Structure prediction by ZEFSAII (Michael W. Deem and Ramdas Pophale) SiO2 
 PCOD9463143
Probable space group: P N M A
;
_chemical_formula_sum "Si O2"
_cell_formula_units_Z 64
_cell_length_a 16.812647
_cell_length_b 7.901341
_cell_length_c 23.281349
_cell_angle_alpha 90.000000
_cell_angle_beta 90.000000
_cell_angle_gamma 90.000000
_cell_volume 3092.751605
_symmetry_space_group_name_H-M "P N M A"
_symmetry_group_IT_number 62
_symmetry_cell_setting 'orthorhombic'
loop_
_space_group_symop_operation_xyz
x,y,z
1/2-x,-y,1/2+z
1/2+x,1/2-y,1/2-z
-x,1/2+y,-z
-x,-y,-z
1/2+x,y,1/2-z
1/2-x,1/2+y,1/2+z
x,1/2-y,z
loop_
_atom_site_type_symbol
_atom_site_label
_atom_site_fract_x
_atom_site_fract_y
_atom_site_fract_z
Si Si1 0.932852 0.954926 0.453168
Si Si2 0.808913 0.556928 0.841294
Si Si3 0.254123 0.945265 0.045271
Si Si4 0.199213 0.050342 0.749111
Si Si5 0.379061 0.045820 0.356430
Si Si6 0.591851 0.545881 0.514133
Si Si7 0.457150 0.547221 0.177768
Si Si8 0.034679 0.454058 0.211392
O O1 0.928284 0.750000 0.450914
O O2 0.842426 0.016847 0.468064
O O3 0.955789 0.014295 0.388196
O O4 0.000000 0.000000 0.500000
O O5 0.813674 0.750000 0.862051
O O6 0.755724 0.455661 0.886058
O O7 0.770069 0.550862 0.778973
O O8 0.894734 0.480712 0.828806
O O9 0.256099 0.750000 0.025944
O O10 0.168577 0.015499 0.022960
O O11 0.208642 0.250000 0.739231
O O12 0.121575 0.989980 0.712827
O O13 0.191675 0.017705 0.816598
O O14 0.377824 0.250000 0.356588
O O15 0.387389 0.989110 0.421347
O O16 0.455570 0.986860 0.320671
O O17 0.500000 0.500000 0.500000
O O18 0.592683 0.750000 0.511396
O O19 0.454546 0.750000 0.175379
O O20 0.528416 0.500998 0.221583
O O21 0.038804 0.250000 0.208737
#
# Coordination Sequence:
#
# PCOD9463143 Si02
#       8
#     8   8   8   8   8   8   8   8
#     4  10  21  39  59  81 111 150 198 248 295 345
#     4  11  21  34  55  84 113 143 184 234 284 339
#     4  10  21  39  60  84 116 157 200 242 291 347
#     4  10  19  34  56  79 107 143 180 225 279 339
#     4   9  18  35  54  77 110 146 184 225 276 337
#     4  10  21  37  60  86 120 160 195 239 293 349
#     4   9  18  35  56  77 106 140 179 229 283 338
#     4   9  19  33  52  80 111 141 178 226 277 336
#
# _framework density 20.693546999999999
#
# number of rings (size 3 to 8) (size 9 to 14) (size 15 to 20)
#    0.000    2.250    1.250    1.500    0.000    4.500 
#    2.250    2.500    0.000    0.000    0.000    0.000 
#    0.000    0.000    0.000    0.000    0.000    0.000 
#
# Total GULP energy -356450.537495 kJ/mol
# GULP energy per Si atom -5569.539648 kJ/mol
# Density = 2.064645 g / cm^3
# Si number density = 20.693547 Si / 1000 Ang^3
#
#
#
# Elastic Constant Matrix: (Units=GPa)
#
#
# Indices 1 2 3 4 5 6 
#
# 1 92.7722 5.9614 31.9268 0.0000 0.0000 0.0000
# 2 5.9614 21.6737 8.7822 0.0000 0.0000 0.0000
# 3 31.9268 8.7822 99.1356 0.0000 0.0000 0.0000
# 4 0.0000 0.0000 0.0000 19.3178 0.0000 0.0000
# 5 0.0000 0.0000 0.0000 0.0000 33.4723 0.0000
# 6 0.0000 0.0000 0.0000 0.0000 0.0000 18.2596
#
#
#
# Elastic Compliance Matrix: (Units=1/GPa)
#
#
# Indices 1 2 3 4 5 6 
#
# 1 0.012192 -0.001828 -0.003765 0.000000 0.000000 0.000000
# 2 -0.001828 0.048131 -0.003675 0.000000 0.000000 0.000000
# 3 -0.003765 -0.003675 0.011625 0.000000 0.000000 0.000000
# 4 0.000000 0.000000 0.000000 0.051766 0.000000 0.000000
# 5 0.000000 0.000000 0.000000 0.000000 0.029875 0.000000
# 6 0.000000 0.000000 0.000000 0.000000 0.000000 0.054766
#
#
# Mechanical properties :
#
#
# Convention : Reuss Voigt Hill
#
# Bulk Modulus (GPa) = 18.72217 34.10248 26.41232
# Shear Modulus (GPa) = 20.43367 25.33737 22.88552
#
# Velocity S-wave (km/s) = 3.14577 3.50295 3.32915
# Velocity P-wave (km/s) = 4.71820 5.73380 5.25061
#
# Compressibility (1/GPa) = 0.05341261
#
# Stress axis : x y z
#
# Youngs Moduli (GPa) = 82.02036 20.77674 86.02053
#
# Poissons Ratio (x) = 0.03798 0.32383
# Poissons Ratio (y) = 0.14994 0.31613
# Poissons Ratio (z) = 0.30877 0.07636
#
# Static dielectric constant tensor:
#      x y z
#    x 1.800590 0.000000 0.000000 
#    y 0.000000 1.756250 0.000000 
#    z 0.000000 0.000000 1.779760 
# 
# From -- ./inp_files/27754.got.cif
#   From: 2010.05.17/outbox.cif.g08.bks.cpg/sg62_14_cif.got.tgz:27754.got - 2010.06.03 15:25:27.
