data_PCOD9463667
_publ_section_title
;
Structure prediction by ZEFSAII (Michael W. Deem and Ramdas Pophale) SiO2 
 PCOD9463667
Probable space group: P N M A
;
_chemical_formula_sum "Si O2"
_cell_formula_units_Z 64
_cell_length_a 18.417667
_cell_length_b 11.385946
_cell_length_c 16.248139
_cell_angle_alpha 90.000000
_cell_angle_beta 90.000000
_cell_angle_gamma 90.000000
_cell_volume 3407.276375
_symmetry_space_group_name_H-M "P N M A"
_symmetry_group_IT_number 62
_symmetry_cell_setting 'orthorhombic'
loop_
_space_group_symop_operation_xyz
x,y,z
1/2-x,-y,1/2+z
1/2+x,1/2-y,1/2-z
-x,1/2+y,-z
-x,-y,-z
1/2+x,y,1/2-z
1/2-x,1/2+y,1/2+z
x,1/2-y,z
loop_
_atom_site_type_symbol
_atom_site_label
_atom_site_fract_x
_atom_site_fract_y
_atom_site_fract_z
Si Si1 0.632704 0.380750 0.750958
Si Si2 0.481171 0.880420 0.905988
Si Si3 0.603943 0.390283 0.254517
Si Si4 0.393440 0.941694 0.064881
Si Si5 0.005603 0.038490 0.863930
Si Si6 0.591274 0.881904 0.507006
Si Si7 0.267633 0.389239 0.287217
Si Si8 0.251668 0.887731 0.984200
O O1 0.663430 0.250000 0.728345
O O2 0.617966 0.379265 0.848376
O O3 0.557494 0.397447 0.700992
O O4 0.679380 0.500821 0.734044
O O5 0.499668 0.750000 0.880617
O O6 0.427266 0.926820 0.835362
O O7 0.555567 0.949095 0.914287
O O8 0.438880 0.879744 0.992333
O O9 0.594858 0.250000 0.264303
O O10 0.553976 0.458266 0.318772
O O11 0.690175 0.411218 0.256926
O O12 0.315007 0.962934 0.024832
O O13 0.961014 0.116190 0.928655
O O14 0.057698 0.960216 0.921531
O O15 0.599536 0.750000 0.539263
O O16 0.672149 0.921843 0.483929
O O17 0.289797 0.250000 0.271077
O O18 0.252149 0.395238 0.385377
O O19 0.266710 0.750000 0.004686
#
# Coordination Sequence:
#
# PCOD9463667 Si02
#       8
#     8   8   8   8   8   8   8   8
#     4  12  25  40  60  93 133 168 202 255 319 372
#     4  10  20  37  62  89 119 160 209 257 304 367
#     4  10  20  38  64  92 119 155 208 265 309 358
#     4  11  22  37  60  88 126 163 203 249 309 381
#     4  11  22  39  61  89 123 155 201 258 315 370
#     4  10  22  39  62  85 112 158 209 252 304 370
#     4  10  22  41  65  90 118 159 212 259 305 366
#     4  10  19  37  63  84 109 154 206 250 294 363
#
# _framework density 18.783332000000001
#
# number of rings (size 3 to 8) (size 9 to 14) (size 15 to 20)
#    0.000    1.500    3.750    1.875    1.750    1.000 
#    0.000    1.250    0.000    0.000    0.000    0.000 
#    0.000    0.000    0.000    0.000    0.000    0.000 
#
# Total GULP energy -356662.235285 kJ/mol
# GULP energy per Si atom -5572.847426 kJ/mol
# Density = 1.874058 g / cm^3
# Si number density = 18.783332 Si / 1000 Ang^3
#
#
#
# Elastic Constant Matrix: (Units=GPa)
#
#
# Indices 1 2 3 4 5 6 
#
# 1 113.5652 57.2368 20.8598 0.0000 0.0000 0.0000
# 2 57.2368 77.7414 20.2134 0.0000 0.0000 0.0000
# 3 20.8598 20.2134 76.2395 0.0000 0.0000 0.0000
# 4 0.0000 0.0000 0.0000 -5.1990 0.0000 0.0000
# 5 0.0000 0.0000 0.0000 0.0000 28.6536 0.0000
# 6 0.0000 0.0000 0.0000 0.0000 0.0000 -3.9975
#
#
#
# Elastic Compliance Matrix: (Units=1/GPa)
#
#
# Indices 1 2 3 4 5 6 
#
# 1 0.014100 -0.010072 -0.001187 0.000000 0.000000 0.000000
# 2 -0.010072 0.021011 -0.002815 0.000000 0.000000 0.000000
# 3 -0.001187 -0.002815 0.014188 0.000000 0.000000 0.000000
# 4 0.000000 0.000000 0.000000 -0.192345 0.000000 0.000000
# 5 0.000000 0.000000 0.000000 0.000000 0.034900 0.000000
# 6 0.000000 0.000000 0.000000 0.000000 0.000000 -0.250157
#
#
# Mechanical properties :
#
#
# Convention : Reuss Voigt Hill
#
# Bulk Modulus (GPa) = 47.28229 51.57400 49.42815
# Shear Modulus (GPa) = -15.47485 15.17383 -0.15051
#
# Velocity S-wave (km/s) = -2.87341 2.84533 -0.28338
# Velocity P-wave (km/s) = 3.77074 6.18962 5.12493
#
# Compressibility (1/GPa) = 0.02114957
#
# Stress axis : x y z
#
# Youngs Moduli (GPa) = 70.92139 47.59465 70.48355
#
# Poissons Ratio (x) = 0.47939 0.08369
# Poissons Ratio (y) = 0.71435 0.19839
# Poissons Ratio (z) = 0.08421 0.13396
#
# Static dielectric constant tensor:
#      x y z
#    x 1.657320 0.000000 0.000000 
#    y 0.000000 1.675640 0.000000 
#    z 0.000000 0.000000 1.644600 
# 
# From -- ./inp_files/19903.got.cif
#   From: 2010.05.17/outbox.cif.g08.bks.cpg/sg62_10_cif.got.tgz:19903.got - 2010.06.03 15:25:27.
