data_PCOD9463422
_publ_section_title
;
Structure prediction by ZEFSAII (Michael W. Deem and Ramdas Pophale) SiO2 
 PCOD9463422
Probable space group: P N M A
;
_chemical_formula_sum "Si O2"
_cell_formula_units_Z 64
_cell_length_a 28.628498
_cell_length_b 7.835285
_cell_length_c 12.490797
_cell_angle_alpha 90.000000
_cell_angle_beta 90.000000
_cell_angle_gamma 90.000000
_cell_volume 2801.841165
_symmetry_space_group_name_H-M "P N M A"
_symmetry_group_IT_number 62
_symmetry_cell_setting 'orthorhombic'
loop_
_space_group_symop_operation_xyz
x,y,z
1/2-x,-y,1/2+z
1/2+x,1/2-y,1/2-z
-x,1/2+y,-z
-x,-y,-z
1/2+x,y,1/2-z
1/2-x,1/2+y,1/2+z
x,1/2-y,z
loop_
_atom_site_type_symbol
_atom_site_label
_atom_site_fract_x
_atom_site_fract_y
_atom_site_fract_z
Si Si1 0.908104 0.458190 0.601379
Si Si2 0.114569 0.453081 0.800625
Si Si3 0.806720 0.444041 0.643865
Si Si4 0.665886 0.445063 0.370329
Si Si5 0.445745 0.051205 0.119363
Si Si6 0.793056 0.054657 0.078817
Si Si7 0.068291 0.457226 0.014602
Si Si8 0.477590 0.952225 0.720051
O O1 0.908690 0.250000 0.604533
O O2 0.854243 0.511798 0.590094
O O3 0.937969 0.519391 0.499095
O O4 0.930398 0.524834 0.710924
O O5 0.108763 0.250000 0.791369
O O6 0.101473 0.537017 0.688521
O O7 0.166819 0.487601 0.841413
O O8 0.078432 0.517633 0.893739
O O9 0.799437 0.250000 0.607792
O O10 0.818818 0.446831 0.769550
O O11 0.758818 0.540486 0.623848
O O12 0.661313 0.250000 0.333620
O O13 0.702359 0.455856 0.467299
O O14 0.617108 0.496297 0.424981
O O15 0.458075 0.250000 0.105347
O O16 0.483948 0.970979 0.199324
O O17 0.695339 0.750000 0.555738
O O18 0.064588 0.250000 0.009545
O O19 0.029583 0.522343 0.099455
O O20 0.486684 0.750000 0.708189
#
# Coordination Sequence:
#
# PCOD9463422 Si02
#       8
#     8   8   8   8   8   8   8   8
#     4  10  22  38  56  83 119 153 194 247 295 348
#     4  10  21  39  59  82 116 155 197 245 299 359
#     4  11  22  37  58  85 115 151 197 243 295 357
#     4  10  19  36  59  83 115 149 188 241 296 348
#     4  10  22  38  56  83 122 162 198 243 298 353
#     4  11  23  39  60  86 116 151 194 242 301 363
#     4   8  16  32  56  83 111 144 188 241 291 340
#     4  10  19  35  60  86 114 154 201 245 295 355
#
# _framework density 22.842123999999998
#
# number of rings (size 3 to 8) (size 9 to 14) (size 15 to 20)
#    0.000    2.000    1.250    3.375    0.000    3.000 
#    0.000    4.375    0.000    0.000    0.000    0.000 
#    0.000    0.000    0.000    0.000    0.000    0.000 
#
# Total GULP energy -357511.880941 kJ/mol
# GULP energy per Si atom -5586.123140 kJ/mol
# Density = 2.279013 g / cm^3
# Si number density = 22.842124 Si / 1000 Ang^3
#
#
#
# Elastic Constant Matrix: (Units=GPa)
#
#
# Indices 1 2 3 4 5 6 
#
# 1 70.0521 1.5035 3.0368 0.0000 0.0000 0.0000
# 2 1.5035 47.0511 -6.4720 0.0000 0.0000 0.0000
# 3 3.0368 -6.4720 98.4119 0.0000 0.0000 0.0000
# 4 0.0000 0.0000 0.0000 18.4070 0.0000 0.0000
# 5 0.0000 0.0000 0.0000 0.0000 30.0056 0.0000
# 6 0.0000 0.0000 0.0000 0.0000 0.0000 17.8137
#
#
#
# Elastic Compliance Matrix: (Units=1/GPa)
#
#
# Indices 1 2 3 4 5 6 
#
# 1 0.014307 -0.000523 -0.000476 0.000000 0.000000 0.000000
# 2 -0.000523 0.021467 0.001428 0.000000 0.000000 0.000000
# 3 -0.000476 0.001428 0.010270 0.000000 0.000000 0.000000
# 4 0.000000 0.000000 0.000000 0.054327 0.000000 0.000000
# 5 0.000000 0.000000 0.000000 0.000000 0.033327 0.000000
# 6 0.000000 0.000000 0.000000 0.000000 0.000000 0.056137
#
#
# Mechanical properties :
#
#
# Convention : Reuss Voigt Hill
#
# Bulk Modulus (GPa) = 21.32093 23.51685 22.41889
# Shear Modulus (GPa) = 24.43676 27.74170 26.08923
#
# Velocity S-wave (km/s) = 3.27435 3.48874 3.38324
# Velocity P-wave (km/s) = 4.86307 5.15230 5.00977
#
# Compressibility (1/GPa) = 0.04690227
#
# Stress axis : x y z
#
# Youngs Moduli (GPa) = 69.89621 46.58404 97.37132
#
# Poissons Ratio (x) = 0.02435 0.04633
# Poissons Ratio (y) = 0.03653 -0.13903
# Poissons Ratio (z) = 0.03326 -0.06652
#
# Static dielectric constant tensor:
#      x y z
#    x 1.899660 0.000000 0.000000 
#    y 0.000000 1.806990 0.000000 
#    z 0.000000 0.000000 1.844380 
# 
# From -- ./inp_files/15846.got.cif
#   From: 2010.05.17/outbox.cif.g08.bks.cpg/sg62_8_cif.got.tgz:15846.got - 2010.06.03 15:25:27.
