data_PCOD9463784
_publ_section_title
;
Structure prediction by ZEFSAII (Michael W. Deem and Ramdas Pophale) SiO2 
 PCOD9463784
Probable space group: P N M A
;
_chemical_formula_sum "Si O2"
_cell_formula_units_Z 56
_cell_length_a 7.146593
_cell_length_b 24.476666
_cell_length_c 17.856678
_cell_angle_alpha 90.000000
_cell_angle_beta 90.000000
_cell_angle_gamma 90.000000
_cell_volume 3123.575290
_symmetry_space_group_name_H-M "P N M A"
_symmetry_group_IT_number 62
_symmetry_cell_setting 'orthorhombic'
loop_
_space_group_symop_operation_xyz
x,y,z
1/2-x,-y,1/2+z
1/2+x,1/2-y,1/2-z
-x,1/2+y,-z
-x,-y,-z
1/2+x,y,1/2-z
1/2-x,1/2+y,1/2+z
x,1/2-y,z
loop_
_atom_site_type_symbol
_atom_site_label
_atom_site_fract_x
_atom_site_fract_y
_atom_site_fract_z
Si Si1 0.623560 0.812043 0.071302
Si Si2 0.570373 0.010159 0.894495
Si Si3 0.949383 0.428920 0.926925
Si Si4 0.183182 0.691726 0.101050
Si Si5 0.803662 0.425106 0.496525
Si Si6 0.192452 0.649934 0.261013
Si Si7 0.941110 0.566181 0.241073
O O1 0.678297 0.750000 0.051959
O O2 0.398437 0.812813 0.076646
O O3 0.675320 0.861394 0.015828
O O4 0.698007 0.827314 0.154724
O O5 0.402292 0.040486 0.936773
O O6 0.561894 0.021334 0.806556
O O7 0.750263 0.042561 0.926723
O O8 0.600198 0.948459 0.922103
O O9 0.085303 0.439354 0.995916
O O10 0.042292 0.445697 0.847299
O O11 0.917248 0.363626 0.923137
O O12 0.107520 0.750000 0.074681
O O13 0.182176 0.689941 0.190920
O O14 0.192999 0.581079 0.253861
O O15 0.940842 0.634469 0.255149
#
# Coordination Sequence:
#
# PCOD9463784 Si02
#       7
#     8   8   8   8   8   8   8
#     4  11  20  32  46  68 100 136 170 203 243 294
#     4  11  21  36  50  70 102 132 171 215 251 298
#     4  11  20  34  53  70  98 132 176 208 255 288
#     4  10  20  30  44  66  99 134 169 210 237 274
#     4  11  22  35  51  72  96 139 171 207 258 294
#     4  11  16  30  42  65  96 129 170 197 239 275
#     4  11  17  29  51  66  96 132 166 212 241 281
#
# _framework density 17.928175
#
# number of rings (size 3 to 8) (size 9 to 14) (size 15 to 20)
#    0.000    1.143    8.571    0.857    0.000    0.571 
#    0.000    0.000    0.000    0.000    0.000    0.000 
#    0.000    1.143    0.000    0.000    0.000    0.000 
#
# Total GULP energy -311928.012213 kJ/mol
# GULP energy per Si atom -5570.143075 kJ/mol
# Density = 1.788737 g / cm^3
# Si number density = 17.928175 Si / 1000 Ang^3
#
#
#
# Elastic Constant Matrix: (Units=GPa)
#
#
# Indices 1 2 3 4 5 6 
#
# 1 94.5461 13.7912 5.3708 0.0000 0.0000 0.0000
# 2 13.7912 99.7150 28.0533 0.0000 0.0000 0.0000
# 3 5.3708 28.0533 28.1885 0.0000 0.0000 0.0000
# 4 0.0000 0.0000 0.0000 20.3972 0.0000 0.0000
# 5 0.0000 0.0000 0.0000 0.0000 17.1882 0.0000
# 6 0.0000 0.0000 0.0000 0.0000 0.0000 6.5623
#
#
#
# Elastic Compliance Matrix: (Units=1/GPa)
#
#
# Indices 1 2 3 4 5 6 
#
# 1 0.010807 -0.001271 -0.000794 0.000000 0.000000 0.000000
# 2 -0.001271 0.014078 -0.013768 0.000000 0.000000 0.000000
# 3 -0.000794 -0.013768 0.049329 0.000000 0.000000 0.000000
# 4 0.000000 0.000000 0.000000 0.049026 0.000000 0.000000
# 5 0.000000 0.000000 0.000000 0.000000 0.058179 0.000000
# 6 0.000000 0.000000 0.000000 0.000000 0.000000 0.152387
#
#
# Mechanical properties :
#
#
# Convention : Reuss Voigt Hill
#
# Bulk Modulus (GPa) = 23.50320 35.20891 29.35605
# Shear Modulus (GPa) = 13.16983 20.51183 16.84083
#
# Velocity S-wave (km/s) = 2.71327 3.38614 3.06821
# Velocity P-wave (km/s) = 4.79102 5.91350 5.38160
#
# Compressibility (1/GPa) = 0.04254740
#
# Stress axis : x y z
#
# Youngs Moduli (GPa) = 92.52920 71.03338 20.27209
#
# Poissons Ratio (x) = 0.09031 0.01609
# Poissons Ratio (y) = 0.11764 0.27911
# Poissons Ratio (z) = 0.07345 0.97800
#
# Static dielectric constant tensor:
#      x y z
#    x 2.370760 0.000000 0.000000 
#    y 0.000000 1.638250 0.000000 
#    z 0.000000 0.000000 1.539190 
# 
# From -- ./inp_files/22603.got.cif
#   From: 2010.05.17/outbox.cif.g08.bks.cpg/sg62_12_cif.got.tgz:22603.got - 2010.06.03 15:25:27.
