data_PCOD9463882
_publ_section_title
;
Structure prediction by ZEFSAII (Michael W. Deem and Ramdas Pophale) SiO2 
 PCOD9463882
Probable space group: P N M A
;
_chemical_formula_sum "Si O2"
_cell_formula_units_Z 40
_cell_length_a 8.435979
_cell_length_b 14.263630
_cell_length_c 16.629726
_cell_angle_alpha 90.000000
_cell_angle_beta 90.000000
_cell_angle_gamma 90.000000
_cell_volume 2001.016401
_symmetry_space_group_name_H-M "P N M A"
_symmetry_group_IT_number 62
_symmetry_cell_setting 'orthorhombic'
loop_
_space_group_symop_operation_xyz
x,y,z
1/2-x,-y,1/2+z
1/2+x,1/2-y,1/2-z
-x,1/2+y,-z
-x,-y,-z
1/2+x,y,1/2-z
1/2-x,1/2+y,1/2+z
x,1/2-y,z
loop_
_atom_site_type_symbol
_atom_site_label
_atom_site_fract_x
_atom_site_fract_y
_atom_site_fract_z
Si Si1 0.237412 0.536786 0.731262
Si Si2 0.555495 0.137780 0.492793
Si Si3 0.966166 0.250000 0.372291
Si Si4 0.452310 0.504189 0.366190
Si Si5 0.226034 0.250000 0.244195
Si Si6 0.403316 0.436092 0.060645
O O1 0.197879 0.477636 0.809873
O O2 0.412540 0.520855 0.698342
O O3 0.216488 0.644307 0.762138
O O4 0.133895 0.523159 0.649857
O O5 0.546056 0.250000 0.491091
O O6 0.508490 0.092772 0.578292
O O7 0.733655 0.097583 0.475509
O O8 0.448096 0.085070 0.426122
O O9 0.776754 0.250000 0.350266
O O10 0.002143 0.157743 0.421062
O O11 0.055673 0.250000 0.286907
O O12 0.500000 0.500000 0.000000
#
# Coordination Sequence:
#
# PCOD9463882 Si02
#       6
#     8   8   4   8   4   8
#     4  10  21  37  59  94 122 157 208 250 317 365
#     4  10  22  43  63  88 129 170 208 251 322 378
#     4  10  20  36  56  94 116 158 193 249 311 373
#     4  10  23  38  65  92 121 165 203 264 303 379
#     4  10  20  32  56  92 122 146 185 261 315 365
#     4  10  21  37  60  88 126 161 204 254 309 365
#
# _framework density 19.989840000000001
#
# number of rings (size 3 to 8) (size 9 to 14) (size 15 to 20)
#    0.000    2.000    1.000    2.400   11.200    0.000 
#    0.000    1.000    2.200    0.000    0.000    0.000 
#    0.000    0.000    0.000    0.000    0.000    0.000 
#
# Total GULP energy -222699.190708 kJ/mol
# GULP energy per Si atom -5567.479768 kJ/mol
# Density = 1.994434 g / cm^3
# Si number density = 19.989840 Si / 1000 Ang^3
#
#
#
# Elastic Constant Matrix: (Units=GPa)
#
#
# Indices 1 2 3 4 5 6 
#
# 1 31.9983 20.0963 34.2899 0.0000 0.0000 0.0000
# 2 20.0963 97.7086 46.2817 0.0000 0.0000 0.0000
# 3 34.2899 46.2817 103.3031 0.0000 0.0000 0.0000
# 4 0.0000 0.0000 0.0000 20.2337 0.0000 0.0000
# 5 0.0000 0.0000 0.0000 0.0000 36.1897 0.0000
# 6 0.0000 0.0000 0.0000 0.0000 0.0000 19.7564
#
#
#
# Elastic Compliance Matrix: (Units=1/GPa)
#
#
# Indices 1 2 3 4 5 6 
#
# 1 0.049200 -0.003026 -0.014976 0.000000 0.000000 0.000000
# 2 -0.003026 0.013178 -0.004899 0.000000 0.000000 0.000000
# 3 -0.014976 -0.004899 0.016846 0.000000 0.000000 0.000000
# 4 0.000000 0.000000 0.000000 0.049423 0.000000 0.000000
# 5 0.000000 0.000000 0.000000 0.000000 0.027632 0.000000
# 6 0.000000 0.000000 0.000000 0.000000 0.000000 0.050616
#
#
# Mechanical properties :
#
#
# Convention : Reuss Voigt Hill
#
# Bulk Modulus (GPa) = 29.92025 48.26064 39.09045
# Shear Modulus (GPa) = 18.95109 24.05877 21.50493
#
# Velocity S-wave (km/s) = 3.08236 3.47299 3.28349
# Velocity P-wave (km/s) = 5.26005 6.34643 5.82861
#
# Compressibility (1/GPa) = 0.03342218
#
# Stress axis : x y z
#
# Youngs Moduli (GPa) = 20.32522 75.88658 59.36063
#
# Poissons Ratio (x) = 0.22962 0.88896
# Poissons Ratio (y) = 0.06150 0.29083
# Poissons Ratio (z) = 0.30438 0.37180
#
# Static dielectric constant tensor:
#      x y z
#    x 1.820660 0.000000 0.000000 
#    y 0.000000 1.728600 0.000000 
#    z 0.000000 0.000000 1.715760 
# 
# From -- ./inp_files/16699.got.cif
#   From: 2010.05.17/outbox.cif.g08.bks.cpg/sg62_9_cif.got.tgz:16699.got - 2010.06.03 15:25:27.
