data_PCOD9463378
_publ_section_title
;
Structure prediction by ZEFSAII (Michael W. Deem and Ramdas Pophale) SiO2 
 PCOD9463378
Probable space group: P N M A
;
_chemical_formula_sum "Si O2"
_cell_formula_units_Z 44
_cell_length_a 18.297212
_cell_length_b 13.803508
_cell_length_c 8.489714
_cell_angle_alpha 90.000000
_cell_angle_beta 90.000000
_cell_angle_gamma 90.000000
_cell_volume 2144.210663
_symmetry_space_group_name_H-M "P N M A"
_symmetry_group_IT_number 62
_symmetry_cell_setting 'orthorhombic'
loop_
_space_group_symop_operation_xyz
x,y,z
1/2-x,-y,1/2+z
1/2+x,1/2-y,1/2-z
-x,1/2+y,-z
-x,-y,-z
1/2+x,y,1/2-z
1/2-x,1/2+y,1/2+z
x,1/2-y,z
loop_
_atom_site_type_symbol
_atom_site_label
_atom_site_fract_x
_atom_site_fract_y
_atom_site_fract_z
Si Si1 0.366834 0.750000 0.826707
Si Si2 0.925574 0.750000 0.311952
Si Si3 0.967321 0.417620 0.616094
Si Si4 0.761564 0.420901 0.966480
Si Si5 0.635213 0.750000 0.988869
Si Si6 0.273314 0.750000 0.278523
Si Si7 0.809517 0.250000 0.142241
Si Si8 0.649549 0.452771 0.251817
O O1 0.278568 0.750000 0.834672
O O2 0.386375 0.847660 0.738369
O O3 0.395774 0.750000 0.005740
O O4 0.859425 0.750000 0.188074
O O5 0.972465 0.848265 0.305215
O O6 0.913842 0.343295 0.526464
O O7 0.914481 0.470214 0.738509
O O8 0.000000 0.500000 0.500000
O O9 0.736540 0.347491 0.827536
O O10 0.796034 0.515840 0.889530
O O11 0.820770 0.351421 0.052892
O O12 0.697438 0.448915 0.088817
O O13 0.653650 0.750000 0.807661
O O14 0.710249 0.750000 0.090747
#
# Coordination Sequence:
#
# PCOD9463378 Si02
#       8
#     4   4   8   8   4   4   4   8
#     4  10  19  35  59  82 136 162 207 272 328 369
#     4  11  20  38  60  94 135 181 211 281 323 395
#     4  11  22  37  64  98 134 177 228 260 334 420
#     4  10  21  35  64  94 133 163 218 285 329 385
#     4  11  24  37  70 107 126 178 235 268 326 414
#     4  11  18  41  62 100 127 168 217 282 326 382
#     4   9  21  41  59  97 134 161 214 295 331 364
#     4  11  21  37  61 101 128 174 223 272 339 394
#
# _framework density 20.520371999999998
#
# number of rings (size 3 to 8) (size 9 to 14) (size 15 to 20)
#    0.000    1.455    7.273    0.000    5.091    0.000 
#    0.000    0.909    0.000    5.455    0.000    0.000 
#    0.000    0.000    0.000    0.000    0.000    0.000 
#
# Total GULP energy -245482.565080 kJ/mol
# GULP energy per Si atom -5579.149206 kJ/mol
# Density = 2.047367 g / cm^3
# Si number density = 20.520372 Si / 1000 Ang^3
#
#
#
# Elastic Constant Matrix: (Units=GPa)
#
#
# Indices 1 2 3 4 5 6 
#
# 1 84.0294 42.8088 17.1533 0.0000 0.0000 0.0000
# 2 42.8088 123.7197 24.6935 0.0000 0.0000 0.0000
# 3 17.1533 24.6935 25.6875 0.0000 0.0000 0.0000
# 4 0.0000 0.0000 0.0000 3.9428 0.0000 0.0000
# 5 0.0000 0.0000 0.0000 0.0000 14.2439 0.0000
# 6 0.0000 0.0000 0.0000 0.0000 0.0000 23.4706
#
#
#
# Elastic Compliance Matrix: (Units=1/GPa)
#
#
# Indices 1 2 3 4 5 6 
#
# 1 0.015233 -0.004010 -0.006317 0.000000 0.000000 0.000000
# 2 -0.004010 0.011057 -0.007952 0.000000 0.000000 0.000000
# 3 -0.006317 -0.007952 0.050792 0.000000 0.000000 0.000000
# 4 0.000000 0.000000 0.000000 0.253625 0.000000 0.000000
# 5 0.000000 0.000000 0.000000 0.000000 0.070206 0.000000
# 6 0.000000 0.000000 0.000000 0.000000 0.000000 0.042606
#
#
# Mechanical properties :
#
#
# Convention : Reuss Voigt Hill
#
# Bulk Modulus (GPa) = 24.67653 44.74977 34.71315
# Shear Modulus (GPa) = 10.12995 18.25020 14.19007
#
# Velocity S-wave (km/s) = 2.22424 2.98547 2.63251
# Velocity P-wave (km/s) = 4.31831 5.80851 5.11794
#
# Compressibility (1/GPa) = 0.04052434
#
# Stress axis : x y z
#
# Youngs Moduli (GPa) = 65.64662 90.43707 19.68805
#
# Poissons Ratio (x) = 0.36265 0.12438
# Poissons Ratio (y) = 0.26324 0.15656
# Poissons Ratio (z) = 0.41472 0.71914
#
# Static dielectric constant tensor:
#      x y z
#    x 1.756790 0.000000 0.000000 
#    y 0.000000 1.849300 0.000000 
#    z 0.000000 0.000000 1.746640 
# 
# From -- ./inp_files/7586.got.cif
#   From: 2010.05.17/outbox.cif.g08.bks.cpg/sg62_4_cif.got.tgz:7586.got - 2010.06.03 15:25:27.
