data_PCOD9463397
_publ_section_title
;
Structure prediction by ZEFSAII (Michael W. Deem and Ramdas Pophale) SiO2 
 PCOD9463397
Probable space group: P N M A
;
_chemical_formula_sum "Si O2"
_cell_formula_units_Z 64
_cell_length_a 30.760161
_cell_length_b 7.658478
_cell_length_c 12.291968
_cell_angle_alpha 90.000000
_cell_angle_beta 90.000000
_cell_angle_gamma 90.000000
_cell_volume 2895.692854
_symmetry_space_group_name_H-M "P N M A"
_symmetry_group_IT_number 62
_symmetry_cell_setting 'orthorhombic'
loop_
_space_group_symop_operation_xyz
x,y,z
1/2-x,-y,1/2+z
1/2+x,1/2-y,1/2-z
-x,1/2+y,-z
-x,-y,-z
1/2+x,y,1/2-z
1/2-x,1/2+y,1/2+z
x,1/2-y,z
loop_
_atom_site_type_symbol
_atom_site_label
_atom_site_fract_x
_atom_site_fract_y
_atom_site_fract_z
Si Si1 0.452040 0.039125 0.207699
Si Si2 0.955964 0.457853 0.766031
Si Si3 0.686915 0.048796 0.264289
Si Si4 0.562780 0.546165 0.026207
Si Si5 0.783631 0.545300 0.316323
Si Si6 0.884901 0.048587 0.930447
Si Si7 0.135148 0.537868 0.829096
Si Si8 0.337436 0.962446 0.976682
O O1 0.451050 0.250000 0.203514
O O2 0.405961 0.981343 0.256011
O O3 0.492876 0.985647 0.280749
O O4 0.458509 0.971792 0.083817
O O5 0.946966 0.250000 0.760854
O O6 0.945519 0.532305 0.645461
O O7 0.924538 0.529345 0.859817
O O8 0.672682 0.250000 0.266668
O O9 0.737775 0.039417 0.289272
O O10 0.657228 0.955541 0.353236
O O11 0.678013 0.981634 0.142737
O O12 0.550700 0.750000 0.031486
O O13 0.614242 0.531637 0.005282
O O14 0.774691 0.750000 0.330556
O O15 0.819753 0.522746 0.222980
O O16 0.805544 0.478468 0.427544
O O17 0.897005 0.250000 0.952818
O O18 0.873160 0.973768 0.048156
O O19 0.136638 0.750000 0.828256
O O20 0.338896 0.750000 0.980166
#
# Coordination Sequence:
#
# PCOD9463397 Si02
#       8
#     8   8   8   8   8   8   8   8
#     4  10  21  36  57  86 117 153 194 240 292 349
#     4  10  21  36  57  86 117 153 194 240 292 349
#     4  11  24  41  62  90 120 155 196 241 293 351
#     4  10  19  35  59  86 116 152 196 239 291 349
#     4  11  24  41  62  90 120 155 196 241 293 351
#     4  10  22  41  62  85 118 157 198 246 295 344
#     4  10  22  41  62  85 118 157 198 246 295 344
#     4  10  22  39  61  88 119 152 191 241 294 341
#
# _framework density 22.101793000000001
#
# number of rings (size 3 to 8) (size 9 to 14) (size 15 to 20)
#    0.000    1.750    2.500    1.125    1.750    4.000 
#    0.000    0.000    0.000    0.000    0.000    0.000 
#    0.000    0.000    0.000    0.000    0.000    0.000 
#
# Total GULP energy -357686.009695 kJ/mol
# GULP energy per Si atom -5588.843901 kJ/mol
# Density = 2.205149 g / cm^3
# Si number density = 22.101793 Si / 1000 Ang^3
#
#
#
# Elastic Constant Matrix: (Units=GPa)
#
#
# Indices 1 2 3 4 5 6 
#
# 1 62.8159 -12.7159 -18.7615 0.0000 0.0000 0.0000
# 2 -12.7159 44.6896 3.1671 0.0000 0.0000 0.0000
# 3 -18.7615 3.1671 70.1698 0.0000 0.0000 0.0000
# 4 0.0000 0.0000 0.0000 12.9866 0.0000 0.0000
# 5 0.0000 0.0000 0.0000 0.0000 18.0014 0.0000
# 6 0.0000 0.0000 0.0000 0.0000 0.0000 28.9609
#
#
#
# Elastic Compliance Matrix: (Units=1/GPa)
#
#
# Indices 1 2 3 4 5 6 
#
# 1 0.018303 0.004877 0.004673 0.000000 0.000000 0.000000
# 2 0.004877 0.023748 0.000232 0.000000 0.000000 0.000000
# 3 0.004673 0.000232 0.015490 0.000000 0.000000 0.000000
# 4 0.000000 0.000000 0.000000 0.077003 0.000000 0.000000
# 5 0.000000 0.000000 0.000000 0.000000 0.055551 0.000000
# 6 0.000000 0.000000 0.000000 0.000000 0.000000 0.034529
#
#
# Mechanical properties :
#
#
# Convention : Reuss Voigt Hill
#
# Bulk Modulus (GPa) = 12.96938 13.45053 13.20995
# Shear Modulus (GPa) = 21.66744 25.72216 23.69480
#
# Velocity S-wave (km/s) = 3.13445 3.41516 3.27781
# Velocity P-wave (km/s) = 4.35665 4.65296 4.50724
#
# Compressibility (1/GPa) = 0.07710467
#
# Stress axis : x y z
#
# Youngs Moduli (GPa) = 54.63719 42.10935 64.55678
#
# Poissons Ratio (x) = -0.20535 -0.30171
# Poissons Ratio (y) = -0.26644 -0.01498
# Poissons Ratio (z) = -0.25535 -0.00977
#
# Static dielectric constant tensor:
#      x y z
#    x 1.771340 0.000000 0.000000 
#    y 0.000000 1.829330 0.000000 
#    z 0.000000 0.000000 1.824040 
# 
# From -- ./inp_files/15828.got.cif
#   From: 2010.05.17/outbox.cif.g08.bks.cpg/sg62_8_cif.got.tgz:15828.got - 2010.06.03 15:25:27.
