data_PCOD9463735
_publ_section_title
;
Structure prediction by ZEFSAII (Michael W. Deem and Ramdas Pophale) SiO2 
 PCOD9463735
Probable space group: P N M A
;
_chemical_formula_sum "Si O2"
_cell_formula_units_Z 40
_cell_length_a 14.238912
_cell_length_b 14.757832
_cell_length_c 8.846870
_cell_angle_alpha 90.000000
_cell_angle_beta 90.000000
_cell_angle_gamma 90.000000
_cell_volume 1859.041196
_symmetry_space_group_name_H-M "P N M A"
_symmetry_group_IT_number 62
_symmetry_cell_setting 'orthorhombic'
loop_
_space_group_symop_operation_xyz
x,y,z
1/2-x,-y,1/2+z
1/2+x,1/2-y,1/2-z
-x,1/2+y,-z
-x,-y,-z
1/2+x,y,1/2-z
1/2-x,1/2+y,1/2+z
x,1/2-y,z
loop_
_atom_site_type_symbol
_atom_site_label
_atom_site_fract_x
_atom_site_fract_y
_atom_site_fract_z
Si Si1 0.373987 0.545101 0.333286
Si Si2 0.058459 0.990660 0.347088
Si Si3 0.133654 0.652332 0.900575
Si Si4 0.703690 0.647481 0.256583
Si Si5 0.408581 0.853425 0.640112
O O1 0.481073 0.541901 0.276489
O O2 0.336829 0.442000 0.325621
O O3 0.308403 0.608817 0.234329
O O4 0.369260 0.587051 0.501357
O O5 0.141104 0.917491 0.348299
O O6 0.099886 0.086569 0.290909
O O7 0.000000 0.000000 0.500000
O O8 0.167872 0.750000 0.840547
O O9 0.020794 0.652777 0.887962
O O10 0.161052 0.646639 0.075838
O O11 0.703542 0.750000 0.199570
O O12 0.373134 0.750000 0.645325
#
# Coordination Sequence:
#
# PCOD9463735 Si02
#       5
#     8   8   8   8   8
#     4  11  21  39  65  90 122 171 210 252 313 372
#     4  11  24  40  62  93 129 163 200 264 319 372
#     4   9  18  37  63  86 114 155 207 257 301 361
#     4  11  23  38  62  93 122 160 209 258 308 366
#     4  10  19  39  65  89 117 162 212 252 309 378
#
# _framework density 21.516468
#
# number of rings (size 3 to 8) (size 9 to 14) (size 15 to 20)
#    0.000    1.600    4.000    1.800    2.800    1.600 
#    0.000    1.000    0.000    0.000    0.000    0.000 
#    0.000    0.000    0.000    0.000    0.000    0.000 
#
# Total GULP energy -223387.401301 kJ/mol
# GULP energy per Si atom -5584.685033 kJ/mol
# Density = 2.146750 g / cm^3
# Si number density = 21.516468 Si / 1000 Ang^3
#
#
#
# Elastic Constant Matrix: (Units=GPa)
#
#
# Indices 1 2 3 4 5 6 
#
# 1 49.0484 28.3038 -13.5927 0.0000 0.0000 0.0000
# 2 28.3038 179.7257 20.5279 0.0000 0.0000 0.0000
# 3 -13.5927 20.5279 28.4867 0.0000 0.0000 0.0000
# 4 0.0000 0.0000 0.0000 12.5669 0.0000 0.0000
# 5 0.0000 0.0000 0.0000 0.0000 15.1335 0.0000
# 6 0.0000 0.0000 0.0000 0.0000 0.0000 20.7752
#
#
#
# Elastic Compliance Matrix: (Units=1/GPa)
#
#
# Indices 1 2 3 4 5 6 
#
# 1 0.029619 -0.006842 0.019064 0.000000 0.000000 0.000000
# 2 -0.006842 0.007644 -0.008773 0.000000 0.000000 0.000000
# 3 0.019064 -0.008773 0.050522 0.000000 0.000000 0.000000
# 4 0.000000 0.000000 0.000000 0.079574 0.000000 0.000000
# 5 0.000000 0.000000 0.000000 0.000000 0.066079 0.000000
# 6 0.000000 0.000000 0.000000 0.000000 0.000000 0.048134
#
#
# Mechanical properties :
#
#
# Convention : Reuss Voigt Hill
#
# Bulk Modulus (GPa) = 10.56157 36.41543 23.48850
# Shear Modulus (GPa) = 16.32730 24.49656 20.41193
#
# Velocity S-wave (km/s) = 2.75767 3.37783 3.08338
# Velocity P-wave (km/s) = 3.88058 5.67223 4.85969
#
# Compressibility (1/GPa) = 0.09468286
#
# Stress axis : x y z
#
# Youngs Moduli (GPa) = 33.76174 130.82943 19.79325
#
# Poissons Ratio (x) = 0.89513 -0.37733
# Poissons Ratio (y) = 0.23100 0.17364
# Poissons Ratio (z) = -0.64362 1.14774
#
# Static dielectric constant tensor:
#      x y z
#    x 1.756640 0.000000 0.000000 
#    y 0.000000 1.812620 0.000000 
#    z 0.000000 0.000000 1.778480 
# 
# From -- ./inp_files/6090.got.cif
#   From: 2010.05.17/outbox.cif.g08.bks.cpg/sg62_4_cif.got.tgz:6090.got - 2010.06.03 15:25:27.
