data_PCOD9463965
_publ_section_title
;
Structure prediction by ZEFSAII (Michael W. Deem and Ramdas Pophale) SiO2 
 PCOD9463965
Probable space group: P N M A
;
_chemical_formula_sum "Si O2"
_cell_formula_units_Z 48
_cell_length_a 29.262356
_cell_length_b 7.366903
_cell_length_c 8.276509
_cell_angle_alpha 90.000000
_cell_angle_beta 90.000000
_cell_angle_gamma 90.000000
_cell_volume 1784.191363
_symmetry_space_group_name_H-M "P N M A"
_symmetry_group_IT_number 62
_symmetry_cell_setting 'orthorhombic'
loop_
_space_group_symop_operation_xyz
x,y,z
1/2-x,-y,1/2+z
1/2+x,1/2-y,1/2-z
-x,1/2+y,-z
-x,-y,-z
1/2+x,y,1/2-z
1/2-x,1/2+y,1/2+z
x,1/2-y,z
loop_
_atom_site_type_symbol
_atom_site_label
_atom_site_fract_x
_atom_site_fract_y
_atom_site_fract_z
Si Si1 0.987789 0.542750 0.271319
Si Si2 0.097362 0.026468 0.557079
Si Si3 0.848981 0.537786 0.753685
Si Si4 0.180487 0.041154 0.752066
Si Si5 0.264602 0.970469 0.558921
Si Si6 0.433685 0.031919 0.552996
O O1 0.997259 0.750000 0.313803
O O2 0.954195 0.464925 0.407499
O O3 0.034670 0.461400 0.202489
O O4 0.955542 0.541505 0.110680
O O5 0.096385 0.250000 0.556799
O O6 0.121692 0.961623 0.393993
O O7 0.131911 0.964922 0.698835
O O8 0.843009 0.750000 0.720812
O O9 0.799253 0.466183 0.799225
O O10 0.881876 0.518468 0.909352
O O11 0.172228 0.250000 0.795333
O O12 0.213916 0.035480 0.596559
O O13 0.210924 0.962598 0.896058
O O14 0.263017 0.750000 0.556705
O O15 0.437613 0.250000 0.547120
#
# Coordination Sequence:
#
# PCOD9463965 Si02
#       6
#     8   8   8   8   8   8
#     4   9  18  35  56  76 103 139 177 215 257 310
#     4   9  18  34  56  78 100 134 177 213 253 309
#     4  10  20  35  55  76 102 138 175 210 254 311
#     4  10  20  35  56  79 103 133 171 214 256 302
#     4  10  21  36  55  79 105 136 173 211 257 311
#     4  10  20  33  52  79 107 136 173 217 261 304
#
# _framework density 26.902940999999998
#
# number of rings (size 3 to 8) (size 9 to 14) (size 15 to 20)
#    0.000    2.333    0.000    2.500    0.000    6.667 
#    0.000    4.167    0.000    0.000    0.000    0.000 
#    0.000    0.000    0.000    0.000    0.000    0.000 
#
# Total GULP energy -268667.443124 kJ/mol
# GULP energy per Si atom -5597.238398 kJ/mol
# Density = 2.684171 g / cm^3
# Si number density = 26.902941 Si / 1000 Ang^3
#
#
#
# Elastic Constant Matrix: (Units=GPa)
#
#
# Indices 1 2 3 4 5 6 
#
# 1 149.1744 0.8009 6.9284 0.0000 0.0000 0.0000
# 2 0.8009 125.2128 6.2714 0.0000 0.0000 0.0000
# 3 6.9284 6.2714 83.7286 0.0000 0.0000 0.0000
# 4 0.0000 0.0000 0.0000 6.0574 0.0000 0.0000
# 5 0.0000 0.0000 0.0000 0.0000 51.8726 0.0000
# 6 0.0000 0.0000 0.0000 0.0000 0.0000 12.0616
#
#
#
# Elastic Compliance Matrix: (Units=1/GPa)
#
#
# Indices 1 2 3 4 5 6 
#
# 1 0.006729 -0.000015 -0.000556 0.000000 0.000000 0.000000
# 2 -0.000015 0.008017 -0.000599 0.000000 0.000000 0.000000
# 3 -0.000556 -0.000599 0.012034 0.000000 0.000000 0.000000
# 4 0.000000 0.000000 0.000000 0.165087 0.000000 0.000000
# 5 0.000000 0.000000 0.000000 0.000000 0.019278 0.000000
# 6 0.000000 0.000000 0.000000 0.000000 0.000000 0.082908
#
#
# Mechanical properties :
#
#
# Convention : Reuss Voigt Hill
#
# Bulk Modulus (GPa) = 40.91660 42.90190 41.90925
# Shear Modulus (GPa) = 16.41818 36.93933 26.67875
#
# Velocity S-wave (km/s) = 2.47305 3.70950 3.15249
# Velocity P-wave (km/s) = 4.83701 5.85907 5.37240
#
# Compressibility (1/GPa) = 0.02443996
#
# Stress axis : x y z
#
# Youngs Moduli (GPa) = 148.60045 124.74256 83.09640
#
# Poissons Ratio (x) = 0.00190 0.04618
# Poissons Ratio (y) = 0.00226 0.04979
# Poissons Ratio (z) = 0.08258 0.07475
#
# Static dielectric constant tensor:
#      x y z
#    x 2.015240 0.000000 0.000000 
#    y 0.000000 1.989160 0.000000 
#    z 0.000000 0.000000 2.196910 
# 
# From -- ./inp_files/10209.got.cif
#   From: 2010.05.17/outbox.cif.g08.bks.cpg/sg62_6_cif.got.tgz:10209.got - 2010.06.03 15:25:27.
