data_PCOD9463695
_publ_section_title
;
Structure prediction by ZEFSAII (Michael W. Deem and Ramdas Pophale) SiO2 
 PCOD9463695
Probable space group: P N M A
;
_chemical_formula_sum "Si O2"
_cell_formula_units_Z 48
_cell_length_a 10.376049
_cell_length_b 14.062675
_cell_length_c 16.608336
_cell_angle_alpha 90.000000
_cell_angle_beta 90.000000
_cell_angle_gamma 90.000000
_cell_volume 2423.405428
_symmetry_space_group_name_H-M "P N M A"
_symmetry_group_IT_number 62
_symmetry_cell_setting 'orthorhombic'
loop_
_space_group_symop_operation_xyz
x,y,z
1/2-x,-y,1/2+z
1/2+x,1/2-y,1/2-z
-x,1/2+y,-z
-x,-y,-z
1/2+x,y,1/2-z
1/2-x,1/2+y,1/2+z
x,1/2-y,z
loop_
_atom_site_type_symbol
_atom_site_label
_atom_site_fract_x
_atom_site_fract_y
_atom_site_fract_z
Si Si1 0.653347 0.013552 0.592822
Si Si2 0.988530 0.641208 0.698311
Si Si3 0.591584 0.415096 0.025542
Si Si4 0.000599 0.356830 0.014247
Si Si5 0.742499 0.521920 0.762830
Si Si6 0.237982 0.853088 0.110955
O O1 0.618925 0.102224 0.536757
O O2 0.778742 0.962888 0.558609
O O3 0.540010 0.934825 0.580579
O O4 0.684345 0.032834 0.685019
O O5 0.983201 0.750000 0.727368
O O6 0.965307 0.639862 0.601756
O O7 0.872534 0.578475 0.737549
O O8 0.128107 0.594671 0.713852
O O9 0.500000 0.500000 0.000000
O O10 0.636880 0.359057 0.946636
O O11 0.018017 0.250000 0.045373
O O12 0.884411 0.355320 0.949107
O O13 0.766168 0.444064 0.831635
O O14 0.236316 0.750000 0.152956
#
# Coordination Sequence:
#
# PCOD9463695 Si02
#       6
#     8   8   8   8   8   8
#     4   9  20  34  57  83 112 148 187 237 290 339
#     4  11  23  39  61  87 120 158 198 244 300 357
#     4  10  19  38  61  82 114 155 198 244 288 348
#     4   9  18  36  58  81 111 149 191 232 282 348
#     4  11  22  38  59  87 122 152 194 247 297 353
#     4  10  20  36  61  85 114 157 196 237 298 357
#
# _framework density 19.806839
#
# number of rings (size 3 to 8) (size 9 to 14) (size 15 to 20)
#    0.000    2.000    1.667    2.000    0.000    5.333 
#    0.000    2.500    0.000    0.000    0.000    0.000 
#    0.000    0.000    0.000    0.000    0.000    0.000 
#
# Total GULP energy -267765.726792 kJ/mol
# GULP energy per Si atom -5578.452642 kJ/mol
# Density = 1.976176 g / cm^3
# Si number density = 19.806839 Si / 1000 Ang^3
#
#
#
# Elastic Constant Matrix: (Units=GPa)
#
#
# Indices 1 2 3 4 5 6 
#
# 1 24.3032 19.2647 -2.4348 0.0000 0.0000 0.0000
# 2 19.2647 95.8723 22.9325 0.0000 0.0000 0.0000
# 3 -2.4348 22.9325 61.1344 0.0000 0.0000 0.0000
# 4 0.0000 0.0000 0.0000 14.4293 0.0000 0.0000
# 5 0.0000 0.0000 0.0000 0.0000 17.3513 0.0000
# 6 0.0000 0.0000 0.0000 0.0000 0.0000 14.5537
#
#
#
# Elastic Compliance Matrix: (Units=1/GPa)
#
#
# Indices 1 2 3 4 5 6 
#
# 1 0.051175 -0.011832 0.006477 0.000000 0.000000 0.000000
# 2 -0.011832 0.014195 -0.005796 0.000000 0.000000 0.000000
# 3 0.006477 -0.005796 0.018789 0.000000 0.000000 0.000000
# 4 0.000000 0.000000 0.000000 0.069304 0.000000 0.000000
# 5 0.000000 0.000000 0.000000 0.000000 0.057633 0.000000
# 6 0.000000 0.000000 0.000000 0.000000 0.000000 0.068711
#
#
# Mechanical properties :
#
#
# Convention : Reuss Voigt Hill
#
# Bulk Modulus (GPa) = 16.16656 28.98162 22.57409
# Shear Modulus (GPa) = 15.49291 18.70334 17.09812
#
# Velocity S-wave (km/s) = 2.79982 3.07626 2.94129
# Velocity P-wave (km/s) = 4.31646 5.22319 4.79132
#
# Compressibility (1/GPa) = 0.06185608
#
# Stress axis : x y z
#
# Youngs Moduli (GPa) = 19.54072 70.44964 53.22122
#
# Poissons Ratio (x) = 0.83359 -0.34470
# Poissons Ratio (y) = 0.23121 0.30846
# Poissons Ratio (z) = -0.12656 0.40832
#
# Static dielectric constant tensor:
#      x y z
#    x 1.776070 0.000000 0.000000 
#    y 0.000000 1.685920 0.000000 
#    z 0.000000 0.000000 1.751320 
# 
# From -- ./inp_files/22994.got.cif
#   From: 2010.05.17/outbox.cif.g08.bks.cpg/sg62_12_cif.got.tgz:22994.got - 2010.06.03 15:25:27.
