data_PCOD9463320
_publ_section_title
;
Structure prediction by ZEFSAII (Michael W. Deem and Ramdas Pophale) SiO2 
 PCOD9463320
Probable space group: P N M A
;
_chemical_formula_sum "Si O2"
_cell_formula_units_Z 56
_cell_length_a 21.873207
_cell_length_b 7.424155
_cell_length_c 15.031073
_cell_angle_alpha 90.000000
_cell_angle_beta 90.000000
_cell_angle_gamma 90.000000
_cell_volume 2440.897134
_symmetry_space_group_name_H-M "P N M A"
_symmetry_group_IT_number 62
_symmetry_cell_setting 'orthorhombic'
loop_
_space_group_symop_operation_xyz
x,y,z
1/2-x,-y,1/2+z
1/2+x,1/2-y,1/2-z
-x,1/2+y,-z
-x,-y,-z
1/2+x,y,1/2-z
1/2-x,1/2+y,1/2+z
x,1/2-y,z
loop_
_atom_site_type_symbol
_atom_site_label
_atom_site_fract_x
_atom_site_fract_y
_atom_site_fract_z
Si Si1 0.758256 0.037711 0.610989
Si Si2 0.494699 0.457791 0.275936
Si Si3 0.176073 0.529382 0.568217
Si Si4 0.285788 0.966119 0.690735
Si Si5 0.093390 0.030093 0.085562
Si Si6 0.881041 0.968361 0.112498
Si Si7 0.037457 0.965787 0.588921
O O1 0.751288 0.250000 0.593931
O O2 0.795849 0.968771 0.526401
O O3 0.688904 0.967324 0.618186
O O4 0.790127 0.014826 0.706011
O O5 0.514498 0.250000 0.268176
O O6 0.538062 0.535242 0.352649
O O7 0.425273 0.464821 0.310343
O O8 0.495694 0.537705 0.177414
O O9 0.175039 0.750000 0.568180
O O10 0.222594 0.471591 0.645841
O O11 0.106923 0.467078 0.581337
O O12 0.285639 0.750000 0.686146
O O13 0.343265 0.026245 0.632014
O O14 0.092813 0.250000 0.082548
O O15 0.092292 0.973056 0.983144
O O16 0.881560 0.750000 0.116586
O O17 0.041602 0.750000 0.600099
O O18 0.000000 0.000000 0.500000
#
# Coordination Sequence:
#
# PCOD9463320 Si02
#       7
#     8   8   8   8   8   8   8
#     4  10  20  34  54  79 107 138 177 224 266 315
#     4  10  21  36  55  81 112 143 179 227 273 315
#     4   9  18  36  57  76 105 146 179 209 266 334
#     4  10  19  35  59  82 106 143 184 219 267 326
#     4   9  18  34  56  81 110 142 178 221 269 323
#     4  10  19  35  57  81 108 143 181 217 268 330
#     4  10  22  38  56  78 108 144 183 225 269 319
#
# _framework density 22.942383
#
# number of rings (size 3 to 8) (size 9 to 14) (size 15 to 20)
#    0.000    2.286    1.429    1.286    2.000    2.286 
#    0.000    2.857    0.000    0.000    0.000    0.000 
#    0.000    0.000    0.000    0.000    0.000    0.000 
#
# Total GULP energy -313050.535992 kJ/mol
# GULP energy per Si atom -5590.188143 kJ/mol
# Density = 2.289016 g / cm^3
# Si number density = 22.942383 Si / 1000 Ang^3
#
#
#
# Elastic Constant Matrix: (Units=GPa)
#
#
# Indices 1 2 3 4 5 6 
#
# 1 43.5079 -4.0512 -9.4382 0.0000 0.0000 0.0000
# 2 -4.0512 70.3221 -7.8840 0.0000 0.0000 0.0000
# 3 -9.4382 -7.8840 116.4986 0.0000 0.0000 0.0000
# 4 0.0000 0.0000 0.0000 -2.4661 0.0000 0.0000
# 5 0.0000 0.0000 0.0000 0.0000 25.6981 0.0000
# 6 0.0000 0.0000 0.0000 0.0000 0.0000 15.5447
#
#
#
# Elastic Compliance Matrix: (Units=1/GPa)
#
#
# Indices 1 2 3 4 5 6 
#
# 1 0.023569 0.001584 0.002017 0.000000 0.000000 0.000000
# 2 0.001584 0.014435 0.001105 0.000000 0.000000 0.000000
# 3 0.002017 0.001105 0.008822 0.000000 0.000000 0.000000
# 4 0.000000 0.000000 0.000000 -0.405502 0.000000 0.000000
# 5 0.000000 0.000000 0.000000 0.000000 0.038913 0.000000
# 6 0.000000 0.000000 0.000000 0.000000 0.000000 0.064330
#
#
# Mechanical properties :
#
#
# Convention : Reuss Voigt Hill
#
# Bulk Modulus (GPa) = 17.78150 20.84245 19.31198
# Shear Modulus (GPa) = -20.31722 24.53548 2.10913
#
# Velocity S-wave (km/s) = -2.97909 3.27378 0.95985
# Velocity P-wave (km/s) = 2.01643 4.83679 3.10874
#
# Compressibility (1/GPa) = 0.05623822
#
# Stress axis : x y z
#
# Youngs Moduli (GPa) = 42.42814 69.27399 113.35338
#
# Poissons Ratio (x) = -0.10972 -0.22860
# Poissons Ratio (y) = -0.06720 -0.12528
# Poissons Ratio (z) = -0.08556 -0.07656
#
# Static dielectric constant tensor:
#      x y z
#    x 1.820570 0.000000 0.000000 
#    y 0.000000 1.881610 0.000000 
#    z 0.000000 0.000000 1.834740 
# 
# From -- ./inp_files/14786.got.cif
#   From: 2010.05.17/outbox.cif.g08.bks.cpg/sg62_8_cif.got.tgz:14786.got - 2010.06.03 15:25:27.
