data_PCOD9463585
_publ_section_title
;
Structure prediction by ZEFSAII (Michael W. Deem and Ramdas Pophale) SiO2 
 PCOD9463585
Probable space group: P N M A
;
_chemical_formula_sum "Si O2"
_cell_formula_units_Z 64
_cell_length_a 29.709739
_cell_length_b 12.481151
_cell_length_c 7.946704
_cell_angle_alpha 90.000000
_cell_angle_beta 90.000000
_cell_angle_gamma 90.000000
_cell_volume 2946.731127
_symmetry_space_group_name_H-M "P N M A"
_symmetry_group_IT_number 62
_symmetry_cell_setting 'orthorhombic'
loop_
_space_group_symop_operation_xyz
x,y,z
1/2-x,-y,1/2+z
1/2+x,1/2-y,1/2-z
-x,1/2+y,-z
-x,-y,-z
1/2+x,y,1/2-z
1/2-x,1/2+y,1/2+z
x,1/2-y,z
loop_
_atom_site_type_symbol
_atom_site_label
_atom_site_fract_x
_atom_site_fract_y
_atom_site_fract_z
Si Si1 0.646218 0.077778 0.012019
Si Si2 0.576825 0.129660 0.279160
Si Si3 0.008747 0.621857 0.582115
Si Si4 0.275384 0.415833 0.634671
Si Si5 0.733507 0.368387 0.219209
Si Si6 0.691632 0.360731 0.670126
Si Si7 0.114252 0.869560 0.665249
Si Si8 0.863506 0.037245 0.977317
O O1 0.664261 0.134948 0.845475
O O2 0.639709 0.956735 0.948540
O O3 0.600285 0.118538 0.095094
O O4 0.683542 0.102736 0.152924
O O5 0.586310 0.250000 0.344372
O O6 0.523996 0.118878 0.243875
O O7 0.598412 0.034116 0.388399
O O8 0.000394 0.750000 0.513399
O O9 0.000000 0.500000 0.500000
O O10 0.061553 0.622473 0.621053
O O11 0.255851 0.537424 0.652961
O O12 0.262631 0.373763 0.450592
O O13 0.243672 0.364525 0.776122
O O14 0.329181 0.402990 0.649527
O O15 0.737042 0.250000 0.287372
O O16 0.680896 0.250000 0.582546
O O17 0.671902 0.455007 0.560915
O O18 0.130940 0.750000 0.633655
O O19 0.119415 0.895447 0.864189
#
# Coordination Sequence:
#
# PCOD9463585 Si02
#       8
#     8   8   8   8   8   8   8   8
#     4  10  19  36  62  88 114 151 211 252 304 367
#     4  11  21  36  65  97 124 157 204 265 319 370
#     4  10  21  41  67  98 131 167 211 264 325 388
#     4  11  21  39  55  85 117 155 207 246 301 370
#     4  11  23  40  60  84 122 158 199 262 314 360
#     4  10  21  38  57  80 117 158 202 259 305 354
#     4  10  23  43  62  86 130 170 201 255 319 381
#     4  11  23  38  60  88 125 157 210 252 309 379
#
# _framework density 21.718982
#
# number of rings (size 3 to 8) (size 9 to 14) (size 15 to 20)
#    0.000    1.500    3.750    2.625    0.000    2.000 
#    0.000    3.125    0.000    0.000    0.000    0.000 
#    0.000    0.000    0.000    0.000    0.000    0.000 
#
# Total GULP energy -356583.184722 kJ/mol
# GULP energy per Si atom -5571.612261 kJ/mol
# Density = 2.166955 g / cm^3
# Si number density = 21.718982 Si / 1000 Ang^3
#
#
#
# Elastic Constant Matrix: (Units=GPa)
#
#
# Indices 1 2 3 4 5 6 
#
# 1 42.2199 26.3803 -9.3415 0.0000 0.0000 0.0000
# 2 26.3803 166.2177 11.6222 0.0000 0.0000 0.0000
# 3 -9.3415 11.6222 45.7680 0.0000 0.0000 0.0000
# 4 0.0000 0.0000 0.0000 -26.4249 0.0000 0.0000
# 5 0.0000 0.0000 0.0000 0.0000 25.9582 0.0000
# 6 0.0000 0.0000 0.0000 0.0000 0.0000 -192.3234
#
#
#
# Elastic Compliance Matrix: (Units=1/GPa)
#
#
# Indices 1 2 3 4 5 6 
#
# 1 0.028369 -0.004996 0.007059 0.000000 0.000000 0.000000
# 2 -0.004996 0.007005 -0.002798 0.000000 0.000000 0.000000
# 3 0.007059 -0.002798 0.024001 0.000000 0.000000 0.000000
# 4 0.000000 0.000000 0.000000 -0.037843 0.000000 0.000000
# 5 0.000000 0.000000 0.000000 0.000000 0.038524 0.000000
# 6 0.000000 0.000000 0.000000 0.000000 0.000000 -0.005200
#
#
# Mechanical properties :
#
#
# Convention : Reuss Voigt Hill
#
# Bulk Modulus (GPa) = 17.27013 34.61417 25.94215
# Shear Modulus (GPa) = 66.11340 -23.52172 21.29584
#
# Velocity S-wave (km/s) = 5.52327 -3.29447 3.13472
# Velocity P-wave (km/s) = 6.97454 1.22495 5.00723
#
# Compressibility (1/GPa) = 0.05790346
#
# Stress axis : x y z
#
# Youngs Moduli (GPa) = 35.24970 142.75942 41.66540
#
# Poissons Ratio (x) = 0.71323 -0.29411
# Poissons Ratio (y) = 0.17611 0.11660
# Poissons Ratio (z) = -0.24883 0.39951
#
# Static dielectric constant tensor:
#      x y z
#    x 1.823540 0.000000 0.000000 
#    y 0.000000 1.597190 0.000000 
#    z 0.000000 0.000000 1.819350 
# 
# From -- ./inp_files/10498.got.cif
#   From: 2010.05.17/outbox.cif.g08.bks.cpg/sg62_6_cif.got.tgz:10498.got - 2010.06.03 15:25:27.
