data_PCOD9463535
_publ_section_title
;
Structure prediction by ZEFSAII (Michael W. Deem and Ramdas Pophale) SiO2 
 PCOD9463535
Probable space group: P N M A
;
_chemical_formula_sum "Si O2"
_cell_formula_units_Z 56
_cell_length_a 21.199628
_cell_length_b 7.462397
_cell_length_c 15.055567
_cell_angle_alpha 90.000000
_cell_angle_beta 90.000000
_cell_angle_gamma 90.000000
_cell_volume 2381.791307
_symmetry_space_group_name_H-M "P N M A"
_symmetry_group_IT_number 62
_symmetry_cell_setting 'orthorhombic'
loop_
_space_group_symop_operation_xyz
x,y,z
1/2-x,-y,1/2+z
1/2+x,1/2-y,1/2-z
-x,1/2+y,-z
-x,-y,-z
1/2+x,y,1/2-z
1/2-x,1/2+y,1/2+z
x,1/2-y,z
loop_
_atom_site_type_symbol
_atom_site_label
_atom_site_fract_x
_atom_site_fract_y
_atom_site_fract_z
Si Si1 0.379280 0.467784 0.118846
Si Si2 0.798208 0.959188 0.681712
Si Si3 0.503101 0.456915 0.774911
Si Si4 0.036067 0.035233 0.909434
Si Si5 0.233431 0.468611 0.124558
Si Si6 0.178234 0.033058 0.934984
Si Si7 0.917379 0.453896 0.571931
O O1 0.379821 0.250000 0.119597
O O2 0.423814 0.534680 0.197091
O O3 0.306717 0.523807 0.124582
O O4 0.408899 0.533161 0.025605
O O5 0.815167 0.750000 0.683645
O O6 0.797706 0.027581 0.782832
O O7 0.729281 0.976565 0.638147
O O8 0.848788 0.049765 0.617613
O O9 0.481617 0.250000 0.770092
O O10 0.499197 0.536118 0.676785
O O11 0.463641 0.540038 0.855727
O O12 0.039997 0.250000 0.897858
O O13 0.107821 0.968633 0.914843
O O14 0.000000 0.000000 0.000000
O O15 0.232674 0.250000 0.125480
O O16 0.200597 0.526010 0.033238
O O17 0.178079 0.250000 0.935781
O O18 0.939572 0.250000 0.556788
#
# Coordination Sequence:
#
# PCOD9463535 Si02
#       7
#     8   8   8   8   8   8   8
#     4  10  19  36  60  83 109 152 193 228 286 352
#     4  11  22  35  57  89 116 143 191 248 283 328
#     4  10  22  38  56  85 119 150 192 244 288 336
#     4  10  23  40  61  86 117 156 197 240 286 342
#     4   9  19  35  56  81 112 146 187 231 279 344
#     4  10  20  40  62  80 114 160 191 226 292 354
#     4  10  21  38  58  80 117 158 187 229 292 351
#
# _framework density 23.511714999999999
#
# number of rings (size 3 to 8) (size 9 to 14) (size 15 to 20)
#    0.000    2.000    1.429    1.714    2.000    2.286 
#    0.000    2.143    0.000    0.000    0.000    0.000 
#    0.000    0.000    0.000    0.000    0.000    0.000 
#
# Total GULP energy -313171.297100 kJ/mol
# GULP energy per Si atom -5592.344591 kJ/mol
# Density = 2.345820 g / cm^3
# Si number density = 23.511715 Si / 1000 Ang^3
#
#
#
# Elastic Constant Matrix: (Units=GPa)
#
#
# Indices 1 2 3 4 5 6 
#
# 1 52.0797 -7.2291 -7.6582 0.0000 0.0000 0.0000
# 2 -7.2291 74.7796 -0.7917 0.0000 0.0000 0.0000
# 3 -7.6582 -0.7917 132.4818 0.0000 0.0000 0.0000
# 4 0.0000 0.0000 0.0000 -9.2051 0.0000 0.0000
# 5 0.0000 0.0000 0.0000 0.0000 20.7780 0.0000
# 6 0.0000 0.0000 0.0000 0.0000 0.0000 14.0965
#
#
#
# Elastic Compliance Matrix: (Units=1/GPa)
#
#
# Indices 1 2 3 4 5 6 
#
# 1 0.019635 0.001910 0.001146 0.000000 0.000000 0.000000
# 2 0.001910 0.013559 0.000191 0.000000 0.000000 0.000000
# 3 0.001146 0.000191 0.007616 0.000000 0.000000 0.000000
# 4 0.000000 0.000000 0.000000 -0.108635 0.000000 0.000000
# 5 0.000000 0.000000 0.000000 0.000000 0.048128 0.000000
# 6 0.000000 0.000000 0.000000 0.000000 0.000000 0.070939
#
#
# Mechanical properties :
#
#
# Convention : Reuss Voigt Hill
#
# Bulk Modulus (GPa) = 21.13878 25.33145 23.23512
# Shear Modulus (GPa) = 82.62512 23.46856 53.04684
#
# Velocity S-wave (km/s) = 5.93451 3.16280 4.75509
# Velocity P-wave (km/s) = 7.48118 4.91275 6.32863
#
# Compressibility (1/GPa) = 0.04730641
#
# Stress axis : x y z
#
# Youngs Moduli (GPa) = 50.92929 73.74992 131.30907
#
# Poissons Ratio (x) = -0.14088 -0.15054
# Poissons Ratio (y) = -0.09729 -0.02514
# Poissons Ratio (z) = -0.05839 -0.01412
#
# Static dielectric constant tensor:
#      x y z
#    x 1.850300 0.000000 0.000000 
#    y 0.000000 1.888080 0.000000 
#    z 0.000000 0.000000 1.877430 
# 
# From -- ./inp_files/20393.got.cif
#   From: 2010.05.17/outbox.cif.g08.bks.cpg/sg62_11_cif.got.tgz:20393.got - 2010.06.03 15:25:27.
