data_PCOD9463134
_publ_section_title
;
Structure prediction by ZEFSAII (Michael W. Deem and Ramdas Pophale) SiO2 
 PCOD9463134
Probable space group: P N M A
;
_chemical_formula_sum "Si O2"
_cell_formula_units_Z 64
_cell_length_a 14.685917
_cell_length_b 8.966287
_cell_length_c 25.481906
_cell_angle_alpha 90.000000
_cell_angle_beta 90.000000
_cell_angle_gamma 90.000000
_cell_volume 3355.410156
_symmetry_space_group_name_H-M "P N M A"
_symmetry_group_IT_number 62
_symmetry_cell_setting 'orthorhombic'
loop_
_space_group_symop_operation_xyz
x,y,z
1/2-x,-y,1/2+z
1/2+x,1/2-y,1/2-z
-x,1/2+y,-z
-x,-y,-z
1/2+x,y,1/2-z
1/2-x,1/2+y,1/2+z
x,1/2-y,z
loop_
_atom_site_type_symbol
_atom_site_label
_atom_site_fract_x
_atom_site_fract_y
_atom_site_fract_z
Si Si1 0.030694 0.428138 0.329645
Si Si2 0.715693 0.428666 0.448441
Si Si3 0.862973 0.570704 0.376681
Si Si4 0.970133 0.928364 0.889782
Si Si5 0.739668 0.075011 0.770871
Si Si6 0.756042 0.928220 0.662862
Si Si7 0.458183 0.424928 0.719946
Si Si8 0.153700 0.929343 0.943617
O O1 0.020530 0.250000 0.331229
O O2 0.136604 0.466164 0.339643
O O3 0.007998 0.489275 0.271446
O O4 0.963950 0.506258 0.370743
O O5 0.724078 0.250000 0.448240
O O6 0.805031 0.503715 0.424155
O O7 0.628916 0.469678 0.411843
O O8 0.692789 0.487990 0.506121
O O9 0.863211 0.750000 0.379136
O O10 0.811842 0.522056 0.322793
O O11 0.972084 0.750000 0.880804
O O12 0.047792 0.963018 0.932342
O O13 0.990612 0.008768 0.835054
O O14 0.720582 0.250000 0.765043
O O15 0.848070 0.057203 0.779825
O O16 0.716562 0.996367 0.716278
O O17 0.748698 0.750000 0.667014
O O18 0.706111 0.973524 0.609660
O O19 0.479592 0.250000 0.724487
O O20 0.163034 0.750000 0.950499
#
# Coordination Sequence:
#
# PCOD9463134 Si02
#       8
#     8   8   8   8   8   8   8   8
#     4  10  21  37  57  84 118 153 191 241 291 345
#     4  11  23  39  59  86 117 153 196 243 292 346
#     4  11  22  38  59  86 116 153 196 240 292 348
#     4  10  21  36  56  85 119 154 193 235 287 346
#     4   9  19  34  54  81 114 149 186 231 283 338
#     4   9  20  38  59  83 114 151 192 237 291 343
#     4  10  19  34  55  83 118 155 190 229 282 343
#     4  10  22  40  60  83 113 153 196 241 291 347
#
# _framework density 19.073672999999999
#
# number of rings (size 3 to 8) (size 9 to 14) (size 15 to 20)
#    0.000    2.000    1.250    1.875    1.750    3.500 
#    0.000    0.625    0.000    0.000    0.000    0.000 
#    0.000    0.000    0.000    0.000    0.000    0.000 
#
# Total GULP energy -357579.979662 kJ/mol
# GULP energy per Si atom -5587.187182 kJ/mol
# Density = 1.903026 g / cm^3
# Si number density = 19.073673 Si / 1000 Ang^3
#
#
#
# Elastic Constant Matrix: (Units=GPa)
#
#
# Indices 1 2 3 4 5 6 
#
# 1 26.3590 11.8148 5.8116 0.0000 0.0000 0.0000
# 2 11.8148 27.5376 16.6482 0.0000 0.0000 0.0000
# 3 5.8116 16.6482 65.0233 0.0000 0.0000 0.0000
# 4 0.0000 0.0000 0.0000 35.9347 0.0000 0.0000
# 5 0.0000 0.0000 0.0000 0.0000 30.5060 0.0000
# 6 0.0000 0.0000 0.0000 0.0000 0.0000 19.3428
#
#
#
# Elastic Compliance Matrix: (Units=1/GPa)
#
#
# Indices 1 2 3 4 5 6 
#
# 1 0.047042 -0.020872 0.001139 0.000000 0.000000 0.000000
# 2 -0.020872 0.052225 -0.011506 0.000000 0.000000 0.000000
# 3 0.001139 -0.011506 0.018223 0.000000 0.000000 0.000000
# 4 0.000000 0.000000 0.000000 0.027828 0.000000 0.000000
# 5 0.000000 0.000000 0.000000 0.000000 0.032780 0.000000
# 6 0.000000 0.000000 0.000000 0.000000 0.000000 0.051699
#
#
# Mechanical properties :
#
#
# Convention : Reuss Voigt Hill
#
# Bulk Modulus (GPa) = 18.17742 20.82991 19.50367
# Shear Modulus (GPa) = 16.09729 22.79973 19.44851
#
# Velocity S-wave (km/s) = 2.90824 3.46114 3.19666
# Velocity P-wave (km/s) = 4.56376 5.18817 4.88595
#
# Compressibility (1/GPa) = 0.05501330
#
# Stress axis : x y z
#
# Youngs Moduli (GPa) = 21.25775 19.14798 54.87522
#
# Poissons Ratio (x) = 0.39965 -0.06253
# Poissons Ratio (y) = 0.44369 0.63139
# Poissons Ratio (z) = -0.02422 0.22031
#
# Static dielectric constant tensor:
#      x y z
#    x 1.690110 0.000000 0.000000 
#    y 0.000000 1.633830 0.000000 
#    z 0.000000 0.000000 1.632260 
# 
# From -- ./inp_files/29775.got.cif
#   From: 2010.05.17/outbox.cif.g08.bks.cpg/sg62_15_cif.got.tgz:29775.got - 2010.06.03 15:25:27.
