data_PCOD9463898
_publ_section_title
;
Structure prediction by ZEFSAII (Michael W. Deem and Ramdas Pophale) SiO2 
 PCOD9463898
Probable space group: P N M A
;
_chemical_formula_sum "Si O2"
_cell_formula_units_Z 36
_cell_length_a 6.774411
_cell_length_b 7.758780
_cell_length_c 25.172342
_cell_angle_alpha 90.000000
_cell_angle_beta 90.000000
_cell_angle_gamma 90.000000
_cell_volume 1323.087611
_symmetry_space_group_name_H-M "P N M A"
_symmetry_group_IT_number 62
_symmetry_cell_setting 'orthorhombic'
loop_
_space_group_symop_operation_xyz
x,y,z
1/2-x,-y,1/2+z
1/2+x,1/2-y,1/2-z
-x,1/2+y,-z
-x,-y,-z
1/2+x,y,1/2-z
1/2-x,1/2+y,1/2+z
x,1/2-y,z
loop_
_atom_site_type_symbol
_atom_site_label
_atom_site_fract_x
_atom_site_fract_y
_atom_site_fract_z
Si Si1 0.277227 0.455384 0.541324
Si Si2 0.823214 0.452613 0.572735
Si Si3 0.086179 0.441009 0.314416
Si Si4 0.939144 0.250000 0.770106
Si Si5 0.620551 0.059563 0.345442
O O1 0.301310 0.250000 0.544239
O O2 0.302507 0.512532 0.480435
O O3 0.389127 0.537574 0.591088
O O4 0.047514 0.497047 0.554967
O O5 0.814464 0.250000 0.583654
O O6 0.800306 0.544441 0.629307
O O7 0.120556 0.250000 0.291644
O O8 0.117681 0.598433 0.274146
O O9 0.854060 0.455380 0.329859
O O10 0.971169 0.401423 0.814291
O O11 0.555885 0.250000 0.329925
#
# Coordination Sequence:
#
# PCOD9463898 Si02
#       5
#     8   8   8   4   8
#     4   9  15  25  42  65  93 126 159 190 230 286
#     4   9  15  25  42  65  93 126 159 190 230 286
#     4  10  20  33  48  69  98 132 168 203 240 288
#     4  12  20  32  48  68 100 136 168 202 240 286
#     4  10  20  33  48  69  98 132 168 203 240 288
#
# _framework density 27.209085000000002
#
# number of rings (size 3 to 8) (size 9 to 14) (size 15 to 20)
#    0.000    2.222    2.222    2.667    0.000    5.333 
#    0.000    0.000    0.000    0.000    0.000    0.000 
#    0.000    7.111    0.000    0.444    0.000    0.000 
#
# Total GULP energy -200820.486670 kJ/mol
# GULP energy per Si atom -5578.346852 kJ/mol
# Density = 2.714716 g / cm^3
# Si number density = 27.209085 Si / 1000 Ang^3
#
#
#
# Elastic Constant Matrix: (Units=GPa)
#
#
# Indices 1 2 3 4 5 6 
#
# 1 97.9930 17.2747 43.3390 0.0000 0.0000 0.0000
# 2 17.2747 194.0371 151.1176 0.0000 0.0000 0.0000
# 3 43.3390 151.1176 233.8581 0.0000 0.0000 0.0000
# 4 0.0000 0.0000 0.0000 57.8817 0.0000 0.0000
# 5 0.0000 0.0000 0.0000 0.0000 -91.4624 0.0000
# 6 0.0000 0.0000 0.0000 0.0000 0.0000 -23.8350
#
#
#
# Elastic Compliance Matrix: (Units=1/GPa)
#
#
# Indices 1 2 3 4 5 6 
#
# 1 0.011265 0.001254 -0.002898 0.000000 0.000000 0.000000
# 2 0.001254 0.010515 -0.007027 0.000000 0.000000 0.000000
# 3 -0.002898 -0.007027 0.009354 0.000000 0.000000 0.000000
# 4 0.000000 0.000000 0.000000 0.017277 0.000000 0.000000
# 5 0.000000 0.000000 0.000000 0.000000 -0.010933 0.000000
# 6 0.000000 0.000000 0.000000 0.000000 0.000000 -0.041955
#
#
# Mechanical properties :
#
#
# Convention : Reuss Voigt Hill
#
# Bulk Modulus (GPa) = 72.50460 105.48343 88.99402
# Shear Modulus (GPa) = 286.34710 9.46064 147.90387
#
# Velocity S-wave (km/s) = 10.26976 1.86670 7.38080
# Velocity P-wave (km/s) = 12.93557 6.59530 10.26711
#
# Compressibility (1/GPa) = 0.01379223
#
# Stress axis : x y z
#
# Youngs Moduli (GPa) = 88.76670 95.10582 106.90686
#
# Poissons Ratio (x) = -0.11928 0.30984
# Poissons Ratio (y) = -0.11133 0.75122
# Poissons Ratio (z) = 0.25726 0.66830
#
# Static dielectric constant tensor:
#      x y z
#    x 2.350010 0.000000 0.000000 
#    y 0.000000 1.947020 0.000000 
#    z 0.000000 0.000000 2.027210 
# 
# From -- ./inp_files/23414.got.cif
#   From: 2010.05.17/outbox.cif.g08.bks.cpg/sg62_12_cif.got.tgz:23414.got - 2010.06.03 15:25:27.
