data_PCOD9463737
_publ_section_title
;
Structure prediction by ZEFSAII (Michael W. Deem and Ramdas Pophale) SiO2 
 PCOD9463737
Probable space group: P N M A
;
_chemical_formula_sum "Si O2"
_cell_formula_units_Z 52
_cell_length_a 26.526692
_cell_length_b 11.510755
_cell_length_c 7.116516
_cell_angle_alpha 90.000000
_cell_angle_beta 90.000000
_cell_angle_gamma 90.000000
_cell_volume 2172.973026
_symmetry_space_group_name_H-M "P N M A"
_symmetry_group_IT_number 62
_symmetry_cell_setting 'orthorhombic'
loop_
_space_group_symop_operation_xyz
x,y,z
1/2-x,-y,1/2+z
1/2+x,1/2-y,1/2-z
-x,1/2+y,-z
-x,-y,-z
1/2+x,y,1/2-z
1/2-x,1/2+y,1/2+z
x,1/2-y,z
loop_
_atom_site_type_symbol
_atom_site_label
_atom_site_fract_x
_atom_site_fract_y
_atom_site_fract_z
Si Si1 0.878819 0.581372 0.337373
Si Si2 0.311641 0.118467 0.180960
Si Si3 0.351098 0.623390 0.730528
Si Si4 0.729275 0.554036 0.415263
Si Si5 0.005313 0.378367 0.758222
Si Si6 0.703847 0.250000 0.723776
Si Si7 0.466475 0.878153 0.686061
O O1 0.865320 0.446010 0.319906
O O2 0.861492 0.620851 0.545452
O O3 0.936429 0.611781 0.303738
O O4 0.840571 0.649164 0.201576
O O5 0.314176 0.250000 0.117605
O O6 0.288272 0.109976 0.389683
O O7 0.272891 0.042628 0.059628
O O8 0.326336 0.750000 0.687418
O O9 0.317143 0.516468 0.671672
O O10 0.406850 0.617100 0.646031
O O11 0.755808 0.649991 0.289254
O O12 0.985552 0.250000 0.699062
O O13 0.979456 0.501789 0.707620
O O14 0.005186 0.377154 0.986491
O O15 0.475607 0.750000 0.775945
#
# Coordination Sequence:
#
# PCOD9463737 Si02
#       7
#     8   8   8   8   8   4   8
#     4  11  22  40  65  86 126 164 207 252 317 364
#     4  11  24  41  58  89 121 161 209 261 308 368
#     4  11  22  41  63  90 126 166 206 258 307 379
#     4  11  22  40  63  82 124 162 204 257 308 363
#     4  10  19  39  65  91 121 166 209 259 307 388
#     4  10  20  38  58  86 114 160 198 252 298 358
#     4   9  21  38  62  93 125 159 210 257 320 369
#
# _framework density 23.930347999999999
#
# number of rings (size 3 to 8) (size 9 to 14) (size 15 to 20)
#    0.000    1.538    2.308    3.231    0.000    1.231 
#   19.385    1.538    0.000    0.000    0.000    0.000 
#    0.000    0.000    0.000    0.000    0.000    0.000 
#
# Total GULP energy -289884.670786 kJ/mol
# GULP energy per Si atom -5574.705207 kJ/mol
# Density = 2.387588 g / cm^3
# Si number density = 23.930348 Si / 1000 Ang^3
#
#
#
# Elastic Constant Matrix: (Units=GPa)
#
#
# Indices 1 2 3 4 5 6 
#
# 1 57.6041 53.6675 -5.6520 0.0000 0.0000 0.0000
# 2 53.6675 249.6466 3.5719 0.0000 0.0000 0.0000
# 3 -5.6520 3.5719 55.9275 0.0000 0.0000 0.0000
# 4 0.0000 0.0000 0.0000 -14.6476 0.0000 0.0000
# 5 0.0000 0.0000 0.0000 0.0000 17.5105 0.0000
# 6 0.0000 0.0000 0.0000 0.0000 0.0000 1.3507
#
#
#
# Elastic Compliance Matrix: (Units=1/GPa)
#
#
# Indices 1 2 3 4 5 6 
#
# 1 0.022061 -0.004779 0.002535 0.000000 0.000000 0.000000
# 2 -0.004779 0.005044 -0.000805 0.000000 0.000000 0.000000
# 3 0.002535 -0.000805 0.018188 0.000000 0.000000 0.000000
# 4 0.000000 0.000000 0.000000 -0.068271 0.000000 0.000000
# 5 0.000000 0.000000 0.000000 0.000000 0.057108 0.000000
# 6 0.000000 0.000000 0.000000 0.000000 0.000000 0.740346
#
#
# Mechanical properties :
#
#
# Convention : Reuss Voigt Hill
#
# Bulk Modulus (GPa) = 25.51366 51.81699 38.66532
# Shear Modulus (GPa) = 6.30008 21.61546 13.95777
#
# Velocity S-wave (km/s) = 1.62431 3.00870 2.41771
# Velocity P-wave (km/s) = 3.76864 5.81119 4.89758
#
# Compressibility (1/GPa) = 0.03919469
#
# Stress axis : x y z
#
# Youngs Moduli (GPa) = 45.32942 198.23625 54.98169
#
# Poissons Ratio (x) = 0.94732 -0.13936
# Poissons Ratio (y) = 0.21662 0.04427
# Poissons Ratio (z) = -0.11489 0.15960
#
# Static dielectric constant tensor:
#      x y z
#    x 1.872270 0.000000 0.000000 
#    y 0.000000 1.939140 0.000000 
#    z 0.000000 0.000000 2.057720 
# 
# From -- ./inp_files/9833.got.cif
#   From: 2010.05.17/outbox.cif.g08.bks.cpg/sg62_5_cif.got.tgz:9833.got - 2010.06.03 15:25:27.
