data_PCOD9463975
_publ_section_title
;
Structure prediction by ZEFSAII (Michael W. Deem and Ramdas Pophale) SiO2 
 PCOD9463975
Probable space group: P N M A
;
_chemical_formula_sum "Si O2"
_cell_formula_units_Z 64
_cell_length_a 32.184366
_cell_length_b 9.611993
_cell_length_c 10.248086
_cell_angle_alpha 90.000000
_cell_angle_beta 90.000000
_cell_angle_gamma 90.000000
_cell_volume 3170.305875
_symmetry_space_group_name_H-M "P N M A"
_symmetry_group_IT_number 62
_symmetry_cell_setting 'orthorhombic'
loop_
_space_group_symop_operation_xyz
x,y,z
1/2-x,-y,1/2+z
1/2+x,1/2-y,1/2-z
-x,1/2+y,-z
-x,-y,-z
1/2+x,y,1/2-z
1/2-x,1/2+y,1/2+z
x,1/2-y,z
loop_
_atom_site_type_symbol
_atom_site_label
_atom_site_fract_x
_atom_site_fract_y
_atom_site_fract_z
Si Si1 0.532589 0.410192 0.313072
Si Si2 0.715203 0.915145 0.738262
Si Si3 0.738244 0.909887 0.024096
Si Si4 0.456143 0.914197 0.260326
Si Si5 0.355846 0.088364 0.876152
Si Si6 0.624959 0.085773 0.375576
Si Si7 0.638558 0.413714 0.671684
Si Si8 0.570002 0.410826 0.023839
O O1 0.523109 0.250000 0.343757
O O2 0.492475 0.503959 0.332070
O O3 0.575599 0.447931 0.384815
O O4 0.545289 0.420223 0.159645
O O5 0.710034 0.750000 0.724320
O O6 0.737917 0.983954 0.615764
O O7 0.670867 0.991108 0.747249
O O8 0.741121 0.940007 0.870549
O O9 0.752333 0.750000 0.047986
O O10 0.689519 0.916886 0.060658
O O11 0.461717 0.750000 0.282760
O O12 0.409252 0.950338 0.300832
O O13 0.456775 0.941414 0.104357
O O14 0.367240 0.250000 0.857889
O O15 0.356166 0.007881 0.738014
O O16 0.390568 0.011107 0.962435
O O17 0.627229 0.250000 0.339163
O O18 0.645253 0.068450 0.516420
O O19 0.643966 0.250000 0.703404
O O20 0.584303 0.250000 0.010495
#
# Coordination Sequence:
#
# PCOD9463975 Si02
#       8
#     8   8   8   8   8   8   8   8
#     4   9  18  32  50  76 110 150 194 242 292 345
#     4  11  25  43  66  94 123 158 201 245 298 361
#     4  10  24  44  63  92 129 159 194 247 302 357
#     4  10  20  33  53  80 110 150 195 239 291 352
#     4  10  20  35  59  86 114 146 191 245 292 345
#     4   9  20  38  57  80 115 157 196 239 297 355
#     4  10  22  40  60  82 116 156 195 245 299 354
#     4   9  18  33  52  78 113 149 188 234 293 360
#
# _framework density 20.187327
#
# number of rings (size 3 to 8) (size 9 to 14) (size 15 to 20)
#    0.000    2.250    0.000    2.625    1.750    6.000 
#    0.000    0.000    0.000    0.000    0.000    0.000 
#    0.000    0.000    0.000    0.000    0.000    0.000 
#
# Total GULP energy -357591.527737 kJ/mol
# GULP energy per Si atom -5587.367621 kJ/mol
# Density = 2.014138 g / cm^3
# Si number density = 20.187327 Si / 1000 Ang^3
#
#
#
# Elastic Constant Matrix: (Units=GPa)
#
#
# Indices 1 2 3 4 5 6 
#
# 1 54.4837 41.4374 17.5816 0.0000 0.0000 0.0000
# 2 41.4374 74.2110 42.8725 0.0000 0.0000 0.0000
# 3 17.5816 42.8725 67.5088 0.0000 0.0000 0.0000
# 4 0.0000 0.0000 0.0000 20.9049 0.0000 0.0000
# 5 0.0000 0.0000 0.0000 0.0000 21.2009 0.0000
# 6 0.0000 0.0000 0.0000 0.0000 0.0000 32.2764
#
#
#
# Elastic Compliance Matrix: (Units=1/GPa)
#
#
# Indices 1 2 3 4 5 6 
#
# 1 0.032894 -0.021194 0.004893 0.000000 0.000000 0.000000
# 2 -0.021194 0.034939 -0.016669 0.000000 0.000000 0.000000
# 3 0.004893 -0.016669 0.024124 0.000000 0.000000 0.000000
# 4 0.000000 0.000000 0.000000 0.047836 0.000000 0.000000
# 5 0.000000 0.000000 0.000000 0.000000 0.047168 0.000000
# 6 0.000000 0.000000 0.000000 0.000000 0.000000 0.030982
#
#
# Mechanical properties :
#
#
# Convention : Reuss Voigt Hill
#
# Bulk Modulus (GPa) = 38.43564 44.44297 41.43930
# Shear Modulus (GPa) = 17.09077 21.16391 19.12734
#
# Velocity S-wave (km/s) = 2.91281 3.24138 3.08148
# Velocity P-wave (km/s) = 5.51303 6.00598 5.76477
#
# Compressibility (1/GPa) = 0.02601752
#
# Stress axis : x y z
#
# Youngs Moduli (GPa) = 30.40063 28.62142 41.45165
#
# Poissons Ratio (x) = 0.60659 -0.20281
# Poissons Ratio (y) = 0.64430 0.69095
# Poissons Ratio (z) = -0.14874 0.47709
#
# Static dielectric constant tensor:
#      x y z
#    x 1.717360 0.000000 0.000000 
#    y 0.000000 1.671630 0.000000 
#    z 0.000000 0.000000 1.742930 
# 
# From -- ./inp_files/15852.got.cif
#   From: 2010.05.17/outbox.cif.g08.bks.cpg/sg62_8_cif.got.tgz:15852.got - 2010.06.03 15:25:27.
