data_PCOD9463754
_publ_section_title
;
Structure prediction by ZEFSAII (Michael W. Deem and Ramdas Pophale) SiO2 
 PCOD9463754
Probable space group: P N M A
;
_chemical_formula_sum "Si O2"
_cell_formula_units_Z 48
_cell_length_a 8.290192
_cell_length_b 16.446389
_cell_length_c 15.304970
_cell_angle_alpha 90.000000
_cell_angle_beta 90.000000
_cell_angle_gamma 90.000000
_cell_volume 2086.736583
_symmetry_space_group_name_H-M "P N M A"
_symmetry_group_IT_number 62
_symmetry_cell_setting 'orthorhombic'
loop_
_space_group_symop_operation_xyz
x,y,z
1/2-x,-y,1/2+z
1/2+x,1/2-y,1/2-z
-x,1/2+y,-z
-x,-y,-z
1/2+x,y,1/2-z
1/2-x,1/2+y,1/2+z
x,1/2-y,z
loop_
_atom_site_type_symbol
_atom_site_label
_atom_site_fract_x
_atom_site_fract_y
_atom_site_fract_z
Si Si1 0.419551 0.250000 0.622611
Si Si2 0.038972 0.342783 0.584924
Si Si3 0.915162 0.002428 0.129344
Si Si4 0.529429 0.125250 0.487149
Si Si5 0.713324 0.750000 0.187390
Si Si6 0.711797 0.008629 0.816551
Si Si7 0.866853 0.341119 0.404315
O O1 0.426501 0.174767 0.556746
O O2 0.601286 0.250000 0.664399
O O3 0.316623 0.250000 0.710300
O O4 0.112978 0.250000 0.582334
O O5 0.131073 0.416304 0.631423
O O6 0.878693 0.325420 0.642886
O O7 0.983633 0.359403 0.486367
O O8 0.100471 0.992051 0.159541
O O9 0.809525 0.983479 0.212828
O O10 0.912067 0.092139 0.088151
O O11 0.890289 0.945868 0.045520
O O12 0.684542 0.165073 0.442763
O O13 0.636183 0.920809 0.843273
O O14 0.906768 0.250000 0.369248
#
# Coordination Sequence:
#
# PCOD9463754 Si02
#       7
#     4   8   8   8   4   8   8
#     4  12  20  38  64  89 129 159 201 264 318 380
#     4   9  19  37  58  93 127 161 208 255 327 382
#     4  10  25  40  62  92 124 167 215 258 318 379
#     4  10  20  41  64  86 124 168 206 251 319 389
#     4  10  22  32  60  95 121 161 203 260 320 384
#     4  11  23  41  62  94 129 166 214 269 311 374
#     4  10  19  40  68  92 122 173 210 260 321 377
#
# _framework density 23.002424999999999
#
# number of rings (size 3 to 8) (size 9 to 14) (size 15 to 20)
#    0.500    1.333    2.500    1.500    2.333    4.000 
#    6.000    0.000    0.000    0.000    0.000    0.000 
#    0.000    0.000    0.000    0.000    0.000    0.000 
#
# Total GULP energy -268155.321168 kJ/mol
# GULP energy per Si atom -5586.569191 kJ/mol
# Density = 2.295007 g / cm^3
# Si number density = 23.002425 Si / 1000 Ang^3
#
#
#
# Elastic Constant Matrix: (Units=GPa)
#
#
# Indices 1 2 3 4 5 6 
#
# 1 28.4776 21.4089 6.7938 0.0000 0.0000 0.0000
# 2 21.4089 116.4155 35.3935 0.0000 0.0000 0.0000
# 3 6.7938 35.3935 51.3420 0.0000 0.0000 0.0000
# 4 0.0000 0.0000 0.0000 1.2699 0.0000 0.0000
# 5 0.0000 0.0000 0.0000 0.0000 3.1734 0.0000
# 6 0.0000 0.0000 0.0000 0.0000 0.0000 -24.5723
#
#
#
# Elastic Compliance Matrix: (Units=1/GPa)
#
#
# Indices 1 2 3 4 5 6 
#
# 1 0.040752 -0.007407 -0.000286 0.000000 0.000000 0.000000
# 2 -0.007407 0.012214 -0.007440 0.000000 0.000000 0.000000
# 3 -0.000286 -0.007440 0.024644 0.000000 0.000000 0.000000
# 4 0.000000 0.000000 0.000000 0.787473 0.000000 0.000000
# 5 0.000000 0.000000 0.000000 0.000000 0.315120 0.000000
# 6 0.000000 0.000000 0.000000 0.000000 0.000000 -0.040696
#
#
# Mechanical properties :
#
#
# Convention : Reuss Voigt Hill
#
# Bulk Modulus (GPa) = 21.12215 35.93640 28.52928
# Shear Modulus (GPa) = 4.21743 4.81679 4.51711
#
# Velocity S-wave (km/s) = 1.35553 1.44865 1.40286
# Velocity P-wave (km/s) = 3.41357 4.29592 3.87991
#
# Compressibility (1/GPa) = 0.04734366
#
# Stress axis : x y z
#
# Youngs Moduli (GPa) = 24.53846 81.87291 40.57814
#
# Poissons Ratio (x) = 0.60647 0.01161
# Poissons Ratio (y) = 0.18177 0.30189
# Poissons Ratio (z) = 0.00702 0.60912
#
# Static dielectric constant tensor:
#      x y z
#    x 1.942920 0.000000 0.000000 
#    y 0.000000 1.960260 0.000000 
#    z 0.000000 0.000000 1.806470 
# 
# From -- ./inp_files/17012.got.cif
#   From: 2010.05.17/outbox.cif.g08.bks.cpg/sg62_9_cif.got.tgz:17012.got - 2010.06.03 15:25:27.
