data_PCOD9463409
_publ_section_title
;
Structure prediction by ZEFSAII (Michael W. Deem and Ramdas Pophale) SiO2 
 PCOD9463409
Probable space group: P N M A
;
_chemical_formula_sum "Si O2"
_cell_formula_units_Z 32
_cell_length_a 10.789116
_cell_length_b 5.266231
_cell_length_c 30.030323
_cell_angle_alpha 90.000000
_cell_angle_beta 90.000000
_cell_angle_gamma 90.000000
_cell_volume 1706.262206
_symmetry_space_group_name_H-M "P N M A"
_symmetry_group_IT_number 62
_symmetry_cell_setting 'orthorhombic'
loop_
_space_group_symop_operation_xyz
x,y,z
1/2-x,-y,1/2+z
1/2+x,1/2-y,1/2-z
-x,1/2+y,-z
-x,-y,-z
1/2+x,y,1/2-z
1/2-x,1/2+y,1/2+z
x,1/2-y,z
loop_
_atom_site_type_symbol
_atom_site_label
_atom_site_fract_x
_atom_site_fract_y
_atom_site_fract_z
Si Si1 0.780658 0.250000 0.596622
Si Si2 0.691333 0.750000 0.353683
Si Si3 0.431751 0.750000 0.795645
Si Si4 0.918444 0.750000 0.810390
Si Si5 0.607360 0.750000 0.453627
Si Si6 0.522034 0.250000 0.844874
Si Si7 0.331881 0.750000 0.494892
Si Si8 0.311119 0.250000 0.354238
O O1 0.919796 0.250000 0.615965
O O2 0.770437 0.250000 0.543554
O O3 0.714043 0.500319 0.616236
O O4 0.652812 0.500578 0.326499
O O5 0.621667 0.750000 0.400870
O O6 0.838170 0.750000 0.361714
O O7 0.432284 0.750000 0.742653
O O8 0.496599 0.499483 0.815303
O O9 0.291840 0.750000 0.815148
O O10 0.052939 0.750000 0.833664
O O11 0.463666 0.750000 0.468572
O O12 0.668268 0.499515 0.474799
#
# Coordination Sequence:
#
# PCOD9463409 Si02
#       8
#     4   4   4   4   4   4   4   4
#     4  10  20  39  61  86 112 163 198 240 295 345
#     4  12  25  40  60  89 124 158 192 242 308 355
#     4  10  23  41  59  86 113 156 204 238 295 342
#     4  12  24  38  62  88 114 160 194 250 293 354
#     4  10  21  35  55  90 118 151 190 246 297 343
#     4  10  23  42  61  82 124 159 193 247 291 358
#     4  10  19  35  60  82 119 151 195 247 287 346
#     4  10  21  36  60  85 118 144 204 252 280 351
#
# _framework density 18.754443999999999
#
# number of rings (size 3 to 8) (size 9 to 14) (size 15 to 20)
#    0.000    1.500    0.000    5.250    3.500    2.000 
#    0.000    1.250    0.000    0.000    0.000    0.000 
#    0.000    0.000    0.000    0.000    0.000    0.000 
#
# Total GULP energy -178945.602012 kJ/mol
# GULP energy per Si atom -5592.050063 kJ/mol
# Density = 1.871176 g / cm^3
# Si number density = 18.754444 Si / 1000 Ang^3
#
#
#
# Elastic Constant Matrix: (Units=GPa)
#
#
# Indices 1 2 3 4 5 6 
#
# 1 45.4680 13.9840 -19.7268 0.0000 0.0000 0.0000
# 2 13.9840 156.5307 16.5202 0.0000 0.0000 0.0000
# 3 -19.7268 16.5202 50.4457 0.0000 0.0000 0.0000
# 4 0.0000 0.0000 0.0000 13.9685 0.0000 0.0000
# 5 0.0000 0.0000 0.0000 0.0000 -1.4586 0.0000
# 6 0.0000 0.0000 0.0000 0.0000 0.0000 23.3091
#
#
#
# Elastic Compliance Matrix: (Units=1/GPa)
#
#
# Indices 1 2 3 4 5 6 
#
# 1 0.028581 -0.003867 0.012443 0.000000 0.000000 0.000000
# 2 -0.003867 0.007140 -0.003850 0.000000 0.000000 0.000000
# 3 0.012443 -0.003850 0.025950 0.000000 0.000000 0.000000
# 4 0.000000 0.000000 0.000000 0.071590 0.000000 0.000000
# 5 0.000000 0.000000 0.000000 0.000000 -0.685566 0.000000
# 6 0.000000 0.000000 0.000000 0.000000 0.000000 0.042902
#
#
# Mechanical properties :
#
#
# Convention : Reuss Voigt Hill
#
# Bulk Modulus (GPa) = 14.06007 30.44439 22.25223
# Shear Modulus (GPa) = -10.09802 23.27490 6.58844
#
# Velocity S-wave (km/s) = -2.32293 3.52665 1.87633
# Velocity P-wave (km/s) = 0.56436 5.73162 4.07247
#
# Compressibility (1/GPa) = 0.07112340
#
# Stress axis : x y z
#
# Youngs Moduli (GPa) = 34.98803 140.04971 38.53563
#
# Poissons Ratio (x) = 0.54152 -0.47950
# Poissons Ratio (y) = 0.13528 0.14838
# Poissons Ratio (z) = -0.43535 0.53924
#
# Static dielectric constant tensor:
#      x y z
#    x 1.637180 0.000000 0.000000 
#    y 0.000000 1.630500 0.000000 
#    z 0.000000 0.000000 1.610440 
# 
# From -- ./inp_files/30614.got.cif
#   From: 2010.05.17/outbox.cif.g08.bks.cpg/sg62_16_cif.got.tgz:30614.got - 2010.06.03 15:25:27.
