data_PCOD9463004
_publ_section_title
;
Structure prediction by ZEFSAII (Michael W. Deem and Ramdas Pophale) SiO2 
 PCOD9463004
Probable space group: P N M A
;
_chemical_formula_sum "Si O2"
_cell_formula_units_Z 48
_cell_length_a 30.283641
_cell_length_b 8.421811
_cell_length_c 10.469969
_cell_angle_alpha 90.000000
_cell_angle_beta 90.000000
_cell_angle_gamma 90.000000
_cell_volume 2670.293360
_symmetry_space_group_name_H-M "P N M A"
_symmetry_group_IT_number 62
_symmetry_cell_setting 'orthorhombic'
loop_
_space_group_symop_operation_xyz
x,y,z
1/2-x,-y,1/2+z
1/2+x,1/2-y,1/2-z
-x,1/2+y,-z
-x,-y,-z
1/2+x,y,1/2-z
1/2-x,1/2+y,1/2+z
x,1/2-y,z
loop_
_atom_site_type_symbol
_atom_site_label
_atom_site_fract_x
_atom_site_fract_y
_atom_site_fract_z
Si Si1 0.884850 0.559938 0.221468
Si Si2 0.024652 0.940062 0.875138
Si Si3 0.473276 0.557788 0.876989
Si Si4 0.716899 0.442279 0.005001
Si Si5 0.617258 0.442827 0.015711
Si Si6 0.213144 0.559672 0.782388
O O1 0.883638 0.750000 0.218214
O O2 0.925198 0.499315 0.137219
O O3 0.893106 0.510098 0.369283
O O4 0.836529 0.496219 0.186793
O O5 0.024827 0.750000 0.874095
O O6 0.997577 0.997742 0.750640
O O7 0.000000 0.000000 0.000000
O O8 0.473490 0.750000 0.876597
O O9 0.500000 0.500000 0.000000
O O10 0.422496 0.503857 0.893804
O O11 0.717087 0.250000 0.003035
O O12 0.667225 0.495158 0.043285
O O13 0.724717 0.498337 0.859813
O O14 0.752737 0.495814 0.108714
O O15 0.617620 0.250000 0.018700
O O16 0.214074 0.750000 0.779239
#
# Coordination Sequence:
#
# PCOD9463004 Si02
#       6
#     8   8   8   8   8   8
#     4  10  19  35  59  80 106 147 185 224 276 333
#     4  11  23  37  54  80 115 150 184 226 275 331
#     4  10  19  33  56  82 107 138 179 222 265 318
#     4   9  19  36  56  79 111 145 179 222 273 326
#     4   8  15  31  55  79 103 135 176 221 267 317
#     4  10  20  35  57  84 113 144 181 229 275 326
#
# _framework density 17.975552
#
# number of rings (size 3 to 8) (size 9 to 14) (size 15 to 20)
#    0.000    2.333    1.667    2.500    0.000    2.000 
#    3.000    0.000    0.000    0.000    0.000    0.000 
#    0.000    0.000    0.000    0.000    0.000    0.000 
#
# Total GULP energy -267739.900559 kJ/mol
# GULP energy per Si atom -5577.914595 kJ/mol
# Density = 1.793464 g / cm^3
# Si number density = 17.975552 Si / 1000 Ang^3
#
#
#
# Elastic Constant Matrix: (Units=GPa)
#
#
# Indices 1 2 3 4 5 6 
#
# 1 170.1906 24.0089 101.0313 0.0000 0.0000 0.0000
# 2 24.0089 23.8012 18.9914 0.0000 0.0000 0.0000
# 3 101.0313 18.9914 122.4351 0.0000 0.0000 0.0000
# 4 0.0000 0.0000 0.0000 23.6581 0.0000 0.0000
# 5 0.0000 0.0000 0.0000 0.0000 38.5088 0.0000
# 6 0.0000 0.0000 0.0000 0.0000 0.0000 23.9492
#
#
#
# Elastic Compliance Matrix: (Units=1/GPa)
#
#
# Indices 1 2 3 4 5 6 
#
# 1 0.011978 -0.004788 -0.009141 0.000000 0.000000 0.000000
# 2 -0.004788 0.049864 -0.003783 0.000000 0.000000 0.000000
# 3 -0.009141 -0.003783 0.016297 0.000000 0.000000 0.000000
# 4 0.000000 0.000000 0.000000 0.042269 0.000000 0.000000
# 5 0.000000 0.000000 0.000000 0.000000 0.025968 0.000000
# 6 0.000000 0.000000 0.000000 0.000000 0.000000 0.041755
#
#
# Mechanical properties :
#
#
# Convention : Reuss Voigt Hill
#
# Bulk Modulus (GPa) = 23.41188 67.16559 45.28873
# Shear Modulus (GPa) = 21.02659 28.71623 24.87141
#
# Velocity S-wave (km/s) = 3.42385 4.00123 3.72375
# Velocity P-wave (km/s) = 5.35564 7.66763 6.61345
#
# Compressibility (1/GPa) = 0.04271336
#
# Stress axis : x y z
#
# Youngs Moduli (GPa) = 83.48821 20.05470 61.35925
#
# Poissons Ratio (x) = 0.09603 0.56089
# Poissons Ratio (y) = 0.39978 0.23214
# Poissons Ratio (z) = 0.76317 0.07587
#
# Static dielectric constant tensor:
#      x y z
#    x 1.627470 0.000000 0.000000 
#    y 0.000000 1.616030 0.000000 
#    z 0.000000 0.000000 1.604970 
# 
# From -- ./inp_files/10188.got.cif
#   From: 2010.05.17/outbox.cif.g08.bks.cpg/sg62_6_cif.got.tgz:10188.got - 2010.06.03 15:25:27.
