data_PCOD9463731
_publ_section_title
;
Structure prediction by ZEFSAII (Michael W. Deem and Ramdas Pophale) SiO2 
 PCOD9463731
Probable space group: P N M A
;
_chemical_formula_sum "Si O2"
_cell_formula_units_Z 56
_cell_length_a 22.211034
_cell_length_b 8.433193
_cell_length_c 15.117879
_cell_angle_alpha 90.000000
_cell_angle_beta 90.000000
_cell_angle_gamma 90.000000
_cell_volume 2831.728955
_symmetry_space_group_name_H-M "P N M A"
_symmetry_group_IT_number 62
_symmetry_cell_setting 'orthorhombic'
loop_
_space_group_symop_operation_xyz
x,y,z
1/2-x,-y,1/2+z
1/2+x,1/2-y,1/2-z
-x,1/2+y,-z
-x,-y,-z
1/2+x,y,1/2-z
1/2-x,1/2+y,1/2+z
x,1/2-y,z
loop_
_atom_site_type_symbol
_atom_site_label
_atom_site_fract_x
_atom_site_fract_y
_atom_site_fract_z
Si Si1 0.754952 0.941763 0.386886
Si Si2 0.960965 0.439504 0.581722
Si Si3 0.401331 0.560095 0.398071
Si Si4 0.012955 0.556360 0.222137
Si Si5 0.719674 0.939950 0.693599
Si Si6 0.383039 0.058708 0.591556
Si Si7 0.325234 0.941794 0.936035
O O1 0.754763 0.750000 0.385434
O O2 0.685778 0.996481 0.397642
O O3 0.794187 0.991027 0.471522
O O4 0.780130 0.002284 0.294156
O O5 0.963630 0.250000 0.582016
O O6 0.986060 0.497370 0.676532
O O7 0.891818 0.491674 0.573353
O O8 0.000000 0.500000 0.500000
O O9 0.402664 0.750000 0.400837
O O10 0.455024 0.504730 0.333843
O O11 0.337683 0.504510 0.359098
O O12 0.407961 0.495954 0.497148
O O13 0.012571 0.750000 0.222694
O O14 0.073206 0.505845 0.170346
O O15 0.717698 0.750000 0.690648
O O16 0.780678 0.991865 0.643239
O O17 0.382071 0.250000 0.591912
O O18 0.328340 0.750000 0.935639
#
# Coordination Sequence:
#
# PCOD9463731 Si02
#       7
#     8   8   8   8   8   8   8
#     4  10  21  38  62  88 120 160 197 244 308 366
#     4  11  24  43  65  90 121 161 209 255 304 365
#     4  11  22  37  59  90 123 159 200 247 303 362
#     4   9  21  39  61  86 119 161 202 245 302 365
#     4  11  23  40  61  90 123 159 205 254 302 361
#     4  10  19  39  64  89 121 160 199 243 304 362
#     4  10  22  42  63  87 123 161 198 249 308 359
#
# _framework density 19.775904000000001
#
# number of rings (size 3 to 8) (size 9 to 14) (size 15 to 20)
#    0.000    1.714    1.429    2.571    2.000    3.429 
#    0.000    4.286    0.000    0.000    0.000    0.000 
#    0.000    0.000    0.000    0.000    0.000    0.000 
#
# Total GULP energy -313020.795841 kJ/mol
# GULP energy per Si atom -5589.657069 kJ/mol
# Density = 1.973089 g / cm^3
# Si number density = 19.775904 Si / 1000 Ang^3
#
#
#
# Elastic Constant Matrix: (Units=GPa)
#
#
# Indices 1 2 3 4 5 6 
#
# 1 47.9402 -4.0468 2.4462 0.0000 0.0000 0.0000
# 2 -4.0468 8.4445 0.6280 0.0000 0.0000 0.0000
# 3 2.4462 0.6280 117.1586 0.0000 0.0000 0.0000
# 4 0.0000 0.0000 0.0000 28.5817 0.0000 0.0000
# 5 0.0000 0.0000 0.0000 0.0000 27.9806 0.0000
# 6 0.0000 0.0000 0.0000 0.0000 0.0000 26.3606
#
#
#
# Elastic Compliance Matrix: (Units=1/GPa)
#
#
# Indices 1 2 3 4 5 6 
#
# 1 0.021769 0.010470 -0.000511 0.000000 0.000000 0.000000
# 2 0.010470 0.123504 -0.000881 0.000000 0.000000 0.000000
# 3 -0.000511 -0.000881 0.008551 0.000000 0.000000 0.000000
# 4 0.000000 0.000000 0.000000 0.034987 0.000000 0.000000
# 5 0.000000 0.000000 0.000000 0.000000 0.035739 0.000000
# 6 0.000000 0.000000 0.000000 0.000000 0.000000 0.037935
#
#
# Mechanical properties :
#
#
# Convention : Reuss Voigt Hill
#
# Bulk Modulus (GPa) = 5.81458 19.06646 12.44052
# Shear Modulus (GPa) = 16.57524 28.21897 22.39710
#
# Velocity S-wave (km/s) = 2.89823 3.78158 3.36898
# Velocity P-wave (km/s) = 3.76115 5.35997 4.63010
#
# Compressibility (1/GPa) = 0.17198142
#
# Stress axis : x y z
#
# Youngs Moduli (GPa) = 45.93652 8.09693 116.94782
#
# Poissons Ratio (x) = -0.08478 0.05972
# Poissons Ratio (y) = -0.48096 0.10298
# Poissons Ratio (z) = 0.02346 0.00713
#
# Static dielectric constant tensor:
#      x y z
#    x 1.672270 0.000000 0.000000 
#    y 0.000000 1.684930 0.000000 
#    z 0.000000 0.000000 1.675990 
# 
# From -- ./inp_files/20309.got.cif
#   From: 2010.05.17/outbox.cif.g08.bks.cpg/sg62_11_cif.got.tgz:20309.got - 2010.06.03 15:25:27.
