data_PCOD9463153
_publ_section_title
;
Structure prediction by ZEFSAII (Michael W. Deem and Ramdas Pophale) SiO2 
 PCOD9463153
Probable space group: P N M A
;
_chemical_formula_sum "Si O2"
_cell_formula_units_Z 64
_cell_length_a 12.317926
_cell_length_b 16.448223
_cell_length_c 13.225209
_cell_angle_alpha 90.000000
_cell_angle_beta 90.000000
_cell_angle_gamma 90.000000
_cell_volume 2679.533062
_symmetry_space_group_name_H-M "P N M A"
_symmetry_group_IT_number 62
_symmetry_cell_setting 'orthorhombic'
loop_
_space_group_symop_operation_xyz
x,y,z
1/2-x,-y,1/2+z
1/2+x,1/2-y,1/2-z
-x,1/2+y,-z
-x,-y,-z
1/2+x,y,1/2-z
1/2-x,1/2+y,1/2+z
x,1/2-y,z
loop_
_atom_site_type_symbol
_atom_site_label
_atom_site_fract_x
_atom_site_fract_y
_atom_site_fract_z
Si Si1 0.347051 0.542312 0.915604
Si Si2 0.631203 0.883145 0.356780
Si Si3 0.728750 0.535464 0.871390
Si Si4 0.339010 0.341922 0.406234
Si Si5 0.584767 0.160827 0.369869
Si Si6 0.552798 0.843282 0.928480
Si Si7 0.402840 0.657260 0.389279
Si Si8 0.654594 0.625300 0.144800
O O1 0.391184 0.467137 0.851301
O O2 0.301312 0.494866 0.014105
O O3 0.245407 0.590709 0.871570
O O4 0.439457 0.608404 0.937621
O O5 0.654273 0.847609 0.469384
O O6 0.502375 0.903330 0.365997
O O7 0.629446 0.834643 0.251881
O O8 0.726787 0.948116 0.334883
O O9 0.832935 0.590356 0.844476
O O10 0.629505 0.599240 0.858991
O O11 0.305383 0.250000 0.382114
O O12 0.457517 0.356146 0.359625
O O13 0.610614 0.250000 0.326040
O O14 0.598956 0.166061 0.490418
O O15 0.542473 0.750000 0.892315
O O16 0.605406 0.839128 0.041354
O O17 0.419914 0.750000 0.349453
O O18 0.284611 0.626328 0.362286
#
# Coordination Sequence:
#
# PCOD9463153 Si02
#       8
#     8   8   8   8   8   8   8   8
#     4  10  21  35  58  82 113 150 201 240 276 332
#     4  10  23  34  52  85 119 152 179 235 295 347
#     4  10  19  34  56  81 111 143 191 236 282 334
#     4   9  19  34  54  83 115 146 185 233 289 339
#     4   9  16  30  55  81 104 134 183 237 277 329
#     4  11  22  38  61  83 110 152 203 244 279 332
#     4  10  20  34  54  82 113 148 186 227 283 342
#     4  11  22  37  56  84 116 152 194 233 285 348
#
# _framework density 23.884757
#
# number of rings (size 3 to 8) (size 9 to 14) (size 15 to 20)
#    0.000    2.000    2.500    3.750    1.750    6.500 
#    0.000    0.000    0.000    3.000    0.000    0.000 
#    0.000    0.000    0.000    0.000    0.000    0.000 
#
# Total GULP energy -356409.121386 kJ/mol
# GULP energy per Si atom -5568.892522 kJ/mol
# Density = 2.383039 g / cm^3
# Si number density = 23.884757 Si / 1000 Ang^3
#
#
#
# Elastic Constant Matrix: (Units=GPa)
#
#
# Indices 1 2 3 4 5 6 
#
# 1 54.2976 42.6934 15.4205 0.0000 0.0000 0.0000
# 2 42.6934 141.5731 10.5808 0.0000 0.0000 0.0000
# 3 15.4205 10.5808 70.7034 0.0000 0.0000 0.0000
# 4 0.0000 0.0000 0.0000 186.9530 0.0000 0.0000
# 5 0.0000 0.0000 0.0000 0.0000 15.1067 0.0000
# 6 0.0000 0.0000 0.0000 0.0000 0.0000 69.9019
#
#
#
# Elastic Compliance Matrix: (Units=1/GPa)
#
#
# Indices 1 2 3 4 5 6 
#
# 1 0.025456 -0.007344 -0.004453 0.000000 0.000000 0.000000
# 2 -0.007344 0.009262 0.000216 0.000000 0.000000 0.000000
# 3 -0.004453 0.000216 0.015083 0.000000 0.000000 0.000000
# 4 0.000000 0.000000 0.000000 0.005349 0.000000 0.000000
# 5 0.000000 0.000000 0.000000 0.000000 0.066196 0.000000
# 6 0.000000 0.000000 0.000000 0.000000 0.000000 0.014306
#
#
# Mechanical properties :
#
#
# Convention : Reuss Voigt Hill
#
# Bulk Modulus (GPa) = 37.54010 44.88486 41.21248
# Shear Modulus (GPa) = 29.81643 67.58427 48.70035
#
# Velocity S-wave (km/s) = 3.53703 5.32517 4.52040
# Velocity P-wave (km/s) = 5.69491 7.52615 6.67364
#
# Compressibility (1/GPa) = 0.02663818
#
# Stress axis : x y z
#
# Youngs Moduli (GPa) = 39.28346 107.96799 66.30191
#
# Poissons Ratio (x) = 0.79290 0.29524
# Poissons Ratio (y) = 0.28849 -0.01430
# Poissons Ratio (z) = 0.17493 -0.02328
#
# Static dielectric constant tensor:
#      x y z
#    x 1.940270 0.000000 0.000000 
#    y 0.000000 1.953970 0.000000 
#    z 0.000000 0.000000 2.028710 
# 
# From -- ./inp_files/23333.got.cif
#   From: 2010.05.17/outbox.cif.g08.bks.cpg/sg62_12_cif.got.tgz:23333.got - 2010.06.03 15:25:27.
