data_PCOD9463678
_publ_section_title
;
Structure prediction by ZEFSAII (Michael W. Deem and Ramdas Pophale) SiO2 
 PCOD9463678
Probable space group: P N M A
;
_chemical_formula_sum "Si O2"
_cell_formula_units_Z 64
_cell_length_a 14.605937
_cell_length_b 30.706991
_cell_length_c 6.474283
_cell_angle_alpha 90.000000
_cell_angle_beta 90.000000
_cell_angle_gamma 90.000000
_cell_volume 2903.744257
_symmetry_space_group_name_H-M "P N M A"
_symmetry_group_IT_number 62
_symmetry_cell_setting 'orthorhombic'
loop_
_space_group_symop_operation_xyz
x,y,z
1/2-x,-y,1/2+z
1/2+x,1/2-y,1/2-z
-x,1/2+y,-z
-x,-y,-z
1/2+x,y,1/2-z
1/2-x,1/2+y,1/2+z
x,1/2-y,z
loop_
_atom_site_type_symbol
_atom_site_label
_atom_site_fract_x
_atom_site_fract_y
_atom_site_fract_z
Si Si1 0.529708 0.560208 0.397904
Si Si2 0.137302 0.019322 0.149390
Si Si3 0.712764 0.699237 0.571539
Si Si4 0.230183 0.408859 0.920226
Si Si5 0.119724 0.353764 0.243524
Si Si6 0.892290 0.565151 0.459522
Si Si7 0.605212 0.643874 0.241927
Si Si8 0.458356 0.199342 0.127955
O O1 0.619692 0.530307 0.413394
O O2 0.455196 0.543386 0.562053
O O3 0.479690 0.552867 0.177708
O O4 0.552221 0.611143 0.395946
O O5 0.138222 0.026239 0.393027
O O6 0.219907 0.046728 0.051622
O O7 0.731285 0.750000 0.531201
O O8 0.802351 0.673457 0.638798
O O9 0.668016 0.676139 0.373960
O O10 0.639116 0.696447 0.757439
O O11 0.185066 0.420119 0.701307
O O12 0.329251 0.388261 0.890563
O O13 0.166153 0.373913 0.039714
O O14 0.091549 0.394180 0.389143
O O15 0.034027 0.321925 0.223468
O O16 0.545341 0.672066 0.084285
O O17 0.478419 0.250000 0.088999
#
# Coordination Sequence:
#
# PCOD9463678 Si02
#       8
#     8   8   8   8   8   8   8   8
#     4  10  21  38  65  92 127 169 216 267 325 385
#     4   9  21  40  60  94 127 168 218 268 317 383
#     4  11  25  43  64  95 132 169 215 271 329 387
#     4  10  22  39  60  90 128 167 219 260 318 392
#     4  11  21  41  68  91 128 174 215 263 329 391
#     4  10  19  37  64  89 119 166 212 261 314 385
#     4  12  23  41  64  94 129 175 213 268 327 393
#     4  11  25  43  66  97 129 165 221 273 325 395
#
# _framework density 22.040507999999999
#
# number of rings (size 3 to 8) (size 9 to 14) (size 15 to 20)
#    0.000    1.500    3.750    1.125    5.250    0.000 
#    2.250    0.000    0.000    0.000    0.000    0.000 
#    0.000    0.000    0.000    0.000    0.000    0.000 
#
# Total GULP energy -357836.653409 kJ/mol
# GULP energy per Si atom -5591.197710 kJ/mol
# Density = 2.199034 g / cm^3
# Si number density = 22.040508 Si / 1000 Ang^3
#
#
#
# Elastic Constant Matrix: (Units=GPa)
#
#
# Indices 1 2 3 4 5 6 
#
# 1 40.7232 41.8148 7.8310 0.0000 0.0000 0.0000
# 2 41.8148 116.9529 33.3067 0.0000 0.0000 0.0000
# 3 7.8310 33.3067 72.5338 0.0000 0.0000 0.0000
# 4 0.0000 0.0000 0.0000 19.4066 0.0000 0.0000
# 5 0.0000 0.0000 0.0000 0.0000 21.6997 0.0000
# 6 0.0000 0.0000 0.0000 0.0000 0.0000 36.3327
#
#
#
# Elastic Compliance Matrix: (Units=1/GPa)
#
#
# Indices 1 2 3 4 5 6 
#
# 1 0.039201 -0.014738 0.002535 0.000000 0.000000 0.000000
# 2 -0.014738 0.015378 -0.005470 0.000000 0.000000 0.000000
# 3 0.002535 -0.005470 0.016025 0.000000 0.000000 0.000000
# 4 0.000000 0.000000 0.000000 0.051529 0.000000 0.000000
# 5 0.000000 0.000000 0.000000 0.000000 0.046084 0.000000
# 6 0.000000 0.000000 0.000000 0.000000 0.000000 0.027523
#
#
# Mechanical properties :
#
#
# Convention : Reuss Voigt Hill
#
# Bulk Modulus (GPa) = 28.36219 44.01275 36.18747
# Shear Modulus (GPa) = 20.58986 25.30496 22.94741
#
# Velocity S-wave (km/s) = 3.05976 3.39206 3.23018
# Velocity P-wave (km/s) = 5.03775 5.94590 5.51057
#
# Compressibility (1/GPa) = 0.03525821
#
# Stress axis : x y z
#
# Youngs Moduli (GPa) = 25.50928 65.02981 62.40340
#
# Poissons Ratio (x) = 0.95840 -0.15820
# Poissons Ratio (y) = 0.37595 0.34135
# Poissons Ratio (z) = -0.06467 0.35572
#
# Static dielectric constant tensor:
#      x y z
#    x 1.812840 0.000000 0.000000 
#    y 0.000000 1.814240 0.000000 
#    z 0.000000 0.000000 1.791990 
# 
# From -- ./inp_files/1897.got.cif
#   From: 2010.05.17/outbox.cif.g08.bks.cpg/sg62_1_cif.got.tgz:1897.got - 2010.06.03 15:25:27.
