data_PCOD9463519
_publ_section_title
;
Structure prediction by ZEFSAII (Michael W. Deem and Ramdas Pophale) SiO2 
 PCOD9463519
Probable space group: P N M A
;
_chemical_formula_sum "Si O2"
_cell_formula_units_Z 64
_cell_length_a 28.853765
_cell_length_b 7.970087
_cell_length_c 11.362663
_cell_angle_alpha 90.000000
_cell_angle_beta 90.000000
_cell_angle_gamma 90.000000
_cell_volume 2613.037719
_symmetry_space_group_name_H-M "P N M A"
_symmetry_group_IT_number 62
_symmetry_cell_setting 'orthorhombic'
loop_
_space_group_symop_operation_xyz
x,y,z
1/2-x,-y,1/2+z
1/2+x,1/2-y,1/2-z
-x,1/2+y,-z
-x,-y,-z
1/2+x,y,1/2-z
1/2-x,1/2+y,1/2+z
x,1/2-y,z
loop_
_atom_site_type_symbol
_atom_site_label
_atom_site_fract_x
_atom_site_fract_y
_atom_site_fract_z
Si Si1 0.591716 0.444406 0.983934
Si Si2 0.264621 0.450045 0.979359
Si Si3 0.664489 0.564151 0.568230
Si Si4 0.657830 0.942443 0.188904
Si Si5 0.562522 0.057774 0.564889
Si Si6 0.571944 0.550543 0.309463
Si Si7 0.518137 0.043927 0.809810
Si Si8 0.174928 0.065511 0.692583
O O1 0.587096 0.250000 0.023943
O O2 0.544570 0.514785 0.926993
O O3 0.625196 0.436916 0.869507
O O4 0.621575 0.546805 0.078741
O O5 0.271410 0.250000 0.983467
O O6 0.210851 0.492256 0.986992
O O7 0.293961 0.512354 0.863773
O O8 0.288983 0.533792 0.090046
O O9 0.653634 0.750000 0.522808
O O10 0.618133 0.456617 0.565295
O O11 0.677297 0.567940 0.705789
O O12 0.667890 0.750000 0.221229
O O13 0.624208 0.018625 0.289636
O O14 0.547702 0.250000 0.560384
O O15 0.543840 0.988147 0.688737
O O16 0.550825 0.978760 0.438545
O O17 0.575336 0.750000 0.293946
O O18 0.534840 0.489929 0.212259
O O19 0.520064 0.250000 0.814119
O O20 0.183214 0.250000 0.745677
#
# Coordination Sequence:
#
# PCOD9463519 Si02
#       8
#     8   8   8   8   8   8   8   8
#     4   9  17  33  58  83 111 150 193 236 285 341
#     4  10  21  38  58  83 115 152 193 239 295 355
#     4  12  24  38  59  87 114 149 197 244 297 356
#     4   9  20  37  56  82 117 153 189 237 292 345
#     4  11  22  39  59  83 116 152 197 247 298 352
#     4  10  21  38  58  83 120 160 196 238 293 355
#     4   9  18  35  59  85 115 154 195 242 297 348
#     4  10  19  36  59  83 114 149 188 239 293 344
#
# _framework density 24.492564000000002
#
# number of rings (size 3 to 8) (size 9 to 14) (size 15 to 20)
#    0.000    2.000    1.250    2.625    0.000    3.000 
#    0.000    5.000    0.000    0.000    0.000    0.000 
#    0.000    0.000    0.000    0.000    0.000    0.000 
#
# Total GULP energy -357460.866861 kJ/mol
# GULP energy per Si atom -5585.326045 kJ/mol
# Density = 2.443682 g / cm^3
# Si number density = 24.492564 Si / 1000 Ang^3
#
#
#
# Elastic Constant Matrix: (Units=GPa)
#
#
# Indices 1 2 3 4 5 6 
#
# 1 99.8282 -4.0756 -8.4970 0.0000 0.0000 0.0000
# 2 -4.0756 55.6363 -1.9890 0.0000 0.0000 0.0000
# 3 -8.4970 -1.9890 39.8721 0.0000 0.0000 0.0000
# 4 0.0000 0.0000 0.0000 24.2912 0.0000 0.0000
# 5 0.0000 0.0000 0.0000 0.0000 32.2666 0.0000
# 6 0.0000 0.0000 0.0000 0.0000 0.0000 16.7846
#
#
#
# Elastic Compliance Matrix: (Units=1/GPa)
#
#
# Indices 1 2 3 4 5 6 
#
# 1 0.010240 0.000830 0.002224 0.000000 0.000000 0.000000
# 2 0.000830 0.018073 0.001078 0.000000 0.000000 0.000000
# 3 0.002224 0.001078 0.025608 0.000000 0.000000 0.000000
# 4 0.000000 0.000000 0.000000 0.041167 0.000000 0.000000
# 5 0.000000 0.000000 0.000000 0.000000 0.030992 0.000000
# 6 0.000000 0.000000 0.000000 0.000000 0.000000 0.059578
#
#
# Mechanical properties :
#
#
# Convention : Reuss Voigt Hill
#
# Bulk Modulus (GPa) = 16.08110 18.46815 17.27462
# Shear Modulus (GPa) = 25.23676 28.66168 26.94922
#
# Velocity S-wave (km/s) = 3.21344 3.42456 3.32068
# Velocity P-wave (km/s) = 4.51090 4.81596 4.66593
#
# Compressibility (1/GPa) = 0.06218481
#
# Stress axis : x y z
#
# Youngs Moduli (GPa) = 97.65289 55.33052 39.05050
#
# Poissons Ratio (x) = -0.04591 -0.08684
# Poissons Ratio (y) = -0.08102 -0.04211
# Poissons Ratio (z) = -0.21715 -0.05967
#
# Static dielectric constant tensor:
#      x y z
#    x 2.006260 0.000000 0.000000 
#    y 0.000000 1.880580 0.000000 
#    z 0.000000 0.000000 1.999070 
# 
# From -- ./inp_files/15864.got.cif
#   From: 2010.05.17/outbox.cif.g08.bks.cpg/sg62_8_cif.got.tgz:15864.got - 2010.06.03 15:25:27.
