data_PCOD9463194
_publ_section_title
;
Structure prediction by ZEFSAII (Michael W. Deem and Ramdas Pophale) SiO2 
 PCOD9463194
Probable space group: P N M A
;
_chemical_formula_sum "Si O2"
_cell_formula_units_Z 64
_cell_length_a 14.729206
_cell_length_b 8.693165
_cell_length_c 25.700882
_cell_angle_alpha 90.000000
_cell_angle_beta 90.000000
_cell_angle_gamma 90.000000
_cell_volume 3290.828779
_symmetry_space_group_name_H-M "P N M A"
_symmetry_group_IT_number 62
_symmetry_cell_setting 'orthorhombic'
loop_
_space_group_symop_operation_xyz
x,y,z
1/2-x,-y,1/2+z
1/2+x,1/2-y,1/2-z
-x,1/2+y,-z
-x,-y,-z
1/2+x,y,1/2-z
1/2-x,1/2+y,1/2+z
x,1/2-y,z
loop_
_atom_site_type_symbol
_atom_site_label
_atom_site_fract_x
_atom_site_fract_y
_atom_site_fract_z
Si Si1 0.339761 0.565556 0.436754
Si Si2 0.247475 0.435207 0.333722
Si Si3 0.640192 0.933269 0.877005
Si Si4 0.532053 0.562712 0.400307
Si Si5 0.544433 0.928789 0.284624
Si Si6 0.781813 0.065752 0.954977
Si Si7 0.962325 0.565637 0.674732
Si Si8 0.736178 0.429007 0.776957
O O1 0.334383 0.750000 0.437095
O O2 0.297068 0.501578 0.383811
O O3 0.446296 0.520149 0.435484
O O4 0.290749 0.498377 0.487102
O O5 0.252527 0.250000 0.332576
O O6 0.285379 0.503110 0.279727
O O7 0.140940 0.482940 0.336072
O O8 0.641535 0.750000 0.883975
O O9 0.693535 0.010298 0.924198
O O10 0.536861 0.986720 0.866918
O O11 0.692000 0.977739 0.823841
O O12 0.535639 0.750000 0.397488
O O13 0.516506 0.508226 0.341021
O O14 0.628285 0.511662 0.423289
O O15 0.517577 0.750000 0.281362
O O16 0.654470 0.936350 0.283596
O O17 0.511428 0.011409 0.232682
O O18 0.216790 0.750000 0.043850
O O19 0.963137 0.750000 0.674767
O O20 0.709573 0.250000 0.780333
#
# Coordination Sequence:
#
# PCOD9463194 Si02
#       8
#     8   8   8   8   8   8   8   8
#     4  11  23  39  60  87 116 152 196 242 292 343
#     4  10  21  40  60  83 116 154 195 241 290 342
#     4  11  22  37  58  87 118 151 193 242 291 342
#     4   9  19  36  57  84 118 153 190 233 282 344
#     4   9  17  33  55  82 115 152 188 226 276 340
#     4  11  22  41  62  84 116 154 196 239 288 345
#     4   9  21  38  56  82 118 153 189 238 290 341
#     4  10  19  34  57  84 116 153 189 233 286 342
#
# _framework density 19.447987999999999
#
# number of rings (size 3 to 8) (size 9 to 14) (size 15 to 20)
#    0.000    2.000    1.250    2.250    1.750    2.000 
#    0.000    3.125    0.000    0.000    0.000    0.000 
#    0.000    0.000    0.000    0.000    0.000    0.000 
#
# Total GULP energy -357505.188366 kJ/mol
# GULP energy per Si atom -5586.018568 kJ/mol
# Density = 1.940372 g / cm^3
# Si number density = 19.447988 Si / 1000 Ang^3
#
#
#
# Elastic Constant Matrix: (Units=GPa)
#
#
# Indices 1 2 3 4 5 6 
#
# 1 29.1631 7.8065 2.0641 0.0000 0.0000 0.0000
# 2 7.8065 32.0609 11.3486 0.0000 0.0000 0.0000
# 3 2.0641 11.3486 76.7551 0.0000 0.0000 0.0000
# 4 0.0000 0.0000 0.0000 31.1887 0.0000 0.0000
# 5 0.0000 0.0000 0.0000 0.0000 29.1877 0.0000
# 6 0.0000 0.0000 0.0000 0.0000 0.0000 18.0455
#
#
#
# Elastic Compliance Matrix: (Units=1/GPa)
#
#
# Indices 1 2 3 4 5 6 
#
# 1 0.036690 -0.009058 0.000353 0.000000 0.000000 0.000000
# 2 -0.009058 0.035150 -0.004953 0.000000 0.000000 0.000000
# 3 0.000353 -0.004953 0.013751 0.000000 0.000000 0.000000
# 4 0.000000 0.000000 0.000000 0.032063 0.000000 0.000000
# 5 0.000000 0.000000 0.000000 0.000000 0.034261 0.000000
# 6 0.000000 0.000000 0.000000 0.000000 0.000000 0.055415
#
#
# Mechanical properties :
#
#
# Convention : Reuss Voigt Hill
#
# Bulk Modulus (GPa) = 17.16079 20.04638 18.60358
# Shear Modulus (GPa) = 19.67942 23.46839 21.57390
#
# Velocity S-wave (km/s) = 3.18449 3.47756 3.33425
# Velocity P-wave (km/s) = 4.72910 5.14341 4.94060
#
# Compressibility (1/GPa) = 0.05827239
#
# Stress axis : x y z
#
# Youngs Moduli (GPa) = 27.25554 28.44982 72.72016
#
# Poissons Ratio (x) = 0.25771 -0.02565
# Poissons Ratio (y) = 0.24689 0.36021
# Poissons Ratio (z) = -0.00961 0.14092
#
# Static dielectric constant tensor:
#      x y z
#    x 1.718030 0.000000 0.000000 
#    y 0.000000 1.653090 0.000000 
#    z 0.000000 0.000000 1.650920 
# 
# From -- ./inp_files/29737.got.cif
#   From: 2010.05.17/outbox.cif.g08.bks.cpg/sg62_15_cif.got.tgz:29737.got - 2010.06.03 15:25:27.
