data_PCOD9463089
_publ_section_title
;
Structure prediction by ZEFSAII (Michael W. Deem and Ramdas Pophale) SiO2 
 PCOD9463089
Probable space group: P N M A
;
_chemical_formula_sum "Si O2"
_cell_formula_units_Z 56
_cell_length_a 17.710804
_cell_length_b 15.400922
_cell_length_c 9.499687
_cell_angle_alpha 90.000000
_cell_angle_beta 90.000000
_cell_angle_gamma 90.000000
_cell_volume 2591.160379
_symmetry_space_group_name_H-M "P N M A"
_symmetry_group_IT_number 62
_symmetry_cell_setting 'orthorhombic'
loop_
_space_group_symop_operation_xyz
x,y,z
1/2-x,-y,1/2+z
1/2+x,1/2-y,1/2-z
-x,1/2+y,-z
-x,-y,-z
1/2+x,y,1/2-z
1/2-x,1/2+y,1/2+z
x,1/2-y,z
loop_
_atom_site_type_symbol
_atom_site_label
_atom_site_fract_x
_atom_site_fract_y
_atom_site_fract_z
Si Si1 0.747312 0.394294 0.558091
Si Si2 0.641264 0.108513 0.964388
Si Si3 0.907616 0.408663 0.504054
Si Si4 0.542774 0.537130 0.314908
Si Si5 0.709175 0.948485 0.369058
Si Si6 0.411751 0.658193 0.339073
Si Si7 0.535100 0.152745 0.209347
O O1 0.829464 0.355956 0.522205
O O2 0.767243 0.444308 0.704915
O O3 0.725337 0.457806 0.432432
O O4 0.670387 0.344615 0.589615
O O5 0.731602 0.113007 0.949393
O O6 0.606220 0.152017 0.827073
O O7 0.607808 0.145913 0.107018
O O8 0.616813 0.006429 0.957382
O O9 0.947473 0.426359 0.654195
O O10 0.964265 0.365534 0.394723
O O11 0.620605 0.568041 0.385949
O O12 0.533175 0.421074 0.626193
O O13 0.539319 0.432746 0.306068
O O14 0.449841 0.750000 0.369966
O O15 0.530856 0.250000 0.269977
#
# Coordination Sequence:
#
# PCOD9463089 Si02
#       7
#     8   8   8   8   8   8   8
#     4   9  20  35  58  86 111 154 200 242 296 363
#     4   9  16  32  53  80 109 147 197 243 294 348
#     4   9  16  32  54  81 113 148 195 250 293 351
#     4  10  19  34  53  83 118 156 199 244 301 361
#     4   9  19  36  60  83 112 153 195 246 294 352
#     4  11  20  32  52  81 116 155 194 243 297 354
#     4  11  19  30  56  89 120 156 203 253 299 352
#
# _framework density 21.611939
#
# number of rings (size 3 to 8) (size 9 to 14) (size 15 to 20)
#    0.000    2.286    2.857    2.143    0.000    1.143 
#    0.000    7.143    0.000    0.857    0.000    9.000 
#    0.000    0.000    0.000    0.000    0.000    0.000 
#
# Total GULP energy -312378.612257 kJ/mol
# GULP energy per Si atom -5578.189505 kJ/mol
# Density = 2.156275 g / cm^3
# Si number density = 21.611939 Si / 1000 Ang^3
#
#
#
# Elastic Constant Matrix: (Units=GPa)
#
#
# Indices 1 2 3 4 5 6 
#
# 1 154.9329 52.9485 29.5234 0.0000 0.0000 0.0000
# 2 52.9485 107.9338 12.6358 0.0000 0.0000 0.0000
# 3 29.5234 12.6358 50.4484 0.0000 0.0000 0.0000
# 4 0.0000 0.0000 0.0000 -16.9052 0.0000 0.0000
# 5 0.0000 0.0000 0.0000 0.0000 18.8179 0.0000
# 6 0.0000 0.0000 0.0000 0.0000 0.0000 -3.1892
#
#
#
# Elastic Compliance Matrix: (Units=1/GPa)
#
#
# Indices 1 2 3 4 5 6 
#
# 1 0.008485 -0.003690 -0.004042 0.000000 0.000000 0.000000
# 2 -0.003690 0.011149 -0.000633 0.000000 0.000000 0.000000
# 3 -0.004042 -0.000633 0.022346 0.000000 0.000000 0.000000
# 4 0.000000 0.000000 0.000000 -0.059153 0.000000 0.000000
# 5 0.000000 0.000000 0.000000 0.000000 0.053141 0.000000
# 6 0.000000 0.000000 0.000000 0.000000 0.000000 -0.313553
#
#
# Mechanical properties :
#
#
# Convention : Reuss Voigt Hill
#
# Bulk Modulus (GPa) = 39.60157 55.94783 47.77470
# Shear Modulus (GPa) = -19.80677 14.29186 -2.75745
#
# Velocity S-wave (km/s) = -3.03062 2.57435 -1.13078
# Velocity P-wave (km/s) = 2.47337 5.89746 4.52204
#
# Compressibility (1/GPa) = 0.02525152
#
# Stress axis : x y z
#
# Youngs Moduli (GPa) = 117.84824 89.69391 44.75035
#
# Poissons Ratio (x) = 0.33093 0.18087
# Poissons Ratio (y) = 0.43480 0.02834
# Poissons Ratio (z) = 0.47632 0.05680
#
# Static dielectric constant tensor:
#      x y z
#    x 1.825650 0.000000 0.000000 
#    y 0.000000 1.810170 0.000000 
#    z 0.000000 0.000000 1.786310 
# 
# From -- ./inp_files/8717.got.cif
#   From: 2010.05.17/outbox.cif.g08.bks.cpg/sg62_5_cif.got.tgz:8717.got - 2010.06.03 15:25:27.
