data_PCOD9463319
_publ_section_title
;
Structure prediction by ZEFSAII (Michael W. Deem and Ramdas Pophale) SiO2 
 PCOD9463319
Probable space group: P N M A
;
_chemical_formula_sum "Si O2"
_cell_formula_units_Z 40
_cell_length_a 19.048784
_cell_length_b 8.537559
_cell_length_c 13.873432
_cell_angle_alpha 90.000000
_cell_angle_beta 90.000000
_cell_angle_gamma 90.000000
_cell_volume 2256.237873
_symmetry_space_group_name_H-M "P N M A"
_symmetry_group_IT_number 62
_symmetry_cell_setting 'orthorhombic'
loop_
_space_group_symop_operation_xyz
x,y,z
1/2-x,-y,1/2+z
1/2+x,1/2-y,1/2-z
-x,1/2+y,-z
-x,-y,-z
1/2+x,y,1/2-z
1/2-x,1/2+y,1/2+z
x,1/2-y,z
loop_
_atom_site_type_symbol
_atom_site_label
_atom_site_fract_x
_atom_site_fract_y
_atom_site_fract_z
Si Si1 0.358121 0.059974 0.294148
Si Si2 0.002534 0.061290 0.108941
Si Si3 0.286851 0.062026 0.098861
Si Si4 0.711796 0.062272 0.112076
Si Si5 0.853495 0.436520 0.803358
O O1 0.359430 0.250000 0.294396
O O2 0.432233 0.006429 0.335541
O O3 0.338913 0.011401 0.185332
O O4 0.291825 0.013961 0.360532
O O5 0.003181 0.250000 0.108163
O O6 0.072366 0.000040 0.160319
O O7 0.000000 0.000000 0.000000
O O8 0.287802 0.250000 0.093273
O O9 0.209571 0.007955 0.132605
O O10 0.304557 0.991087 0.995565
O O11 0.707635 0.250000 0.120032
O O12 0.662846 0.987749 0.193893
O O13 0.851424 0.250000 0.812077
#
# Coordination Sequence:
#
# PCOD9463319 Si02
#       5
#     8   8   8   8   8
#     4   8  18  34  53  76 106 137 172 216 266 319
#     4  11  21  36  56  80 109 142 176 221 276 329
#     4  10  19  35  57  81 106 139 179 223 271 322
#     4  10  19  35  57  82 108 139 177 223 273 323
#     4  11  22  36  53  79 111 145 183 223 263 317
#
# _framework density 17.728626999999999
#
# number of rings (size 3 to 8) (size 9 to 14) (size 15 to 20)
#    0.000    2.000    0.000    6.000    0.000    1.600 
#    0.000   12.000    0.000    0.000    0.000    0.000 
#    0.000    0.000    0.000    0.000    0.000    0.000 
#
# Total GULP energy -223358.597211 kJ/mol
# GULP energy per Si atom -5583.964930 kJ/mol
# Density = 1.768828 g / cm^3
# Si number density = 17.728627 Si / 1000 Ang^3
#
#
#
# Elastic Constant Matrix: (Units=GPa)
#
#
# Indices 1 2 3 4 5 6 
#
# 1 134.7120 15.6276 70.6523 0.0000 0.0000 0.0000
# 2 15.6276 49.4418 11.4352 0.0000 0.0000 0.0000
# 3 70.6523 11.4352 134.6701 0.0000 0.0000 0.0000
# 4 0.0000 0.0000 0.0000 34.6543 0.0000 0.0000
# 5 0.0000 0.0000 0.0000 0.0000 14.7572 0.0000
# 6 0.0000 0.0000 0.0000 0.0000 0.0000 20.2610
#
#
#
# Elastic Compliance Matrix: (Units=1/GPa)
#
#
# Indices 1 2 3 4 5 6 
#
# 1 0.010446 -0.002075 -0.005304 0.000000 0.000000 0.000000
# 2 -0.002075 0.021043 -0.000698 0.000000 0.000000 0.000000
# 3 -0.005304 -0.000698 0.010267 0.000000 0.000000 0.000000
# 4 0.000000 0.000000 0.000000 0.028856 0.000000 0.000000
# 5 0.000000 0.000000 0.000000 0.000000 0.067763 0.000000
# 6 0.000000 0.000000 0.000000 0.000000 0.000000 0.049356
#
#
# Mechanical properties :
#
#
# Convention : Reuss Voigt Hill
#
# Bulk Modulus (GPa) = 39.05944 57.13933 48.09939
# Shear Modulus (GPa) = 23.53823 28.67510 26.10667
#
# Velocity S-wave (km/s) = 3.64771 4.02611 3.84157
# Velocity P-wave (km/s) = 6.31037 7.34253 6.84593
#
# Compressibility (1/GPa) = 0.02560201
#
# Stress axis : x y z
#
# Youngs Moduli (GPa) = 95.73298 47.52143 97.39492
#
# Poissons Ratio (x) = 0.09860 0.51658
# Poissons Ratio (y) = 0.19864 0.06801
# Poissons Ratio (z) = 0.50776 0.03318
#
# Static dielectric constant tensor:
#      x y z
#    x 1.586080 0.000000 0.000000 
#    y 0.000000 1.600810 0.000000 
#    z 0.000000 0.000000 1.592510 
# 
# From -- ./inp_files/13823.got.cif
#   From: 2010.05.17/outbox.cif.g08.bks.cpg/sg62_7_cif.got.tgz:13823.got - 2010.06.03 15:25:27.
