data_PCOD9463222
_publ_section_title
;
Structure prediction by ZEFSAII (Michael W. Deem and Ramdas Pophale) SiO2 
 PCOD9463222
Probable space group: P N M A
;
_chemical_formula_sum "Si O2"
_cell_formula_units_Z 44
_cell_length_a 5.324435
_cell_length_b 14.800480
_cell_length_c 20.911904
_cell_angle_alpha 90.000000
_cell_angle_beta 90.000000
_cell_angle_gamma 90.000000
_cell_volume 1647.945734
_symmetry_space_group_name_H-M "P N M A"
_symmetry_group_IT_number 62
_symmetry_cell_setting 'orthorhombic'
loop_
_space_group_symop_operation_xyz
x,y,z
1/2-x,-y,1/2+z
1/2+x,1/2-y,1/2-z
-x,1/2+y,-z
-x,-y,-z
1/2+x,y,1/2-z
1/2-x,1/2+y,1/2+z
x,1/2-y,z
loop_
_atom_site_type_symbol
_atom_site_label
_atom_site_fract_x
_atom_site_fract_y
_atom_site_fract_z
Si Si1 0.535103 0.750000 0.590276
Si Si2 0.742270 0.431905 0.044411
Si Si3 0.143094 0.932893 0.091606
Si Si4 0.052535 0.558337 0.671934
Si Si5 0.144479 0.250000 0.628044
Si Si6 0.650011 0.620434 0.212247
Si Si7 0.035849 0.750000 0.673467
O O1 0.582150 0.658282 0.550496
O O2 0.260795 0.750000 0.621054
O O3 0.752725 0.750000 0.645125
O O4 0.544437 0.416108 0.100652
O O5 0.894885 0.521301 0.063682
O O6 0.670550 0.436993 0.970183
O O7 0.153641 0.830273 0.111835
O O8 0.213205 0.995876 0.152199
O O9 0.861809 0.487342 0.702978
O O10 0.078046 0.653267 0.707354
O O11 0.936502 0.328964 0.648573
O O12 0.915041 0.646995 0.241876
#
# Coordination Sequence:
#
# PCOD9463222 Si02
#       7
#     4   8   8   8   4   8   4
#     4  10  19  34  58  85 127 164 212 247 318 382
#     4  10  20  35  62  94 136 178 224 274 332 411
#     4  10  20  37  59  93 134 176 229 270 338 405
#     4  10  22  39  64  90 133 171 223 274 348 398
#     4  10  23  42  66  96 136 180 230 287 344 408
#     4  11  26  46  72  97 129 172 232 292 346 398
#     4  10  20  36  60  91 117 164 200 256 320 400
#
# _framework density 26.699908000000001
#
# number of rings (size 3 to 8) (size 9 to 14) (size 15 to 20)
#    0.000    1.818    1.818    1.636    5.091    0.000 
#    3.273    0.909    0.000    0.000    0.000    0.000 
#    0.000    0.000    0.000    0.000    0.000    0.000 
#
# Total GULP energy -245031.963458 kJ/mol
# GULP energy per Si atom -5568.908260 kJ/mol
# Density = 2.663914 g / cm^3
# Si number density = 26.699908 Si / 1000 Ang^3
#
#
#
# Elastic Constant Matrix: (Units=GPa)
#
#
# Indices 1 2 3 4 5 6 
#
# 1 112.2997 29.9019 42.9141 0.0000 0.0000 0.0000
# 2 29.9019 274.0481 19.4504 0.0000 0.0000 0.0000
# 3 42.9141 19.4504 83.8742 0.0000 0.0000 0.0000
# 4 0.0000 0.0000 0.0000 17.8756 0.0000 0.0000
# 5 0.0000 0.0000 0.0000 0.0000 46.3891 0.0000
# 6 0.0000 0.0000 0.0000 0.0000 0.0000 23.1807
#
#
#
# Elastic Compliance Matrix: (Units=1/GPa)
#
#
# Indices 1 2 3 4 5 6 
#
# 1 0.011253 -0.000833 -0.005564 0.000000 0.000000 0.000000
# 2 -0.000833 0.003772 -0.000449 0.000000 0.000000 0.000000
# 3 -0.005564 -0.000449 0.014874 0.000000 0.000000 0.000000
# 4 0.000000 0.000000 0.000000 0.055942 0.000000 0.000000
# 5 0.000000 0.000000 0.000000 0.000000 0.021557 0.000000
# 6 0.000000 0.000000 0.000000 0.000000 0.000000 0.043139
#
#
# Mechanical properties :
#
#
# Convention : Reuss Voigt Hill
#
# Bulk Modulus (GPa) = 61.70299 72.75053 67.22676
# Shear Modulus (GPa) = 29.47589 42.68613 36.08101
#
# Velocity S-wave (km/s) = 3.32621 4.00276 3.68006
# Velocity P-wave (km/s) = 6.15723 6.97635 6.57955
#
# Compressibility (1/GPa) = 0.01620667
#
# Stress axis : x y z
#
# Youngs Moduli (GPa) = 88.86618 265.13208 67.23307
#
# Poissons Ratio (x) = 0.22083 0.37411
# Poissons Ratio (y) = 0.07402 0.03015
# Poissons Ratio (z) = 0.49448 0.11891
#
# Static dielectric constant tensor:
#      x y z
#    x 2.171910 0.000000 0.000000 
#    y 0.000000 2.157500 0.000000 
#    z 0.000000 0.000000 2.185870 
# 
# From -- ./inp_files/30377.got.cif
#   From: 2010.05.17/outbox.cif.g08.bks.cpg/sg62_16_cif.got.tgz:30377.got - 2010.06.03 15:25:27.
