data_PCOD9463943
_publ_section_title
;
Structure prediction by ZEFSAII (Michael W. Deem and Ramdas Pophale) SiO2 
 PCOD9463943
Probable space group: P N M A
;
_chemical_formula_sum "Si O2"
_cell_formula_units_Z 56
_cell_length_a 14.543176
_cell_length_b 9.289763
_cell_length_c 20.600272
_cell_angle_alpha 90.000000
_cell_angle_beta 90.000000
_cell_angle_gamma 90.000000
_cell_volume 2783.151509
_symmetry_space_group_name_H-M "P N M A"
_symmetry_group_IT_number 62
_symmetry_cell_setting 'orthorhombic'
loop_
_space_group_symop_operation_xyz
x,y,z
1/2-x,-y,1/2+z
1/2+x,1/2-y,1/2-z
-x,1/2+y,-z
-x,-y,-z
1/2+x,y,1/2-z
1/2-x,1/2+y,1/2+z
x,1/2-y,z
loop_
_atom_site_type_symbol
_atom_site_label
_atom_site_fract_x
_atom_site_fract_y
_atom_site_fract_z
Si Si1 0.663872 0.575389 0.173191
Si Si2 0.377630 0.586910 0.187260
Si Si3 0.639996 0.920956 0.685755
Si Si4 0.156266 0.913094 0.184727
Si Si5 0.623756 0.911620 0.454963
Si Si6 0.087798 0.090927 0.932054
Si Si7 0.993569 0.077913 0.569308
O O1 0.677127 0.750000 0.175676
O O2 0.760607 0.493280 0.170580
O O3 0.624663 0.533243 0.244876
O O4 0.596041 0.542422 0.113701
O O5 0.411759 0.750000 0.202075
O O6 0.397023 0.478704 0.245689
O O7 0.267097 0.593566 0.186537
O O8 0.421328 0.545839 0.118261
O O9 0.645923 0.750000 0.684529
O O10 0.578985 0.986633 0.628884
O O11 0.118289 0.750000 0.178090
O O12 0.137916 0.982864 0.115311
O O13 0.666292 0.750000 0.458106
O O14 0.514338 0.891235 0.459887
O O15 0.650631 0.013812 0.514107
O O16 0.122103 0.250000 0.913748
O O17 0.992844 0.250000 0.558325
O O18 0.000000 0.000000 0.500000
#
# Coordination Sequence:
#
# PCOD9463943 Si02
#       7
#     8   8   8   8   8   8   8
#     4   9  19  37  58  81 109 145 191 234 278 337
#     4   9  19  37  59  82 109 144 187 230 280 343
#     4  11  22  36  56  82 111 144 187 238 287 334
#     4   8  15  31  56  81 105 139 185 230 271 324
#     4   9  18  32  52  78 109 145 183 223 266 321
#     4  10  20  33  51  76 111 149 183 221 268 329
#     4  10  22  38  60  87 119 156 195 236 287 347
#
# _framework density 20.121074
#
# number of rings (size 3 to 8) (size 9 to 14) (size 15 to 20)
#    0.000    2.571    0.000    2.571    2.000    2.857 
#    0.000    4.286    0.000    0.000    0.000    0.000 
#    0.000    0.000    0.000    0.000    0.000    0.000 
#
# Total GULP energy -311900.829241 kJ/mol
# GULP energy per Si atom -5569.657665 kJ/mol
# Density = 2.007528 g / cm^3
# Si number density = 20.121074 Si / 1000 Ang^3
#
#
#
# Elastic Constant Matrix: (Units=GPa)
#
#
# Indices 1 2 3 4 5 6 
#
# 1 38.5166 21.6894 24.4221 0.0000 0.0000 0.0000
# 2 21.6894 96.5271 68.4935 0.0000 0.0000 0.0000
# 3 24.4221 68.4935 157.8541 0.0000 0.0000 0.0000
# 4 0.0000 0.0000 0.0000 30.7207 0.0000 0.0000
# 5 0.0000 0.0000 0.0000 0.0000 49.1294 0.0000
# 6 0.0000 0.0000 0.0000 0.0000 0.0000 13.0205
#
#
#
# Elastic Compliance Matrix: (Units=1/GPa)
#
#
# Indices 1 2 3 4 5 6 
#
# 1 0.030398 -0.005047 -0.002513 0.000000 0.000000 0.000000
# 2 -0.005047 0.015806 -0.006078 0.000000 0.000000 0.000000
# 3 -0.002513 -0.006078 0.009361 0.000000 0.000000 0.000000
# 4 0.000000 0.000000 0.000000 0.032551 0.000000 0.000000
# 5 0.000000 0.000000 0.000000 0.000000 0.020354 0.000000
# 6 0.000000 0.000000 0.000000 0.000000 0.000000 0.076802
#
#
# Mechanical properties :
#
#
# Convention : Reuss Voigt Hill
#
# Bulk Modulus (GPa) = 35.34822 58.01198 46.68010
# Shear Modulus (GPa) = 22.52463 30.46032 26.49247
#
# Velocity S-wave (km/s) = 3.34946 3.89505 3.63251
# Velocity P-wave (km/s) = 5.70652 7.00875 6.39089
#
# Compressibility (1/GPa) = 0.02828997
#
# Stress axis : x y z
#
# Youngs Moduli (GPa) = 32.89645 63.26548 106.82789
#
# Poissons Ratio (x) = 0.31932 0.26846
# Poissons Ratio (y) = 0.16604 0.64926
# Poissons Ratio (z) = 0.08267 0.38450
#
# Static dielectric constant tensor:
#      x y z
#    x 1.756210 0.000000 0.000000 
#    y 0.000000 1.735780 0.000000 
#    z 0.000000 0.000000 1.752780 
# 
# From -- ./inp_files/27093.got.cif
#   From: 2010.05.17/outbox.cif.g08.bks.cpg/sg62_14_cif.got.tgz:27093.got - 2010.06.03 15:25:27.
