data_PCOD9463843
_publ_section_title
;
Structure prediction by ZEFSAII (Michael W. Deem and Ramdas Pophale) SiO2 
 PCOD9463843
Probable space group: P N M A
;
_chemical_formula_sum "Si O2"
_cell_formula_units_Z 48
_cell_length_a 14.139869
_cell_length_b 9.014192
_cell_length_c 23.790665
_cell_angle_alpha 90.000000
_cell_angle_beta 90.000000
_cell_angle_gamma 90.000000
_cell_volume 3032.346123
_symmetry_space_group_name_H-M "P N M A"
_symmetry_group_IT_number 62
_symmetry_cell_setting 'orthorhombic'
loop_
_space_group_symop_operation_xyz
x,y,z
1/2-x,-y,1/2+z
1/2+x,1/2-y,1/2-z
-x,1/2+y,-z
-x,-y,-z
1/2+x,y,1/2-z
1/2-x,1/2+y,1/2+z
x,1/2-y,z
loop_
_atom_site_type_symbol
_atom_site_label
_atom_site_fract_x
_atom_site_fract_y
_atom_site_fract_z
Si Si1 0.887421 0.426795 0.776790
Si Si2 0.105536 0.072003 0.768176
Si Si3 0.401778 0.925582 0.934660
Si Si4 0.785892 0.073258 0.335176
Si Si5 0.783990 0.074444 0.659211
Si Si6 0.103582 0.426170 0.566421
O O1 0.876244 0.250000 0.786742
O O2 0.817462 0.514102 0.817733
O O3 0.851313 0.454393 0.713161
O O4 0.997462 0.465595 0.781374
O O5 0.110934 0.250000 0.757433
O O6 0.178708 0.039894 0.818561
O O7 0.144130 0.988925 0.713298
O O8 0.417238 0.750000 0.927950
O O9 0.320778 0.982346 0.893261
O O10 0.498919 0.011227 0.920863
O O11 0.379224 0.953937 0.000226
O O12 0.788073 0.250000 0.335984
O O13 0.822030 0.006648 0.393661
O O14 0.789326 0.250000 0.646586
O O15 0.105433 0.250000 0.576438
#
# Coordination Sequence:
#
# PCOD9463843 Si02
#       6
#     8   8   8   8   8   8
#     4   9  18  33  51  70  95 128 162 192 229 281
#     4   9  18  33  52  72  96 130 164 191 230 285
#     4  10  20  32  49  73  97 124 159 199 241 281
#     4  11  21  31  48  74 100 125 156 198 242 280
#     4   9  17  29  48  73  99 128 158 191 235 284
#     4  10  20  34  50  68  95 129 161 195 237 287
#
# _framework density 15.829326999999999
#
# number of rings (size 3 to 8) (size 9 to 14) (size 15 to 20)
#    0.000    2.333    0.000    4.500    0.000    6.667 
#    0.000    0.000    0.000    1.000    0.000    0.000 
#    0.000    0.000    0.000    0.000    0.000    0.000 
#
# Total GULP energy -267838.203470 kJ/mol
# GULP energy per Si atom -5579.962572 kJ/mol
# Density = 1.579330 g / cm^3
# Si number density = 15.829327 Si / 1000 Ang^3
#
#
#
# Elastic Constant Matrix: (Units=GPa)
#
#
# Indices 1 2 3 4 5 6 
#
# 1 140.3729 61.3602 62.7148 0.0000 0.0000 0.0000
# 2 61.3602 69.2949 52.5727 0.0000 0.0000 0.0000
# 3 62.7148 52.5727 68.2831 0.0000 0.0000 0.0000
# 4 0.0000 0.0000 0.0000 27.4051 0.0000 0.0000
# 5 0.0000 0.0000 0.0000 0.0000 21.4001 0.0000
# 6 0.0000 0.0000 0.0000 0.0000 0.0000 20.5715
#
#
#
# Elastic Compliance Matrix: (Units=1/GPa)
#
#
# Indices 1 2 3 4 5 6 
#
# 1 0.013014 -0.005904 -0.007407 0.000000 0.000000 0.000000
# 2 -0.005904 0.037379 -0.023356 0.000000 0.000000 0.000000
# 3 -0.007407 -0.023356 0.039430 0.000000 0.000000 0.000000
# 4 0.000000 0.000000 0.000000 0.036490 0.000000 0.000000
# 5 0.000000 0.000000 0.000000 0.000000 0.046729 0.000000
# 6 0.000000 0.000000 0.000000 0.000000 0.000000 0.048611
#
#
# Mechanical properties :
#
#
# Convention : Reuss Voigt Hill
#
# Bulk Modulus (GPa) = 60.64796 70.13847 65.39321
# Shear Modulus (GPa) = 16.63982 20.62889 18.63435
#
# Velocity S-wave (km/s) = 3.24574 3.61391 3.43476
# Velocity P-wave (km/s) = 7.24177 7.86252 7.55852
#
# Compressibility (1/GPa) = 0.01648860
#
# Stress axis : x y z
#
# Youngs Moduli (GPa) = 76.84043 26.75273 25.36126
#
# Poissons Ratio (x) = 0.15796 0.18784
# Poissons Ratio (y) = 0.45370 0.59234
# Poissons Ratio (z) = 0.56914 0.62484
#
# Static dielectric constant tensor:
#      x y z
#    x 1.519010 0.000000 0.000000 
#    y 0.000000 1.525910 0.000000 
#    z 0.000000 0.000000 1.511820 
# 
# From -- ./inp_files/26845.got.cif
#   From: 2010.05.17/outbox.cif.g08.bks.cpg/sg62_14_cif.got.tgz:26845.got - 2010.06.03 15:25:27.
