data_PCOD9463816
_publ_section_title
;
Structure prediction by ZEFSAII (Michael W. Deem and Ramdas Pophale) SiO2 
 PCOD9463816
Probable space group: P N M A
;
_chemical_formula_sum "Si O2"
_cell_formula_units_Z 48
_cell_length_a 9.221568
_cell_length_b 21.050959
_cell_length_c 14.208041
_cell_angle_alpha 90.000000
_cell_angle_beta 90.000000
_cell_angle_gamma 90.000000
_cell_volume 2758.105410
_symmetry_space_group_name_H-M "P N M A"
_symmetry_group_IT_number 62
_symmetry_cell_setting 'orthorhombic'
loop_
_space_group_symop_operation_xyz
x,y,z
1/2-x,-y,1/2+z
1/2+x,1/2-y,1/2-z
-x,1/2+y,-z
-x,-y,-z
1/2+x,y,1/2-z
1/2-x,1/2+y,1/2+z
x,1/2-y,z
loop_
_atom_site_type_symbol
_atom_site_label
_atom_site_fract_x
_atom_site_fract_y
_atom_site_fract_z
Si Si1 0.375446 0.471321 0.286951
Si Si2 0.588148 0.443131 0.551062
Si Si3 0.153520 0.122991 0.391296
Si Si4 0.904391 0.855871 0.807128
Si Si5 0.160028 0.923377 0.590897
Si Si6 0.920602 0.179789 0.017164
O O1 0.399035 0.536429 0.341069
O O2 0.249821 0.433655 0.344389
O O3 0.514284 0.424606 0.298544
O O4 0.345374 0.474757 0.175845
O O5 0.500000 0.500000 0.500000
O O6 0.742628 0.440958 0.497896
O O7 0.506098 0.376801 0.534777
O O8 0.115574 0.165843 0.299558
O O9 0.255852 0.158224 0.464733
O O10 0.003128 0.096771 0.431238
O O11 0.749553 0.866875 0.856533
O O12 0.006119 0.818971 0.878698
O O13 0.931757 0.250000 0.975390
#
# Coordination Sequence:
#
# PCOD9463816 Si02
#       6
#     8   8   8   8   8   8
#     4   9  16  30  47  70 104 132 164 216 244 292
#     4  11  18  34  52  73 100 140 171 206 254 311
#     4   9  16  28  44  69 101 129 167 209 247 295
#     4   8  15  29  46  66  98 137 168 195 240 305
#     4   9  17  27  49  77 101 127 168 211 249 303
#     4  10  20  32  46  67 100 140 174 203 249 311
#
# _framework density 17.403251999999998
#
# number of rings (size 3 to 8) (size 9 to 14) (size 15 to 20)
#    0.000    2.667    5.000    1.000    0.000    1.333 
#    0.000    3.333    0.000    0.000    0.000    1.167 
#    0.000    0.000    0.000    0.000    0.000    0.000 
#
# Total GULP energy -267235.246459 kJ/mol
# GULP energy per Si atom -5567.400968 kJ/mol
# Density = 1.736364 g / cm^3
# Si number density = 17.403252 Si / 1000 Ang^3
#
#
#
# Elastic Constant Matrix: (Units=GPa)
#
#
# Indices 1 2 3 4 5 6 
#
# 1 120.1654 38.1791 17.8347 0.0000 0.0000 0.0000
# 2 38.1791 91.4158 30.3738 0.0000 0.0000 0.0000
# 3 17.8347 30.3738 44.6868 0.0000 0.0000 0.0000
# 4 0.0000 0.0000 0.0000 11.1532 0.0000 0.0000
# 5 0.0000 0.0000 0.0000 0.0000 11.3155 0.0000
# 6 0.0000 0.0000 0.0000 0.0000 0.0000 3.5563
#
#
#
# Elastic Compliance Matrix: (Units=1/GPa)
#
#
# Indices 1 2 3 4 5 6 
#
# 1 0.009666 -0.003559 -0.001439 0.000000 0.000000 0.000000
# 2 -0.003559 0.015441 -0.009075 0.000000 0.000000 0.000000
# 3 -0.001439 -0.009075 0.029120 0.000000 0.000000 0.000000
# 4 0.000000 0.000000 0.000000 0.089661 0.000000 0.000000
# 5 0.000000 0.000000 0.000000 0.000000 0.088374 0.000000
# 6 0.000000 0.000000 0.000000 0.000000 0.000000 0.281187
#
#
# Mechanical properties :
#
#
# Convention : Reuss Voigt Hill
#
# Bulk Modulus (GPa) = 38.34020 47.67147 43.00583
# Shear Modulus (GPa) = 9.08615 16.53036 12.80826
#
# Velocity S-wave (km/s) = 2.28742 3.08530 2.71582
# Velocity P-wave (km/s) = 5.39024 6.33591 5.88211
#
# Compressibility (1/GPa) = 0.02608229
#
# Stress axis : x y z
#
# Youngs Moduli (GPa) = 103.45379 64.76469 34.34036
#
# Poissons Ratio (x) = 0.23049 0.04941
# Poissons Ratio (y) = 0.36819 0.31162
# Poissons Ratio (z) = 0.14885 0.58771
#
# Static dielectric constant tensor:
#      x y z
#    x 1.641330 0.000000 0.000000 
#    y 0.000000 1.620330 0.000000 
#    z 0.000000 0.000000 1.612970 
# 
# From -- ./inp_files/17281.got.cif
#   From: 2010.05.17/outbox.cif.g08.bks.cpg/sg62_9_cif.got.tgz:17281.got - 2010.06.03 15:25:27.
