data_PCOD9463781
_publ_section_title
;
Structure prediction by ZEFSAII (Michael W. Deem and Ramdas Pophale) SiO2 
 PCOD9463781
Probable space group: P N M A
;
_chemical_formula_sum "Si O2"
_cell_formula_units_Z 44
_cell_length_a 13.637523
_cell_length_b 7.767803
_cell_length_c 17.779366
_cell_angle_alpha 90.000000
_cell_angle_beta 90.000000
_cell_angle_gamma 90.000000
_cell_volume 1883.432105
_symmetry_space_group_name_H-M "P N M A"
_symmetry_group_IT_number 62
_symmetry_cell_setting 'orthorhombic'
loop_
_space_group_symop_operation_xyz
x,y,z
1/2-x,-y,1/2+z
1/2+x,1/2-y,1/2-z
-x,1/2+y,-z
-x,-y,-z
1/2+x,y,1/2-z
1/2-x,1/2+y,1/2+z
x,1/2-y,z
loop_
_atom_site_type_symbol
_atom_site_label
_atom_site_fract_x
_atom_site_fract_y
_atom_site_fract_z
Si Si1 0.391066 0.250000 0.926862
Si Si2 0.031925 0.250000 0.703259
Si Si3 0.904074 0.044470 0.047501
Si Si4 0.495982 0.948363 0.692181
Si Si5 0.243543 0.250000 0.785206
Si Si6 0.276475 0.553202 0.676079
Si Si7 0.194542 0.453638 0.520243
O O1 0.494203 0.250000 0.882087
O O2 0.300155 0.250000 0.865741
O O3 0.379514 0.418660 0.978998
O O4 0.989368 0.426096 0.738016
O O5 0.136515 0.250000 0.744243
O O6 0.900823 0.250000 0.051579
O O7 0.801600 0.990319 0.012537
O O8 0.923882 0.983940 0.132519
O O9 0.000000 0.000000 0.000000
O O10 0.516115 0.750000 0.712754
O O11 0.390538 0.950738 0.650563
O O12 0.277052 0.429356 0.747121
O O13 0.251410 0.750000 0.694383
O O14 0.206767 0.485611 0.609583
O O15 0.180603 0.250000 0.505982
#
# Coordination Sequence:
#
# PCOD9463781 Si02
#       7
#     4   4   8   8   4   8   8
#     4  12  26  44  66 102 135 170 219 285 337 383
#     4  12  26  44  68  94 130 177 227 275 331 392
#     4  10  20  29  53  95 128 163 200 253 326 400
#     4  10  21  38  62  94 132 168 215 266 334 401
#     4  12  26  46  70  98 135 181 228 270 334 401
#     4  11  21  40  70  97 128 181 222 266 331 406
#     4  11  23  39  64  96 139 172 217 274 337 392
#
# _framework density 23.361605999999998
#
# number of rings (size 3 to 8) (size 9 to 14) (size 15 to 20)
#    0.000    1.091    5.455    1.091    2.545    2.182 
#    0.000    0.909    0.000    0.000    0.000    0.000 
#    0.000    0.000    0.000    0.000    0.000    0.000 
#
# Total GULP energy -245588.793056 kJ/mol
# GULP energy per Si atom -5581.563479 kJ/mol
# Density = 2.330843 g / cm^3
# Si number density = 23.361606 Si / 1000 Ang^3
#
#
#
# Elastic Constant Matrix: (Units=GPa)
#
#
# Indices 1 2 3 4 5 6 
#
# 1 66.2653 -4.1510 -18.9327 0.0000 0.0000 0.0000
# 2 -4.1510 118.0456 29.6650 0.0000 0.0000 0.0000
# 3 -18.9327 29.6650 68.3193 0.0000 0.0000 0.0000
# 4 0.0000 0.0000 0.0000 41.7532 0.0000 0.0000
# 5 0.0000 0.0000 0.0000 0.0000 25.4998 0.0000
# 6 0.0000 0.0000 0.0000 0.0000 0.0000 18.3040
#
#
#
# Elastic Compliance Matrix: (Units=1/GPa)
#
#
# Indices 1 2 3 4 5 6 
#
# 1 0.016431 -0.000636 0.004829 0.000000 0.000000 0.000000
# 2 -0.000636 0.009534 -0.004316 0.000000 0.000000 0.000000
# 3 0.004829 -0.004316 0.017849 0.000000 0.000000 0.000000
# 4 0.000000 0.000000 0.000000 0.023950 0.000000 0.000000
# 5 0.000000 0.000000 0.000000 0.000000 0.039216 0.000000
# 6 0.000000 0.000000 0.000000 0.000000 0.000000 0.054633
#
#
# Mechanical properties :
#
#
# Convention : Reuss Voigt Hill
#
# Bulk Modulus (GPa) = 22.95191 29.53255 26.24223
# Shear Modulus (GPa) = 28.34784 33.51467 30.93125
#
# Velocity S-wave (km/s) = 3.48722 3.79173 3.64266
# Velocity P-wave (km/s) = 5.10492 5.64256 5.38046
#
# Compressibility (1/GPa) = 0.04356935
#
# Stress axis : x y z
#
# Youngs Moduli (GPa) = 60.86119 104.89324 56.02419
#
# Poissons Ratio (x) = 0.06670 -0.27056
# Poissons Ratio (y) = 0.03870 0.24179
# Poissons Ratio (z) = -0.29392 0.45269
#
# Static dielectric constant tensor:
#      x y z
#    x 2.136020 0.000000 0.000000 
#    y 0.000000 1.833290 0.000000 
#    z 0.000000 0.000000 1.938980 
# 
# From -- ./inp_files/23605.got.cif
#   From: 2010.05.17/outbox.cif.g08.bks.cpg/sg62_12_cif.got.tgz:23605.got - 2010.06.03 15:25:27.
