data_PCOD9463713
_publ_section_title
;
Structure prediction by ZEFSAII (Michael W. Deem and Ramdas Pophale) SiO2 
 PCOD9463713
Probable space group: P N M A
;
_chemical_formula_sum "Si O2"
_cell_formula_units_Z 44
_cell_length_a 10.188025
_cell_length_b 19.578279
_cell_length_c 7.777437
_cell_angle_alpha 90.000000
_cell_angle_beta 90.000000
_cell_angle_gamma 90.000000
_cell_volume 1551.318662
_symmetry_space_group_name_H-M "P N M A"
_symmetry_group_IT_number 62
_symmetry_cell_setting 'orthorhombic'
loop_
_space_group_symop_operation_xyz
x,y,z
1/2-x,-y,1/2+z
1/2+x,1/2-y,1/2-z
-x,1/2+y,-z
-x,-y,-z
1/2+x,y,1/2-z
1/2-x,1/2+y,1/2+z
x,1/2-y,z
loop_
_atom_site_type_symbol
_atom_site_label
_atom_site_fract_x
_atom_site_fract_y
_atom_site_fract_z
Si Si1 0.676709 0.673324 0.196056
Si Si2 0.551541 0.750000 0.835551
Si Si3 0.040868 0.112263 0.494494
Si Si4 0.611387 0.674788 0.575138
Si Si5 0.658538 0.994148 0.825350
Si Si6 0.377335 0.921995 0.503695
O O1 0.656286 0.750000 0.119867
O O2 0.692433 0.679724 0.400977
O O3 0.789038 0.634527 0.096103
O O4 0.541727 0.633499 0.165212
O O5 0.453880 0.814519 0.900048
O O6 0.661994 0.687460 0.765659
O O7 0.157927 0.062821 0.556545
O O8 0.945494 0.058480 0.401112
O O9 0.531541 0.750000 0.593699
O O10 0.509485 0.615066 0.555496
O O11 0.615869 0.019098 0.639157
O O12 0.798119 0.956724 0.839889
#
# Coordination Sequence:
#
# PCOD9463713 Si02
#       6
#     8   4   8   8   8   8
#     4  10  19  38  65  84 115 160 197 244 309 360
#     4  10  22  36  66  86 118 150 212 256 298 348
#     4  10  20  42  63  86 116 168 201 243 307 368
#     4   9  21  38  60  89 118 154 199 257 301 347
#     4  10  24  38  62  89 123 162 202 247 308 369
#     4  11  22  39  60  89 124 158 206 249 301 369
#
# _framework density 28.362967000000001
#
# number of rings (size 3 to 8) (size 9 to 14) (size 15 to 20)
#    0.545    1.455    2.727    0.545    2.545    1.455 
#    1.636    1.818    8.000    0.000    0.000    0.000 
#    0.000    0.000    0.000    0.000    0.000    0.000 
#
# Total GULP energy -245243.643085 kJ/mol
# GULP energy per Si atom -5573.719161 kJ/mol
# Density = 2.829841 g / cm^3
# Si number density = 28.362967 Si / 1000 Ang^3
#
#
#
# Elastic Constant Matrix: (Units=GPa)
#
#
# Indices 1 2 3 4 5 6 
#
# 1 48.0569 51.4127 -4.0143 0.0000 0.0000 0.0000
# 2 51.4127 251.5062 38.0261 0.0000 0.0000 0.0000
# 3 -4.0143 38.0261 87.6434 0.0000 0.0000 0.0000
# 4 0.0000 0.0000 0.0000 59.4708 0.0000 0.0000
# 5 0.0000 0.0000 0.0000 0.0000 30.4362 0.0000
# 6 0.0000 0.0000 0.0000 0.0000 0.0000 26.6537
#
#
#
# Elastic Compliance Matrix: (Units=1/GPa)
#
#
# Indices 1 2 3 4 5 6 
#
# 1 0.027894 -0.006309 0.004015 0.000000 0.000000 0.000000
# 2 -0.006309 0.005682 -0.002754 0.000000 0.000000 0.000000
# 3 0.004015 -0.002754 0.012789 0.000000 0.000000 0.000000
# 4 0.000000 0.000000 0.000000 0.016815 0.000000 0.000000
# 5 0.000000 0.000000 0.000000 0.000000 0.032856 0.000000
# 6 0.000000 0.000000 0.000000 0.000000 0.000000 0.037518
#
#
# Mechanical properties :
#
#
# Convention : Reuss Voigt Hill
#
# Bulk Modulus (GPa) = 27.57272 62.00617 44.78945
# Shear Modulus (GPa) = 32.10491 43.43094 37.76793
#
# Velocity S-wave (km/s) = 3.36807 3.91737 3.65306
# Velocity P-wave (km/s) = 4.98675 6.50924 5.79818
#
# Compressibility (1/GPa) = 0.03626773
#
# Stress axis : x y z
#
# Youngs Moduli (GPa) = 35.85048 175.98936 78.19353
#
# Poissons Ratio (x) = 1.11032 -0.31394
# Poissons Ratio (y) = 0.22618 0.21537
# Poissons Ratio (z) = -0.14394 0.48473
#
# Static dielectric constant tensor:
#      x y z
#    x 2.311160 0.000000 0.000000 
#    y 0.000000 2.209720 0.000000 
#    z 0.000000 0.000000 2.647350 
# 
# From -- ./inp_files/6331.got.cif
#   From: 2010.05.17/outbox.cif.g08.bks.cpg/sg62_4_cif.got.tgz:6331.got - 2010.06.03 15:25:27.
