data_PCOD9463901
_publ_section_title
;
Structure prediction by ZEFSAII (Michael W. Deem and Ramdas Pophale) SiO2 
 PCOD9463901
Probable space group: P N M A
;
_chemical_formula_sum "Si O2"
_cell_formula_units_Z 40
_cell_length_a 4.994297
_cell_length_b 18.496982
_cell_length_c 21.352268
_cell_angle_alpha 90.000000
_cell_angle_beta 90.000000
_cell_angle_gamma 90.000000
_cell_volume 1972.510170
_symmetry_space_group_name_H-M "P N M A"
_symmetry_group_IT_number 62
_symmetry_cell_setting 'orthorhombic'
loop_
_space_group_symop_operation_xyz
x,y,z
1/2-x,-y,1/2+z
1/2+x,1/2-y,1/2-z
-x,1/2+y,-z
-x,-y,-z
1/2+x,y,1/2-z
1/2-x,1/2+y,1/2+z
x,1/2-y,z
loop_
_atom_site_type_symbol
_atom_site_label
_atom_site_fract_x
_atom_site_fract_y
_atom_site_fract_z
Si Si1 0.467625 0.469690 0.712452
Si Si2 0.485863 0.357046 0.286828
Si Si3 0.599036 0.750000 0.973514
Si Si4 0.719629 0.094132 0.512285
Si Si5 0.718805 0.465817 0.923013
Si Si6 0.406065 0.250000 0.391919
O O1 0.761929 0.444992 0.733128
O O2 0.504429 0.556600 0.710014
O O3 0.330291 0.452892 0.646215
O O4 0.784680 0.334880 0.268648
O O5 0.374246 0.320369 0.348927
O O6 0.293805 0.750000 0.950365
O O7 0.787739 0.750000 0.912908
O O8 0.684716 0.823780 0.007538
O O9 0.413822 0.081385 0.532273
O O10 0.913904 0.056012 0.563182
O O11 0.755834 0.048626 0.447750
#
# Coordination Sequence:
#
# PCOD9463901 Si02
#       6
#     8   8   4   8   8   4
#     4  10  20  33  54  82 109 139 181 230 274 326
#     4  10  20  33  48  72 107 147 186 218 257 310
#     4  12  24  37  54  84 108 141 190 232 284 332
#     4  10  22  37  58  81 111 147 186 231 278 336
#     4  10  20  38  58  82 112 147 184 228 284 334
#     4  12  22  33  52  72 110 151 184 224 262 324
#
# _framework density 20.278728000000001
#
# number of rings (size 3 to 8) (size 9 to 14) (size 15 to 20)
#    0.000    1.600    0.000    5.400    0.000    6.400 
#    0.000    0.000    0.000    0.000    0.000   14.000 
#    0.000    0.000    0.000    0.000    0.000    0.000 
#
# Total GULP energy -223226.883125 kJ/mol
# GULP energy per Si atom -5580.672078 kJ/mol
# Density = 2.023257 g / cm^3
# Si number density = 20.278728 Si / 1000 Ang^3
#
#
#
# Elastic Constant Matrix: (Units=GPa)
#
#
# Indices 1 2 3 4 5 6 
#
# 1 79.4337 -0.8747 -4.3479 0.0000 0.0000 0.0000
# 2 -0.8747 57.1313 10.1027 0.0000 0.0000 0.0000
# 3 -4.3479 10.1027 47.6630 0.0000 0.0000 0.0000
# 4 0.0000 0.0000 0.0000 16.8382 0.0000 0.0000
# 5 0.0000 0.0000 0.0000 0.0000 31.3973 0.0000
# 6 0.0000 0.0000 0.0000 0.0000 0.0000 14.6566
#
#
#
# Elastic Compliance Matrix: (Units=1/GPa)
#
#
# Indices 1 2 3 4 5 6 
#
# 1 0.012652 -0.000011 0.001156 0.000000 0.000000 0.000000
# 2 -0.000011 0.018185 -0.003856 0.000000 0.000000 0.000000
# 3 0.001156 -0.003856 0.021903 0.000000 0.000000 0.000000
# 4 0.000000 0.000000 0.000000 0.059389 0.000000 0.000000
# 5 0.000000 0.000000 0.000000 0.000000 0.031850 0.000000
# 6 0.000000 0.000000 0.000000 0.000000 0.000000 0.068228
#
#
# Mechanical properties :
#
#
# Convention : Reuss Voigt Hill
#
# Bulk Modulus (GPa) = 21.13226 21.55427 21.34326
# Shear Modulus (GPa) = 21.42234 24.53496 22.97865
#
# Velocity S-wave (km/s) = 3.25375 3.48212 3.36987
# Velocity P-wave (km/s) = 4.95574 5.17870 5.06845
#
# Compressibility (1/GPa) = 0.04732101
#
# Stress axis : x y z
#
# Youngs Moduli (GPa) = 79.03700 54.98987 45.65514
#
# Poissons Ratio (x) = 0.00059 -0.05280
# Poissons Ratio (y) = 0.00085 0.17603
# Poissons Ratio (z) = -0.09140 0.21202
#
# Static dielectric constant tensor:
#      x y z
#    x 1.702760 0.000000 0.000000 
#    y 0.000000 1.717700 0.000000 
#    z 0.000000 0.000000 1.742150 
# 
# From -- ./inp_files/21516.got.cif
#   From: 2010.05.17/outbox.cif.g08.bks.cpg/sg62_11_cif.got.tgz:21516.got - 2010.06.03 15:25:27.
