data_PCOD9463010
_publ_section_title
;
Structure prediction by ZEFSAII (Michael W. Deem and Ramdas Pophale) SiO2 
 PCOD9463010
Probable space group: P N M A
;
_chemical_formula_sum "Si O2"
_cell_formula_units_Z 40
_cell_length_a 13.524106
_cell_length_b 10.786067
_cell_length_c 12.830820
_cell_angle_alpha 90.000000
_cell_angle_beta 90.000000
_cell_angle_gamma 90.000000
_cell_volume 1871.656264
_symmetry_space_group_name_H-M "P N M A"
_symmetry_group_IT_number 62
_symmetry_cell_setting 'orthorhombic'
loop_
_space_group_symop_operation_xyz
x,y,z
1/2-x,-y,1/2+z
1/2+x,1/2-y,1/2-z
-x,1/2+y,-z
-x,-y,-z
1/2+x,y,1/2-z
1/2-x,1/2+y,1/2+z
x,1/2-y,z
loop_
_atom_site_type_symbol
_atom_site_label
_atom_site_fract_x
_atom_site_fract_y
_atom_site_fract_z
Si Si1 0.093976 0.384099 0.586125
Si Si2 0.821895 0.384195 0.520611
Si Si3 0.023112 0.605605 0.211250
Si Si4 0.177250 0.112958 0.172903
Si Si5 0.694766 0.450087 0.711535
O O1 0.095477 0.250000 0.534454
O O2 0.112242 0.499201 0.512004
O O3 0.180896 0.387430 0.674838
O O4 0.000353 0.396710 0.664004
O O5 0.870177 0.250000 0.504395
O O6 0.730465 0.388623 0.438862
O O7 0.773503 0.392840 0.633903
O O8 0.044523 0.750000 0.184432
O O9 0.101575 0.501031 0.182906
O O10 0.915411 0.565138 0.165793
O O11 0.133867 0.250000 0.189931
O O12 0.264090 0.084956 0.257530
#
# Coordination Sequence:
#
# PCOD9463010 Si02
#       5
#     8   8   8   8   8
#     4   8  17  34  53  75 106 142 181 222 262 318
#     4  10  19  33  56  83 110 143 181 225 276 323
#     4   9  19  36  58  80 109 149 187 222 268 330
#     4  10  22  36  56  86 115 142 180 231 281 324
#     4   9  19  37  57  77 110 150 184 220 269 332
#
# _framework density 21.371445000000001
#
# number of rings (size 3 to 8) (size 9 to 14) (size 15 to 20)
#    1.200    1.600    0.000    1.200    0.000    8.000 
#    0.000    1.000    0.000    0.000    0.000    0.000 
#    0.000    0.000    0.000    0.000    0.000    0.000 
#
# Total GULP energy -222721.597158 kJ/mol
# GULP energy per Si atom -5568.039929 kJ/mol
# Density = 2.132280 g / cm^3
# Si number density = 21.371445 Si / 1000 Ang^3
#
#
#
# Elastic Constant Matrix: (Units=GPa)
#
#
# Indices 1 2 3 4 5 6 
#
# 1 105.2793 77.1339 18.2628 0.0000 0.0000 0.0000
# 2 77.1339 165.9273 42.4257 0.0000 0.0000 0.0000
# 3 18.2628 42.4257 57.2351 0.0000 0.0000 0.0000
# 4 0.0000 0.0000 0.0000 9.4057 0.0000 0.0000
# 5 0.0000 0.0000 0.0000 0.0000 34.6835 0.0000
# 6 0.0000 0.0000 0.0000 0.0000 0.0000 25.5501
#
#
#
# Elastic Compliance Matrix: (Units=1/GPa)
#
#
# Indices 1 2 3 4 5 6 
#
# 1 0.014414 -0.006817 0.000454 0.000000 0.000000 0.000000
# 2 -0.006817 0.010660 -0.005727 0.000000 0.000000 0.000000
# 3 0.000454 -0.005727 0.021572 0.000000 0.000000 0.000000
# 4 0.000000 0.000000 0.000000 0.106319 0.000000 0.000000
# 5 0.000000 0.000000 0.000000 0.000000 0.028832 0.000000
# 6 0.000000 0.000000 0.000000 0.000000 0.000000 0.039139
#
#
# Mechanical properties :
#
#
# Convention : Reuss Voigt Hill
#
# Bulk Modulus (GPa) = 44.51057 67.12072 55.81564
# Shear Modulus (GPa) = 19.79386 26.63580 23.21483
#
# Velocity S-wave (km/s) = 3.04663 3.53417 3.29941
# Velocity P-wave (km/s) = 5.76613 6.93748 6.37875
#
# Compressibility (1/GPa) = 0.02246657
#
# Stress axis : x y z
#
# Youngs Moduli (GPa) = 69.37649 93.81103 46.35662
#
# Poissons Ratio (x) = 0.63947 -0.02102
# Poissons Ratio (y) = 0.47291 0.26546
# Poissons Ratio (z) = -0.03146 0.53721
#
# Static dielectric constant tensor:
#      x y z
#    x 1.868990 0.000000 0.000000 
#    y 0.000000 1.776990 0.000000 
#    z 0.000000 0.000000 1.777300 
# 
# From -- ./inp_files/19361.got.cif
#   From: 2010.05.17/outbox.cif.g08.bks.cpg/sg62_10_cif.got.tgz:19361.got - 2010.06.03 15:25:27.
