data_PCOD9463178
_publ_section_title
;
Structure prediction by ZEFSAII (Michael W. Deem and Ramdas Pophale) SiO2 
 PCOD9463178
Probable space group: P N M A
;
_chemical_formula_sum "Si O2"
_cell_formula_units_Z 64
_cell_length_a 13.217879
_cell_length_b 24.576654
_cell_length_c 8.621506
_cell_angle_alpha 90.000000
_cell_angle_beta 90.000000
_cell_angle_gamma 90.000000
_cell_volume 2800.706904
_symmetry_space_group_name_H-M "P N M A"
_symmetry_group_IT_number 62
_symmetry_cell_setting 'orthorhombic'
loop_
_space_group_symop_operation_xyz
x,y,z
1/2-x,-y,1/2+z
1/2+x,1/2-y,1/2-z
-x,1/2+y,-z
-x,-y,-z
1/2+x,y,1/2-z
1/2-x,1/2+y,1/2+z
x,1/2-y,z
loop_
_atom_site_type_symbol
_atom_site_label
_atom_site_fract_x
_atom_site_fract_y
_atom_site_fract_z
Si Si1 0.265416 0.461331 0.362710
Si Si2 0.189719 0.832584 0.204070
Si Si3 0.828603 0.652859 0.532957
Si Si4 0.362445 0.044711 0.683477
Si Si5 0.521516 0.188186 0.301213
Si Si6 0.993997 0.121161 0.676090
Si Si7 0.373335 0.391540 0.143064
Si Si8 0.207142 0.189428 0.018303
O O1 0.209161 0.404351 0.398445
O O2 0.180926 0.503716 0.309941
O O3 0.332735 0.475922 0.512824
O O4 0.338724 0.447721 0.218318
O O5 0.198210 0.898531 0.205009
O O6 0.071269 0.829362 0.248287
O O7 0.255161 0.809485 0.342832
O O8 0.231804 0.815945 0.037491
O O9 0.897836 0.682646 0.658737
O O10 0.898440 0.640012 0.382935
O O11 0.475387 0.068325 0.714761
O O12 0.482547 0.250000 0.303401
O O13 0.438396 0.142837 0.267146
O O14 0.589731 0.177012 0.452274
O O15 0.937597 0.105013 0.514230
O O16 0.276247 0.355291 0.100062
O O17 0.224401 0.250000 0.084279
#
# Coordination Sequence:
#
# PCOD9463178 Si02
#       8
#     8   8   8   8   8   8   8   8
#     4  11  20  34  59  81 113 155 193 238 290 341
#     4   8  19  36  52  79 113 146 184 231 286 334
#     4  10  19  35  59  82 109 152 191 238 283 344
#     4   9  20  34  54  83 113 150 193 235 286 340
#     4  10  21  35  55  85 110 142 191 238 285 342
#     4   8  18  35  54  78 111 147 183 233 276 337
#     4  10  19  35  56  78 114 146 185 233 287 335
#     4  10  19  34  57  78 107 148 185 232 289 338
#
# _framework density 22.851372999999999
#
# number of rings (size 3 to 8) (size 9 to 14) (size 15 to 20)
#    0.750    1.750    1.250    1.125    0.000    2.000 
#    0.000    1.250    0.000    6.750    0.000    0.000 
#    0.000    0.000    0.000    0.000    0.000    0.000 
#
# Total GULP energy -356765.709150 kJ/mol
# GULP energy per Si atom -5574.464205 kJ/mol
# Density = 2.279936 g / cm^3
# Si number density = 22.851373 Si / 1000 Ang^3
#
#
#
# Elastic Constant Matrix: (Units=GPa)
#
#
# Indices 1 2 3 4 5 6 
#
# 1 38.1284 -9.4330 17.0017 0.0000 0.0000 0.0000
# 2 -9.4330 36.1232 6.0306 0.0000 0.0000 0.0000
# 3 17.0017 6.0306 49.2122 0.0000 0.0000 0.0000
# 4 0.0000 0.0000 0.0000 26.5812 0.0000 0.0000
# 5 0.0000 0.0000 0.0000 0.0000 39.2164 0.0000
# 6 0.0000 0.0000 0.0000 0.0000 0.0000 16.4332
#
#
#
# Elastic Compliance Matrix: (Units=1/GPa)
#
#
# Indices 1 2 3 4 5 6 
#
# 1 0.035080 0.011417 -0.013518 0.000000 0.000000 0.000000
# 2 0.011417 0.031977 -0.007863 0.000000 0.000000 0.000000
# 3 -0.013518 -0.007863 0.025954 0.000000 0.000000 0.000000
# 4 0.000000 0.000000 0.000000 0.037621 0.000000 0.000000
# 5 0.000000 0.000000 0.000000 0.000000 0.025500 0.000000
# 6 0.000000 0.000000 0.000000 0.000000 0.000000 0.060852
#
#
# Mechanical properties :
#
#
# Convention : Reuss Voigt Hill
#
# Bulk Modulus (GPa) = 13.68311 16.74028 15.21170
# Shear Modulus (GPa) = 19.13709 23.77044 21.45377
#
# Velocity S-wave (km/s) = 2.89703 3.22874 3.06737
# Velocity P-wave (km/s) = 4.14623 4.60883 4.38364
#
# Compressibility (1/GPa) = 0.07308278
#
# Stress axis : x y z
#
# Youngs Moduli (GPa) = 28.50649 31.27229 38.52963
#
# Poissons Ratio (x) = -0.35705 0.52086
# Poissons Ratio (y) = -0.32547 0.30296
# Poissons Ratio (z) = 0.38536 0.24589
#
# Static dielectric constant tensor:
#      x y z
#    x 1.889600 0.000000 0.000000 
#    y 0.000000 1.820120 0.000000 
#    z 0.000000 0.000000 1.925880 
# 
# From -- ./inp_files/7017.got.cif
#   From: 2010.05.17/outbox.cif.g08.bks.cpg/sg62_4_cif.got.tgz:7017.got - 2010.06.03 15:25:27.
