data_PCOD9463064
_publ_section_title
;
Structure prediction by ZEFSAII (Michael W. Deem and Ramdas Pophale) SiO2 
 PCOD9463064
Probable space group: P N M A
;
_chemical_formula_sum "Si O2"
_cell_formula_units_Z 64
_cell_length_a 23.913183
_cell_length_b 8.753596
_cell_length_c 19.509616
_cell_angle_alpha 90.000000
_cell_angle_beta 90.000000
_cell_angle_gamma 90.000000
_cell_volume 4083.876572
_symmetry_space_group_name_H-M "P N M A"
_symmetry_group_IT_number 62
_symmetry_cell_setting 'orthorhombic'
loop_
_space_group_symop_operation_xyz
x,y,z
1/2-x,-y,1/2+z
1/2+x,1/2-y,1/2-z
-x,1/2+y,-z
-x,-y,-z
1/2+x,y,1/2-z
1/2-x,1/2+y,1/2+z
x,1/2-y,z
loop_
_atom_site_type_symbol
_atom_site_label
_atom_site_fract_x
_atom_site_fract_y
_atom_site_fract_z
Si Si1 0.252556 0.067376 0.997143
Si Si2 0.267542 0.067310 0.352351
Si Si3 0.776125 0.431566 0.861421
Si Si4 0.060036 0.934312 0.636977
Si Si5 0.670294 0.933609 0.782729
Si Si6 0.658377 0.432720 0.237912
Si Si7 0.382538 0.435526 0.995036
Si Si8 0.062261 0.933246 0.351424
O O1 0.251750 0.250000 0.003947
O O2 0.221514 0.993740 0.061558
O O3 0.317856 0.015692 0.998458
O O4 0.228274 0.017385 0.924106
O O5 0.268062 0.250000 0.363602
O O6 0.314628 0.029590 0.295783
O O7 0.208620 0.027730 0.315355
O O8 0.778734 0.250000 0.860300
O O9 0.716875 0.487735 0.830023
O O10 0.822725 0.500222 0.810715
O O11 0.053762 0.750000 0.636099
O O12 0.108665 0.972480 0.691369
O O13 0.083253 0.983398 0.562283
O O14 0.001004 0.009534 0.652697
O O15 0.677754 0.750000 0.791079
O O16 0.655866 0.250000 0.242176
O O17 0.601566 0.499706 0.207740
O O18 0.382035 0.250000 0.995285
O O19 0.411663 0.485052 0.924621
O O20 0.064262 0.750000 0.349367
#
# Coordination Sequence:
#
# PCOD9463064 Si02
#       8
#     8   8   8   8   8   8   8   8
#     4  11  19  32  51  72 100 136 168 200 247 305
#     4   9  18  31  49  74  98 124 163 210 251 294
#     4  11  21  32  50  75 101 127 163 211 255 296
#     4  10  19  34  51  68  95 139 178 207 245 295
#     4   9  18  34  52  70  98 133 170 208 251 301
#     4  10  20  35  52  71  97 133 170 205 250 304
#     4   9  18  31  47  67  99 137 173 205 241 288
#     4  11  21  33  48  73 102 133 173 217 252 286
#
# _framework density 15.671384
#
# number of rings (size 3 to 8) (size 9 to 14) (size 15 to 20)
#    0.000    2.000    2.500    3.375    0.000    2.500 
#    0.000    0.625    0.000    0.000    0.000    0.875 
#    0.000    0.000    0.000    0.000    0.000    0.000 
#
# Total GULP energy -357183.342589 kJ/mol
# GULP energy per Si atom -5580.989728 kJ/mol
# Density = 1.563571 g / cm^3
# Si number density = 15.671384 Si / 1000 Ang^3
#
#
#
# Elastic Constant Matrix: (Units=GPa)
#
#
# Indices 1 2 3 4 5 6 
#
# 1 81.9992 29.0945 53.1789 0.0000 0.0000 0.0000
# 2 29.0945 44.3174 45.0699 0.0000 0.0000 0.0000
# 3 53.1789 45.0699 115.3239 0.0000 0.0000 0.0000
# 4 0.0000 0.0000 0.0000 24.8166 0.0000 0.0000
# 5 0.0000 0.0000 0.0000 0.0000 20.6166 0.0000
# 6 0.0000 0.0000 0.0000 0.0000 0.0000 21.3515
#
#
#
# Elastic Compliance Matrix: (Units=1/GPa)
#
#
# Indices 1 2 3 4 5 6 
#
# 1 0.018218 -0.005671 -0.006185 0.000000 0.000000 0.000000
# 2 -0.005671 0.039213 -0.012710 0.000000 0.000000 0.000000
# 3 -0.006185 -0.012710 0.016490 0.000000 0.000000 0.000000
# 4 0.000000 0.000000 0.000000 0.040296 0.000000 0.000000
# 5 0.000000 0.000000 0.000000 0.000000 0.048505 0.000000
# 6 0.000000 0.000000 0.000000 0.000000 0.000000 0.046835
#
#
# Mechanical properties :
#
#
# Convention : Reuss Voigt Hill
#
# Bulk Modulus (GPa) = 40.33726 55.14746 47.74236
# Shear Modulus (GPa) = 18.72995 20.97673 19.85334
#
# Velocity S-wave (km/s) = 3.46087 3.66257 3.56315
# Velocity P-wave (km/s) = 6.46262 7.29056 6.88904
#
# Compressibility (1/GPa) = 0.02479098
#
# Stress axis : x y z
#
# Youngs Moduli (GPa) = 54.88993 25.50162 60.64104
#
# Poissons Ratio (x) = 0.14461 0.37505
# Poissons Ratio (y) = 0.31126 0.77076
# Poissons Ratio (z) = 0.33948 0.32413
#
# Static dielectric constant tensor:
#      x y z
#    x 1.499720 0.000000 0.000000 
#    y 0.000000 1.522050 0.000000 
#    z 0.000000 0.000000 1.521000 
# 
# From -- ./inp_files/24958.got.cif
#   From: 2010.05.17/outbox.cif.g08.bks.cpg/sg62_13_cif.got.tgz:24958.got - 2010.06.03 15:25:27.
