data_PCOD9463183
_publ_section_title
;
Structure prediction by ZEFSAII (Michael W. Deem and Ramdas Pophale) SiO2 
 PCOD9463183
Probable space group: P N M A
;
_chemical_formula_sum "Si O2"
_cell_formula_units_Z 48
_cell_length_a 19.475837
_cell_length_b 7.486022
_cell_length_c 15.319225
_cell_angle_alpha 90.000000
_cell_angle_beta 90.000000
_cell_angle_gamma 90.000000
_cell_volume 2233.490066
_symmetry_space_group_name_H-M "P N M A"
_symmetry_group_IT_number 62
_symmetry_cell_setting 'orthorhombic'
loop_
_space_group_symop_operation_xyz
x,y,z
1/2-x,-y,1/2+z
1/2+x,1/2-y,1/2-z
-x,1/2+y,-z
-x,-y,-z
1/2+x,y,1/2-z
1/2-x,1/2+y,1/2+z
x,1/2-y,z
loop_
_atom_site_type_symbol
_atom_site_label
_atom_site_fract_x
_atom_site_fract_y
_atom_site_fract_z
Si Si1 0.025962 0.963823 0.097406
Si Si2 0.263555 0.537756 0.281136
Si Si3 0.818320 0.030935 0.888110
Si Si4 0.432589 0.963826 0.056938
Si Si5 0.580942 0.030976 0.743548
Si Si6 0.208707 0.464432 0.470836
O O1 0.028593 0.750000 0.107909
O O2 0.103515 0.031232 0.107857
O O3 0.973690 0.030623 0.171479
O O4 0.000000 0.000000 0.000000
O O5 0.269284 0.750000 0.268422
O O6 0.220229 0.470278 0.199173
O O7 0.341920 0.471101 0.280673
O O8 0.224197 0.507174 0.371037
O O9 0.819543 0.250000 0.888475
O O10 0.772193 0.973230 0.969851
O O11 0.425848 0.750000 0.062422
O O12 0.436115 0.026528 0.157402
O O13 0.363652 0.031727 0.009045
O O14 0.500000 0.000000 0.000000
O O15 0.580150 0.250000 0.742434
O O16 0.206857 0.250000 0.478178
#
# Coordination Sequence:
#
# PCOD9463183 Si02
#       6
#     8   8   8   8   8   8
#     4  10  20  34  54  79 105 137 177 218 262 312
#     4  10  19  34  57  81 103 138 184 219 255 317
#     4   9  18  34  55  77 103 140 180 212 256 323
#     4  10  21  37  56  79 109 145 183 224 271 321
#     4   9  18  35  57  79 107 143 180 218 261 316
#     4  10  20  36  55  78 110 141 172 222 279 316
#
# _framework density 21.491029999999999
#
# number of rings (size 3 to 8) (size 9 to 14) (size 15 to 20)
#    0.000    2.333    1.667    1.000    2.333    0.667 
#    0.000    3.333    0.000    0.000    0.000    0.000 
#    0.000    0.000    0.000    0.000    0.000    0.000 
#
# Total GULP energy -268201.240245 kJ/mol
# GULP energy per Si atom -5587.525838 kJ/mol
# Density = 2.144212 g / cm^3
# Si number density = 21.491030 Si / 1000 Ang^3
#
#
#
# Elastic Constant Matrix: (Units=GPa)
#
#
# Indices 1 2 3 4 5 6 
#
# 1 139.4696 -1.2627 20.3836 0.0000 0.0000 0.0000
# 2 -1.2627 56.7631 -13.2175 0.0000 0.0000 0.0000
# 3 20.3836 -13.2175 87.3657 0.0000 0.0000 0.0000
# 4 0.0000 0.0000 0.0000 24.3347 0.0000 0.0000
# 5 0.0000 0.0000 0.0000 0.0000 45.4592 0.0000
# 6 0.0000 0.0000 0.0000 0.0000 0.0000 11.7953
#
#
#
# Elastic Compliance Matrix: (Units=1/GPa)
#
#
# Indices 1 2 3 4 5 6 
#
# 1 0.007426 -0.000247 -0.001770 0.000000 0.000000 0.000000
# 2 -0.000247 0.018269 0.002821 0.000000 0.000000 0.000000
# 3 -0.001770 0.002821 0.012286 0.000000 0.000000 0.000000
# 4 0.000000 0.000000 0.000000 0.041094 0.000000 0.000000
# 5 0.000000 0.000000 0.000000 0.000000 0.021998 0.000000
# 6 0.000000 0.000000 0.000000 0.000000 0.000000 0.084780
#
#
# Mechanical properties :
#
#
# Convention : Reuss Voigt Hill
#
# Bulk Modulus (GPa) = 25.25896 32.82279 29.04087
# Shear Modulus (GPa) = 25.32417 34.83085 30.07751
#
# Velocity S-wave (km/s) = 3.43645 4.03018 3.74510
# Velocity P-wave (km/s) = 5.24637 6.07967 5.67832
#
# Compressibility (1/GPa) = 0.03958991
#
# Stress axis : x y z
#
# Youngs Moduli (GPa) = 134.65326 54.73884 81.39364
#
# Poissons Ratio (x) = 0.01352 0.14407
# Poissons Ratio (y) = 0.03325 -0.22965
# Poissons Ratio (z) = 0.23834 -0.15444
#
# Static dielectric constant tensor:
#      x y z
#    x 1.754680 0.000000 0.000000 
#    y 0.000000 1.853210 0.000000 
#    z 0.000000 0.000000 1.716430 
# 
# From -- ./inp_files/14081.got.cif
#   From: 2010.05.17/outbox.cif.g08.bks.cpg/sg62_8_cif.got.tgz:14081.got - 2010.06.03 15:25:27.
