data_PCOD9463767
_publ_section_title
;
Structure prediction by ZEFSAII (Michael W. Deem and Ramdas Pophale) SiO2 
 PCOD9463767
Probable space group: P N M A
;
_chemical_formula_sum "Si O2"
_cell_formula_units_Z 44
_cell_length_a 16.686988
_cell_length_b 7.952189
_cell_length_c 17.249779
_cell_angle_alpha 90.000000
_cell_angle_beta 90.000000
_cell_angle_gamma 90.000000
_cell_volume 2289.012595
_symmetry_space_group_name_H-M "P N M A"
_symmetry_group_IT_number 62
_symmetry_cell_setting 'orthorhombic'
loop_
_space_group_symop_operation_xyz
x,y,z
1/2-x,-y,1/2+z
1/2+x,1/2-y,1/2-z
-x,1/2+y,-z
-x,-y,-z
1/2+x,y,1/2-z
1/2-x,1/2+y,1/2+z
x,1/2-y,z
loop_
_atom_site_type_symbol
_atom_site_label
_atom_site_fract_x
_atom_site_fract_y
_atom_site_fract_z
Si Si1 0.277066 0.250000 0.826350
Si Si2 0.945207 0.250000 0.765882
Si Si3 0.912175 0.934763 0.016699
Si Si4 0.372426 0.931715 0.661771
Si Si5 0.126316 0.250000 0.705001
Si Si6 0.198566 0.550172 0.614758
Si Si7 0.250195 0.440371 0.440361
O O1 0.365684 0.250000 0.788480
O O2 0.198556 0.250000 0.769518
O O3 0.273932 0.416386 0.879970
O O4 0.930062 0.420050 0.813620
O O5 0.035448 0.250000 0.735524
O O6 0.913660 0.750000 0.054322
O O7 0.878899 0.916432 0.930262
O O8 0.847615 0.051050 0.058013
O O9 0.000000 0.000000 0.000000
O O10 0.391787 0.750000 0.697346
O O11 0.278178 0.969008 0.669066
O O12 0.138136 0.417416 0.652512
O O13 0.178433 0.750000 0.614384
O O14 0.218264 0.491869 0.526418
O O15 0.224714 0.250000 0.422519
#
# Coordination Sequence:
#
# PCOD9463767 Si02
#       7
#     4   4   8   8   4   8   8
#     4  12  26  46  62 104 137 162 223 291 321 393
#     4  12  26  42  66  92 136 177 215 273 337 384
#     4  10  20  33  55  94 131 166 212 259 320 398
#     4   9  20  37  60  88 126 171 212 256 320 398
#     4  12  26  42  70  98 135 177 224 264 342 397
#     4  10  19  42  71  95 123 179 223 266 323 407
#     4  11  22  39  68  93 129 173 221 273 339 383
#
# _framework density 19.222261
#
# number of rings (size 3 to 8) (size 9 to 14) (size 15 to 20)
#    0.000    1.455    4.545    1.636    7.636    2.182 
#    0.000    0.909    0.000    0.000    0.000    0.000 
#    0.000    0.000    0.000    0.000    0.000    0.000 
#
# Total GULP energy -245104.715986 kJ/mol
# GULP energy per Si atom -5570.561727 kJ/mol
# Density = 1.917851 g / cm^3
# Si number density = 19.222261 Si / 1000 Ang^3
#
#
#
# Elastic Constant Matrix: (Units=GPa)
#
#
# Indices 1 2 3 4 5 6 
#
# 1 74.5209 27.5417 18.9711 0.0000 0.0000 0.0000
# 2 27.5417 144.4473 29.4564 0.0000 0.0000 0.0000
# 3 18.9711 29.4564 51.5244 0.0000 0.0000 0.0000
# 4 0.0000 0.0000 0.0000 29.8852 0.0000 0.0000
# 5 0.0000 0.0000 0.0000 0.0000 18.3639 0.0000
# 6 0.0000 0.0000 0.0000 0.0000 0.0000 21.4866
#
#
#
# Elastic Compliance Matrix: (Units=1/GPa)
#
#
# Indices 1 2 3 4 5 6 
#
# 1 0.015302 -0.002002 -0.004490 0.000000 0.000000 0.000000
# 2 -0.002002 0.008099 -0.003893 0.000000 0.000000 0.000000
# 3 -0.004490 -0.003893 0.023287 0.000000 0.000000 0.000000
# 4 0.000000 0.000000 0.000000 0.033461 0.000000 0.000000
# 5 0.000000 0.000000 0.000000 0.000000 0.054455 0.000000
# 6 0.000000 0.000000 0.000000 0.000000 0.000000 0.046541
#
#
# Mechanical properties :
#
#
# Convention : Reuss Voigt Hill
#
# Bulk Modulus (GPa) = 38.58247 46.93678 42.75962
# Shear Modulus (GPa) = 23.74709 26.91535 25.33122
#
# Velocity S-wave (km/s) = 3.51863 3.74601 3.63410
# Velocity P-wave (km/s) = 6.05170 6.57123 6.31681
#
# Compressibility (1/GPa) = 0.02591850
#
# Stress axis : x y z
#
# Youngs Moduli (GPa) = 65.35129 123.47959 42.94284
#
# Poissons Ratio (x) = 0.24722 0.19279
# Poissons Ratio (y) = 0.13084 0.16717
# Poissons Ratio (z) = 0.29340 0.48067
#
# Static dielectric constant tensor:
#      x y z
#    x 1.725120 0.000000 0.000000 
#    y 0.000000 1.656390 0.000000 
#    z 0.000000 0.000000 1.698360 
# 
# From -- ./inp_files/23607.got.cif
#   From: 2010.05.17/outbox.cif.g08.bks.cpg/sg62_12_cif.got.tgz:23607.got - 2010.06.03 15:25:27.
