data_PCOD9463807
_publ_section_title
;
Structure prediction by ZEFSAII (Michael W. Deem and Ramdas Pophale) SiO2 
 PCOD9463807
Probable space group: P N M A
;
_chemical_formula_sum "Si O2"
_cell_formula_units_Z 48
_cell_length_a 9.674963
_cell_length_b 9.668901
_cell_length_c 23.044025
_cell_angle_alpha 90.000000
_cell_angle_beta 90.000000
_cell_angle_gamma 90.000000
_cell_volume 2155.682341
_symmetry_space_group_name_H-M "P N M A"
_symmetry_group_IT_number 62
_symmetry_cell_setting 'orthorhombic'
loop_
_space_group_symop_operation_xyz
x,y,z
1/2-x,-y,1/2+z
1/2+x,1/2-y,1/2-z
-x,1/2+y,-z
-x,-y,-z
1/2+x,y,1/2-z
1/2-x,1/2+y,1/2+z
x,1/2-y,z
loop_
_atom_site_type_symbol
_atom_site_label
_atom_site_fract_x
_atom_site_fract_y
_atom_site_fract_z
Si Si1 0.289770 0.102590 0.799686
Si Si2 0.415285 0.594543 0.637576
Si Si3 0.385366 0.090895 0.112518
Si Si4 0.127330 0.587884 0.433872
Si Si5 0.113817 0.581373 0.962194
Si Si6 0.960246 0.467218 0.257319
O O1 0.222740 0.250000 0.788161
O O2 0.313717 0.088309 0.867874
O O3 0.441370 0.096183 0.771857
O O4 0.189145 0.993298 0.770043
O O5 0.389649 0.750000 0.617772
O O6 0.550178 0.552403 0.601928
O O7 0.452818 0.598642 0.704964
O O8 0.268993 0.526784 0.620716
O O9 0.388702 0.250000 0.091007
O O10 0.441964 0.098071 0.179188
O O11 0.483298 0.994156 0.073677
O O12 0.115544 0.750000 0.451303
O O13 0.239906 0.496649 0.468509
O O14 0.122494 0.750000 0.971312
O O15 0.000000 0.500000 0.000000
#
# Coordination Sequence:
#
# PCOD9463807 Si02
#       6
#     8   8   8   8   8   8
#     4  10  20  31  49  77 118 161 194 231 283 343
#     4  10  21  37  57  85 118 154 198 246 293 350
#     4  10  21  37  58  87 123 161 199 238 288 350
#     4  10  21  39  60  87 120 155 197 243 294 351
#     4  11  23  42  67  92 118 150 196 253 312 365
#     4  11  18  34  51  82 119 157 199 238 282 341
#
# _framework density 22.266732999999999
#
# number of rings (size 3 to 8) (size 9 to 14) (size 15 to 20)
#    0.000    1.667    3.333    2.000    0.000    0.667 
#    0.000    2.500    0.000    0.000    0.000    0.000 
#    0.000    0.000    0.000    0.000    0.000    0.000 
#
# Total GULP energy -267261.280388 kJ/mol
# GULP energy per Si atom -5567.943341 kJ/mol
# Density = 2.221605 g / cm^3
# Si number density = 22.266733 Si / 1000 Ang^3
#
#
#
# Elastic Constant Matrix: (Units=GPa)
#
#
# Indices 1 2 3 4 5 6 
#
# 1 129.7134 46.9138 14.2160 0.0000 0.0000 0.0000
# 2 46.9138 107.2344 13.7174 0.0000 0.0000 0.0000
# 3 14.2160 13.7174 67.3378 0.0000 0.0000 0.0000
# 4 0.0000 0.0000 0.0000 5.9857 0.0000 0.0000
# 5 0.0000 0.0000 0.0000 0.0000 40.2991 0.0000
# 6 0.0000 0.0000 0.0000 0.0000 0.0000 15.7958
#
#
#
# Elastic Compliance Matrix: (Units=1/GPa)
#
#
# Indices 1 2 3 4 5 6 
#
# 1 0.009246 -0.003897 -0.001158 0.000000 0.000000 0.000000
# 2 -0.003897 0.011217 -0.001462 0.000000 0.000000 0.000000
# 3 -0.001158 -0.001462 0.015393 0.000000 0.000000 0.000000
# 4 0.000000 0.000000 0.000000 0.167064 0.000000 0.000000
# 5 0.000000 0.000000 0.000000 0.000000 0.024814 0.000000
# 6 0.000000 0.000000 0.000000 0.000000 0.000000 0.063308
#
#
# Mechanical properties :
#
#
# Convention : Reuss Voigt Hill
#
# Bulk Modulus (GPa) = 43.81871 50.44222 47.13046
# Shear Modulus (GPa) = 16.04193 27.71202 21.87698
#
# Velocity S-wave (km/s) = 2.68702 3.53164 3.13788
# Velocity P-wave (km/s) = 5.41743 6.27159 5.86009
#
# Compressibility (1/GPa) = 0.02282130
#
# Stress axis : x y z
#
# Youngs Moduli (GPa) = 108.16022 89.14883 64.96500
#
# Poissons Ratio (x) = 0.34738 0.07523
# Poissons Ratio (y) = 0.42147 0.09501
# Poissons Ratio (z) = 0.12526 0.13037
#
# Static dielectric constant tensor:
#      x y z
#    x 1.892560 0.000000 0.000000 
#    y 0.000000 1.839130 0.000000 
#    z 0.000000 0.000000 1.856770 
# 
# From -- ./inp_files/30737.got.cif
#   From: 2010.05.17/outbox.cif.g08.bks.cpg/sg62_16_cif.got.tgz:30737.got - 2010.06.03 15:25:27.
