data_PCOD9463186
_publ_section_title
;
Structure prediction by ZEFSAII (Michael W. Deem and Ramdas Pophale) SiO2 
 PCOD9463186
Probable space group: P N M A
;
_chemical_formula_sum "Si O2"
_cell_formula_units_Z 40
_cell_length_a 14.093483
_cell_length_b 22.057639
_cell_length_c 5.333017
_cell_angle_alpha 90.000000
_cell_angle_beta 90.000000
_cell_angle_gamma 90.000000
_cell_volume 1657.869450
_symmetry_space_group_name_H-M "P N M A"
_symmetry_group_IT_number 62
_symmetry_cell_setting 'orthorhombic'
loop_
_space_group_symop_operation_xyz
x,y,z
1/2-x,-y,1/2+z
1/2+x,1/2-y,1/2-z
-x,1/2+y,-z
-x,-y,-z
1/2+x,y,1/2-z
1/2-x,1/2+y,1/2+z
x,1/2-y,z
loop_
_atom_site_type_symbol
_atom_site_label
_atom_site_fract_x
_atom_site_fract_y
_atom_site_fract_z
Si Si1 0.101298 0.682672 0.640556
Si Si2 0.064590 0.375994 0.086109
Si Si3 0.675659 0.562076 0.032016
Si Si4 0.598214 0.181638 0.917470
Si Si5 0.619065 0.996983 0.532788
O O1 0.138788 0.750000 0.685904
O O2 0.172708 0.631980 0.548299
O O3 0.036216 0.657802 0.869382
O O4 0.016482 0.685800 0.436085
O O5 0.120002 0.361943 0.346755
O O6 0.050385 0.447017 0.035941
O O7 0.117362 0.346715 0.850313
O O8 0.779318 0.533216 0.027889
O O9 0.615478 0.528637 0.813762
O O10 0.631223 0.549733 0.303727
O O11 0.635634 0.250000 0.949657
#
# Coordination Sequence:
#
# PCOD9463186 Si02
#       5
#     8   8   8   8   8
#     4   9  21  37  57  83 113 146 184 228 277 328
#     4  10  19  34  57  82 109 141 183 228 273 327
#     4  10  22  39  58  79 113 149 184 229 274 330
#     4   9  18  33  52  79 112 142 174 223 274 320
#     4  10  22  39  57  82 112 147 186 229 278 324
#
# _framework density 24.12735
#
# number of rings (size 3 to 8) (size 9 to 14) (size 15 to 20)
#    1.200    1.200    0.000    2.400    2.800    1.600 
#    0.000    3.000    0.000    0.000    0.000    0.000 
#    0.000    0.000    0.000    0.000    0.000    0.000 
#
# Total GULP energy -223264.600521 kJ/mol
# GULP energy per Si atom -5581.615013 kJ/mol
# Density = 2.407243 g / cm^3
# Si number density = 24.127350 Si / 1000 Ang^3
#
#
#
# Elastic Constant Matrix: (Units=GPa)
#
#
# Indices 1 2 3 4 5 6 
#
# 1 37.0483 -15.9516 9.7737 0.0000 0.0000 0.0000
# 2 -15.9516 154.6239 37.4593 0.0000 0.0000 0.0000
# 3 9.7737 37.4593 149.0134 0.0000 0.0000 0.0000
# 4 0.0000 0.0000 0.0000 34.1306 0.0000 0.0000
# 5 0.0000 0.0000 0.0000 0.0000 20.0638 0.0000
# 6 0.0000 0.0000 0.0000 0.0000 0.0000 21.2665
#
#
#
# Elastic Compliance Matrix: (Units=1/GPa)
#
#
# Indices 1 2 3 4 5 6 
#
# 1 0.029348 0.003721 -0.002860 0.000000 0.000000 0.000000
# 2 0.003721 0.007358 -0.002094 0.000000 0.000000 0.000000
# 3 -0.002860 -0.002094 0.007425 0.000000 0.000000 0.000000
# 4 0.000000 0.000000 0.000000 0.029299 0.000000 0.000000
# 5 0.000000 0.000000 0.000000 0.000000 0.049841 0.000000
# 6 0.000000 0.000000 0.000000 0.000000 0.000000 0.047022
#
#
# Mechanical properties :
#
#
# Convention : Reuss Voigt Hill
#
# Bulk Modulus (GPa) = 24.00119 44.80537 34.40328
# Shear Modulus (GPa) = 26.78825 35.71913 31.25369
#
# Velocity S-wave (km/s) = 3.33571 3.85182 3.60302
# Velocity P-wave (km/s) = 4.98049 6.19619 5.62130
#
# Compressibility (1/GPa) = 0.04166460
#
# Stress axis : x y z
#
# Youngs Moduli (GPa) = 34.07350 135.89941 134.68463
#
# Poissons Ratio (x) = -0.50563 0.38523
# Poissons Ratio (y) = -0.12677 0.28200
# Poissons Ratio (z) = 0.09746 0.28455
#
# Static dielectric constant tensor:
#      x y z
#    x 2.101840 0.000000 0.000000 
#    y 0.000000 1.960080 0.000000 
#    z 0.000000 0.000000 1.872640 
# 
# From -- ./inp_files/2156.got.cif
#   From: 2010.05.17/outbox.cif.g08.bks.cpg/sg62_2_cif.got.tgz:2156.got - 2010.06.03 15:25:27.
