data_PCOD9463726
_publ_section_title
;
Structure prediction by ZEFSAII (Michael W. Deem and Ramdas Pophale) SiO2 
 PCOD9463726
Probable space group: P N M A
;
_chemical_formula_sum "Si O2"
_cell_formula_units_Z 40
_cell_length_a 16.050067
_cell_length_b 18.959006
_cell_length_c 5.315349
_cell_angle_alpha 90.000000
_cell_angle_beta 90.000000
_cell_angle_gamma 90.000000
_cell_volume 1617.425176
_symmetry_space_group_name_H-M "P N M A"
_symmetry_group_IT_number 62
_symmetry_cell_setting 'orthorhombic'
loop_
_space_group_symop_operation_xyz
x,y,z
1/2-x,-y,1/2+z
1/2+x,1/2-y,1/2-z
-x,1/2+y,-z
-x,-y,-z
1/2+x,y,1/2-z
1/2-x,1/2+y,1/2+z
x,1/2-y,z
loop_
_atom_site_type_symbol
_atom_site_label
_atom_site_fract_x
_atom_site_fract_y
_atom_site_fract_z
Si Si1 0.334954 0.329854 0.316283
Si Si2 0.767005 0.545824 0.458928
Si Si3 0.074449 0.903290 0.423271
Si Si4 0.068541 0.452716 0.260448
Si Si5 0.521336 0.327024 0.551407
O O1 0.302708 0.250000 0.302372
O O2 0.282505 0.381629 0.492729
O O3 0.430746 0.325012 0.413047
O O4 0.345594 0.367243 0.044360
O O5 0.759945 0.507713 0.188446
O O6 0.862800 0.561792 0.527431
O O7 0.025374 0.944994 0.640317
O O8 0.010162 0.844308 0.330999
O O9 0.082952 0.963996 0.209776
O O10 0.075014 0.392063 0.052394
O O11 0.560445 0.250000 0.527345
#
# Coordination Sequence:
#
# PCOD9463726 Si02
#       5
#     8   8   8   8   8
#     4  10  22  40  63  93 128 171 220 269 328 395
#     4  12  26  44  67  97 134 175 218 271 329 395
#     4  10  19  39  63  92 119 169 215 274 322 391
#     4  10  22  36  64  91 126 163 222 271 327 383
#     4  10  21  37  62  92 127 166 215 272 331 394
#
# _framework density 24.730665999999999
#
# number of rings (size 3 to 8) (size 9 to 14) (size 15 to 20)
#    0.000    1.600    2.000    2.400    2.800    1.600 
#    0.000    0.000    0.000    0.000    0.000    0.000 
#    0.000    0.000    0.000    0.000    0.000    0.000 
#
# Total GULP energy -223258.936433 kJ/mol
# GULP energy per Si atom -5581.473411 kJ/mol
# Density = 2.467438 g / cm^3
# Si number density = 24.730666 Si / 1000 Ang^3
#
#
#
# Elastic Constant Matrix: (Units=GPa)
#
#
# Indices 1 2 3 4 5 6 
#
# 1 49.8203 27.7947 5.5634 0.0000 0.0000 0.0000
# 2 27.7947 208.7389 37.6782 0.0000 0.0000 0.0000
# 3 5.5634 37.6782 82.5946 0.0000 0.0000 0.0000
# 4 0.0000 0.0000 0.0000 18.3634 0.0000 0.0000
# 5 0.0000 0.0000 0.0000 0.0000 27.4285 0.0000
# 6 0.0000 0.0000 0.0000 0.0000 0.0000 31.4649
#
#
#
# Elastic Compliance Matrix: (Units=1/GPa)
#
#
# Indices 1 2 3 4 5 6 
#
# 1 0.021685 -0.002859 -0.000156 0.000000 0.000000 0.000000
# 2 -0.002859 0.005598 -0.002361 0.000000 0.000000 0.000000
# 3 -0.000156 -0.002361 0.013195 0.000000 0.000000 0.000000
# 4 0.000000 0.000000 0.000000 0.054456 0.000000 0.000000
# 5 0.000000 0.000000 0.000000 0.000000 0.036458 0.000000
# 6 0.000000 0.000000 0.000000 0.000000 0.000000 0.031781
#
#
# Mechanical properties :
#
#
# Convention : Reuss Voigt Hill
#
# Bulk Modulus (GPa) = 33.64256 53.69181 43.66718
# Shear Modulus (GPa) = 27.19840 33.45917 30.32879
#
# Velocity S-wave (km/s) = 3.31990 3.68223 3.50575
# Velocity P-wave (km/s) = 5.32247 6.31159 5.83802
#
# Compressibility (1/GPa) = 0.02972426
#
# Stress axis : x y z
#
# Youngs Moduli (GPa) = 46.11536 178.64971 75.78709
#
# Poissons Ratio (x) = 0.51080 0.01185
# Poissons Ratio (y) = 0.13185 0.17893
# Poissons Ratio (z) = 0.00721 0.42178
#
# Static dielectric constant tensor:
#      x y z
#    x 1.984590 0.000000 0.000000 
#    y 0.000000 2.005160 0.000000 
#    z 0.000000 0.000000 2.087550 
# 
# From -- ./inp_files/1548.got.cif
#   From: 2010.05.17/outbox.cif.g08.bks.cpg/sg62_1_cif.got.tgz:1548.got - 2010.06.03 15:25:27.
