data_PCOD9463515
_publ_section_title
;
Structure prediction by ZEFSAII (Michael W. Deem and Ramdas Pophale) SiO2 
 PCOD9463515
Probable space group: P N M A
;
_chemical_formula_sum "Si O2"
_cell_formula_units_Z 56
_cell_length_a 14.758464
_cell_length_b 11.719923
_cell_length_c 17.353760
_cell_angle_alpha 90.000000
_cell_angle_beta 90.000000
_cell_angle_gamma 90.000000
_cell_volume 3001.646230
_symmetry_space_group_name_H-M "P N M A"
_symmetry_group_IT_number 62
_symmetry_cell_setting 'orthorhombic'
loop_
_space_group_symop_operation_xyz
x,y,z
1/2-x,-y,1/2+z
1/2+x,1/2-y,1/2-z
-x,1/2+y,-z
-x,-y,-z
1/2+x,y,1/2-z
1/2-x,1/2+y,1/2+z
x,1/2-y,z
loop_
_atom_site_type_symbol
_atom_site_label
_atom_site_fract_x
_atom_site_fract_y
_atom_site_fract_z
Si Si1 0.051690 0.621165 0.516148
Si Si2 0.460467 0.015928 0.318519
Si Si3 0.177526 0.538543 0.390329
Si Si4 0.474878 0.873946 0.827170
Si Si5 0.640988 0.612777 0.368303
Si Si6 0.661530 0.886206 0.548702
Si Si7 0.291931 0.880458 0.250437
O O1 0.012215 0.750000 0.497426
O O2 0.139347 0.608474 0.462841
O O3 0.000000 0.500000 0.500000
O O4 0.054794 0.620657 0.608931
O O5 0.490677 0.112432 0.258819
O O6 0.417247 0.063482 0.396971
O O7 0.548498 0.940603 0.336555
O O8 0.382553 0.947398 0.272388
O O9 0.094866 0.473702 0.348373
O O10 0.246400 0.443534 0.421523
O O11 0.229260 0.612116 0.326627
O O12 0.430209 0.750000 0.836989
O O13 0.636753 0.750000 0.359855
O O14 0.649329 0.585741 0.458683
O O15 0.728972 0.574066 0.319196
O O16 0.664466 0.750000 0.556521
O O17 0.315674 0.750000 0.232835
#
# Coordination Sequence:
#
# PCOD9463515 Si02
#       7
#     8   8   8   8   8   8   8
#     4   9  19  34  54  83 117 157 197 248 303 362
#     4  11  21  37  60  84 114 155 195 239 297 356
#     4  10  19  36  59  82 115 152 196 241 298 360
#     4  10  20  35  56  83 118 151 193 243 295 356
#     4  10  21  39  59  84 118 150 195 247 294 355
#     4  10  22  37  58  84 116 157 197 245 298 358
#     4  10  21  36  57  86 114 148 193 244 293 349
#
# _framework density 18.656427999999998
#
# number of rings (size 3 to 8) (size 9 to 14) (size 15 to 20)
#    0.000    2.000    1.429    2.143    2.000    0.571 
#    0.000    0.714    0.000    2.571    0.000    0.000 
#    0.000    0.000    0.000    0.000    0.000    0.000 
#
# Total GULP energy -311905.488540 kJ/mol
# GULP energy per Si atom -5569.740867 kJ/mol
# Density = 1.861397 g / cm^3
# Si number density = 18.656428 Si / 1000 Ang^3
#
#
#
# Elastic Constant Matrix: (Units=GPa)
#
#
# Indices 1 2 3 4 5 6 
#
# 1 63.4431 24.5013 35.1372 0.0000 0.0000 0.0000
# 2 24.5013 69.9404 23.1604 0.0000 0.0000 0.0000
# 3 35.1372 23.1604 109.0554 0.0000 0.0000 0.0000
# 4 0.0000 0.0000 0.0000 26.2663 0.0000 0.0000
# 5 0.0000 0.0000 0.0000 0.0000 24.7736 0.0000
# 6 0.0000 0.0000 0.0000 0.0000 0.0000 23.7517
#
#
#
# Elastic Compliance Matrix: (Units=1/GPa)
#
#
# Indices 1 2 3 4 5 6 
#
# 1 0.020983 -0.005499 -0.005593 0.000000 0.000000 0.000000
# 2 -0.005499 0.016820 -0.001801 0.000000 0.000000 0.000000
# 3 -0.005593 -0.001801 0.011354 0.000000 0.000000 0.000000
# 4 0.000000 0.000000 0.000000 0.038072 0.000000 0.000000
# 5 0.000000 0.000000 0.000000 0.000000 0.040366 0.000000
# 6 0.000000 0.000000 0.000000 0.000000 0.000000 0.042102
#
#
# Mechanical properties :
#
#
# Convention : Reuss Voigt Hill
#
# Bulk Modulus (GPa) = 42.78375 45.33741 44.06058
# Shear Modulus (GPa) = 24.59749 25.60099 25.09924
#
# Velocity S-wave (km/s) = 3.63498 3.70839 3.67187
# Velocity P-wave (km/s) = 6.37179 6.53377 6.45329
#
# Compressibility (1/GPa) = 0.02337336
#
# Stress axis : x y z
#
# Youngs Moduli (GPa) = 47.65684 59.45154 88.07425
#
# Poissons Ratio (x) = 0.32691 0.49260
# Poissons Ratio (y) = 0.26205 0.15858
# Poissons Ratio (z) = 0.26654 0.10704
#
# Static dielectric constant tensor:
#      x y z
#    x 1.628990 0.000000 0.000000 
#    y 0.000000 1.737090 0.000000 
#    z 0.000000 0.000000 1.646880 
# 
# From -- ./inp_files/19028.got.cif
#   From: 2010.05.17/outbox.cif.g08.bks.cpg/sg62_10_cif.got.tgz:19028.got - 2010.06.03 15:25:27.
