data_PCOD9463011
_publ_section_title
;
Structure prediction by ZEFSAII (Michael W. Deem and Ramdas Pophale) SiO2 
 PCOD9463011
Probable space group: P N M A
;
_chemical_formula_sum "Si O2"
_cell_formula_units_Z 40
_cell_length_a 17.558929
_cell_length_b 10.985030
_cell_length_c 10.680957
_cell_angle_alpha 90.000000
_cell_angle_beta 90.000000
_cell_angle_gamma 90.000000
_cell_volume 2060.200256
_symmetry_space_group_name_H-M "P N M A"
_symmetry_group_IT_number 62
_symmetry_cell_setting 'orthorhombic'
loop_
_space_group_symop_operation_xyz
x,y,z
1/2-x,-y,1/2+z
1/2+x,1/2-y,1/2-z
-x,1/2+y,-z
-x,-y,-z
1/2+x,y,1/2-z
1/2-x,1/2+y,1/2+z
x,1/2-y,z
loop_
_atom_site_type_symbol
_atom_site_label
_atom_site_fract_x
_atom_site_fract_y
_atom_site_fract_z
Si Si1 0.401919 0.108886 0.599190
Si Si2 0.604504 0.385464 0.999434
Si Si3 0.731378 0.393838 0.813283
Si Si4 0.502879 0.498552 0.802919
Si Si5 0.141560 0.889483 0.813156
O O1 0.423483 0.250000 0.610086
O O2 0.320990 0.092239 0.668164
O O3 0.386858 0.085008 0.453694
O O4 0.465993 0.035005 0.671333
O O5 0.604798 0.250000 0.050176
O O6 0.688063 0.413466 0.946478
O O7 0.550756 0.395495 0.876104
O O8 0.565251 0.467726 0.103269
O O9 0.716217 0.250000 0.778690
O O10 0.697806 0.500888 0.726548
O O11 0.567756 0.599396 0.777706
O O12 0.171708 0.750000 0.808047
#
# Coordination Sequence:
#
# PCOD9463011 Si02
#       5
#     8   8   8   8   8
#     4  10  21  36  57  82 114 153 189 232 287 340
#     4   9  18  33  54  78 108 146 186 229 273 325
#     4   9  20  38  57  80 113 152 192 230 282 343
#     4  10  19  33  56  83 110 146 188 231 275 334
#     4  10  21  38  58  84 117 148 188 239 285 332
#
# _framework density 19.415589000000001
#
# number of rings (size 3 to 8) (size 9 to 14) (size 15 to 20)
#    0.000    2.400    0.000    1.800    2.800    0.800 
#    0.000    5.000    0.000    0.000    0.000    0.000 
#    0.000    0.000    0.000    0.000    0.000    0.000 
#
# Total GULP energy -222779.385669 kJ/mol
# GULP energy per Si atom -5569.484642 kJ/mol
# Density = 1.937140 g / cm^3
# Si number density = 19.415589 Si / 1000 Ang^3
#
#
#
# Elastic Constant Matrix: (Units=GPa)
#
#
# Indices 1 2 3 4 5 6 
#
# 1 41.6366 29.2955 4.1634 0.0000 0.0000 0.0000
# 2 29.2955 81.5789 31.2809 0.0000 0.0000 0.0000
# 3 4.1634 31.2809 51.7983 0.0000 0.0000 0.0000
# 4 0.0000 0.0000 0.0000 19.0922 0.0000 0.0000
# 5 0.0000 0.0000 0.0000 0.0000 26.9379 0.0000
# 6 0.0000 0.0000 0.0000 0.0000 0.0000 14.8835
#
#
#
# Elastic Compliance Matrix: (Units=1/GPa)
#
#
# Indices 1 2 3 4 5 6 
#
# 1 0.033489 -0.014307 0.005948 0.000000 0.000000 0.000000
# 2 -0.014307 0.022064 -0.012174 0.000000 0.000000 0.000000
# 3 0.005948 -0.012174 0.026180 0.000000 0.000000 0.000000
# 4 0.000000 0.000000 0.000000 0.052378 0.000000 0.000000
# 5 0.000000 0.000000 0.000000 0.000000 0.037122 0.000000
# 6 0.000000 0.000000 0.000000 0.000000 0.000000 0.067189
#
#
# Mechanical properties :
#
#
# Convention : Reuss Voigt Hill
#
# Bulk Modulus (GPa) = 24.59047 33.83259 29.21153
# Shear Modulus (GPa) = 17.06237 19.53431 18.29834
#
# Velocity S-wave (km/s) = 2.96767 3.17537 3.07328
# Velocity P-wave (km/s) = 4.94323 5.55943 5.26036
#
# Compressibility (1/GPa) = 0.04066616
#
# Stress axis : x y z
#
# Youngs Moduli (GPa) = 29.86079 45.32293 38.19758
#
# Poissons Ratio (x) = 0.64842 -0.22720
# Poissons Ratio (y) = 0.42721 0.46503
# Poissons Ratio (z) = -0.17761 0.55178
#
# Static dielectric constant tensor:
#      x y z
#    x 1.683190 0.000000 0.000000 
#    y 0.000000 1.680400 0.000000 
#    z 0.000000 0.000000 1.690310 
# 
# From -- ./inp_files/7265.got.cif
#   From: 2010.05.17/outbox.cif.g08.bks.cpg/sg62_4_cif.got.tgz:7265.got - 2010.06.03 15:25:27.
