data_PCOD9463642
_publ_section_title
;
Structure prediction by ZEFSAII (Michael W. Deem and Ramdas Pophale) SiO2 
 PCOD9463642
Probable space group: P N M A
;
_chemical_formula_sum "Si O2"
_cell_formula_units_Z 56
_cell_length_a 15.008902
_cell_length_b 7.495756
_cell_length_c 20.776888
_cell_angle_alpha 90.000000
_cell_angle_beta 90.000000
_cell_angle_gamma 90.000000
_cell_volume 2337.463627
_symmetry_space_group_name_H-M "P N M A"
_symmetry_group_IT_number 62
_symmetry_cell_setting 'orthorhombic'
loop_
_space_group_symop_operation_xyz
x,y,z
1/2-x,-y,1/2+z
1/2+x,1/2-y,1/2-z
-x,1/2+y,-z
-x,-y,-z
1/2+x,y,1/2-z
1/2-x,1/2+y,1/2+z
x,1/2-y,z
loop_
_atom_site_type_symbol
_atom_site_label
_atom_site_fract_x
_atom_site_fract_y
_atom_site_fract_z
Si Si1 0.099537 0.551208 0.481545
Si Si2 0.210729 0.030038 0.982877
Si Si3 0.922149 0.965869 0.905920
Si Si4 0.204310 0.032056 0.211971
Si Si5 0.386068 0.545785 0.360995
Si Si6 0.899848 0.047033 0.284377
Si Si7 0.908769 0.532400 0.666553
O O1 0.106739 0.750000 0.506995
O O2 0.191873 0.463382 0.504169
O O3 0.105757 0.540650 0.404410
O O4 0.000000 0.500000 0.500000
O O5 0.210864 0.250000 0.981511
O O6 0.186286 0.971434 0.910656
O O7 0.133735 0.977054 0.032078
O O8 0.929089 0.750000 0.906575
O O9 0.865141 0.017551 0.843165
O O10 0.020696 0.040434 0.899149
O O11 0.208144 0.250000 0.212882
O O12 0.304099 0.966293 0.198138
O O13 0.164828 0.977604 0.281018
O O14 0.363775 0.750000 0.345431
O O15 0.399700 0.450385 0.293294
O O16 0.898882 0.250000 0.308927
O O17 0.993268 0.971662 0.309015
O O18 0.908095 0.750000 0.663869
#
# Coordination Sequence:
#
# PCOD9463642 Si02
#       7
#     8   8   8   8   8   8   8
#     4  11  24  42  62  86 116 155 197 239 289 343
#     4   9  21  38  60  84 114 155 195 235 289 350
#     4  10  19  37  61  84 111 152 198 240 286 344
#     4   9  18  33  58  87 110 144 197 244 281 333
#     4  11  21  36  56  88 123 152 186 236 297 350
#     4  10  20  35  59  85 111 151 197 236 280 341
#     4  10  20  37  59  86 115 146 191 239 284 338
#
# _framework density 23.957592000000002
#
# number of rings (size 3 to 8) (size 9 to 14) (size 15 to 20)
#    0.000    2.000    1.429    2.143    2.000    0.571 
#    0.000    5.000    0.000    0.000    0.000    0.000 
#    0.000    0.000    0.000    0.000    0.000    0.000 
#
# Total GULP energy -313040.046807 kJ/mol
# GULP energy per Si atom -5590.000836 kJ/mol
# Density = 2.390306 g / cm^3
# Si number density = 23.957592 Si / 1000 Ang^3
#
#
#
# Elastic Constant Matrix: (Units=GPa)
#
#
# Indices 1 2 3 4 5 6 
#
# 1 125.6812 -4.3861 -10.7111 0.0000 0.0000 0.0000
# 2 -4.3861 66.1592 -14.3854 0.0000 0.0000 0.0000
# 3 -10.7111 -14.3854 46.6592 0.0000 0.0000 0.0000
# 4 0.0000 0.0000 0.0000 6.6124 0.0000 0.0000
# 5 0.0000 0.0000 0.0000 0.0000 35.8000 0.0000
# 6 0.0000 0.0000 0.0000 0.0000 0.0000 6.8365
#
#
#
# Elastic Compliance Matrix: (Units=1/GPa)
#
#
# Indices 1 2 3 4 5 6 
#
# 1 0.008179 0.001019 0.002192 0.000000 0.000000 0.000000
# 2 0.001019 0.016328 0.005268 0.000000 0.000000 0.000000
# 3 0.002192 0.005268 0.023559 0.000000 0.000000 0.000000
# 4 0.000000 0.000000 0.000000 0.151232 0.000000 0.000000
# 5 0.000000 0.000000 0.000000 0.000000 0.027933 0.000000
# 6 0.000000 0.000000 0.000000 0.000000 0.000000 0.146275
#
#
# Mechanical properties :
#
#
# Convention : Reuss Voigt Hill
#
# Bulk Modulus (GPa) = 15.37917 19.94827 17.66372
# Shear Modulus (GPa) = 13.21969 27.71524 20.46747
#
# Velocity S-wave (km/s) = 2.35158 3.40493 2.92605
# Velocity P-wave (km/s) = 3.71571 4.87880 4.33643
#
# Compressibility (1/GPa) = 0.06502301
#
# Stress axis : x y z
#
# Youngs Moduli (GPa) = 122.26470 61.24441 42.44614
#
# Poissons Ratio (x) = -0.06239 -0.09303
# Poissons Ratio (y) = -0.12456 -0.22360
# Poissons Ratio (z) = -0.26796 -0.32263
#
# Static dielectric constant tensor:
#      x y z
#    x 1.925670 0.000000 0.000000 
#    y 0.000000 1.950440 0.000000 
#    z 0.000000 0.000000 1.861540 
# 
# From -- ./inp_files/27090.got.cif
#   From: 2010.05.17/outbox.cif.g08.bks.cpg/sg62_14_cif.got.tgz:27090.got - 2010.06.03 15:25:27.
