data_PCOD9463313
_publ_section_title
;
Structure prediction by ZEFSAII (Michael W. Deem and Ramdas Pophale) SiO2 
 PCOD9463313
Probable space group: P N M A
;
_chemical_formula_sum "Si O2"
_cell_formula_units_Z 48
_cell_length_a 25.066942
_cell_length_b 7.486930
_cell_length_c 9.900239
_cell_angle_alpha 90.000000
_cell_angle_beta 90.000000
_cell_angle_gamma 90.000000
_cell_volume 1858.021811
_symmetry_space_group_name_H-M "P N M A"
_symmetry_group_IT_number 62
_symmetry_cell_setting 'orthorhombic'
loop_
_space_group_symop_operation_xyz
x,y,z
1/2-x,-y,1/2+z
1/2+x,1/2-y,1/2-z
-x,1/2+y,-z
-x,-y,-z
1/2+x,y,1/2-z
1/2-x,1/2+y,1/2+z
x,1/2-y,z
loop_
_atom_site_type_symbol
_atom_site_label
_atom_site_fract_x
_atom_site_fract_y
_atom_site_fract_z
Si Si1 0.028975 0.033192 0.789433
Si Si2 0.411916 0.956787 0.719887
Si Si3 0.740016 0.034499 0.706212
Si Si4 0.865879 0.531581 0.047340
Si Si5 0.311119 0.457968 0.026347
Si Si6 0.074596 0.453232 0.516139
O O1 0.027724 0.250000 0.789543
O O2 0.080550 0.976911 0.873765
O O3 0.038237 0.969916 0.634370
O O4 0.972036 0.965292 0.839142
O O5 0.397081 0.750000 0.739989
O O6 0.372405 0.032063 0.607177
O O7 0.417969 0.039528 0.868907
O O8 0.740865 0.250000 0.704113
O O9 0.686725 0.974191 0.626574
O O10 0.789716 0.972268 0.616615
O O11 0.734150 0.976125 0.859963
O O12 0.865289 0.750000 0.044601
O O13 0.323566 0.250000 0.013926
O O14 0.365021 0.551002 0.073504
O O15 0.056583 0.250000 0.496566
#
# Coordination Sequence:
#
# PCOD9463313 Si02
#       6
#     8   8   8   8   8   8
#     4  10  19  35  57  79 111 156 194 233 289 340
#     4  10  21  34  56  86 112 150 196 236 283 341
#     4  10  22  42  63  85 119 155 189 236 292 352
#     4   9  18  36  58  80 111 151 190 226 282 351
#     4  11  24  39  63  93 116 149 195 244 290 339
#     4  10  21  38  59  81 116 160 191 230 292 351
#
# _framework density 25.833926999999999
#
# number of rings (size 3 to 8) (size 9 to 14) (size 15 to 20)
#    0.000    2.000    1.667    1.500    2.333    2.667 
#    0.000    0.833    0.000    0.000    0.000    0.000 
#    0.000    0.000    0.000    0.000    0.000    0.000 
#
# Total GULP energy -268634.332155 kJ/mol
# GULP energy per Si atom -5596.548587 kJ/mol
# Density = 2.577513 g / cm^3
# Si number density = 25.833927 Si / 1000 Ang^3
#
#
#
# Elastic Constant Matrix: (Units=GPa)
#
#
# Indices 1 2 3 4 5 6 
#
# 1 67.9208 9.2024 -4.5737 0.0000 0.0000 0.0000
# 2 9.2024 90.5719 8.2408 0.0000 0.0000 0.0000
# 3 -4.5737 8.2408 105.5732 0.0000 0.0000 0.0000
# 4 0.0000 0.0000 0.0000 5.1794 0.0000 0.0000
# 5 0.0000 0.0000 0.0000 0.0000 51.1036 0.0000
# 6 0.0000 0.0000 0.0000 0.0000 0.0000 14.4714
#
#
#
# Elastic Compliance Matrix: (Units=1/GPa)
#
#
# Indices 1 2 3 4 5 6 
#
# 1 0.014991 -0.001594 0.000774 0.000000 0.000000 0.000000
# 2 -0.001594 0.011289 -0.000950 0.000000 0.000000 0.000000
# 3 0.000774 -0.000950 0.009580 0.000000 0.000000 0.000000
# 4 0.000000 0.000000 0.000000 0.193073 0.000000 0.000000
# 5 0.000000 0.000000 0.000000 0.000000 0.019568 0.000000
# 6 0.000000 0.000000 0.000000 0.000000 0.000000 0.069102
#
#
# Mechanical properties :
#
#
# Convention : Reuss Voigt Hill
#
# Bulk Modulus (GPa) = 30.94037 32.20055 31.57046
# Shear Modulus (GPa) = 15.06403 30.89731 22.98067
#
# Velocity S-wave (km/s) = 2.41739 3.46207 2.98577
# Velocity P-wave (km/s) = 4.44908 5.33599 4.91259
#
# Compressibility (1/GPa) = 0.03232024
#
# Stress axis : x y z
#
# Youngs Moduli (GPa) = 66.70645 88.57924 104.38635
#
# Poissons Ratio (x) = 0.14116 -0.08078
# Poissons Ratio (y) = 0.10630 0.09919
# Poissons Ratio (z) = -0.05162 0.08417
#
# Static dielectric constant tensor:
#      x y z
#    x 2.025740 0.000000 0.000000 
#    y 0.000000 1.941540 0.000000 
#    z 0.000000 0.000000 2.069750 
# 
# From -- ./inp_files/10146.got.cif
#   From: 2010.05.17/outbox.cif.g08.bks.cpg/sg62_6_cif.got.tgz:10146.got - 2010.06.03 15:25:27.
