data_PCOD9463338
_publ_section_title
;
Structure prediction by ZEFSAII (Michael W. Deem and Ramdas Pophale) SiO2 
 PCOD9463338
Probable space group: P N M A
;
_chemical_formula_sum "Si O2"
_cell_formula_units_Z 40
_cell_length_a 13.346246
_cell_length_b 13.985646
_cell_length_c 11.130455
_cell_angle_alpha 90.000000
_cell_angle_beta 90.000000
_cell_angle_gamma 90.000000
_cell_volume 2077.564784
_symmetry_space_group_name_H-M "P N M A"
_symmetry_group_IT_number 62
_symmetry_cell_setting 'orthorhombic'
loop_
_space_group_symop_operation_xyz
x,y,z
1/2-x,-y,1/2+z
1/2+x,1/2-y,1/2-z
-x,1/2+y,-z
-x,-y,-z
1/2+x,y,1/2-z
1/2-x,1/2+y,1/2+z
x,1/2-y,z
loop_
_atom_site_type_symbol
_atom_site_label
_atom_site_fract_x
_atom_site_fract_y
_atom_site_fract_z
Si Si1 0.914164 0.750000 0.536890
Si Si2 0.626804 0.750000 0.332937
Si Si3 0.293552 0.612921 0.114681
Si Si4 0.625914 0.250000 0.410750
Si Si5 0.874666 0.250000 0.559184
Si Si6 0.559526 0.750000 0.734427
Si Si7 0.795228 0.112510 0.360440
Si Si8 0.610942 0.250000 0.690904
O O1 0.848764 0.842977 0.502807
O O2 0.005590 0.750000 0.442896
O O3 0.972108 0.750000 0.662715
O O4 0.682041 0.842296 0.387970
O O5 0.660162 0.750000 0.193734
O O6 0.508419 0.750000 0.328955
O O7 0.294797 0.500265 0.129753
O O8 0.350709 0.660496 0.229155
O O9 0.507831 0.250000 0.383871
O O10 0.684670 0.159154 0.354112
O O11 0.647816 0.250000 0.553109
O O12 0.840771 0.158507 0.482302
O O13 0.632305 0.840628 0.759035
#
# Coordination Sequence:
#
# PCOD9463338 Si02
#       8
#     4   4   8   4   4   4   8   4
#     4   8  17  35  53  79 108 137 181 240 282 315
#     4  10  19  37  56  85 115 154 177 231 292 334
#     4  10  19  35  57  90 110 135 198 239 274 333
#     4  10  21  44  53  79 119 162 178 226 290 345
#     4   9  16  36  58  73 113 153 178 225 287 332
#     4   9  20  38  57  75 113 152 188 227 287 333
#     4   9  20  36  58  85 106 151 195 231 279 327
#     4  10  21  40  61  77 120 154 180 225 294 343
#
# _framework density 19.253312000000001
#
# number of rings (size 3 to 8) (size 9 to 14) (size 15 to 20)
#    0.000    3.200    2.000    2.400    0.000    4.800 
#   14.400    2.000    0.000    0.000    0.000    0.000 
#    0.000    0.000    0.000    0.000    0.000    0.000 
#
# Total GULP energy -222730.146520 kJ/mol
# GULP energy per Si atom -5568.253663 kJ/mol
# Density = 1.920949 g / cm^3
# Si number density = 19.253312 Si / 1000 Ang^3
#
#
#
# Elastic Constant Matrix: (Units=GPa)
#
#
# Indices 1 2 3 4 5 6 
#
# 1 100.8080 39.3154 -4.5305 0.0000 0.0000 0.0000
# 2 39.3154 196.8464 2.9821 0.0000 0.0000 0.0000
# 3 -4.5305 2.9821 42.1948 0.0000 0.0000 0.0000
# 4 0.0000 0.0000 0.0000 8.0343 0.0000 0.0000
# 5 0.0000 0.0000 0.0000 0.0000 36.6897 0.0000
# 6 0.0000 0.0000 0.0000 0.0000 0.0000 6.4037
#
#
#
# Elastic Compliance Matrix: (Units=1/GPa)
#
#
# Indices 1 2 3 4 5 6 
#
# 1 0.010830 -0.002183 0.001317 0.000000 0.000000 0.000000
# 2 -0.002183 0.005526 -0.000625 0.000000 0.000000 0.000000
# 3 0.001317 -0.000625 0.023885 0.000000 0.000000 0.000000
# 4 0.000000 0.000000 0.000000 0.124467 0.000000 0.000000
# 5 0.000000 0.000000 0.000000 0.000000 0.027256 0.000000
# 6 0.000000 0.000000 0.000000 0.000000 0.000000 0.156159
#
#
# Mechanical properties :
#
#
# Convention : Reuss Voigt Hill
#
# Bulk Modulus (GPa) = 26.83873 46.15368 36.49621
# Shear Modulus (GPa) = 13.75424 30.36435 22.05929
#
# Velocity S-wave (km/s) = 2.67569 3.97558 3.38855
# Velocity P-wave (km/s) = 4.84931 6.71546 5.85719
#
# Compressibility (1/GPa) = 0.03725958
#
# Stress axis : x y z
#
# Youngs Moduli (GPa) = 92.33230 180.97616 41.86691
#
# Poissons Ratio (x) = 0.39509 -0.05515
# Poissons Ratio (y) = 0.20157 0.02616
# Poissons Ratio (z) = -0.12162 0.11309
#
# Static dielectric constant tensor:
#      x y z
#    x 1.731310 0.000000 0.000000 
#    y 0.000000 1.630670 0.000000 
#    z 0.000000 0.000000 1.737500 
# 
# From -- ./inp_files/13145.got.cif
#   From: 2010.05.17/outbox.cif.g08.bks.cpg/sg62_7_cif.got.tgz:13145.got - 2010.06.03 15:25:27.
