data_PCOD9463393
_publ_section_title
;
Structure prediction by ZEFSAII (Michael W. Deem and Ramdas Pophale) SiO2 
 PCOD9463393
Probable space group: P N M A
;
_chemical_formula_sum "Si O2"
_cell_formula_units_Z 64
_cell_length_a 14.359247
_cell_length_b 7.911287
_cell_length_c 25.782237
_cell_angle_alpha 90.000000
_cell_angle_beta 90.000000
_cell_angle_gamma 90.000000
_cell_volume 2928.865323
_symmetry_space_group_name_H-M "P N M A"
_symmetry_group_IT_number 62
_symmetry_cell_setting 'orthorhombic'
loop_
_space_group_symop_operation_xyz
x,y,z
1/2-x,-y,1/2+z
1/2+x,1/2-y,1/2-z
-x,1/2+y,-z
-x,-y,-z
1/2+x,y,1/2-z
1/2-x,1/2+y,1/2+z
x,1/2-y,z
loop_
_atom_site_type_symbol
_atom_site_label
_atom_site_fract_x
_atom_site_fract_y
_atom_site_fract_z
Si Si1 0.770882 0.444320 0.164653
Si Si2 0.354450 0.042787 0.442528
Si Si3 0.612386 0.551385 0.875930
Si Si4 0.458025 0.954516 0.604425
Si Si5 0.271344 0.455760 0.222491
Si Si6 0.769930 0.050576 0.949984
Si Si7 0.066871 0.559782 0.330034
Si Si8 0.551436 0.047746 0.281328
O O1 0.804404 0.250000 0.165051
O O2 0.805584 0.516757 0.110463
O O3 0.800424 0.518511 0.220386
O O4 0.658330 0.445839 0.164996
O O5 0.351808 0.250000 0.444118
O O6 0.462422 0.993629 0.436072
O O7 0.303473 0.982645 0.494243
O O8 0.597228 0.750000 0.867839
O O9 0.671735 0.483039 0.826877
O O10 0.676917 0.526651 0.925784
O O11 0.511245 0.468824 0.873170
O O12 0.452246 0.750000 0.605247
O O13 0.486804 0.007427 0.662826
O O14 0.357326 0.019816 0.588127
O O15 0.278354 0.250000 0.223255
O O16 0.161961 0.491741 0.215820
O O17 0.754072 0.250000 0.954401
O O18 0.101919 0.750000 0.331313
O O19 0.020619 0.526238 0.273619
O O20 0.538948 0.250000 0.277454
#
# Coordination Sequence:
#
# PCOD9463393 Si02
#       8
#     8   8   8   8   8   8   8   8
#     4   9  18  38  61  82 108 147 195 242 281 332
#     4   9  20  36  60  86 111 148 196 242 285 332
#     4  11  21  37  60  85 109 151 202 237 274 337
#     4  10  19  35  59  85 113 155 200 234 269 332
#     4   8  15  29  54  82 104 134 185 236 270 311
#     4  11  22  37  55  85 123 152 183 237 296 341
#     4  11  23  37  54  84 121 151 180 234 303 352
#     4   9  17  33  56  82 111 148 192 229 264 327
#
# _framework density 21.851467
#
# number of rings (size 3 to 8) (size 9 to 14) (size 15 to 20)
#    0.000    2.250    1.250    3.000    1.750    0.500 
#    0.000    3.750    0.000    0.000    0.000    0.000 
#    0.000    0.000    0.000    0.000    0.000    0.000 
#
# Total GULP energy -357366.852260 kJ/mol
# GULP energy per Si atom -5583.857067 kJ/mol
# Density = 2.180173 g / cm^3
# Si number density = 21.851467 Si / 1000 Ang^3
#
#
#
# Elastic Constant Matrix: (Units=GPa)
#
#
# Indices 1 2 3 4 5 6 
#
# 1 32.4048 -6.8818 0.9690 0.0000 0.0000 0.0000
# 2 -6.8818 27.9059 -1.7864 0.0000 0.0000 0.0000
# 3 0.9690 -1.7864 73.2744 0.0000 0.0000 0.0000
# 4 0.0000 0.0000 0.0000 15.6039 0.0000 0.0000
# 5 0.0000 0.0000 0.0000 0.0000 34.0536 0.0000
# 6 0.0000 0.0000 0.0000 0.0000 0.0000 9.2500
#
#
#
# Elastic Compliance Matrix: (Units=1/GPa)
#
#
# Indices 1 2 3 4 5 6 
#
# 1 0.032569 0.008017 -0.000235 0.000000 0.000000 0.000000
# 2 0.008017 0.037864 0.000817 0.000000 0.000000 0.000000
# 3 -0.000235 0.000817 0.013670 0.000000 0.000000 0.000000
# 4 0.000000 0.000000 0.000000 0.064087 0.000000 0.000000
# 5 0.000000 0.000000 0.000000 0.000000 0.029365 0.000000
# 6 0.000000 0.000000 0.000000 0.000000 0.000000 0.108109
#
#
# Mechanical properties :
#
#
# Convention : Reuss Voigt Hill
#
# Bulk Modulus (GPa) = 9.87159 13.13184 11.50172
# Shear Modulus (GPa) = 16.54348 21.20045 18.87196
#
# Velocity S-wave (km/s) = 2.75451 3.11819 2.94198
# Velocity P-wave (km/s) = 3.82672 4.35739 4.10065
#
# Compressibility (1/GPa) = 0.10130077
#
# Stress axis : x y z
#
# Youngs Moduli (GPa) = 30.70385 26.41033 73.15094
#
# Poissons Ratio (x) = -0.21173 0.01721
# Poissons Ratio (y) = -0.24615 -0.05977
# Poissons Ratio (z) = 0.00722 -0.02158
#
# Static dielectric constant tensor:
#      x y z
#    x 1.794420 0.000000 0.000000 
#    y 0.000000 1.814800 0.000000 
#    z 0.000000 0.000000 1.829430 
# 
# From -- ./inp_files/29750.got.cif
#   From: 2010.05.17/outbox.cif.g08.bks.cpg/sg62_15_cif.got.tgz:29750.got - 2010.06.03 15:25:27.
