data_PCOD9463028
_publ_section_title
;
Structure prediction by ZEFSAII (Michael W. Deem and Ramdas Pophale) SiO2 
 PCOD9463028
Probable space group: P N M A
;
_chemical_formula_sum "Si O2"
_cell_formula_units_Z 52
_cell_length_a 8.911283
_cell_length_b 16.229096
_cell_length_c 17.419845
_cell_angle_alpha 90.000000
_cell_angle_beta 90.000000
_cell_angle_gamma 90.000000
_cell_volume 2519.293996
_symmetry_space_group_name_H-M "P N M A"
_symmetry_group_IT_number 62
_symmetry_cell_setting 'orthorhombic'
loop_
_space_group_symop_operation_xyz
x,y,z
1/2-x,-y,1/2+z
1/2+x,1/2-y,1/2-z
-x,1/2+y,-z
-x,-y,-z
1/2+x,y,1/2-z
1/2-x,1/2+y,1/2+z
x,1/2-y,z
loop_
_atom_site_type_symbol
_atom_site_label
_atom_site_fract_x
_atom_site_fract_y
_atom_site_fract_z
Si Si1 0.309842 0.578288 0.860532
Si Si2 0.318233 0.041172 0.681546
Si Si3 0.887362 0.750000 0.188458
Si Si4 0.438139 0.068064 0.244392
Si Si5 0.581573 0.250000 0.871666
Si Si6 0.400332 0.250000 0.556784
Si Si7 0.148721 0.616645 0.333890
Si Si8 0.114121 0.922482 0.009731
O O1 0.468776 0.609291 0.825388
O O2 0.184698 0.609755 0.799269
O O3 0.327611 0.478316 0.855289
O O4 0.241087 0.587561 0.944530
O O5 0.372747 0.110302 0.741503
O O6 0.317038 0.065924 0.594231
O O7 0.156660 0.007229 0.707289
O O8 0.437160 0.968109 0.697585
O O9 0.881421 0.750000 0.280368
O O10 0.797924 0.829955 0.158362
O O11 0.040616 0.750000 0.143251
O O12 0.719755 0.250000 0.930213
O O13 0.479413 0.332379 0.877180
O O14 0.458048 0.168161 0.514529
O O15 0.000000 0.000000 0.000000
#
# Coordination Sequence:
#
# PCOD9463028 Si02
#       8
#     8   8   4   8   4   4   8   8
#     4  10  20  36  59  82 116 151 206 249 300 354
#     4  10  19  33  56  90 122 154 203 235 294 370
#     4  11  19  33  51  81 119 167 182 225 294 373
#     4   8  18  33  56  88 113 149 204 252 278 371
#     4  11  21  35  51  87 127 159 192 241 290 367
#     4  12  28  36  60  88 126 158 212 252 296 380
#     4   9  21  34  55  81 121 160 195 235 293 375
#     4  12  24  40  59  91 124 166 199 260 323 361
#
# _framework density 20.640703999999999
#
# number of rings (size 3 to 8) (size 9 to 14) (size 15 to 20)
#    0.000    2.154    1.538    3.692   15.077    0.615 
#    0.000    0.000    0.000    0.923    0.000    0.000 
#    0.000    0.000    0.000    0.000    0.000    0.000 
#
# Total GULP energy -289602.440102 kJ/mol
# GULP energy per Si atom -5569.277694 kJ/mol
# Density = 2.059373 g / cm^3
# Si number density = 20.640704 Si / 1000 Ang^3
#
#
#
# Elastic Constant Matrix: (Units=GPa)
#
#
# Indices 1 2 3 4 5 6 
#
# 1 82.6167 6.7964 10.4424 0.0000 0.0000 0.0000
# 2 6.7964 50.5058 13.9435 0.0000 0.0000 0.0000
# 3 10.4424 13.9435 79.9089 0.0000 0.0000 0.0000
# 4 0.0000 0.0000 0.0000 23.1768 0.0000 0.0000
# 5 0.0000 0.0000 0.0000 0.0000 20.9770 0.0000
# 6 0.0000 0.0000 0.0000 0.0000 0.0000 14.1014
#
#
#
# Elastic Compliance Matrix: (Units=1/GPa)
#
#
# Indices 1 2 3 4 5 6 
#
# 1 0.012386 -0.001282 -0.001395 0.000000 0.000000 0.000000
# 2 -0.001282 0.020934 -0.003485 0.000000 0.000000 0.000000
# 3 -0.001395 -0.003485 0.013305 0.000000 0.000000 0.000000
# 4 0.000000 0.000000 0.000000 0.043147 0.000000 0.000000
# 5 0.000000 0.000000 0.000000 0.000000 0.047671 0.000000
# 6 0.000000 0.000000 0.000000 0.000000 0.000000 0.070915
#
#
# Mechanical properties :
#
#
# Convention : Reuss Voigt Hill
#
# Bulk Modulus (GPa) = 29.15364 30.59956 29.87660
# Shear Modulus (GPa) = 21.54101 23.77431 22.65766
#
# Velocity S-wave (km/s) = 3.23401 3.39752 3.31678
# Velocity P-wave (km/s) = 5.30095 5.49981 5.40130
#
# Compressibility (1/GPa) = 0.03430103
#
# Stress axis : x y z
#
# Youngs Moduli (GPa) = 80.73743 47.76823 75.16124
#
# Poissons Ratio (x) = 0.06122 0.10485
# Poissons Ratio (y) = 0.10347 0.26197
# Poissons Ratio (z) = 0.11262 0.16649
#
# Static dielectric constant tensor:
#      x y z
#    x 1.812750 0.000000 0.000000 
#    y 0.000000 1.779220 0.000000 
#    z 0.000000 0.000000 1.759120 
# 
# From -- ./inp_files/22424.got.cif
#   From: 2010.05.17/outbox.cif.g08.bks.cpg/sg62_12_cif.got.tgz:22424.got - 2010.06.03 15:25:27.
