data_PCOD9463371
_publ_section_title
;
Structure prediction by ZEFSAII (Michael W. Deem and Ramdas Pophale) SiO2 
 PCOD9463371
Probable space group: P N M A
;
_chemical_formula_sum "Si O2"
_cell_formula_units_Z 56
_cell_length_a 7.531986
_cell_length_b 21.930663
_cell_length_c 14.405655
_cell_angle_alpha 90.000000
_cell_angle_beta 90.000000
_cell_angle_gamma 90.000000
_cell_volume 2379.546933
_symmetry_space_group_name_H-M "P N M A"
_symmetry_group_IT_number 62
_symmetry_cell_setting 'orthorhombic'
loop_
_space_group_symop_operation_xyz
x,y,z
1/2-x,-y,1/2+z
1/2+x,1/2-y,1/2-z
-x,1/2+y,-z
-x,-y,-z
1/2+x,y,1/2-z
1/2-x,1/2+y,1/2+z
x,1/2-y,z
loop_
_atom_site_type_symbol
_atom_site_label
_atom_site_fract_x
_atom_site_fract_y
_atom_site_fract_z
Si Si1 0.203049 0.927111 0.177976
Si Si2 0.657922 0.180955 0.931065
Si Si3 0.892388 0.558624 0.037095
Si Si4 0.479542 0.817134 0.552578
Si Si5 0.505558 0.127752 0.111733
Si Si6 0.193572 0.818334 0.763181
Si Si7 0.437114 0.486904 0.867830
O O1 0.296450 0.861248 0.158231
O O2 0.355807 0.969714 0.133194
O O3 0.152238 0.956132 0.276640
O O4 0.013675 0.925527 0.126419
O O5 0.604791 0.250000 0.907370
O O6 0.840509 0.183464 0.990177
O O7 0.521844 0.150644 0.005537
O O8 0.690614 0.539391 0.053479
O O9 0.000000 0.500000 0.000000
O O10 0.891349 0.620042 0.977974
O O11 0.394021 0.750000 0.537282
O O12 0.538563 0.822202 0.659228
O O13 0.334337 0.136353 0.177455
O O14 0.639440 0.170001 0.170891
O O15 0.576291 0.059429 0.124451
O O16 0.196230 0.750000 0.726091
#
# Coordination Sequence:
#
# PCOD9463371 Si02
#       7
#     8   8   8   8   8   8   8
#     4  11  24  43  66  94 130 170 218 268 326 388
#     4   9  19  40  64  87 122 167 214 265 324 386
#     4  11  23  40  68  93 127 173 213 265 328 390
#     4   8  17  35  59  86 119 159 206 258 319 385
#     4  11  22  37  59  91 125 167 207 261 325 384
#     4  10  19  35  58  86 122 163 206 254 316 390
#     4  12  24  42  65  96 133 169 215 271 324 390
#
# _framework density 23.533892999999999
#
# number of rings (size 3 to 8) (size 9 to 14) (size 15 to 20)
#    0.000    1.714    1.429    5.571    2.000    2.286 
#    2.571    2.143    0.000    0.000    0.000    0.000 
#    0.000    0.000    0.000    0.000    0.000    0.000 
#
# Total GULP energy -312683.387449 kJ/mol
# GULP energy per Si atom -5583.631919 kJ/mol
# Density = 2.348033 g / cm^3
# Si number density = 23.533893 Si / 1000 Ang^3
#
#
#
# Elastic Constant Matrix: (Units=GPa)
#
#
# Indices 1 2 3 4 5 6 
#
# 1 83.3624 6.2967 10.7611 0.0000 0.0000 0.0000
# 2 6.2967 162.2571 47.9946 0.0000 0.0000 0.0000
# 3 10.7611 47.9946 67.5429 0.0000 0.0000 0.0000
# 4 0.0000 0.0000 0.0000 30.9880 0.0000 0.0000
# 5 0.0000 0.0000 0.0000 0.0000 42.9520 0.0000
# 6 0.0000 0.0000 0.0000 0.0000 0.0000 31.7626
#
#
#
# Elastic Compliance Matrix: (Units=1/GPa)
#
#
# Indices 1 2 3 4 5 6 
#
# 1 0.012250 0.000129 -0.002043 0.000000 0.000000 0.000000
# 2 0.000129 0.007805 -0.005566 0.000000 0.000000 0.000000
# 3 -0.002043 -0.005566 0.019086 0.000000 0.000000 0.000000
# 4 0.000000 0.000000 0.000000 0.032271 0.000000 0.000000
# 5 0.000000 0.000000 0.000000 0.000000 0.023282 0.000000
# 6 0.000000 0.000000 0.000000 0.000000 0.000000 0.031484
#
#
# Mechanical properties :
#
#
# Convention : Reuss Voigt Hill
#
# Bulk Modulus (GPa) = 41.35756 49.25191 45.30473
# Shear Modulus (GPa) = 33.51259 37.68116 35.59688
#
# Velocity S-wave (km/s) = 3.77770 4.00577 3.89341
# Velocity P-wave (km/s) = 6.05308 6.50910 6.28523
#
# Compressibility (1/GPa) = 0.02417938
#
# Stress axis : x y z
#
# Youngs Moduli (GPa) = 81.63371 128.13082 52.39373
#
# Poissons Ratio (x) = -0.01653 0.10706
# Poissons Ratio (y) = -0.01053 0.29164
# Poissons Ratio (z) = 0.16681 0.71321
#
# Static dielectric constant tensor:
#      x y z
#    x 2.025120 0.000000 0.000000 
#    y 0.000000 2.941280 0.000000 
#    z 0.000000 0.000000 1.910290 
# 
# From -- ./inp_files/17187.got.cif
#   From: 2010.05.17/outbox.cif.g08.bks.cpg/sg62_9_cif.got.tgz:17187.got - 2010.06.03 15:25:27.
