data_PCOD9463774
_publ_section_title
;
Structure prediction by ZEFSAII (Michael W. Deem and Ramdas Pophale) SiO2 
 PCOD9463774
Probable space group: P N M A
;
_chemical_formula_sum "Si O2"
_cell_formula_units_Z 40
_cell_length_a 13.105558
_cell_length_b 14.402462
_cell_length_c 10.029251
_cell_angle_alpha 90.000000
_cell_angle_beta 90.000000
_cell_angle_gamma 90.000000
_cell_volume 1893.044204
_symmetry_space_group_name_H-M "P N M A"
_symmetry_group_IT_number 62
_symmetry_cell_setting 'orthorhombic'
loop_
_space_group_symop_operation_xyz
x,y,z
1/2-x,-y,1/2+z
1/2+x,1/2-y,1/2-z
-x,1/2+y,-z
-x,-y,-z
1/2+x,y,1/2-z
1/2-x,1/2+y,1/2+z
x,1/2-y,z
loop_
_atom_site_type_symbol
_atom_site_label
_atom_site_fract_x
_atom_site_fract_y
_atom_site_fract_z
Si Si1 0.212546 0.942467 0.970093
Si Si2 0.463889 0.250000 0.144396
Si Si3 0.837320 0.250000 0.625513
Si Si4 0.146594 0.250000 0.058507
Si Si5 0.159328 0.551911 0.260655
Si Si6 0.205960 0.250000 0.358176
Si Si7 0.002595 0.590848 0.845367
O O1 0.246550 0.840798 0.922928
O O2 0.092860 0.949697 0.934761
O O3 0.278726 0.013755 0.885943
O O4 0.225930 0.956022 0.126696
O O5 0.584999 0.250000 0.116060
O O6 0.446733 0.340651 0.235520
O O7 0.404060 0.250000 0.008085
O O8 0.720563 0.250000 0.568655
O O9 0.862013 0.158981 0.710799
O O10 0.212559 0.250000 0.196581
O O11 0.074351 0.159062 0.072966
O O12 0.061980 0.487104 0.231529
#
# Coordination Sequence:
#
# PCOD9463774 Si02
#       7
#     8   4   4   4   8   4   8
#     4  12  24  45  70  98 137 180 218 292 330 402
#     4  10  22  40  71 103 127 176 217 286 327 411
#     4  12  27  41  65 100 146 173 221 290 334 386
#     4  10  19  44  69 103 130 177 225 269 339 420
#     4  12  27  43  66 101 139 176 234 268 345 400
#     4  10  20  43  69 100 135 166 233 261 350 391
#     4  10  22  43  72  98 131 180 227 273 339 410
#
# _framework density 21.129987
#
# number of rings (size 3 to 8) (size 9 to 14) (size 15 to 20)
#    0.000    1.200    4.000    4.800    2.800    2.400 
#    0.000    3.000    0.000    0.000    0.000    0.000 
#    0.000    0.000    0.000    0.000    0.000    0.000 
#
# Total GULP energy -223831.156801 kJ/mol
# GULP energy per Si atom -5595.778920 kJ/mol
# Density = 2.108189 g / cm^3
# Si number density = 21.129987 Si / 1000 Ang^3
#
#
#
# Elastic Constant Matrix: (Units=GPa)
#
#
# Indices 1 2 3 4 5 6 
#
# 1 49.2654 6.0303 0.4422 0.0000 0.0000 0.0000
# 2 6.0303 138.5869 19.8313 0.0000 0.0000 0.0000
# 3 0.4422 19.8313 90.2565 0.0000 0.0000 0.0000
# 4 0.0000 0.0000 0.0000 24.9035 0.0000 0.0000
# 5 0.0000 0.0000 0.0000 0.0000 28.8617 0.0000
# 6 0.0000 0.0000 0.0000 0.0000 0.0000 -11.1499
#
#
#
# Elastic Compliance Matrix: (Units=1/GPa)
#
#
# Indices 1 2 3 4 5 6 
#
# 1 0.020408 -0.000902 0.000098 0.000000 0.000000 0.000000
# 2 -0.000902 0.007490 -0.001641 0.000000 0.000000 0.000000
# 3 0.000098 -0.001641 0.011440 0.000000 0.000000 0.000000
# 4 0.000000 0.000000 0.000000 0.040155 0.000000 0.000000
# 5 0.000000 0.000000 0.000000 0.000000 0.034648 0.000000
# 6 0.000000 0.000000 0.000000 0.000000 0.000000 -0.089687
#
#
# Mechanical properties :
#
#
# Convention : Reuss Voigt Hill
#
# Bulk Modulus (GPa) = 29.03005 36.74624 32.88815
# Shear Modulus (GPa) = 122.47259 25.31008 73.89133
#
# Velocity S-wave (km/s) = 7.62150 3.46472 5.91995
# Velocity P-wave (km/s) = 9.55083 5.78222 7.89470
#
# Compressibility (1/GPa) = 0.03444706
#
# Stress axis : x y z
#
# Youngs Moduli (GPa) = 49.00101 133.51497 87.41507
#
# Poissons Ratio (x) = 0.12044 -0.00859
# Poissons Ratio (y) = 0.04420 0.14347
# Poissons Ratio (z) = -0.00481 0.21913
#
# Static dielectric constant tensor:
#      x y z
#    x 1.764180 0.000000 0.000000 
#    y 0.000000 1.763760 0.000000 
#    z 0.000000 0.000000 1.738760 
# 
# From -- ./inp_files/6165.got.cif
#   From: 2010.05.17/outbox.cif.g08.bks.cpg/sg62_4_cif.got.tgz:6165.got - 2010.06.03 15:25:27.
