data_PCOD9464364
_publ_section_title
;
Structure prediction by ZEFSAII (Michael W. Deem and Ramdas Pophale) SiO2 
 PCOD9464364
Probable space group: P N M A
;
_chemical_formula_sum "Si O2"
_cell_formula_units_Z 40
_cell_length_a 9.239188
_cell_length_b 21.784631
_cell_length_c 7.652133
_cell_angle_alpha 90.000000
_cell_angle_beta 90.000000
_cell_angle_gamma 90.000000
_cell_volume 1540.162419
_symmetry_space_group_name_H-M "P N M A"
_symmetry_group_IT_number 62
_symmetry_cell_setting 'orthorhombic'
loop_
_space_group_symop_operation_xyz
x,y,z
1/2-x,-y,1/2+z
1/2+x,1/2-y,1/2-z
-x,1/2+y,-z
-x,-y,-z
1/2+x,y,1/2-z
1/2-x,1/2+y,1/2+z
x,1/2-y,z
loop_
_atom_site_type_symbol
_atom_site_label
_atom_site_fract_x
_atom_site_fract_y
_atom_site_fract_z
Si Si1 0.311016 0.818523 0.707005
Si Si2 0.348270 0.355106 0.529042
Si Si3 0.625794 0.983321 0.635276
Si Si4 0.552818 0.607023 0.925138
Si Si5 0.872193 0.884691 0.220048
O O1 0.345728 0.750000 0.645093
O O2 0.208405 0.858399 0.578417
O O3 0.444583 0.854451 0.797271
O O4 0.202995 0.813124 0.874008
O O5 0.305035 0.424002 0.457417
O O6 0.516716 0.357299 0.578126
O O7 0.250673 0.342528 0.697342
O O8 0.574454 0.956629 0.821213
O O9 0.500000 0.000000 0.500000
O O10 0.696388 0.049246 0.667190
O O11 0.481369 0.603015 0.114566
#
# Coordination Sequence:
#
# PCOD9464364 Si02
#       5
#     8   8   8   8   8
#     4  10  21  40  58  77 106 142 184 235 277 318
#     4   9  21  36  54  80 111 146 184 219 270 330
#     4   9  19  34  53  80 116 148 173 213 270 326
#     4  10  21  35  58  85 107 141 186 223 270 330
#     4  10  20  35  55  82 114 145 179 224 268 328
#
# _framework density 25.971288000000001
#
# number of rings (size 3 to 8) (size 9 to 14) (size 15 to 20)
#    0.000    2.400    0.000    1.200    0.000   16.000 
#    0.000    5.000    0.000    0.000    0.000    0.000 
#    0.000    0.000    0.000    0.000    0.000    0.000 
#
# Total GULP energy -223582.178265 kJ/mol
# GULP energy per Si atom -5589.554457 kJ/mol
# Density = 2.591218 g / cm^3
# Si number density = 25.971288 Si / 1000 Ang^3
#
#
#
# Elastic Constant Matrix: (Units=GPa)
#
#
# Indices 1 2 3 4 5 6 
#
# 1 122.9162 5.3768 -19.3169 0.0000 0.0000 0.0000
# 2 5.3768 121.5781 -9.9772 0.0000 0.0000 0.0000
# 3 -19.3169 -9.9772 77.3132 0.0000 0.0000 0.0000
# 4 0.0000 0.0000 0.0000 17.3511 0.0000 0.0000
# 5 0.0000 0.0000 0.0000 0.0000 45.4023 0.0000
# 6 0.0000 0.0000 0.0000 0.0000 0.0000 17.2945
#
#
#
# Elastic Compliance Matrix: (Units=1/GPa)
#
#
# Indices 1 2 3 4 5 6 
#
# 1 0.008473 -0.000203 0.002091 0.000000 0.000000 0.000000
# 2 -0.000203 0.008318 0.001023 0.000000 0.000000 0.000000
# 3 0.002091 0.001023 0.013589 0.000000 0.000000 0.000000
# 4 0.000000 0.000000 0.000000 0.057633 0.000000 0.000000
# 5 0.000000 0.000000 0.000000 0.000000 0.022025 0.000000
# 6 0.000000 0.000000 0.000000 0.000000 0.000000 0.057822
#
#
# Mechanical properties :
#
#
# Convention : Reuss Voigt Hill
#
# Bulk Modulus (GPa) = 27.62381 30.44142 29.03262
# Shear Modulus (GPa) = 28.71807 39.05792 33.88800
#
# Velocity S-wave (km/s) = 3.32891 3.88221 3.61616
# Velocity P-wave (km/s) = 5.04330 5.64287 5.35149
#
# Compressibility (1/GPa) = 0.03620065
#
# Stress axis : x y z
#
# Youngs Moduli (GPa) = 118.02071 120.22015 73.59012
#
# Poissons Ratio (x) = 0.02442 -0.15386
# Poissons Ratio (y) = 0.02397 -0.07526
# Poissons Ratio (z) = -0.24676 -0.12295
#
# Static dielectric constant tensor:
#      x y z
#    x 2.073530 0.000000 0.000000 
#    y 0.000000 2.150220 0.000000 
#    z 0.000000 0.000000 2.170670 
# 
# From -- ./inp_files/4278.got.cif
#   From: 2010.05.17/outbox.cif.g08.bks.cpg/sg62_3_cif.got.tgz:4278.got - 2010.06.03 15:25:27.
