data_PCOD9464849
_publ_section_title
;
Structure prediction by ZEFSAII (Michael W. Deem and Ramdas Pophale) SiO2 
 PCOD9464849
Probable space group: P N M A
;
_chemical_formula_sum "Si O2"
_cell_formula_units_Z 40
_cell_length_a 10.112964
_cell_length_b 14.907456
_cell_length_c 9.586668
_cell_angle_alpha 90.000000
_cell_angle_beta 90.000000
_cell_angle_gamma 90.000000
_cell_volume 1445.272319
_symmetry_space_group_name_H-M "P N M A"
_symmetry_group_IT_number 62
_symmetry_cell_setting 'orthorhombic'
loop_
_space_group_symop_operation_xyz
x,y,z
1/2-x,-y,1/2+z
1/2+x,1/2-y,1/2-z
-x,1/2+y,-z
-x,-y,-z
1/2+x,y,1/2-z
1/2-x,1/2+y,1/2+z
x,1/2-y,z
loop_
_atom_site_type_symbol
_atom_site_label
_atom_site_fract_x
_atom_site_fract_y
_atom_site_fract_z
Si Si1 0.141635 0.250000 0.027525
Si Si2 0.336247 0.750000 0.032473
Si Si3 0.032284 0.898943 0.123440
Si Si4 0.328934 0.250000 0.269333
Si Si5 0.366340 0.052088 0.228382
Si Si6 0.189647 0.058887 0.472613
Si Si7 0.662397 0.750000 0.204811
O O1 0.063508 0.337923 0.973893
O O2 0.282607 0.250000 0.948470
O O3 0.188646 0.250000 0.186711
O O4 0.389797 0.848322 0.996860
O O5 0.290214 0.750000 0.192523
O O6 0.205806 0.750000 0.932876
O O7 0.165134 0.924590 0.042002
O O8 0.079603 0.835581 0.249501
O O9 0.957513 0.983388 0.187118
O O10 0.398915 0.156730 0.238168
O O11 0.224805 0.043374 0.311033
O O12 0.364005 0.019957 0.069039
#
# Coordination Sequence:
#
# PCOD9464849 Si02
#       7
#     4   4   8   4   8   8   4
#     4  11  21  40  68  94 119 154 203 260 299 355
#     4   8  17  36  59  81 118 153 188 242 299 356
#     4  10  20  36  65  91 118 160 205 247 300 367
#     4  10  23  38  55  85 122 161 200 246 307 352
#     4  11  22  39  61  86 124 164 202 253 300 355
#     4  10  21  39  62  91 120 158 205 249 302 363
#     4   9  19  36  62  94 119 152 207 252 299 361
#
# _framework density 27.676442999999999
#
# number of rings (size 3 to 8) (size 9 to 14) (size 15 to 20)
#    0.000    2.000    0.000    4.800    0.000    0.800 
#    0.000    5.000    0.000   28.800    0.000    0.000 
#    0.000    0.000    0.000    0.000    0.000    0.000 
#
# Total GULP energy -224266.361024 kJ/mol
# GULP energy per Si atom -5606.659026 kJ/mol
# Density = 2.761345 g / cm^3
# Si number density = 27.676443 Si / 1000 Ang^3
#
#
#
# Elastic Constant Matrix: (Units=GPa)
#
#
# Indices 1 2 3 4 5 6 
#
# 1 76.0676 49.1351 33.2298 0.0000 0.0000 0.0000
# 2 49.1351 222.0281 37.9343 0.0000 0.0000 0.0000
# 3 33.2298 37.9343 104.3273 0.0000 0.0000 0.0000
# 4 0.0000 0.0000 0.0000 35.5402 0.0000 0.0000
# 5 0.0000 0.0000 0.0000 0.0000 62.0702 0.0000
# 6 0.0000 0.0000 0.0000 0.0000 0.0000 25.3808
#
#
#
# Elastic Compliance Matrix: (Units=1/GPa)
#
#
# Indices 1 2 3 4 5 6 
#
# 1 0.016981 -0.003021 -0.004310 0.000000 0.000000 0.000000
# 2 -0.003021 0.005340 -0.000979 0.000000 0.000000 0.000000
# 3 -0.004310 -0.000979 0.011314 0.000000 0.000000 0.000000
# 4 0.000000 0.000000 0.000000 0.028137 0.000000 0.000000
# 5 0.000000 0.000000 0.000000 0.000000 0.016111 0.000000
# 6 0.000000 0.000000 0.000000 0.000000 0.000000 0.039400
#
#
# Mechanical properties :
#
#
# Convention : Reuss Voigt Hill
#
# Bulk Modulus (GPa) = 58.77760 71.44681 65.11221
# Shear Modulus (GPa) = 35.82304 43.40649 39.61477
#
# Velocity S-wave (km/s) = 3.60161 3.96454 3.78743
# Velocity P-wave (km/s) = 6.21120 6.84309 6.53479
#
# Compressibility (1/GPa) = 0.01701328
#
# Stress axis : x y z
#
# Youngs Moduli (GPa) = 58.89043 187.26950 88.38554
#
# Poissons Ratio (x) = 0.56583 0.38094
# Poissons Ratio (y) = 0.17794 0.08655
# Poissons Ratio (z) = 0.25382 0.18338
#
# Static dielectric constant tensor:
#      x y z
#    x 2.129630 0.000000 0.000000 
#    y 0.000000 2.141130 0.000000 
#    z 0.000000 0.000000 2.129840 
# 
# From -- ./inp_files/12100.got.cif
#   From: 2010.05.17/outbox.cif.g08.bks.cpg/sg62_7_cif.got.tgz:12100.got - 2010.06.03 15:25:27.
