data_PCOD9464124
_publ_section_title
;
Structure prediction by ZEFSAII (Michael W. Deem and Ramdas Pophale) SiO2 
 PCOD9464124
Probable space group: P N M A
;
_chemical_formula_sum "Si O2"
_cell_formula_units_Z 48
_cell_length_a 12.693683
_cell_length_b 9.020388
_cell_length_c 17.862876
_cell_angle_alpha 90.000000
_cell_angle_beta 90.000000
_cell_angle_gamma 90.000000
_cell_volume 2045.334060
_symmetry_space_group_name_H-M "P N M A"
_symmetry_group_IT_number 62
_symmetry_cell_setting 'orthorhombic'
loop_
_space_group_symop_operation_xyz
x,y,z
1/2-x,-y,1/2+z
1/2+x,1/2-y,1/2-z
-x,1/2+y,-z
-x,-y,-z
1/2+x,y,1/2-z
1/2-x,1/2+y,1/2+z
x,1/2-y,z
loop_
_atom_site_type_symbol
_atom_site_label
_atom_site_fract_x
_atom_site_fract_y
_atom_site_fract_z
Si Si1 0.340206 0.572618 0.522651
Si Si2 0.431108 0.571288 0.217693
Si Si3 0.858762 0.494031 0.671506
Si Si4 0.893298 0.411276 0.508649
Si Si5 0.699186 0.916791 0.338017
Si Si6 0.128586 0.918273 0.868489
O O1 0.348696 0.750000 0.512908
O O2 0.216323 0.525363 0.520933
O O3 0.366608 0.522495 0.606842
O O4 0.387603 0.487850 0.451126
O O5 0.453559 0.750000 0.211545
O O6 0.519711 0.461895 0.184028
O O7 0.322356 0.546108 0.173697
O O8 0.414943 0.526179 0.304044
O O9 0.869551 0.398699 0.596911
O O10 0.838581 0.421065 0.752026
O O11 0.754783 0.587596 0.651844
O O12 0.908198 0.250000 0.474732
O O13 0.000000 0.500000 0.500000
O O14 0.689045 0.750000 0.367653
O O15 0.088229 0.750000 0.865293
#
# Coordination Sequence:
#
# PCOD9464124 Si02
#       6
#     8   8   8   8   8   8
#     4  10  21  37  55  77 110 149 190 237 287 340
#     4  10  20  36  60  87 116 151 191 237 290 348
#     4  10  21  37  59  86 117 152 189 232 284 343
#     4  10  20  34  54  81 112 145 182 227 281 339
#     4  10  20  35  58  85 113 148 190 235 285 343
#     4  10  22  39  59  84 115 151 193 240 289 343
#
# _framework density 23.468048
#
# number of rings (size 3 to 8) (size 9 to 14) (size 15 to 20)
#    0.000    2.000    0.000    3.500    0.000   13.333 
#    0.000    0.833    0.000    0.000    0.000    0.000 
#    0.000    0.000    0.000    0.000    0.000    0.000 
#
# Total GULP energy -267538.676698 kJ/mol
# GULP energy per Si atom -5573.722431 kJ/mol
# Density = 2.341463 g / cm^3
# Si number density = 23.468048 Si / 1000 Ang^3
#
#
#
# Elastic Constant Matrix: (Units=GPa)
#
#
# Indices 1 2 3 4 5 6 
#
# 1 55.6347 -2.0080 4.6263 0.0000 0.0000 0.0000
# 2 -2.0080 45.6136 28.0214 0.0000 0.0000 0.0000
# 3 4.6263 28.0214 150.1278 0.0000 0.0000 0.0000
# 4 0.0000 0.0000 0.0000 -64.3467 0.0000 0.0000
# 5 0.0000 0.0000 0.0000 0.0000 31.4715 0.0000
# 6 0.0000 0.0000 0.0000 0.0000 0.0000 10.2590
#
#
#
# Elastic Compliance Matrix: (Units=1/GPa)
#
#
# Indices 1 2 3 4 5 6 
#
# 1 0.018087 0.001286 -0.000797 0.000000 0.000000 0.000000
# 2 0.001286 0.024854 -0.004679 0.000000 0.000000 0.000000
# 3 -0.000797 -0.004679 0.007559 0.000000 0.000000 0.000000
# 4 0.000000 0.000000 0.000000 -0.015541 0.000000 0.000000
# 5 0.000000 0.000000 0.000000 0.000000 0.031775 0.000000
# 6 0.000000 0.000000 0.000000 0.000000 0.000000 0.097475
#
#
# Mechanical properties :
#
#
# Convention : Reuss Voigt Hill
#
# Bulk Modulus (GPa) = 23.74162 34.73950 29.24056
# Shear Modulus (GPa) = 26.79106 10.19252 18.49179
#
# Velocity S-wave (km/s) = 3.38242 2.08628 2.81010
# Velocity P-wave (km/s) = 5.03913 4.54296 4.79746
#
# Compressibility (1/GPa) = 0.04212012
#
# Stress axis : x y z
#
# Youngs Moduli (GPa) = 55.28791 40.23478 132.29552
#
# Poissons Ratio (x) = -0.05175 0.10550
# Poissons Ratio (y) = -0.07111 0.61897
# Poissons Ratio (z) = 0.04409 0.18824
#
# Static dielectric constant tensor:
#      x y z
#    x 2.021210 0.000000 0.000000 
#    y 0.000000 1.830630 0.000000 
#    z 0.000000 0.000000 1.939540 
# 
# From -- ./inp_files/23739.got.cif
#   From: 2010.05.17/outbox.cif.g08.bks.cpg/sg62_12_cif.got.tgz:23739.got - 2010.06.03 15:25:27.
