data_PCOD9464267
_publ_section_title
;
Structure prediction by ZEFSAII (Michael W. Deem and Ramdas Pophale) SiO2 
 PCOD9464267
Probable space group: P N M A
;
_chemical_formula_sum "Si O2"
_cell_formula_units_Z 48
_cell_length_a 16.173108
_cell_length_b 17.493805
_cell_length_c 9.252057
_cell_angle_alpha 90.000000
_cell_angle_beta 90.000000
_cell_angle_gamma 90.000000
_cell_volume 2617.677063
_symmetry_space_group_name_H-M "P N M A"
_symmetry_group_IT_number 62
_symmetry_cell_setting 'orthorhombic'
loop_
_space_group_symop_operation_xyz
x,y,z
1/2-x,-y,1/2+z
1/2+x,1/2-y,1/2-z
-x,1/2+y,-z
-x,-y,-z
1/2+x,y,1/2-z
1/2-x,1/2+y,1/2+z
x,1/2-y,z
loop_
_atom_site_type_symbol
_atom_site_label
_atom_site_fract_x
_atom_site_fract_y
_atom_site_fract_z
Si Si1 0.477176 0.524194 0.659483
Si Si2 0.225330 0.066218 0.418847
Si Si3 0.683102 0.566011 0.293424
Si Si4 0.805626 0.161677 0.529790
Si Si5 0.651771 0.338837 0.321932
Si Si6 0.915006 0.476703 0.422634
O O1 0.500000 0.500000 0.500000
O O2 0.411315 0.462114 0.719017
O O3 0.425452 0.603506 0.665426
O O4 0.558781 0.526173 0.756451
O O5 0.296726 0.072555 0.537469
O O6 0.199304 0.139851 0.326974
O O7 0.233233 0.000517 0.294873
O O8 0.150156 0.038948 0.521738
O O9 0.699570 0.640938 0.199151
O O10 0.825927 0.250000 0.505987
O O11 0.718545 0.145813 0.449210
O O12 0.873950 0.103901 0.466330
O O13 0.628471 0.250000 0.325923
O O14 0.000000 0.500000 0.500000
#
# Coordination Sequence:
#
# PCOD9464267 Si02
#       6
#     8   8   8   8   8   8
#     4  11  23  35  59  87 114 149 192 245 285 337
#     4  10  20  34  60  83 114 150 193 238 275 347
#     4  10  20  36  57  85 115 148 195 236 278 341
#     4  10  22  39  59  82 118 155 189 236 291 348
#     4  10  22  41  58  83 117 155 193 234 291 350
#     4  11  19  37  57  87 108 147 194 232 286 336
#
# _framework density 18.336867999999999
#
# number of rings (size 3 to 8) (size 9 to 14) (size 15 to 20)
#    0.000    1.667    5.000    4.000    7.000    1.333 
#    0.000    0.833    0.000    0.000    0.000    0.000 
#    0.000    0.000    0.000    0.000    0.000    0.000 
#
# Total GULP energy -267563.420079 kJ/mol
# GULP energy per Si atom -5574.237918 kJ/mol
# Density = 1.829513 g / cm^3
# Si number density = 18.336868 Si / 1000 Ang^3
#
#
#
# Elastic Constant Matrix: (Units=GPa)
#
#
# Indices 1 2 3 4 5 6 
#
# 1 38.0145 10.7755 4.9568 0.0000 0.0000 0.0000
# 2 10.7755 56.1987 12.6900 0.0000 0.0000 0.0000
# 3 4.9568 12.6900 112.4692 0.0000 0.0000 0.0000
# 4 0.0000 0.0000 0.0000 14.1639 0.0000 0.0000
# 5 0.0000 0.0000 0.0000 0.0000 45.7437 0.0000
# 6 0.0000 0.0000 0.0000 0.0000 0.0000 20.6784
#
#
#
# Elastic Compliance Matrix: (Units=1/GPa)
#
#
# Indices 1 2 3 4 5 6 
#
# 1 0.027863 -0.005198 -0.000642 0.000000 0.000000 0.000000
# 2 -0.005198 0.019229 -0.001941 0.000000 0.000000 0.000000
# 3 -0.000642 -0.001941 0.009139 0.000000 0.000000 0.000000
# 4 0.000000 0.000000 0.000000 0.070602 0.000000 0.000000
# 5 0.000000 0.000000 0.000000 0.000000 0.021861 0.000000
# 6 0.000000 0.000000 0.000000 0.000000 0.000000 0.048360
#
#
# Mechanical properties :
#
#
# Convention : Reuss Voigt Hill
#
# Bulk Modulus (GPa) = 24.58766 29.28079 26.93423
# Shear Modulus (GPa) = 22.10740 28.00121 25.05431
#
# Velocity S-wave (km/s) = 3.47598 3.91198 3.70041
# Velocity P-wave (km/s) = 5.43580 6.03388 5.74263
#
# Compressibility (1/GPa) = 0.04067080
#
# Stress axis : x y z
#
# Youngs Moduli (GPa) = 35.89028 52.00540 109.42651
#
# Poissons Ratio (x) = 0.27030 0.07020
# Poissons Ratio (y) = 0.18654 0.21235
# Poissons Ratio (z) = 0.02303 0.10092
#
# Static dielectric constant tensor:
#      x y z
#    x 1.662790 0.000000 0.000000 
#    y 0.000000 1.619420 0.000000 
#    z 0.000000 0.000000 1.684770 
# 
# From -- ./inp_files/7779.got.cif
#   From: 2010.05.17/outbox.cif.g08.bks.cpg/sg62_4_cif.got.tgz:7779.got - 2010.06.03 15:25:27.
