data_PCOD9464507
_publ_section_title
;
Structure prediction by ZEFSAII (Michael W. Deem and Ramdas Pophale) SiO2 
 PCOD9464507
Probable space group: P N M A
;
_chemical_formula_sum "Si O2"
_cell_formula_units_Z 48
_cell_length_a 20.390755
_cell_length_b 8.805581
_cell_length_c 15.131209
_cell_angle_alpha 90.000000
_cell_angle_beta 90.000000
_cell_angle_gamma 90.000000
_cell_volume 2716.845569
_symmetry_space_group_name_H-M "P N M A"
_symmetry_group_IT_number 62
_symmetry_cell_setting 'orthorhombic'
loop_
_space_group_symop_operation_xyz
x,y,z
1/2-x,-y,1/2+z
1/2+x,1/2-y,1/2-z
-x,1/2+y,-z
-x,-y,-z
1/2+x,y,1/2-z
1/2-x,1/2+y,1/2+z
x,1/2-y,z
loop_
_atom_site_type_symbol
_atom_site_label
_atom_site_fract_x
_atom_site_fract_y
_atom_site_fract_z
Si Si1 0.485247 0.069810 0.721543
Si Si2 0.156514 0.068634 0.192945
Si Si3 0.043492 0.568452 0.422348
Si Si4 0.194081 0.068441 0.999473
Si Si5 0.556376 0.569120 0.562998
Si Si6 0.186054 0.068493 0.390941
O O1 0.492980 0.250000 0.708218
O O2 0.487815 0.035830 0.825924
O O3 0.412457 0.019149 0.691378
O O4 0.536740 0.980570 0.661817
O O5 0.142091 0.250000 0.192696
O O6 0.191147 0.033022 0.285931
O O7 0.196584 0.033955 0.104468
O O8 0.048509 0.750000 0.431021
O O9 0.116058 0.497286 0.421299
O O10 0.000000 0.500000 0.500000
O O11 0.192065 0.250000 0.989303
O O12 0.126312 0.998360 0.964121
O O13 0.255114 0.001952 0.946432
O O14 0.500000 0.500000 0.500000
O O15 0.556539 0.750000 0.554278
O O16 0.185999 0.250000 0.400657
#
# Coordination Sequence:
#
# PCOD9464507 Si02
#       6
#     8   8   8   8   8   8
#     4  10  20  35  58  86 115 147 190 238 285 341
#     4   9  19  36  59  81 109 150 192 231 285 346
#     4  10  21  39  63  89 116 152 196 241 290 343
#     4  11  22  38  59  85 116 153 193 240 290 343
#     4  12  23  36  57  87 119 153 191 235 288 344
#     4  10  21  39  60  85 115 152 195 239 289 346
#
# _framework density 17.667549000000001
#
# number of rings (size 3 to 8) (size 9 to 14) (size 15 to 20)
#    0.000    1.667    1.667    3.500    0.000    3.333 
#    3.000    0.000    0.000    0.000    0.000    0.000 
#    0.000    0.000    0.000    0.000    0.000    0.000 
#
# Total GULP energy -268121.258955 kJ/mol
# GULP energy per Si atom -5585.859562 kJ/mol
# Density = 1.762734 g / cm^3
# Si number density = 17.667549 Si / 1000 Ang^3
#
#
#
# Elastic Constant Matrix: (Units=GPa)
#
#
# Indices 1 2 3 4 5 6 
#
# 1 120.8008 64.8255 104.8838 0.0000 0.0000 0.0000
# 2 64.8255 93.7098 83.4767 0.0000 0.0000 0.0000
# 3 104.8838 83.4767 158.4923 0.0000 0.0000 0.0000
# 4 0.0000 0.0000 0.0000 29.3204 0.0000 0.0000
# 5 0.0000 0.0000 0.0000 0.0000 34.0281 0.0000
# 6 0.0000 0.0000 0.0000 0.0000 0.0000 36.1292
#
#
#
# Elastic Compliance Matrix: (Units=1/GPa)
#
#
# Indices 1 2 3 4 5 6 
#
# 1 0.020183 -0.003889 -0.011308 0.000000 0.000000 0.000000
# 2 -0.003889 0.020852 -0.008409 0.000000 0.000000 0.000000
# 3 -0.011308 -0.008409 0.018222 0.000000 0.000000 0.000000
# 4 0.000000 0.000000 0.000000 0.034106 0.000000 0.000000
# 5 0.000000 0.000000 0.000000 0.000000 0.029387 0.000000
# 6 0.000000 0.000000 0.000000 0.000000 0.000000 0.027678
#
#
# Mechanical properties :
#
#
# Convention : Reuss Voigt Hill
#
# Bulk Modulus (GPa) = 83.02330 97.70832 90.36581
# Shear Modulus (GPa) = 24.79458 27.88335 26.33896
#
# Velocity S-wave (km/s) = 3.75026 3.97700 3.86529
# Velocity P-wave (km/s) = 8.11459 8.74715 8.43680
#
# Compressibility (1/GPa) = 0.01204481
#
# Stress axis : x y z
#
# Youngs Moduli (GPa) = 49.54644 47.95599 54.87876
#
# Poissons Ratio (x) = 0.18648 0.62058
# Poissons Ratio (y) = 0.19267 0.46150
# Poissons Ratio (z) = 0.56028 0.40328
#
# Static dielectric constant tensor:
#      x y z
#    x 1.550470 0.000000 0.000000 
#    y 0.000000 1.588910 0.000000 
#    z 0.000000 0.000000 1.622520 
# 
# From -- ./inp_files/19607.got.cif
#   From: 2010.05.17/outbox.cif.g08.bks.cpg/sg62_10_cif.got.tgz:19607.got - 2010.06.03 15:25:27.
