data_PCOD9464778
_publ_section_title
;
Structure prediction by ZEFSAII (Michael W. Deem and Ramdas Pophale) SiO2 
 PCOD9464778
Probable space group: P N M A
;
_chemical_formula_sum "Si O2"
_cell_formula_units_Z 48
_cell_length_a 8.323973
_cell_length_b 8.391841
_cell_length_c 29.344839
_cell_angle_alpha 90.000000
_cell_angle_beta 90.000000
_cell_angle_gamma 90.000000
_cell_volume 2049.838476
_symmetry_space_group_name_H-M "P N M A"
_symmetry_group_IT_number 62
_symmetry_cell_setting 'orthorhombic'
loop_
_space_group_symop_operation_xyz
x,y,z
1/2-x,-y,1/2+z
1/2+x,1/2-y,1/2-z
-x,1/2+y,-z
-x,-y,-z
1/2+x,y,1/2-z
1/2-x,1/2+y,1/2+z
x,1/2-y,z
loop_
_atom_site_type_symbol
_atom_site_label
_atom_site_fract_x
_atom_site_fract_y
_atom_site_fract_z
Si Si1 0.074384 0.059446 0.400957
Si Si2 0.572031 0.939344 0.266707
Si Si3 0.245712 0.561771 0.813720
Si Si4 0.577415 0.068809 0.430156
Si Si5 0.244990 0.062377 0.486058
Si Si6 0.759857 0.934434 0.353420
O O1 0.092004 0.250000 0.404351
O O2 0.206111 0.003701 0.363969
O O3 0.107248 0.999142 0.452104
O O4 0.905026 0.021460 0.378358
O O5 0.586983 0.750000 0.259053
O O6 0.705308 0.991944 0.303911
O O7 0.604144 0.029362 0.219778
O O8 0.402787 0.974883 0.290201
O O9 0.211744 0.750000 0.816022
O O10 0.591261 0.250000 0.413751
O O11 0.406590 0.051927 0.454907
O O12 0.711364 0.033044 0.468697
O O13 0.609827 0.955544 0.387682
O O14 0.222114 0.250000 0.497636
O O15 0.803542 0.750000 0.349114
#
# Coordination Sequence:
#
# PCOD9464778 Si02
#       6
#     8   8   8   8   8   8
#     4  10  22  39  59  84 115 151 191 237 287 340
#     4  11  24  41  61  87 120 156 193 237 291 347
#     4  11  23  40  64  91 118 152 195 241 289 343
#     4  10  20  36  60  86 113 148 190 237 288 342
#     4   9  19  37  59  84 114 147 187 235 287 343
#     4  11  24  39  57  83 116 154 194 236 284 341
#
# _framework density 23.416478000000001
#
# number of rings (size 3 to 8) (size 9 to 14) (size 15 to 20)
#    0.000    1.667    0.000    4.000    0.000   10.000 
#    0.000    0.000    0.000    0.000    0.000    0.000 
#    0.000    0.000    0.000    0.000    0.000    0.000 
#
# Total GULP energy -268584.569286 kJ/mol
# GULP energy per Si atom -5595.511860 kJ/mol
# Density = 2.336318 g / cm^3
# Si number density = 23.416478 Si / 1000 Ang^3
#
#
#
# Elastic Constant Matrix: (Units=GPa)
#
#
# Indices 1 2 3 4 5 6 
#
# 1 57.6857 -3.8364 -5.6304 0.0000 0.0000 0.0000
# 2 -3.8364 15.6094 3.2773 0.0000 0.0000 0.0000
# 3 -5.6304 3.2773 93.2424 0.0000 0.0000 0.0000
# 4 0.0000 0.0000 0.0000 22.9943 0.0000 0.0000
# 5 0.0000 0.0000 0.0000 0.0000 39.8422 0.0000
# 6 0.0000 0.0000 0.0000 0.0000 0.0000 30.3183
#
#
#
# Elastic Compliance Matrix: (Units=1/GPa)
#
#
# Indices 1 2 3 4 5 6 
#
# 1 0.017702 0.004157 0.000923 0.000000 0.000000 0.000000
# 2 0.004157 0.065516 -0.002052 0.000000 0.000000 0.000000
# 3 0.000923 -0.002052 0.010853 0.000000 0.000000 0.000000
# 4 0.000000 0.000000 0.000000 0.043489 0.000000 0.000000
# 5 0.000000 0.000000 0.000000 0.000000 0.025099 0.000000
# 6 0.000000 0.000000 0.000000 0.000000 0.000000 0.032983
#
#
# Mechanical properties :
#
#
# Convention : Reuss Voigt Hill
#
# Bulk Modulus (GPa) = 9.98735 17.12872 13.55804
# Shear Modulus (GPa) = 22.42537 30.14610 26.28574
#
# Velocity S-wave (km/s) = 3.09799 3.59191 3.35405
# Velocity P-wave (km/s) = 4.13172 4.95309 4.56093
#
# Compressibility (1/GPa) = 0.10012667
#
# Stress axis : x y z
#
# Youngs Moduli (GPa) = 56.49133 15.26337 92.14402
#
# Poissons Ratio (x) = -0.06345 -0.08503
# Poissons Ratio (y) = -0.23483 0.18906
# Poissons Ratio (z) = -0.05213 0.03132
#
# Static dielectric constant tensor:
#      x y z
#    x 1.958350 0.000000 0.000000 
#    y 0.000000 1.788000 0.000000 
#    z 0.000000 0.000000 1.882940 
# 
# From -- ./inp_files/31910.got.cif
#   From: 2010.05.17/outbox.cif.g08.bks.cpg/sg62_16_cif.got.tgz:31910.got - 2010.06.03 15:25:27.
