data_PCOD9464196
_publ_section_title
;
Structure prediction by ZEFSAII (Michael W. Deem and Ramdas Pophale) SiO2 
 PCOD9464196
Probable space group: P N M A
;
_chemical_formula_sum "Si O2"
_cell_formula_units_Z 40
_cell_length_a 20.357287
_cell_length_b 17.429211
_cell_length_c 5.205481
_cell_angle_alpha 90.000000
_cell_angle_beta 90.000000
_cell_angle_gamma 90.000000
_cell_volume 1846.964264
_symmetry_space_group_name_H-M "P N M A"
_symmetry_group_IT_number 62
_symmetry_cell_setting 'orthorhombic'
loop_
_space_group_symop_operation_xyz
x,y,z
1/2-x,-y,1/2+z
1/2+x,1/2-y,1/2-z
-x,1/2+y,-z
-x,-y,-z
1/2+x,y,1/2-z
1/2-x,1/2+y,1/2+z
x,1/2-y,z
loop_
_atom_site_type_symbol
_atom_site_label
_atom_site_fract_x
_atom_site_fract_y
_atom_site_fract_z
Si Si1 0.236226 0.049091 0.804908
Si Si2 0.392310 0.487813 0.378486
Si Si3 0.345063 0.160293 0.627425
Si Si4 0.506463 0.838013 0.240347
Si Si5 0.026448 0.430006 0.259321
O O1 0.281586 0.123610 0.768154
O O2 0.256906 0.987893 0.586516
O O3 0.157677 0.050749 0.771171
O O4 0.359762 0.403213 0.404496
O O5 0.414954 0.515478 0.663361
O O6 0.458817 0.478364 0.218414
O O7 0.335417 0.250000 0.553030
O O8 0.413723 0.158024 0.785679
O O9 0.488776 0.750000 0.263154
O O10 0.487558 0.879486 0.503846
O O11 0.470826 0.874273 0.997325
#
# Coordination Sequence:
#
# PCOD9464196 Si02
#       5
#     8   8   8   8   8
#     4  10  20  36  57  80 108 143 181 222 271 324
#     4   9  20  35  57  82 112 146 185 228 274 331
#     4   9  19  36  58  83 109 141 184 232 277 322
#     4  10  20  35  55  81 112 144 182 228 274 324
#     4  10  20  34  56  83 111 147 186 223 273 331
#
# _framework density 21.657162
#
# number of rings (size 3 to 8) (size 9 to 14) (size 15 to 20)
#    0.000    2.400    0.000    1.800    0.000   11.200 
#    0.000   10.000    0.000    1.200    0.000    0.000 
#    0.000    0.000    0.000    0.000    0.000    0.000 
#
# Total GULP energy -223103.390426 kJ/mol
# GULP energy per Si atom -5577.584761 kJ/mol
# Density = 2.160787 g / cm^3
# Si number density = 21.657162 Si / 1000 Ang^3
#
#
#
# Elastic Constant Matrix: (Units=GPa)
#
#
# Indices 1 2 3 4 5 6 
#
# 1 87.6200 44.7519 17.2551 0.0000 0.0000 0.0000
# 2 44.7519 164.4536 27.9348 0.0000 0.0000 0.0000
# 3 17.2551 27.9348 61.9932 0.0000 0.0000 0.0000
# 4 0.0000 0.0000 0.0000 17.4487 0.0000 0.0000
# 5 0.0000 0.0000 0.0000 0.0000 26.7514 0.0000
# 6 0.0000 0.0000 0.0000 0.0000 0.0000 39.3004
#
#
#
# Elastic Compliance Matrix: (Units=1/GPa)
#
#
# Indices 1 2 3 4 5 6 
#
# 1 0.013548 -0.003299 -0.002284 0.000000 0.000000 0.000000
# 2 -0.003299 0.007388 -0.002411 0.000000 0.000000 0.000000
# 3 -0.002284 -0.002411 0.017853 0.000000 0.000000 0.000000
# 4 0.000000 0.000000 0.000000 0.057311 0.000000 0.000000
# 5 0.000000 0.000000 0.000000 0.000000 0.037381 0.000000
# 6 0.000000 0.000000 0.000000 0.000000 0.000000 0.025445
#
#
# Mechanical properties :
#
#
# Convention : Reuss Voigt Hill
#
# Bulk Modulus (GPa) = 43.85852 54.88338 49.37095
# Shear Modulus (GPa) = 27.39523 31.64178 29.51851
#
# Velocity S-wave (km/s) = 3.56047 3.82649 3.69588
# Velocity P-wave (km/s) = 6.09900 6.70221 6.40771
#
# Compressibility (1/GPa) = 0.02280059
#
# Stress axis : x y z
#
# Youngs Moduli (GPa) = 73.81415 135.35634 56.01284
#
# Poissons Ratio (x) = 0.44648 0.12796
# Poissons Ratio (y) = 0.24348 0.13504
# Poissons Ratio (z) = 0.16862 0.32634
#
# Static dielectric constant tensor:
#      x y z
#    x 1.893810 0.000000 0.000000 
#    y 0.000000 1.821690 0.000000 
#    z 0.000000 0.000000 1.865770 
# 
# From -- ./inp_files/2131.got.cif
#   From: 2010.05.17/outbox.cif.g08.bks.cpg/sg62_2_cif.got.tgz:2131.got - 2010.06.03 15:25:27.
