data_PCOD9464023
_publ_section_title
;
Structure prediction by ZEFSAII (Michael W. Deem and Ramdas Pophale) SiO2 
 PCOD9464023
Probable space group: P N M A
;
_chemical_formula_sum "Si O2"
_cell_formula_units_Z 64
_cell_length_a 23.588257
_cell_length_b 8.868726
_cell_length_c 19.537707
_cell_angle_alpha 90.000000
_cell_angle_beta 90.000000
_cell_angle_gamma 90.000000
_cell_volume 4087.245090
_symmetry_space_group_name_H-M "P N M A"
_symmetry_group_IT_number 62
_symmetry_cell_setting 'orthorhombic'
loop_
_space_group_symop_operation_xyz
x,y,z
1/2-x,-y,1/2+z
1/2+x,1/2-y,1/2-z
-x,1/2+y,-z
-x,-y,-z
1/2+x,y,1/2-z
1/2-x,1/2+y,1/2+z
x,1/2-y,z
loop_
_atom_site_type_symbol
_atom_site_label
_atom_site_fract_x
_atom_site_fract_y
_atom_site_fract_z
Si Si1 0.729965 0.930306 0.644763
Si Si2 0.375471 0.569131 0.999664
Si Si3 0.560389 0.070210 0.859865
Si Si4 0.841491 0.429542 0.275085
Si Si5 0.436565 0.930221 0.856393
Si Si6 0.663862 0.570392 0.225439
Si Si7 0.223514 0.069484 0.149006
Si Si8 0.249753 0.569613 0.496643
O O1 0.737544 0.750000 0.643139
O O2 0.679790 0.964394 0.698414
O O3 0.787043 0.002163 0.676423
O O4 0.721824 0.994289 0.569248
O O5 0.365569 0.750000 0.000623
O O6 0.411048 0.528598 0.067194
O O7 0.315186 0.486966 0.998989
O O8 0.410387 0.532809 0.931140
O O9 0.553048 0.250000 0.858703
O O10 0.604586 0.018461 0.801995
O O11 0.500133 0.990736 0.852121
O O12 0.852045 0.250000 0.280030
O O13 0.786990 0.463906 0.323060
O O14 0.435393 0.750000 0.848682
O O15 0.395446 0.005538 0.800853
O O16 0.664756 0.750000 0.220972
O O17 0.680431 0.515587 0.301366
O O18 0.215581 0.250000 0.156988
O O19 0.221749 0.030005 0.069220
O O20 0.250188 0.750000 0.489849
#
# Coordination Sequence:
#
# PCOD9464023 Si02
#       8
#     8   8   8   8   8   8   8   8
#     4  10  20  34  51  72 103 135 167 208 257 307
#     4  10  21  34  48  70 102 139 174 209 250 295
#     4  11  22  34  50  74 101 132 176 220 250 292
#     4   9  18  34  51  69  97 135 170 204 252 304
#     4  11  22  36  52  69  99 142 176 209 254 303
#     4  11  21  33  51  75  99 130 172 215 253 296
#     4   9  19  34  51  73 102 134 166 206 257 307
#     4  11  20  31  52  78 103 135 172 209 250 303
#
# _framework density 15.658467999999999
#
# number of rings (size 3 to 8) (size 9 to 14) (size 15 to 20)
#    0.000    1.750    2.500    3.750    0.000    4.500 
#    0.000    0.000    0.000    0.000    0.000    0.875 
#    0.000    0.000    0.000    0.000    0.000    0.000 
#
# Total GULP energy -357361.153974 kJ/mol
# GULP energy per Si atom -5583.768031 kJ/mol
# Density = 1.562283 g / cm^3
# Si number density = 15.658468 Si / 1000 Ang^3
#
#
#
# Elastic Constant Matrix: (Units=GPa)
#
#
# Indices 1 2 3 4 5 6 
#
# 1 79.6180 46.6445 61.0452 0.0000 0.0000 0.0000
# 2 46.6445 64.6914 61.1476 0.0000 0.0000 0.0000
# 3 61.0452 61.1476 141.9019 0.0000 0.0000 0.0000
# 4 0.0000 0.0000 0.0000 25.8124 0.0000 0.0000
# 5 0.0000 0.0000 0.0000 0.0000 17.9540 0.0000
# 6 0.0000 0.0000 0.0000 0.0000 0.0000 26.1616
#
#
#
# Elastic Compliance Matrix: (Units=1/GPa)
#
#
# Indices 1 2 3 4 5 6 
#
# 1 0.023492 -0.012462 -0.004736 0.000000 0.000000 0.000000
# 2 -0.012462 0.032692 -0.008726 0.000000 0.000000 0.000000
# 3 -0.004736 -0.008726 0.012845 0.000000 0.000000 0.000000
# 4 0.000000 0.000000 0.000000 0.038741 0.000000 0.000000
# 5 0.000000 0.000000 0.000000 0.000000 0.055698 0.000000
# 6 0.000000 0.000000 0.000000 0.000000 0.000000 0.038224
#
#
# Mechanical properties :
#
#
# Convention : Reuss Voigt Hill
#
# Bulk Modulus (GPa) = 58.20711 69.32065 63.76388
# Shear Modulus (GPa) = 19.28514 21.81053 20.54783
#
# Velocity S-wave (km/s) = 3.51324 3.73619 3.62643
# Velocity P-wave (km/s) = 7.32876 7.93591 7.63837
#
# Compressibility (1/GPa) = 0.01718003
#
# Stress axis : x y z
#
# Youngs Moduli (GPa) = 42.56738 30.58883 77.85208
#
# Poissons Ratio (x) = 0.38119 0.36872
# Poissons Ratio (y) = 0.53047 0.67936
# Poissons Ratio (z) = 0.20161 0.26693
#
# Static dielectric constant tensor:
#      x y z
#    x 1.485160 0.000000 0.000000 
#    y 0.000000 1.512720 0.000000 
#    z 0.000000 0.000000 1.532850 
# 
# From -- ./inp_files/24770.got.cif
#   From: 2010.05.17/outbox.cif.g08.bks.cpg/sg62_13_cif.got.tgz:24770.got - 2010.06.03 15:25:27.
