data_PCOD9464034
_publ_section_title
;
Structure prediction by ZEFSAII (Michael W. Deem and Ramdas Pophale) SiO2 
 PCOD9464034
Probable space group: P N M A
;
_chemical_formula_sum "Si O2"
_cell_formula_units_Z 64
_cell_length_a 20.382015
_cell_length_b 8.300713
_cell_length_c 20.940235
_cell_angle_alpha 90.000000
_cell_angle_beta 90.000000
_cell_angle_gamma 90.000000
_cell_volume 3542.779038
_symmetry_space_group_name_H-M "P N M A"
_symmetry_group_IT_number 62
_symmetry_cell_setting 'orthorhombic'
loop_
_space_group_symop_operation_xyz
x,y,z
1/2-x,-y,1/2+z
1/2+x,1/2-y,1/2-z
-x,1/2+y,-z
-x,-y,-z
1/2+x,y,1/2-z
1/2-x,1/2+y,1/2+z
x,1/2-y,z
loop_
_atom_site_type_symbol
_atom_site_label
_atom_site_fract_x
_atom_site_fract_y
_atom_site_fract_z
Si Si1 0.174189 0.055231 0.819408
Si Si2 0.323236 0.444655 0.177911
Si Si3 0.573739 0.944694 0.927618
Si Si4 0.075063 0.444451 0.928792
Si Si5 0.324592 0.055440 0.820806
Si Si6 0.072858 0.944740 0.426748
Si Si7 0.075249 0.557372 0.069890
Si Si8 0.672883 0.057275 0.320572
O O1 0.174089 0.250000 0.820339
O O2 0.124283 0.997762 0.873824
O O3 0.249340 0.000856 0.831005
O O4 0.155638 0.999928 0.748346
O O5 0.323110 0.250000 0.176964
O O6 0.372373 0.502086 0.122932
O O7 0.247994 0.499290 0.167701
O O8 0.574777 0.750000 0.927570
O O9 0.500553 0.000054 0.910275
O O10 0.586941 0.998706 0.000510
O O11 0.074905 0.250000 0.926906
O O12 0.999856 0.500216 0.918864
O O13 0.095588 0.496268 0.999816
O O14 0.324362 0.250000 0.822172
O O15 0.373807 0.997725 0.875664
O O16 0.345722 0.001891 0.750185
O O17 0.073907 0.750000 0.426626
O O18 0.074175 0.750000 0.068676
O O19 0.123764 0.501526 0.125168
O O20 0.673194 0.250000 0.320596
#
# Coordination Sequence:
#
# PCOD9464034 Si02
#       8
#     8   8   8   8   8   8   8   8
#     4   9  18  33  53  74  97 128 165 204 244 288
#     4   9  19  34  51  72  99 130 164 203 244 289
#     4   9  18  33  51  72  98 128 163 202 244 289
#     4   9  19  35  53  74 100 131 167 205 246 293
#     4   9  18  33  52  73  98 129 165 204 245 291
#     4   9  18  32  50  72  98 128 161 199 243 290
#     4  10  20  34  52  75 103 132 164 204 246 292
#     4  10  20  34  52  73  99 131 165 203 246 292
#
# _framework density 18.064914999999999
#
# number of rings (size 3 to 8) (size 9 to 14) (size 15 to 20)
#    0.000    2.750    0.000    0.750    0.000    4.500 
#    0.000    7.500    0.000    3.000    0.000    0.000 
#    0.000    0.000    0.000    0.000    0.000    0.000 
#
# Total GULP energy -356915.296577 kJ/mol
# GULP energy per Si atom -5576.801509 kJ/mol
# Density = 1.802380 g / cm^3
# Si number density = 18.064915 Si / 1000 Ang^3
#
#
#
# Elastic Constant Matrix: (Units=GPa)
#
#
# Indices 1 2 3 4 5 6 
#
# 1 111.7163 12.0895 123.8158 0.0000 0.0000 0.0000
# 2 12.0895 4.0403 13.3132 0.0000 0.0000 0.0000
# 3 123.8158 13.3132 170.1364 0.0000 0.0000 0.0000
# 4 0.0000 0.0000 0.0000 42.4487 0.0000 0.0000
# 5 0.0000 0.0000 0.0000 0.0000 44.8833 0.0000
# 6 0.0000 0.0000 0.0000 0.0000 0.0000 21.8295
#
#
#
# Elastic Compliance Matrix: (Units=1/GPa)
#
#
# Indices 1 2 3 4 5 6 
#
# 1 0.050793 -0.040669 -0.033782 0.000000 0.000000 0.000000
# 2 -0.040669 0.366058 0.000953 0.000000 0.000000 0.000000
# 3 -0.033782 0.000953 0.030388 0.000000 0.000000 0.000000
# 4 0.000000 0.000000 0.000000 0.023558 0.000000 0.000000
# 5 0.000000 0.000000 0.000000 0.000000 0.022280 0.000000
# 6 0.000000 0.000000 0.000000 0.000000 0.000000 0.045810
#
#
# Mechanical properties :
#
#
# Convention : Reuss Voigt Hill
#
# Bulk Modulus (GPa) = 3.33065 64.92555 34.12810
# Shear Modulus (GPa) = 6.36161 30.94393 18.65277
#
# Velocity S-wave (km/s) = 1.87861 4.14325 3.21680
# Velocity P-wave (km/s) = 2.55994 7.67508 5.72102
#
# Compressibility (1/GPa) = 0.30024204
#
# Stress axis : x y z
#
# Youngs Moduli (GPa) = 19.68771 2.73180 32.90801
#
# Poissons Ratio (x) = 0.11110 1.11170
# Poissons Ratio (y) = 0.80069 -0.03136
# Poissons Ratio (z) = 0.66509 -0.00260
#
# Static dielectric constant tensor:
#      x y z
#    x 1.617190 0.000000 0.000000 
#    y 0.000000 1.630740 0.000000 
#    z 0.000000 0.000000 1.594340 
# 
# From -- ./inp_files/27955.got.cif
#   From: 2010.05.17/outbox.cif.g08.bks.cpg/sg62_14_cif.got.tgz:27955.got - 2010.06.03 15:25:27.
