data_PCOD9464661
_publ_section_title
;
Structure prediction by ZEFSAII (Michael W. Deem and Ramdas Pophale) SiO2 
 PCOD9464661
Probable space group: P N M A
;
_chemical_formula_sum "Si O2"
_cell_formula_units_Z 64
_cell_length_a 26.600423
_cell_length_b 7.847988
_cell_length_c 15.341771
_cell_angle_alpha 90.000000
_cell_angle_beta 90.000000
_cell_angle_gamma 90.000000
_cell_volume 3202.745053
_symmetry_space_group_name_H-M "P N M A"
_symmetry_group_IT_number 62
_symmetry_cell_setting 'orthorhombic'
loop_
_space_group_symop_operation_xyz
x,y,z
1/2-x,-y,1/2+z
1/2+x,1/2-y,1/2-z
-x,1/2+y,-z
-x,-y,-z
1/2+x,y,1/2-z
1/2-x,1/2+y,1/2+z
x,1/2-y,z
loop_
_atom_site_type_symbol
_atom_site_label
_atom_site_fract_x
_atom_site_fract_y
_atom_site_fract_z
Si Si1 0.612623 0.547257 0.661804
Si Si2 0.057878 0.050151 0.498219
Si Si3 0.138469 0.948363 0.360516
Si Si4 0.997493 0.546331 0.102205
Si Si5 0.633275 0.956126 0.854109
Si Si6 0.894957 0.040551 0.827184
Si Si7 0.170142 0.954530 0.007940
Si Si8 0.786561 0.456035 0.494697
O O1 0.621927 0.750000 0.664313
O O2 0.553679 0.521744 0.643948
O O3 0.629263 0.478273 0.755772
O O4 0.643480 0.477191 0.579401
O O5 0.062485 0.250000 0.482012
O O6 0.089700 0.958785 0.422618
O O7 0.084869 0.006809 0.589211
O O8 0.000000 0.000000 0.500000
O O9 0.150786 0.750000 0.345909
O O10 0.125266 0.021341 0.266084
O O11 0.183916 0.021051 0.419183
O O12 0.996185 0.750000 0.108306
O O13 0.048211 0.486226 0.150288
O O14 0.000000 0.500000 0.000000
O O15 0.634645 0.750000 0.851702
O O16 0.681436 0.014051 0.910426
O O17 0.895593 0.250000 0.825447
O O18 0.858849 0.984793 0.905897
O O19 0.164058 0.750000 0.007505
O O20 0.228902 0.993638 0.008802
O O21 0.789463 0.250000 0.496065
#
# Coordination Sequence:
#
# PCOD9464661 Si02
#       8
#     8   8   8   8   8   8   8   8
#     4  10  21  38  58  83 115 150 188 231 284 338
#     4  11  22  36  55  81 112 146 187 231 277 332
#     4   9  19  38  59  79 110 147 183 230 284 331
#     4  11  21  36  57  82 114 150 189 233 281 335
#     4   9  20  39  59  80 112 150 185 229 286 337
#     4   9  19  36  57  81 110 147 186 225 277 334
#     4  10  20  36  57  81 111 149 189 229 276 332
#     4   9  19  36  56  80 111 146 186 233 284 331
#
# _framework density 19.982859000000001
#
# number of rings (size 3 to 8) (size 9 to 14) (size 15 to 20)
#    0.000    2.250    1.250    2.250    1.750    4.000 
#    0.000    1.250    0.000    0.000    0.000    0.000 
#    0.000    0.000    0.000    0.000    0.000    0.000 
#
# Total GULP energy -357271.308808 kJ/mol
# GULP energy per Si atom -5582.364200 kJ/mol
# Density = 1.993738 g / cm^3
# Si number density = 19.982859 Si / 1000 Ang^3
#
#
#
# Elastic Constant Matrix: (Units=GPa)
#
#
# Indices 1 2 3 4 5 6 
#
# 1 155.5204 -16.4703 81.7662 0.0000 0.0000 0.0000
# 2 -16.4703 20.1044 -2.0996 0.0000 0.0000 0.0000
# 3 81.7662 -2.0996 187.3193 0.0000 0.0000 0.0000
# 4 0.0000 0.0000 0.0000 6.2926 0.0000 0.0000
# 5 0.0000 0.0000 0.0000 0.0000 2.9198 0.0000
# 6 0.0000 0.0000 0.0000 0.0000 0.0000 29.5848
#
#
#
# Elastic Compliance Matrix: (Units=1/GPa)
#
#
# Indices 1 2 3 4 5 6 
#
# 1 0.009278 0.007186 -0.003969 0.000000 0.000000 0.000000
# 2 0.007186 0.055365 -0.002516 0.000000 0.000000 0.000000
# 3 -0.003969 -0.002516 0.007043 0.000000 0.000000 0.000000
# 4 0.000000 0.000000 0.000000 0.158916 0.000000 0.000000
# 5 0.000000 0.000000 0.000000 0.000000 0.342487 0.000000
# 6 0.000000 0.000000 0.000000 0.000000 0.000000 0.033801
#
#
# Mechanical properties :
#
#
# Convention : Reuss Voigt Hill
#
# Bulk Modulus (GPa) = 13.68226 54.37074 34.02650
# Shear Modulus (GPa) = 7.93839 27.74263 17.84051
#
# Velocity S-wave (km/s) = 1.99530 3.73006 2.99120
# Velocity P-wave (km/s) = 3.48858 6.76897 5.38466
#
# Compressibility (1/GPa) = 0.07308736
#
# Stress axis : x y z
#
# Youngs Moduli (GPa) = 107.78152 18.06194 141.98631
#
# Poissons Ratio (x) = -0.12980 0.56360
# Poissons Ratio (y) = -0.77456 0.35728
# Poissons Ratio (z) = 0.42783 0.04545
#
# Static dielectric constant tensor:
#      x y z
#    x 1.663730 0.000000 0.000000 
#    y 0.000000 1.727840 0.000000 
#    z 0.000000 0.000000 1.716850 
# 
# From -- ./inp_files/20814.got.cif
#   From: 2010.05.17/outbox.cif.g08.bks.cpg/sg62_11_cif.got.tgz:20814.got - 2010.06.03 15:25:27.
