data_PCOD9464086
_publ_section_title
;
Structure prediction by ZEFSAII (Michael W. Deem and Ramdas Pophale) SiO2 
 PCOD9464086
Probable space group: P N M A
;
_chemical_formula_sum "Si O2"
_cell_formula_units_Z 64
_cell_length_a 14.597149
_cell_length_b 7.994778
_cell_length_c 25.508426
_cell_angle_alpha 90.000000
_cell_angle_beta 90.000000
_cell_angle_gamma 90.000000
_cell_volume 2976.857947
_symmetry_space_group_name_H-M "P N M A"
_symmetry_group_IT_number 62
_symmetry_cell_setting 'orthorhombic'
loop_
_space_group_symop_operation_xyz
x,y,z
1/2-x,-y,1/2+z
1/2+x,1/2-y,1/2-z
-x,1/2+y,-z
-x,-y,-z
1/2+x,y,1/2-z
1/2-x,1/2+y,1/2+z
x,1/2-y,z
loop_
_atom_site_type_symbol
_atom_site_label
_atom_site_fract_x
_atom_site_fract_y
_atom_site_fract_z
Si Si1 0.046585 0.445236 0.101131
Si Si2 0.640392 0.955660 0.557273
Si Si3 0.263224 0.053877 0.338072
Si Si4 0.759818 0.454616 0.276895
Si Si5 0.442455 0.054042 0.828652
Si Si6 0.548018 0.945941 0.285879
Si Si7 0.881287 0.054036 0.374629
Si Si8 0.772221 0.444642 0.949359
O O1 0.063642 0.250000 0.091621
O O2 0.014680 0.465576 0.161364
O O3 0.141666 0.536528 0.089942
O O4 0.965325 0.506642 0.063598
O O5 0.640573 0.750000 0.556364
O O6 0.691591 0.016358 0.609636
O O7 0.690755 0.012601 0.504736
O O8 0.285764 0.250000 0.337744
O O9 0.292416 0.988453 0.280790
O O10 0.153336 0.034063 0.340462
O O11 0.753888 0.250000 0.277631
O O12 0.657719 0.524015 0.284595
O O13 0.823003 0.509624 0.324672
O O14 0.422004 0.250000 0.821886
O O15 0.481005 0.992246 0.771961
O O16 0.519874 0.030180 0.872057
O O17 0.527275 0.750000 0.290944
O O18 0.897017 0.250000 0.367301
O O19 0.817032 0.027915 0.424667
O O20 0.750868 0.250000 0.955858
#
# Coordination Sequence:
#
# PCOD9464086 Si02
#       8
#     8   8   8   8   8   8   8   8
#     4  11  21  35  57  85 117 154 194 236 279 340
#     4   9  21  38  60  85 111 149 195 240 289 339
#     4   9  18  38  61  83 111 147 191 241 288 338
#     4   9  18  32  55  82 111 145 185 233 282 333
#     4  10  22  38  56  84 120 154 187 234 292 346
#     4  10  20  34  53  81 118 154 185 225 283 340
#     4  11  22  36  58  88 114 151 197 236 282 341
#     4  11  22  39  59  83 117 153 190 239 290 339
#
# _framework density 21.499181
#
# number of rings (size 3 to 8) (size 9 to 14) (size 15 to 20)
#    0.000    2.000    1.250    2.250    1.750    2.000 
#    0.000    5.000    0.000    0.000    0.000    0.000 
#    0.000    0.000    0.000    0.000    0.000    0.000 
#
# Total GULP energy -357498.046639 kJ/mol
# GULP energy per Si atom -5585.906979 kJ/mol
# Density = 2.145025 g / cm^3
# Si number density = 21.499181 Si / 1000 Ang^3
#
#
#
# Elastic Constant Matrix: (Units=GPa)
#
#
# Indices 1 2 3 4 5 6 
#
# 1 28.1597 -8.6501 2.5252 0.0000 0.0000 0.0000
# 2 -8.6501 25.7136 -1.4284 0.0000 0.0000 0.0000
# 3 2.5252 -1.4284 72.8778 0.0000 0.0000 0.0000
# 4 0.0000 0.0000 0.0000 19.1992 0.0000 0.0000
# 5 0.0000 0.0000 0.0000 0.0000 32.4828 0.0000
# 6 0.0000 0.0000 0.0000 0.0000 0.0000 7.7673
#
#
#
# Elastic Compliance Matrix: (Units=1/GPa)
#
#
# Indices 1 2 3 4 5 6 
#
# 1 0.039694 0.013291 -0.001115 0.000000 0.000000 0.000000
# 2 0.013291 0.043383 0.000390 0.000000 0.000000 0.000000
# 3 -0.001115 0.000390 0.013768 0.000000 0.000000 0.000000
# 4 0.000000 0.000000 0.000000 0.052086 0.000000 0.000000
# 5 0.000000 0.000000 0.000000 0.000000 0.030786 0.000000
# 6 0.000000 0.000000 0.000000 0.000000 0.000000 0.128745
#
#
# Mechanical properties :
#
#
# Convention : Reuss Voigt Hill
#
# Bulk Modulus (GPa) = 8.19823 12.40495 10.30159
# Shear Modulus (GPa) = 15.43268 20.84347 18.13808
#
# Velocity S-wave (km/s) = 2.68213 3.11706 2.90774
# Velocity P-wave (km/s) = 3.66242 4.32865 4.00940
#
# Compressibility (1/GPa) = 0.12197759
#
# Stress axis : x y z
#
# Youngs Moduli (GPa) = 25.19241 23.05059 72.63289
#
# Poissons Ratio (x) = -0.30637 0.08098
# Poissons Ratio (y) = -0.33484 -0.02831
# Poissons Ratio (z) = 0.02809 -0.00898
#
# Static dielectric constant tensor:
#      x y z
#    x 1.760380 0.000000 0.000000 
#    y 0.000000 1.720740 0.000000 
#    z 0.000000 0.000000 1.823140 
# 
# From -- ./inp_files/29727.got.cif
#   From: 2010.05.17/outbox.cif.g08.bks.cpg/sg62_15_cif.got.tgz:29727.got - 2010.06.03 15:25:27.
