data_PCOD9464626
_publ_section_title
;
Structure prediction by ZEFSAII (Michael W. Deem and Ramdas Pophale) SiO2 
 PCOD9464626
Probable space group: P N M A
;
_chemical_formula_sum "Si O2"
_cell_formula_units_Z 48
_cell_length_a 14.083735
_cell_length_b 12.454739
_cell_length_c 14.631647
_cell_angle_alpha 90.000000
_cell_angle_beta 90.000000
_cell_angle_gamma 90.000000
_cell_volume 2566.526132
_symmetry_space_group_name_H-M "P N M A"
_symmetry_group_IT_number 62
_symmetry_cell_setting 'orthorhombic'
loop_
_space_group_symop_operation_xyz
x,y,z
1/2-x,-y,1/2+z
1/2+x,1/2-y,1/2-z
-x,1/2+y,-z
-x,-y,-z
1/2+x,y,1/2-z
1/2-x,1/2+y,1/2+z
x,1/2-y,z
loop_
_atom_site_type_symbol
_atom_site_label
_atom_site_fract_x
_atom_site_fract_y
_atom_site_fract_z
Si Si1 0.683011 0.126792 0.472948
Si Si2 0.850560 0.530932 0.455967
Si Si3 0.112227 0.466190 0.211284
Si Si4 0.454822 0.874112 0.364338
Si Si5 0.723273 0.372391 0.771601
Si Si6 0.516841 0.374470 0.110087
O O1 0.712588 0.250000 0.489630
O O2 0.766382 0.043244 0.494927
O O3 0.655999 0.108717 0.367350
O O4 0.592280 0.106094 0.537093
O O5 0.808051 0.604738 0.375879
O O6 0.904671 0.597300 0.533397
O O7 0.927366 0.450821 0.410311
O O8 0.195689 0.541600 0.250787
O O9 0.060611 0.402732 0.291652
O O10 0.037656 0.545471 0.162266
O O11 0.487676 0.750000 0.360734
O O12 0.368510 0.885720 0.292341
O O13 0.757273 0.250000 0.761068
O O14 0.490055 0.250000 0.104702
#
# Coordination Sequence:
#
# PCOD9464626 Si02
#       6
#     8   8   8   8   8   8
#     4  10  21  37  58  81 113 154 191 236 286 343
#     4  10  21  38  58  82 115 150 193 239 288 339
#     4  11  21  36  57  84 117 150 189 235 292 343
#     4  10  20  36  56  82 112 147 194 237 284 340
#     4  10  20  36  58  84 114 149 193 239 286 335
#     4  11  22  37  58  85 116 151 192 238 290 345
#
# _framework density 18.702323
#
# number of rings (size 3 to 8) (size 9 to 14) (size 15 to 20)
#    0.000    1.667    1.667    3.500    0.000    0.000 
#    0.000    1.667    0.000    4.000    0.000    0.000 
#    0.000    0.000    0.000    0.000    0.000    0.000 
#
# Total GULP energy -268156.697687 kJ/mol
# GULP energy per Si atom -5586.597868 kJ/mol
# Density = 1.865976 g / cm^3
# Si number density = 18.702323 Si / 1000 Ang^3
#
#
#
# Elastic Constant Matrix: (Units=GPa)
#
#
# Indices 1 2 3 4 5 6 
#
# 1 25.9797 -3.2317 -13.5519 0.0000 0.0000 0.0000
# 2 -3.2317 51.3298 0.9298 0.0000 0.0000 0.0000
# 3 -13.5519 0.9298 37.2307 0.0000 0.0000 0.0000
# 4 0.0000 0.0000 0.0000 18.2397 0.0000 0.0000
# 5 0.0000 0.0000 0.0000 0.0000 19.4691 0.0000
# 6 0.0000 0.0000 0.0000 0.0000 0.0000 16.1551
#
#
#
# Elastic Compliance Matrix: (Units=1/GPa)
#
#
# Indices 1 2 3 4 5 6 
#
# 1 0.047884 0.002700 0.017362 0.000000 0.000000 0.000000
# 2 0.002700 0.019643 0.000492 0.000000 0.000000 0.000000
# 3 0.017362 0.000492 0.033167 0.000000 0.000000 0.000000
# 4 0.000000 0.000000 0.000000 0.054825 0.000000 0.000000
# 5 0.000000 0.000000 0.000000 0.000000 0.051363 0.000000
# 6 0.000000 0.000000 0.000000 0.000000 0.000000 0.061900
#
#
# Mechanical properties :
#
#
# Convention : Reuss Voigt Hill
#
# Bulk Modulus (GPa) = 7.05199 9.20364 8.12782
# Shear Modulus (GPa) = 18.18570 19.46572 18.82571
#
# Velocity S-wave (km/s) = 3.12168 3.22967 3.17613
# Velocity P-wave (km/s) = 4.09536 4.34045 4.21969
#
# Compressibility (1/GPa) = 0.14180391
#
# Stress axis : x y z
#
# Youngs Moduli (GPa) = 20.88371 50.90888 30.15039
#
# Poissons Ratio (x) = -0.13747 -0.52348
# Poissons Ratio (y) = -0.05639 -0.01484
# Poissons Ratio (z) = -0.36259 -0.02506
#
# Static dielectric constant tensor:
#      x y z
#    x 1.619980 0.000000 0.000000 
#    y 0.000000 1.612210 0.000000 
#    z 0.000000 0.000000 1.634040 
# 
# From -- ./inp_files/18874.got.cif
#   From: 2010.05.17/outbox.cif.g08.bks.cpg/sg62_10_cif.got.tgz:18874.got - 2010.06.03 15:25:27.
