data_PCOD9464021
_publ_section_title
;
Structure prediction by ZEFSAII (Michael W. Deem and Ramdas Pophale) SiO2 
 PCOD9464021
Probable space group: P N M A
;
_chemical_formula_sum "Si O2"
_cell_formula_units_Z 32
_cell_length_a 5.096752
_cell_length_b 27.057447
_cell_length_c 12.112189
_cell_angle_alpha 90.000000
_cell_angle_beta 90.000000
_cell_angle_gamma 90.000000
_cell_volume 1670.332600
_symmetry_space_group_name_H-M "P N M A"
_symmetry_group_IT_number 62
_symmetry_cell_setting 'orthorhombic'
loop_
_space_group_symop_operation_xyz
x,y,z
1/2-x,-y,1/2+z
1/2+x,1/2-y,1/2-z
-x,1/2+y,-z
-x,-y,-z
1/2+x,y,1/2-z
1/2-x,1/2+y,1/2+z
x,1/2-y,z
loop_
_atom_site_type_symbol
_atom_site_label
_atom_site_fract_x
_atom_site_fract_y
_atom_site_fract_z
Si Si1 0.629635 0.092650 0.559197
Si Si2 0.184135 0.573286 0.688443
Si Si3 0.374362 0.804992 0.326501
Si Si4 0.604972 0.469140 0.893785
O O1 0.720754 0.089303 0.432097
O O2 0.587171 0.148878 0.593863
O O3 0.366174 0.060973 0.576319
O O4 0.866771 0.068299 0.631145
O O5 0.394553 0.590093 0.778982
O O6 0.174295 0.513345 0.688649
O O7 0.590215 0.808519 0.229959
O O8 0.401686 0.750000 0.376725
O O9 0.500000 0.500000 0.000000
#
# Coordination Sequence:
#
# PCOD9464021 Si02
#       4
#     8   8   8   8
#     4  11  21  36  56  78 108 144 182 221 268 323
#     4  11  21  33  50  76 111 145 175 210 254 311
#     4  10  22  39  59  83 107 135 178 232 285 327
#     4  10  20  34  50  75 108 144 182 217 253 307
#
# _framework density 19.157861
#
# number of rings (size 3 to 8) (size 9 to 14) (size 15 to 20)
#    0.000    1.500    0.000    9.000    0.000    6.000 
#    0.000    0.000    0.000    1.500    0.000    0.000 
#    0.000    0.000    0.000    0.000    0.000    0.000 
#
# Total GULP energy -178785.673521 kJ/mol
# GULP energy per Si atom -5587.052298 kJ/mol
# Density = 1.911426 g / cm^3
# Si number density = 19.157861 Si / 1000 Ang^3
#
#
#
# Elastic Constant Matrix: (Units=GPa)
#
#
# Indices 1 2 3 4 5 6 
#
# 1 98.3692 26.0520 10.7540 0.0000 0.0000 0.0000
# 2 26.0520 115.9514 21.3712 0.0000 0.0000 0.0000
# 3 10.7540 21.3712 32.2809 0.0000 0.0000 0.0000
# 4 0.0000 0.0000 0.0000 28.3139 0.0000 0.0000
# 5 0.0000 0.0000 0.0000 0.0000 21.4025 0.0000
# 6 0.0000 0.0000 0.0000 0.0000 0.0000 21.3277
#
#
#
# Elastic Compliance Matrix: (Units=1/GPa)
#
#
# Indices 1 2 3 4 5 6 
#
# 1 0.010957 -0.002038 -0.002301 0.000000 0.000000 0.000000
# 2 -0.002038 0.010202 -0.006075 0.000000 0.000000 0.000000
# 3 -0.002301 -0.006075 0.035767 0.000000 0.000000 0.000000
# 4 0.000000 0.000000 0.000000 0.035318 0.000000 0.000000
# 5 0.000000 0.000000 0.000000 0.000000 0.046723 0.000000
# 6 0.000000 0.000000 0.000000 0.000000 0.000000 0.046887
#
#
# Mechanical properties :
#
#
# Convention : Reuss Voigt Hill
#
# Bulk Modulus (GPa) = 27.70276 40.32842 34.01559
# Shear Modulus (GPa) = 22.86076 26.77045 24.81561
#
# Velocity S-wave (km/s) = 3.45814 3.74218 3.60296
# Velocity P-wave (km/s) = 5.51694 6.30620 5.92473
#
# Compressibility (1/GPa) = 0.03609749
#
# Stress axis : x y z
#
# Youngs Moduli (GPa) = 91.26574 98.02141 27.95898
#
# Poissons Ratio (x) = 0.19974 0.06434
# Poissons Ratio (y) = 0.18597 0.16986
# Poissons Ratio (z) = 0.21002 0.59550
#
# Static dielectric constant tensor:
#      x y z
#    x 1.697850 0.000000 0.000000 
#    y 0.000000 1.661440 0.000000 
#    z 0.000000 0.000000 1.703380 
# 
# From -- ./inp_files/10666.got.cif
#   From: 2010.05.17/outbox.cif.g08.bks.cpg/sg62_6_cif.got.tgz:10666.got - 2010.06.03 15:25:27.
