data_PCOD9464866
_publ_section_title
;
Structure prediction by ZEFSAII (Michael W. Deem and Ramdas Pophale) SiO2 
 PCOD9464866
Probable space group: P N M A
;
_chemical_formula_sum "Si O2"
_cell_formula_units_Z 48
_cell_length_a 8.170440
_cell_length_b 7.705608
_cell_length_c 28.960358
_cell_angle_alpha 90.000000
_cell_angle_beta 90.000000
_cell_angle_gamma 90.000000
_cell_volume 1823.292238
_symmetry_space_group_name_H-M "P N M A"
_symmetry_group_IT_number 62
_symmetry_cell_setting 'orthorhombic'
loop_
_space_group_symop_operation_xyz
x,y,z
1/2-x,-y,1/2+z
1/2+x,1/2-y,1/2-z
-x,1/2+y,-z
-x,-y,-z
1/2+x,y,1/2-z
1/2-x,1/2+y,1/2+z
x,1/2-y,z
loop_
_atom_site_type_symbol
_atom_site_label
_atom_site_fract_x
_atom_site_fract_y
_atom_site_fract_z
Si Si1 0.554962 0.453801 0.571691
Si Si2 0.555032 0.047937 0.904815
Si Si3 0.252396 0.538518 0.012510
Si Si4 0.767843 0.552413 0.822388
Si Si5 0.753968 0.962470 0.153518
Si Si6 0.046011 0.544705 0.263988
O O1 0.522572 0.250000 0.576542
O O2 0.404731 0.526106 0.542540
O O3 0.714145 0.474314 0.538654
O O4 0.595588 0.524995 0.622300
O O5 0.519542 0.250000 0.911579
O O6 0.599176 0.975495 0.955155
O O7 0.404020 0.975674 0.876085
O O8 0.710274 0.038410 0.869636
O O9 0.253721 0.750000 0.011081
O O10 0.799133 0.750000 0.833605
O O11 0.608313 0.540619 0.788730
O O12 0.912382 0.482803 0.789520
O O13 0.761157 0.750000 0.153369
O O14 0.704660 0.009713 0.205337
O O15 0.019731 0.750000 0.270594
#
# Coordination Sequence:
#
# PCOD9464866 Si02
#       6
#     8   8   8   8   8   8
#     4   9  17  31  49  70  97 127 161 206 256 300
#     4   9  18  34  52  70  97 134 173 208 249 309
#     4   9  18  31  48  71  98 129 166 206 249 305
#     4  11  22  36  54  81 112 137 171 223 274 312
#     4   8  16  31  51  72  94 126 169 210 245 296
#     4  10  20  37  58  78 104 142 182 215 259 322
#
# _framework density 26.326001999999999
#
# number of rings (size 3 to 8) (size 9 to 14) (size 15 to 20)
#    0.000    2.667    0.000    3.000    0.000    2.667 
#    0.000    7.500    0.000    0.000    0.000    0.000 
#    0.000    0.000    0.000    0.000    0.000    0.000 
#
# Total GULP energy -268266.102018 kJ/mol
# GULP energy per Si atom -5588.877125 kJ/mol
# Density = 2.626608 g / cm^3
# Si number density = 26.326002 Si / 1000 Ang^3
#
#
#
# Elastic Constant Matrix: (Units=GPa)
#
#
# Indices 1 2 3 4 5 6 
#
# 1 47.0740 2.4570 17.4272 0.0000 0.0000 0.0000
# 2 2.4570 68.5214 -4.3980 0.0000 0.0000 0.0000
# 3 17.4272 -4.3980 177.2240 0.0000 0.0000 0.0000
# 4 0.0000 0.0000 0.0000 18.3303 0.0000 0.0000
# 5 0.0000 0.0000 0.0000 0.0000 55.3270 0.0000
# 6 0.0000 0.0000 0.0000 0.0000 0.0000 15.9555
#
#
#
# Elastic Compliance Matrix: (Units=1/GPa)
#
#
# Indices 1 2 3 4 5 6 
#
# 1 0.022105 -0.000934 -0.002197 0.000000 0.000000 0.000000
# 2 -0.000934 0.014657 0.000456 0.000000 0.000000 0.000000
# 3 -0.002197 0.000456 0.005870 0.000000 0.000000 0.000000
# 4 0.000000 0.000000 0.000000 0.054555 0.000000 0.000000
# 5 0.000000 0.000000 0.000000 0.000000 0.018074 0.000000
# 6 0.000000 0.000000 0.000000 0.000000 0.000000 0.062674
#
#
# Mechanical properties :
#
#
# Convention : Reuss Voigt Hill
#
# Bulk Modulus (GPa) = 26.82270 35.97686 31.39978
# Shear Modulus (GPa) = 25.54771 36.41144 30.97958
#
# Velocity S-wave (km/s) = 3.11856 3.72304 3.43413
# Velocity P-wave (km/s) = 4.81436 5.67247 5.26094
#
# Compressibility (1/GPa) = 0.03728186
#
# Stress axis : x y z
#
# Youngs Moduli (GPa) = 45.23821 68.22822 170.36032
#
# Poissons Ratio (x) = 0.06370 0.37426
# Poissons Ratio (y) = 0.04224 -0.07760
# Poissons Ratio (z) = 0.09938 -0.03108
#
# Static dielectric constant tensor:
#      x y z
#    x 2.212250 0.000000 0.000000 
#    y 0.000000 1.948210 0.000000 
#    z 0.000000 0.000000 2.055210 
# 
# From -- ./inp_files/32024.got.cif
#   From: 2010.05.17/outbox.cif.g08.bks.cpg/sg62_17_cif.got.tgz:32024.got - 2010.06.03 15:25:27.
