data_PCOD9464708
_publ_section_title
;
Structure prediction by ZEFSAII (Michael W. Deem and Ramdas Pophale) SiO2 
 PCOD9464708
Probable space group: P N M A
;
_chemical_formula_sum "Si O2"
_cell_formula_units_Z 48
_cell_length_a 19.237060
_cell_length_b 7.534237
_cell_length_c 15.080984
_cell_angle_alpha 90.000000
_cell_angle_beta 90.000000
_cell_angle_gamma 90.000000
_cell_volume 2185.786081
_symmetry_space_group_name_H-M "P N M A"
_symmetry_group_IT_number 62
_symmetry_cell_setting 'orthorhombic'
loop_
_space_group_symop_operation_xyz
x,y,z
1/2-x,-y,1/2+z
1/2+x,1/2-y,1/2-z
-x,1/2+y,-z
-x,-y,-z
1/2+x,y,1/2-z
1/2-x,1/2+y,1/2+z
x,1/2-y,z
loop_
_atom_site_type_symbol
_atom_site_label
_atom_site_fract_x
_atom_site_fract_y
_atom_site_fract_z
Si Si1 0.301868 0.543864 0.551406
Si Si2 0.265002 0.467845 0.227930
Si Si3 0.578175 0.958053 0.763735
Si Si4 0.567427 0.461150 0.558977
Si Si5 0.967377 0.962815 0.595704
Si Si6 0.809265 0.534722 0.590980
O O1 0.320513 0.750000 0.565723
O O2 0.283606 0.469092 0.647662
O O3 0.364656 0.466571 0.492910
O O4 0.231673 0.532662 0.494418
O O5 0.265778 0.250000 0.225692
O O6 0.344432 0.530994 0.219492
O O7 0.233770 0.519400 0.322283
O O8 0.582688 0.750000 0.786073
O O9 0.518022 0.032885 0.826944
O O10 0.561973 0.970698 0.659321
O O11 0.500000 0.500000 0.500000
O O12 0.575216 0.250000 0.567764
O O13 0.962388 0.750000 0.607035
O O14 0.888318 0.028825 0.597762
O O15 0.000000 0.000000 0.500000
O O16 0.808898 0.750000 0.586651
#
# Coordination Sequence:
#
# PCOD9464708 Si02
#       6
#     8   8   8   8   8   8
#     4  10  21  38  61  86 113 149 192 238 287 345
#     4   9  18  34  58  83 109 145 188 233 285 343
#     4  10  20  38  62  84 114 157 197 235 290 351
#     4  11  24  39  59  86 118 155 196 243 291 346
#     4  10  22  37  59  87 117 156 197 240 289 347
#     4  10  20  36  58  85 114 146 189 238 287 342
#
# _framework density 21.960063000000002
#
# number of rings (size 3 to 8) (size 9 to 14) (size 15 to 20)
#    0.000    2.000    1.667    1.500    2.333    3.333 
#    0.000    1.667    0.000    0.000    0.000    0.000 
#    0.000    0.000    0.000    0.000    0.000    0.000 
#
# Total GULP energy -268239.613651 kJ/mol
# GULP energy per Si atom -5588.325284 kJ/mol
# Density = 2.191008 g / cm^3
# Si number density = 21.960063 Si / 1000 Ang^3
#
#
#
# Elastic Constant Matrix: (Units=GPa)
#
#
# Indices 1 2 3 4 5 6 
#
# 1 103.0119 -11.8225 -8.3292 0.0000 0.0000 0.0000
# 2 -11.8225 52.2494 -23.7573 0.0000 0.0000 0.0000
# 3 -8.3292 -23.7573 64.1940 0.0000 0.0000 0.0000
# 4 0.0000 0.0000 0.0000 19.8927 0.0000 0.0000
# 5 0.0000 0.0000 0.0000 0.0000 43.5780 0.0000
# 6 0.0000 0.0000 0.0000 0.0000 0.0000 9.3361
#
#
#
# Elastic Compliance Matrix: (Units=1/GPa)
#
#
# Indices 1 2 3 4 5 6 
#
# 1 0.010329 0.003542 0.002651 0.000000 0.000000 0.000000
# 2 0.003542 0.024226 0.009425 0.000000 0.000000 0.000000
# 3 0.002651 0.009425 0.019410 0.000000 0.000000 0.000000
# 4 0.000000 0.000000 0.000000 0.050270 0.000000 0.000000
# 5 0.000000 0.000000 0.000000 0.000000 0.022947 0.000000
# 6 0.000000 0.000000 0.000000 0.000000 0.000000 0.107111
#
#
# Mechanical properties :
#
#
# Convention : Reuss Voigt Hill
#
# Bulk Modulus (GPa) = 11.73670 14.62637 13.18153
# Shear Modulus (GPa) = 21.60241 32.11897 26.86069
#
# Velocity S-wave (km/s) = 3.13982 3.82856 3.50117
# Velocity P-wave (km/s) = 4.30126 5.12042 4.72861
#
# Compressibility (1/GPa) = 0.08520284
#
# Stress axis : x y z
#
# Youngs Moduli (GPa) = 96.81906 41.27768 51.51988
#
# Poissons Ratio (x) = -0.14623 -0.13659
# Poissons Ratio (y) = -0.34298 -0.48560
# Poissons Ratio (z) = -0.25668 -0.38906
#
# Static dielectric constant tensor:
#      x y z
#    x 1.794900 0.000000 0.000000 
#    y 0.000000 1.854490 0.000000 
#    z 0.000000 0.000000 1.712590 
# 
# From -- ./inp_files/19595.got.cif
#   From: 2010.05.17/outbox.cif.g08.bks.cpg/sg62_10_cif.got.tgz:19595.got - 2010.06.03 15:25:27.
