data_PCOD9464899
_publ_section_title
;
Structure prediction by ZEFSAII (Michael W. Deem and Ramdas Pophale) SiO2 
 PCOD9464899
Probable space group: P N M A
;
_chemical_formula_sum "Si O2"
_cell_formula_units_Z 48
_cell_length_a 16.837586
_cell_length_b 8.833580
_cell_length_c 18.192669
_cell_angle_alpha 90.000000
_cell_angle_beta 90.000000
_cell_angle_gamma 90.000000
_cell_volume 2705.907781
_symmetry_space_group_name_H-M "P N M A"
_symmetry_group_IT_number 62
_symmetry_cell_setting 'orthorhombic'
loop_
_space_group_symop_operation_xyz
x,y,z
1/2-x,-y,1/2+z
1/2+x,1/2-y,1/2-z
-x,1/2+y,-z
-x,-y,-z
1/2+x,y,1/2-z
1/2-x,1/2+y,1/2+z
x,1/2-y,z
loop_
_atom_site_type_symbol
_atom_site_label
_atom_site_fract_x
_atom_site_fract_y
_atom_site_fract_z
Si Si1 0.991177 0.068775 0.581250
Si Si2 0.585449 0.568050 0.518149
Si Si3 0.173146 0.070305 0.410803
Si Si4 0.334944 0.070963 0.326983
Si Si5 0.849397 0.929862 0.330132
Si Si6 0.740531 0.069362 0.448786
O O1 0.985629 0.250000 0.576304
O O2 0.068140 0.029714 0.629323
O O3 0.000000 0.000000 0.500000
O O4 0.909851 0.000867 0.612936
O O5 0.500000 0.500000 0.500000
O O6 0.585456 0.750000 0.511208
O O7 0.611746 0.531460 0.601969
O O8 0.654194 0.499772 0.466289
O O9 0.164618 0.250000 0.423694
O O10 0.244165 0.047069 0.353166
O O11 0.202239 0.993743 0.486551
O O12 0.345320 0.250000 0.312330
O O13 0.353023 0.978010 0.254386
O O14 0.838113 0.750000 0.337289
O O15 0.778430 0.013840 0.372712
O O16 0.737442 0.250000 0.451957
#
# Coordination Sequence:
#
# PCOD9464899 Si02
#       6
#     8   8   8   8   8   8
#     4  11  22  35  57  87 118 154 194 237 287 345
#     4  10  21  40  64  89 117 152 198 245 288 344
#     4  10  20  37  59  84 114 149 192 237 283 344
#     4   9  21  40  60  83 115 154 192 237 293 345
#     4  11  23  38  57  85 120 153 193 243 292 345
#     4  11  21  35  60  86 113 152 193 234 288 347
#
# _framework density 17.738962999999998
#
# number of rings (size 3 to 8) (size 9 to 14) (size 15 to 20)
#    0.000    1.667    1.667    4.500    0.000    6.000 
#    3.000    0.000    0.000    0.000    0.000    0.000 
#    0.000    0.000    0.000    0.000    0.000    0.000 
#
# Total GULP energy -268151.584663 kJ/mol
# GULP energy per Si atom -5586.491347 kJ/mol
# Density = 1.769859 g / cm^3
# Si number density = 17.738963 Si / 1000 Ang^3
#
#
#
# Elastic Constant Matrix: (Units=GPa)
#
#
# Indices 1 2 3 4 5 6 
#
# 1 150.0299 72.7915 65.6452 0.0000 0.0000 0.0000
# 2 72.7915 94.9634 61.3137 0.0000 0.0000 0.0000
# 3 65.6452 61.3137 93.6752 0.0000 0.0000 0.0000
# 4 0.0000 0.0000 0.0000 32.4261 0.0000 0.0000
# 5 0.0000 0.0000 0.0000 0.0000 15.5438 0.0000
# 6 0.0000 0.0000 0.0000 0.0000 0.0000 35.3934
#
#
#
# Elastic Compliance Matrix: (Units=1/GPa)
#
#
# Indices 1 2 3 4 5 6 
#
# 1 0.011389 -0.006195 -0.003926 0.000000 0.000000 0.000000
# 2 -0.006195 0.021607 -0.009802 0.000000 0.000000 0.000000
# 3 -0.003926 -0.009802 0.019842 0.000000 0.000000 0.000000
# 4 0.000000 0.000000 0.000000 0.030839 0.000000 0.000000
# 5 0.000000 0.000000 0.000000 0.000000 0.064334 0.000000
# 6 0.000000 0.000000 0.000000 0.000000 0.000000 0.028254
#
#
# Mechanical properties :
#
#
# Convention : Reuss Voigt Hill
#
# Bulk Modulus (GPa) = 76.96506 82.01882 79.49194
# Shear Modulus (GPa) = 22.68170 25.93387 24.30778
#
# Velocity S-wave (km/s) = 3.57968 3.82772 3.70578
# Velocity P-wave (km/s) = 7.78250 8.11617 7.95108
#
# Compressibility (1/GPa) = 0.01299291
#
# Stress axis : x y z
#
# Youngs Moduli (GPa) = 87.80502 46.28090 50.39786
#
# Poissons Ratio (x) = 0.28670 0.19788
# Poissons Ratio (y) = 0.54393 0.49398
# Poissons Ratio (z) = 0.34475 0.45362
#
# Static dielectric constant tensor:
#      x y z
#    x 1.604530 0.000000 0.000000 
#    y 0.000000 1.589640 0.000000 
#    z 0.000000 0.000000 1.580400 
# 
# From -- ./inp_files/23709.got.cif
#   From: 2010.05.17/outbox.cif.g08.bks.cpg/sg62_12_cif.got.tgz:23709.got - 2010.06.03 15:25:27.
