data_PCOD9464527
_publ_section_title
;
Structure prediction by ZEFSAII (Michael W. Deem and Ramdas Pophale) SiO2 
 PCOD9464527
Probable space group: P N M A
;
_chemical_formula_sum "Si O2"
_cell_formula_units_Z 64
_cell_length_a 28.449796
_cell_length_b 8.771250
_cell_length_c 12.993178
_cell_angle_alpha 90.000000
_cell_angle_beta 90.000000
_cell_angle_gamma 90.000000
_cell_volume 3242.321187
_symmetry_space_group_name_H-M "P N M A"
_symmetry_group_IT_number 62
_symmetry_cell_setting 'orthorhombic'
loop_
_space_group_symop_operation_xyz
x,y,z
1/2-x,-y,1/2+z
1/2+x,1/2-y,1/2-z
-x,1/2+y,-z
-x,-y,-z
1/2+x,y,1/2-z
1/2-x,1/2+y,1/2+z
x,1/2-y,z
loop_
_atom_site_type_symbol
_atom_site_label
_atom_site_fract_x
_atom_site_fract_y
_atom_site_fract_z
Si Si1 0.589717 0.067447 0.114613
Si Si2 0.802991 0.930871 0.557323
Si Si3 0.880957 0.564616 0.038526
Si Si4 0.435231 0.073433 0.095881
Si Si5 0.940378 0.934417 0.842938
Si Si6 0.462381 0.567794 0.306484
Si Si7 0.712007 0.430548 0.643644
Si Si8 0.675407 0.574146 0.847728
O O1 0.584125 0.250000 0.107743
O O2 0.645193 0.032961 0.101162
O O3 0.574218 0.017588 0.227880
O O4 0.562056 0.994872 0.018579
O O5 0.801553 0.750000 0.538772
O O6 0.760656 0.982168 0.629411
O O7 0.798333 0.021090 0.450505
O O8 0.880419 0.750000 0.039573
O O9 0.915991 0.516817 0.130791
O O10 0.827860 0.516231 0.062301
O O11 0.903617 0.516589 0.930529
O O12 0.449319 0.250000 0.095046
O O13 0.379969 0.062100 0.126649
O O14 0.461247 0.989196 0.188818
O O15 0.942540 0.750000 0.844998
O O16 0.991873 0.000941 0.861684
O O17 0.463693 0.750000 0.307900
O O18 0.719585 0.250000 0.632000
O O19 0.689755 0.467259 0.754135
O O20 0.685806 0.750000 0.822682
#
# Coordination Sequence:
#
# PCOD9464527 Si02
#       8
#     8   8   8   8   8   8   8   8
#     4   9  20  38  59  81 114 155 191 236 295 351
#     4  10  21  37  57  85 116 151 193 239 292 352
#     4   9  20  37  58  83 116 154 192 234 288 350
#     4  10  20  35  59  85 111 146 192 242 285 337
#     4  10  21  39  59  82 113 153 195 235 286 348
#     4  11  21  36  58  86 116 151 192 238 293 347
#     4  11  21  36  59  87 117 153 192 238 291 350
#     4  10  20  36  57  82 111 147 190 241 292 340
#
# _framework density 19.738944
#
# number of rings (size 3 to 8) (size 9 to 14) (size 15 to 20)
#    0.000    2.000    1.250    2.250    0.000    3.500 
#    0.000    4.375    0.000    0.000    0.000    0.000 
#    0.000    0.000    0.000    0.000    0.000    0.000 
#
# Total GULP energy -357464.870825 kJ/mol
# GULP energy per Si atom -5585.388607 kJ/mol
# Density = 1.969402 g / cm^3
# Si number density = 19.738944 Si / 1000 Ang^3
#
#
#
# Elastic Constant Matrix: (Units=GPa)
#
#
# Indices 1 2 3 4 5 6 
#
# 1 49.3213 11.8249 6.2108 0.0000 0.0000 0.0000
# 2 11.8249 24.3580 9.5547 0.0000 0.0000 0.0000
# 3 6.2108 9.5547 84.0259 0.0000 0.0000 0.0000
# 4 0.0000 0.0000 0.0000 22.4819 0.0000 0.0000
# 5 0.0000 0.0000 0.0000 0.0000 20.6262 0.0000
# 6 0.0000 0.0000 0.0000 0.0000 0.0000 25.1654
#
#
#
# Elastic Compliance Matrix: (Units=1/GPa)
#
#
# Indices 1 2 3 4 5 6 
#
# 1 0.022962 -0.010971 -0.000450 0.000000 0.000000 0.000000
# 2 -0.010971 0.048213 -0.004671 0.000000 0.000000 0.000000
# 3 -0.000450 -0.004671 0.012466 0.000000 0.000000 0.000000
# 4 0.000000 0.000000 0.000000 0.044480 0.000000 0.000000
# 5 0.000000 0.000000 0.000000 0.000000 0.048482 0.000000
# 6 0.000000 0.000000 0.000000 0.000000 0.000000 0.039737
#
#
# Mechanical properties :
#
#
# Convention : Reuss Voigt Hill
#
# Bulk Modulus (GPa) = 19.43397 23.65400 21.54398
# Shear Modulus (GPa) = 18.81994 22.32902 20.57448
#
# Velocity S-wave (km/s) = 3.09114 3.36701 3.23202
# Velocity P-wave (km/s) = 4.75468 5.20817 4.98659
#
# Compressibility (1/GPa) = 0.05145630
#
# Stress axis : x y z
#
# Youngs Moduli (GPa) = 43.55000 20.74145 80.22123
#
# Poissons Ratio (x) = 0.22755 0.03608
# Poissons Ratio (y) = 0.47778 0.37475
# Poissons Ratio (z) = 0.01959 0.09689
#
# Static dielectric constant tensor:
#      x y z
#    x 1.700910 0.000000 0.000000 
#    y 0.000000 1.658710 0.000000 
#    z 0.000000 0.000000 1.687020 
# 
# From -- ./inp_files/15750.got.cif
#   From: 2010.05.17/outbox.cif.g08.bks.cpg/sg62_8_cif.got.tgz:15750.got - 2010.06.03 15:25:27.
