data_PCOD9464468
_publ_section_title
;
Structure prediction by ZEFSAII (Michael W. Deem and Ramdas Pophale) SiO2 
 PCOD9464468
Probable space group: P N M A
;
_chemical_formula_sum "Si O2"
_cell_formula_units_Z 56
_cell_length_a 22.325055
_cell_length_b 8.515901
_cell_length_c 15.040278
_cell_angle_alpha 90.000000
_cell_angle_beta 90.000000
_cell_angle_gamma 90.000000
_cell_volume 2859.426944
_symmetry_space_group_name_H-M "P N M A"
_symmetry_group_IT_number 62
_symmetry_cell_setting 'orthorhombic'
loop_
_space_group_symop_operation_xyz
x,y,z
1/2-x,-y,1/2+z
1/2+x,1/2-y,1/2-z
-x,1/2+y,-z
-x,-y,-z
1/2+x,y,1/2-z
1/2-x,1/2+y,1/2+z
x,1/2-y,z
loop_
_atom_site_type_symbol
_atom_site_label
_atom_site_fract_x
_atom_site_fract_y
_atom_site_fract_z
Si Si1 0.724352 0.939167 0.826960
Si Si2 0.352855 0.562354 0.014671
Si Si3 0.861637 0.938597 0.838412
Si Si4 0.961003 0.939414 0.360907
Si Si5 0.905219 0.062188 0.654061
Si Si6 0.068190 0.561167 0.990232
Si Si7 0.383385 0.439420 0.298393
O O1 0.723653 0.750000 0.824369
O O2 0.792940 0.991533 0.823207
O O3 0.679097 0.993952 0.748165
O O4 0.697685 0.994442 0.921076
O O5 0.349131 0.750000 0.014631
O O6 0.414586 0.511300 0.063118
O O7 0.356149 0.501611 0.914632
O O8 0.862725 0.750000 0.842860
O O9 0.896721 0.996875 0.752226
O O10 0.891998 0.005089 0.926943
O O11 0.959853 0.750000 0.356197
O O12 0.028660 0.990493 0.376801
O O13 0.935105 0.005822 0.268988
O O14 0.903006 0.250000 0.654825
O O15 0.065944 0.750000 0.989372
O O16 0.099435 0.507738 0.897624
O O17 0.000000 0.500000 0.000000
O O18 0.381581 0.250000 0.299627
#
# Coordination Sequence:
#
# PCOD9464468 Si02
#       7
#     8   8   8   8   8   8   8
#     4   9  20  40  60  81 111 146 187 233 283 339
#     4  10  20  35  57  84 113 146 185 228 275 332
#     4  11  24  40  58  82 113 149 191 241 291 342
#     4   9  19  34  54  83 115 145 179 223 274 330
#     4  11  22  36  55  81 114 149 184 226 280 338
#     4  11  23  39  60  87 118 154 197 244 296 351
#     4   9  19  36  59  82 107 145 188 231 281 338
#
# _framework density 19.584344999999999
#
# number of rings (size 3 to 8) (size 9 to 14) (size 15 to 20)
#    0.000    2.000    0.000    3.000    0.000    7.429 
#    0.000    1.429    0.000    0.000    0.000    0.000 
#    0.000    0.000    0.000    0.000    0.000    0.000 
#
# Total GULP energy -312665.697625 kJ/mol
# GULP energy per Si atom -5583.316029 kJ/mol
# Density = 1.953977 g / cm^3
# Si number density = 19.584345 Si / 1000 Ang^3
#
#
#
# Elastic Constant Matrix: (Units=GPa)
#
#
# Indices 1 2 3 4 5 6 
#
# 1 55.2125 3.9545 -17.4992 0.0000 0.0000 0.0000
# 2 3.9545 7.9145 -4.7585 0.0000 0.0000 0.0000
# 3 -17.4992 -4.7585 79.9520 0.0000 0.0000 0.0000
# 4 0.0000 0.0000 0.0000 31.8708 0.0000 0.0000
# 5 0.0000 0.0000 0.0000 0.0000 11.6801 0.0000
# 6 0.0000 0.0000 0.0000 0.0000 0.0000 25.0435
#
#
#
# Elastic Compliance Matrix: (Units=1/GPa)
#
#
# Indices 1 2 3 4 5 6 
#
# 1 0.019892 -0.007593 0.003902 0.000000 0.000000 0.000000
# 2 -0.007593 0.133937 0.006310 0.000000 0.000000 0.000000
# 3 0.003902 0.006310 0.013737 0.000000 0.000000 0.000000
# 4 0.000000 0.000000 0.000000 0.031377 0.000000 0.000000
# 5 0.000000 0.000000 0.000000 0.000000 0.085616 0.000000
# 6 0.000000 0.000000 0.000000 0.000000 0.000000 0.039931
#
#
# Mechanical properties :
#
#
# Convention : Reuss Voigt Hill
#
# Bulk Modulus (GPa) = 5.78691 11.83028 8.80859
# Shear Modulus (GPa) = 13.26774 24.47771 18.87272
#
# Velocity S-wave (km/s) = 2.60564 3.53917 3.10766
# Velocity P-wave (km/s) = 3.46609 4.77020 4.16945
#
# Compressibility (1/GPa) = 0.17280384
#
# Stress axis : x y z
#
# Youngs Moduli (GPa) = 50.27050 7.46618 72.79575
#
# Poissons Ratio (x) = 0.05669 -0.28404
# Poissons Ratio (y) = 0.38171 -0.45932
# Poissons Ratio (z) = -0.19615 -0.04711
#
# Static dielectric constant tensor:
#      x y z
#    x 1.709900 0.000000 0.000000 
#    y 0.000000 1.663040 0.000000 
#    z 0.000000 0.000000 1.675730 
# 
# From -- ./inp_files/20224.got.cif
#   From: 2010.05.17/outbox.cif.g08.bks.cpg/sg62_11_cif.got.tgz:20224.got - 2010.06.03 15:25:27.
