data_PCOD9464526
_publ_section_title
;
Structure prediction by ZEFSAII (Michael W. Deem and Ramdas Pophale) SiO2 
 PCOD9464526
Probable space group: P N M A
;
_chemical_formula_sum "Si O2"
_cell_formula_units_Z 64
_cell_length_a 12.995409
_cell_length_b 7.633510
_cell_length_c 29.178664
_cell_angle_alpha 90.000000
_cell_angle_beta 90.000000
_cell_angle_gamma 90.000000
_cell_volume 2894.540525
_symmetry_space_group_name_H-M "P N M A"
_symmetry_group_IT_number 62
_symmetry_cell_setting 'orthorhombic'
loop_
_space_group_symop_operation_xyz
x,y,z
1/2-x,-y,1/2+z
1/2+x,1/2-y,1/2-z
-x,1/2+y,-z
-x,-y,-z
1/2+x,y,1/2-z
1/2-x,1/2+y,1/2+z
x,1/2-y,z
loop_
_atom_site_type_symbol
_atom_site_label
_atom_site_fract_x
_atom_site_fract_y
_atom_site_fract_z
Si Si1 0.494565 0.057380 0.053396
Si Si2 0.281889 0.048061 0.931973
Si Si3 0.709360 0.045627 0.310958
Si Si4 0.890852 0.947845 0.721113
Si Si5 0.426074 0.540322 0.458935
Si Si6 0.930086 0.465953 0.347754
Si Si7 0.307386 0.547961 0.329289
Si Si8 0.017293 0.962754 0.136704
O O1 0.447834 0.250000 0.051156
O O2 0.442829 0.971957 0.099102
O O3 0.614078 0.057527 0.067762
O O4 0.500000 0.000000 0.000000
O O5 0.309230 0.250000 0.943356
O O6 0.191097 0.976956 0.964181
O O7 0.229272 0.048975 0.882112
O O8 0.725920 0.250000 0.299061
O O9 0.642376 0.964784 0.269138
O O10 0.821657 0.978045 0.325129
O O11 0.629377 0.031439 0.352301
O O12 0.927650 0.750000 0.731012
O O13 0.975292 0.022696 0.685566
O O14 0.780210 0.944193 0.696444
O O15 0.500000 0.500000 0.500000
O O16 0.415511 0.750000 0.454055
O O17 0.479172 0.474874 0.412719
O O18 0.933221 0.250000 0.349506
O O19 0.305133 0.750000 0.313097
O O20 0.425039 0.484138 0.328573
O O21 0.019043 0.750000 0.137016
#
# Coordination Sequence:
#
# PCOD9464526 Si02
#       8
#     8   8   8   8   8   8   8   8
#     4  11  22  37  58  82 115 154 195 241 291 346
#     4   9  18  35  55  78 108 142 186 235 286 336
#     4  10  22  37  58  84 114 152 190 231 286 347
#     4  10  20  35  59  85 110 142 186 236 283 338
#     4   9  19  35  56  81 111 148 186 237 289 336
#     4   9  20  39  56  82 120 150 184 241 297 335
#     4   9  18  34  57  80 107 142 180 230 280 332
#     4   9  20  38  55  78 116 149 182 230 283 335
#
# _framework density 22.110589999999998
#
# number of rings (size 3 to 8) (size 9 to 14) (size 15 to 20)
#    0.000    2.500    1.250    1.875    1.750    3.000 
#    0.000    8.125    0.000    0.000    0.000    0.000 
#    0.000    0.000    0.000    0.000    0.000    0.000 
#
# Total GULP energy -356510.236129 kJ/mol
# GULP energy per Si atom -5570.472440 kJ/mol
# Density = 2.206027 g / cm^3
# Si number density = 22.110590 Si / 1000 Ang^3
#
#
#
# Elastic Constant Matrix: (Units=GPa)
#
#
# Indices 1 2 3 4 5 6 
#
# 1 122.8095 0.8043 42.9058 0.0000 0.0000 0.0000
# 2 0.8043 44.6536 6.6611 0.0000 0.0000 0.0000
# 3 42.9058 6.6611 100.8101 0.0000 0.0000 0.0000
# 4 0.0000 0.0000 0.0000 14.6526 0.0000 0.0000
# 5 0.0000 0.0000 0.0000 0.0000 34.0103 0.0000
# 6 0.0000 0.0000 0.0000 0.0000 0.0000 120.9853
#
#
#
# Elastic Compliance Matrix: (Units=1/GPa)
#
#
# Indices 1 2 3 4 5 6 
#
# 1 0.009573 0.000440 -0.004104 0.000000 0.000000 0.000000
# 2 0.000440 0.022638 -0.001683 0.000000 0.000000 0.000000
# 3 -0.004104 -0.001683 0.011777 0.000000 0.000000 0.000000
# 4 0.000000 0.000000 0.000000 0.068247 0.000000 0.000000
# 5 0.000000 0.000000 0.000000 0.000000 0.029403 0.000000
# 6 0.000000 0.000000 0.000000 0.000000 0.000000 0.008265
#
#
# Mechanical properties :
#
#
# Convention : Reuss Voigt Hill
#
# Bulk Modulus (GPa) = 30.03465 41.00175 35.51820
# Shear Modulus (GPa) = 29.12121 48.45644 38.78882
#
# Velocity S-wave (km/s) = 3.63308 4.68648 4.19299
# Velocity P-wave (km/s) = 5.58680 6.91869 6.28811
#
# Compressibility (1/GPa) = 0.03329487
#
# Stress axis : x y z
#
# Youngs Moduli (GPa) = 104.45510 44.17404 84.90847
#
# Poissons Ratio (x) = -0.01942 0.34843
# Poissons Ratio (y) = -0.04593 0.14290
# Poissons Ratio (z) = 0.42865 0.07434
#
# Static dielectric constant tensor:
#      x y z
#    x 1.804770 0.000000 0.000000 
#    y 0.000000 1.872460 0.000000 
#    z 0.000000 0.000000 1.879880 
# 
# From -- ./inp_files/32557.got.cif
#   From: 2010.05.17/outbox.cif.g08.bks.cpg/sg62_17_cif.got.tgz:32557.got - 2010.06.03 15:25:27.
