data_PCOD9464360
_publ_section_title
;
Structure prediction by ZEFSAII (Michael W. Deem and Ramdas Pophale) SiO2 
 PCOD9464360
Probable space group: P N M A
;
_chemical_formula_sum "Si O2"
_cell_formula_units_Z 56
_cell_length_a 20.041606
_cell_length_b 8.965080
_cell_length_c 16.123861
_cell_angle_alpha 90.000000
_cell_angle_beta 90.000000
_cell_angle_gamma 90.000000
_cell_volume 2897.048294
_symmetry_space_group_name_H-M "P N M A"
_symmetry_group_IT_number 62
_symmetry_cell_setting 'orthorhombic'
loop_
_space_group_symop_operation_xyz
x,y,z
1/2-x,-y,1/2+z
1/2+x,1/2-y,1/2-z
-x,1/2+y,-z
-x,-y,-z
1/2+x,y,1/2-z
1/2-x,1/2+y,1/2+z
x,1/2-y,z
loop_
_atom_site_type_symbol
_atom_site_label
_atom_site_fract_x
_atom_site_fract_y
_atom_site_fract_z
Si Si1 0.290728 0.928452 0.868495
Si Si2 0.200535 0.929966 0.706849
Si Si3 0.772745 0.070694 0.954291
Si Si4 0.413126 0.073972 0.796322
Si Si5 0.474202 0.085045 0.419569
Si Si6 0.877214 0.915345 0.864604
Si Si7 0.436606 0.928970 0.257725
O O1 0.296536 0.750000 0.864786
O O2 0.242867 0.970469 0.790433
O O3 0.365371 0.994845 0.862488
O O4 0.258391 0.967997 0.956917
O O5 0.197492 0.750000 0.701899
O O6 0.234044 0.000500 0.624679
O O7 0.126239 0.995851 0.713986
O O8 0.776179 0.250000 0.947048
O O9 0.844670 0.993056 0.943821
O O10 0.411143 0.250000 0.808018
O O11 0.491382 0.032090 0.784701
O O12 0.374730 0.027634 0.711911
O O13 0.444567 0.250000 0.435749
O O14 0.545021 0.106158 0.375263
O O15 0.500000 0.000000 0.500000
O O16 0.434420 0.988266 0.352780
O O17 0.847777 0.750000 0.848095
O O18 0.431856 0.750000 0.257334
#
# Coordination Sequence:
#
# PCOD9464360 Si02
#       7
#     8   8   8   8   8   8   8
#     4  10  23  40  61  89 123 158 200 249 305 363
#     4  11  23  41  63  91 123 160 201 251 305 362
#     4  11  23  39  60  89 121 157 198 249 303 357
#     4  10  20  37  62  88 115 155 202 244 294 355
#     4  10  21  35  53  81 117 156 199 245 297 360
#     4  10  20  35  55  81 115 154 193 238 291 350
#     4  10  22  39  59  86 118 157 202 250 306 365
#
# _framework density 19.330019
#
# number of rings (size 3 to 8) (size 9 to 14) (size 15 to 20)
#    0.000    1.714    1.429    2.571    2.000    5.143 
#    0.000    0.714    0.000    0.000    0.000    0.000 
#    0.000    0.000    0.000    0.000    0.000    0.000 
#
# Total GULP energy -312082.991955 kJ/mol
# GULP energy per Si atom -5572.910571 kJ/mol
# Density = 1.928602 g / cm^3
# Si number density = 19.330019 Si / 1000 Ang^3
#
#
#
# Elastic Constant Matrix: (Units=GPa)
#
#
# Indices 1 2 3 4 5 6 
#
# 1 84.2424 33.5528 19.2223 0.0000 0.0000 0.0000
# 2 33.5528 58.3808 25.3455 0.0000 0.0000 0.0000
# 3 19.2223 25.3455 78.1373 0.0000 0.0000 0.0000
# 4 0.0000 0.0000 0.0000 26.9756 0.0000 0.0000
# 5 0.0000 0.0000 0.0000 0.0000 21.4938 0.0000
# 6 0.0000 0.0000 0.0000 0.0000 0.0000 26.5798
#
#
#
# Elastic Compliance Matrix: (Units=1/GPa)
#
#
# Indices 1 2 3 4 5 6 
#
# 1 0.015471 -0.008426 -0.001073 0.000000 0.000000 0.000000
# 2 -0.008426 0.024525 -0.005882 0.000000 0.000000 0.000000
# 3 -0.001073 -0.005882 0.014970 0.000000 0.000000 0.000000
# 4 0.000000 0.000000 0.000000 0.037071 0.000000 0.000000
# 5 0.000000 0.000000 0.000000 0.000000 0.046525 0.000000
# 6 0.000000 0.000000 0.000000 0.000000 0.000000 0.037623
#
#
# Mechanical properties :
#
#
# Convention : Reuss Voigt Hill
#
# Bulk Modulus (GPa) = 41.31547 41.88910 41.60228
# Shear Modulus (GPa) = 23.25413 24.51914 23.88663
#
# Velocity S-wave (km/s) = 3.47220 3.56539 3.51911
# Velocity P-wave (km/s) = 6.12332 6.21827 6.17098
#
# Compressibility (1/GPa) = 0.02420401
#
# Stress axis : x y z
#
# Youngs Moduli (GPa) = 64.63592 40.77420 66.80009
#
# Poissons Ratio (x) = 0.34356 0.07167
# Poissons Ratio (y) = 0.54462 0.39295
# Poissons Ratio (z) = 0.06935 0.23985
#
# Static dielectric constant tensor:
#      x y z
#    x 1.742300 0.000000 0.000000 
#    y 0.000000 1.691720 0.000000 
#    z 0.000000 0.000000 1.689340 
# 
# From -- ./inp_files/20405.got.cif
#   From: 2010.05.17/outbox.cif.g08.bks.cpg/sg62_11_cif.got.tgz:20405.got - 2010.06.03 15:25:27.
