data_PCOD9464928
_publ_section_title
;
Structure prediction by ZEFSAII (Michael W. Deem and Ramdas Pophale) SiO2 
 PCOD9464928
Probable space group: P N M A
;
_chemical_formula_sum "Si O2"
_cell_formula_units_Z 48
_cell_length_a 24.165973
_cell_length_b 7.666665
_cell_length_c 11.006791
_cell_angle_alpha 90.000000
_cell_angle_beta 90.000000
_cell_angle_gamma 90.000000
_cell_volume 2039.254798
_symmetry_space_group_name_H-M "P N M A"
_symmetry_group_IT_number 62
_symmetry_cell_setting 'orthorhombic'
loop_
_space_group_symop_operation_xyz
x,y,z
1/2-x,-y,1/2+z
1/2+x,1/2-y,1/2-z
-x,1/2+y,-z
-x,-y,-z
1/2+x,y,1/2-z
1/2-x,1/2+y,1/2+z
x,1/2-y,z
loop_
_atom_site_type_symbol
_atom_site_label
_atom_site_fract_x
_atom_site_fract_y
_atom_site_fract_z
Si Si1 0.186440 0.543756 0.777301
Si Si2 0.414112 0.958401 0.429732
Si Si3 0.908466 0.453623 0.801240
Si Si4 0.382635 0.952074 0.042825
Si Si5 0.807807 0.950980 0.670311
Si Si6 0.517991 0.463631 0.808927
O O1 0.189453 0.750000 0.749671
O O2 0.147778 0.516485 0.894289
O O3 0.154256 0.457560 0.665185
O O4 0.248041 0.473246 0.799549
O O5 0.416384 0.750000 0.433102
O O6 0.452026 0.017016 0.317146
O O7 0.429817 0.026484 0.561726
O O8 0.900182 0.250000 0.778636
O O9 0.849758 0.544493 0.783117
O O10 0.954846 0.521001 0.707030
O O11 0.392312 0.750000 0.010338
O O12 0.442313 0.027835 0.082754
O O13 0.344703 0.032426 0.937641
O O14 0.796676 0.750000 0.634622
O O15 0.518159 0.250000 0.812288
#
# Coordination Sequence:
#
# PCOD9464928 Si02
#       6
#     8   8   8   8   8   8
#     4  10  21  37  57  84 113 143 187 236 280 332
#     4  10  20  37  60  84 113 151 188 229 287 336
#     4  11  22  35  55  85 117 147 189 237 278 326
#     4   9  19  39  61  79 108 151 190 227 281 337
#     4  10  23  39  55  81 115 151 187 229 282 338
#     4   8  17  35  58  83 111 147 189 232 277 333
#
# _framework density 23.538008999999999
#
# number of rings (size 3 to 8) (size 9 to 14) (size 15 to 20)
#    0.000    2.333    0.000    3.000    2.333    2.667 
#    0.000    7.500    0.000    0.000    0.000    0.000 
#    0.000    0.000    0.000    0.000    0.000    0.000 
#
# Total GULP energy -268165.137893 kJ/mol
# GULP energy per Si atom -5586.773706 kJ/mol
# Density = 2.348444 g / cm^3
# Si number density = 23.538009 Si / 1000 Ang^3
#
#
#
# Elastic Constant Matrix: (Units=GPa)
#
#
# Indices 1 2 3 4 5 6 
#
# 1 132.8555 4.7181 -3.5434 0.0000 0.0000 0.0000
# 2 4.7181 63.0447 0.2152 0.0000 0.0000 0.0000
# 3 -3.5434 0.2152 65.8011 0.0000 0.0000 0.0000
# 4 0.0000 0.0000 0.0000 18.9241 0.0000 0.0000
# 5 0.0000 0.0000 0.0000 0.0000 26.8725 0.0000
# 6 0.0000 0.0000 0.0000 0.0000 0.0000 10.4541
#
#
#
# Elastic Compliance Matrix: (Units=1/GPa)
#
#
# Indices 1 2 3 4 5 6 
#
# 1 0.007558 -0.000567 0.000409 0.000000 0.000000 0.000000
# 2 -0.000567 0.015904 -0.000083 0.000000 0.000000 0.000000
# 3 0.000409 -0.000083 0.015220 0.000000 0.000000 0.000000
# 4 0.000000 0.000000 0.000000 0.052843 0.000000 0.000000
# 5 0.000000 0.000000 0.000000 0.000000 0.037213 0.000000
# 6 0.000000 0.000000 0.000000 0.000000 0.000000 0.095656
#
#
# Mechanical properties :
#
#
# Convention : Reuss Voigt Hill
#
# Bulk Modulus (GPa) = 26.17756 29.38680 27.78218
# Shear Modulus (GPa) = 21.04300 28.60421 24.82361
#
# Velocity S-wave (km/s) = 2.99323 3.48980 3.25101
# Velocity P-wave (km/s) = 4.80535 5.36193 5.09125
#
# Compressibility (1/GPa) = 0.03820065
#
# Stress axis : x y z
#
# Youngs Moduli (GPa) = 132.30984 62.87534 65.70471
#
# Poissons Ratio (x) = 0.03565 -0.02686
# Poissons Ratio (y) = 0.07502 0.00542
# Poissons Ratio (z) = -0.05409 0.00519
#
# Static dielectric constant tensor:
#      x y z
#    x 1.920240 0.000000 0.000000 
#    y 0.000000 1.881160 0.000000 
#    z 0.000000 0.000000 1.906580 
# 
# From -- ./inp_files/15083.got.cif
#   From: 2010.05.17/outbox.cif.g08.bks.cpg/sg62_8_cif.got.tgz:15083.got - 2010.06.03 15:25:27.
