data_PCOD9464054
_publ_section_title
;
Structure prediction by ZEFSAII (Michael W. Deem and Ramdas Pophale) SiO2 
 PCOD9464054
Probable space group: P N M A
;
_chemical_formula_sum "Si O2"
_cell_formula_units_Z 64
_cell_length_a 11.968542
_cell_length_b 8.089478
_cell_length_c 33.728173
_cell_angle_alpha 90.000000
_cell_angle_beta 90.000000
_cell_angle_gamma 90.000000
_cell_volume 3265.536657
_symmetry_space_group_name_H-M "P N M A"
_symmetry_group_IT_number 62
_symmetry_cell_setting 'orthorhombic'
loop_
_space_group_symop_operation_xyz
x,y,z
1/2-x,-y,1/2+z
1/2+x,1/2-y,1/2-z
-x,1/2+y,-z
-x,-y,-z
1/2+x,y,1/2-z
1/2-x,1/2+y,1/2+z
x,1/2-y,z
loop_
_atom_site_type_symbol
_atom_site_label
_atom_site_fract_x
_atom_site_fract_y
_atom_site_fract_z
Si Si1 0.535646 0.444145 0.798292
Si Si2 0.917903 0.947570 0.442298
Si Si3 0.158350 0.049561 0.471463
Si Si4 0.542517 0.451559 0.363767
Si Si5 0.704033 0.554967 0.863520
Si Si6 0.195308 0.556858 0.334555
Si Si7 0.332017 0.445413 0.410066
Si Si8 0.100258 0.555576 0.788113
O O1 0.517645 0.250000 0.791120
O O2 0.638940 0.469362 0.827728
O O3 0.423998 0.509039 0.820094
O O4 0.559394 0.525766 0.756137
O O5 0.908075 0.750000 0.438737
O O6 0.856607 0.002741 0.482932
O O7 0.864363 0.027293 0.403762
O O8 0.047693 0.991888 0.448288
O O9 0.158165 0.250000 0.471063
O O10 0.268066 0.987814 0.448550
O O11 0.543228 0.250000 0.365952
O O12 0.669221 0.507663 0.368575
O O13 0.451974 0.513058 0.396014
O O14 0.491969 0.495452 0.320756
O O15 0.708499 0.750000 0.854518
O O16 0.182793 0.750000 0.344854
O O17 0.249186 0.469078 0.372613
O O18 0.285594 0.536908 0.299415
O O19 0.347055 0.250000 0.416427
O O20 0.121818 0.750000 0.794120
#
# Coordination Sequence:
#
# PCOD9464054 Si02
#       8
#     8   8   8   8   8   8   8   8
#     4  11  24  38  54  80 110 141 177 225 279 326
#     4  10  20  34  52  81 117 147 178 226 279 325
#     4   9  18  33  57  83 109 144 184 225 275 331
#     4   8  18  36  56  78 104 138 181 227 268 313
#     4  11  22  37  56  79 108 147 187 221 268 331
#     4  10  21  36  53  78 110 138 171 220 273 324
#     4   9  17  34  58  80 102 137 184 228 268 320
#     4  10  21  38  59  80 104 138 183 227 269 323
#
# _framework density 19.598617999999998
#
# number of rings (size 3 to 8) (size 9 to 14) (size 15 to 20)
#    0.000    2.250    0.000    3.375    1.750    5.000 
#    0.000    6.250    0.000    0.000    0.000    0.000 
#    0.000    0.000    0.000    0.000    0.000    0.000 
#
# Total GULP energy -357261.265277 kJ/mol
# GULP energy per Si atom -5582.207270 kJ/mol
# Density = 1.955401 g / cm^3
# Si number density = 19.598618 Si / 1000 Ang^3
#
#
#
# Elastic Constant Matrix: (Units=GPa)
#
#
# Indices 1 2 3 4 5 6 
#
# 1 41.2567 -0.8988 7.1774 0.0000 0.0000 0.0000
# 2 -0.8988 14.5771 -5.6914 0.0000 0.0000 0.0000
# 3 7.1774 -5.6914 47.9904 0.0000 0.0000 0.0000
# 4 0.0000 0.0000 0.0000 17.0789 0.0000 0.0000
# 5 0.0000 0.0000 0.0000 0.0000 14.3555 0.0000
# 6 0.0000 0.0000 0.0000 0.0000 0.0000 11.4255
#
#
#
# Elastic Compliance Matrix: (Units=1/GPa)
#
#
# Indices 1 2 3 4 5 6 
#
# 1 0.024886 0.000085 -0.003712 0.000000 0.000000 0.000000
# 2 0.000085 0.071932 0.008518 0.000000 0.000000 0.000000
# 3 -0.003712 0.008518 0.022403 0.000000 0.000000 0.000000
# 4 0.000000 0.000000 0.000000 0.058552 0.000000 0.000000
# 5 0.000000 0.000000 0.000000 0.000000 0.069660 0.000000
# 6 0.000000 0.000000 0.000000 0.000000 0.000000 0.087523
#
#
# Mechanical properties :
#
#
# Convention : Reuss Voigt Hill
#
# Bulk Modulus (GPa) = 7.75172 11.66650 9.70911
# Shear Modulus (GPa) = 13.58052 15.45444 14.51748
#
# Velocity S-wave (km/s) = 2.63522 2.81116 2.72461
# Velocity P-wave (km/s) = 3.63634 4.06232 3.85522
#
# Compressibility (1/GPa) = 0.12900363
#
# Stress axis : x y z
#
# Youngs Moduli (GPa) = 40.18306 13.90202 44.63719
#
# Poissons Ratio (x) = -0.00118 0.16569
# Poissons Ratio (y) = -0.00342 -0.38022
# Poissons Ratio (z) = 0.14915 -0.11842
#
# Static dielectric constant tensor:
#      x y z
#    x 1.690630 0.000000 0.000000 
#    y 0.000000 1.694140 0.000000 
#    z 0.000000 0.000000 1.666440 
# 
# From -- ./inp_files/32511.got.cif
#   From: 2010.05.17/outbox.cif.g08.bks.cpg/sg62_17_cif.got.tgz:32511.got - 2010.06.03 15:25:27.
