data_PCOD9464429
_publ_section_title
;
Structure prediction by ZEFSAII (Michael W. Deem and Ramdas Pophale) SiO2 
 PCOD9464429
Probable space group: P N M A
;
_chemical_formula_sum "Si O2"
_cell_formula_units_Z 48
_cell_length_a 15.562756
_cell_length_b 11.054591
_cell_length_c 13.954342
_cell_angle_alpha 90.000000
_cell_angle_beta 90.000000
_cell_angle_gamma 90.000000
_cell_volume 2400.703636
_symmetry_space_group_name_H-M "P N M A"
_symmetry_group_IT_number 62
_symmetry_cell_setting 'orthorhombic'
loop_
_space_group_symop_operation_xyz
x,y,z
1/2-x,-y,1/2+z
1/2+x,1/2-y,1/2-z
-x,1/2+y,-z
-x,-y,-z
1/2+x,y,1/2-z
1/2-x,1/2+y,1/2+z
x,1/2-y,z
loop_
_atom_site_type_symbol
_atom_site_label
_atom_site_fract_x
_atom_site_fract_y
_atom_site_fract_z
Si Si1 0.917019 0.959278 0.252639
Si Si2 0.067487 0.109612 0.348574
Si Si3 0.760344 0.616153 0.957764
Si Si4 0.450688 0.884452 0.456473
Si Si5 0.858736 0.616308 0.457854
Si Si6 0.252223 0.612026 0.769855
O O1 0.950787 0.891756 0.158931
O O2 0.888042 0.887462 0.347592
O O3 0.833531 0.034663 0.218748
O O4 0.991915 0.043900 0.294029
O O5 0.065365 0.250000 0.319834
O O6 0.065161 0.104846 0.463998
O O7 0.162050 0.062768 0.319626
O O8 0.722519 0.750000 0.982655
O O9 0.702362 0.498651 0.975450
O O10 0.772371 0.615946 0.843224
O O11 0.852127 0.607271 0.008343
O O12 0.483014 0.750000 0.486328
O O13 0.500000 0.000000 0.500000
O O14 0.819442 0.750000 0.476182
O O15 0.237063 0.750000 0.802523
#
# Coordination Sequence:
#
# PCOD9464429 Si02
#       6
#     8   8   8   8   8   8
#     4  11  21  36  58  84 117 157 196 245 301 350
#     4  10  20  35  56  84 118 156 198 243 293 354
#     4   9  19  37  58  82 114 152 196 244 296 353
#     4  11  24  40  59  85 119 158 199 246 297 351
#     4  10  21  37  58  86 119 152 193 245 295 350
#     4   9  18  33  56  85 114 149 197 245 290 350
#
# _framework density 19.994136999999998
#
# number of rings (size 3 to 8) (size 9 to 14) (size 15 to 20)
#    0.000    2.000    0.000    3.500    0.000    4.000 
#    0.000    1.667    0.000    5.000    0.000    0.000 
#    0.000    0.000    0.000    0.000    0.000    0.000 
#
# Total GULP energy -267653.734878 kJ/mol
# GULP energy per Si atom -5576.119477 kJ/mol
# Density = 1.994863 g / cm^3
# Si number density = 19.994137 Si / 1000 Ang^3
#
#
#
# Elastic Constant Matrix: (Units=GPa)
#
#
# Indices 1 2 3 4 5 6 
#
# 1 70.7732 64.5352 25.2667 0.0000 0.0000 0.0000
# 2 64.5352 151.9883 50.2347 0.0000 0.0000 0.0000
# 3 25.2667 50.2347 63.2269 0.0000 0.0000 0.0000
# 4 0.0000 0.0000 0.0000 1.3847 0.0000 0.0000
# 5 0.0000 0.0000 0.0000 0.0000 31.9810 0.0000
# 6 0.0000 0.0000 0.0000 0.0000 0.0000 18.3200
#
#
#
# Elastic Compliance Matrix: (Units=1/GPa)
#
#
# Indices 1 2 3 4 5 6 
#
# 1 0.023235 -0.009217 -0.001962 0.000000 0.000000 0.000000
# 2 -0.009217 0.012579 -0.006311 0.000000 0.000000 0.000000
# 3 -0.001962 -0.006311 0.021614 0.000000 0.000000 0.000000
# 4 0.000000 0.000000 0.000000 0.722157 0.000000 0.000000
# 5 0.000000 0.000000 0.000000 0.000000 0.031269 0.000000
# 6 0.000000 0.000000 0.000000 0.000000 0.000000 0.054585
#
#
# Mechanical properties :
#
#
# Convention : Reuss Voigt Hill
#
# Bulk Modulus (GPa) = 44.54717 62.89574 53.72145
# Shear Modulus (GPa) = 5.50721 20.06726 12.78724
#
# Velocity S-wave (km/s) = 1.66144 3.17149 2.53167
# Velocity P-wave (km/s) = 5.09990 6.70347 5.95590
#
# Compressibility (1/GPa) = 0.02244812
#
# Stress axis : x y z
#
# Youngs Moduli (GPa) = 43.03873 79.49770 46.26611
#
# Poissons Ratio (x) = 0.73275 0.09077
# Poissons Ratio (y) = 0.39670 0.29198
# Poissons Ratio (z) = 0.08444 0.50169
#
# Static dielectric constant tensor:
#      x y z
#    x 1.683910 0.000000 0.000000 
#    y 0.000000 1.814900 0.000000 
#    z 0.000000 0.000000 1.736860 
# 
# From -- ./inp_files/18878.got.cif
#   From: 2010.05.17/outbox.cif.g08.bks.cpg/sg62_10_cif.got.tgz:18878.got - 2010.06.03 15:25:27.
