data_PCOD9464301
_publ_section_title
;
Structure prediction by ZEFSAII (Michael W. Deem and Ramdas Pophale) SiO2 
 PCOD9464301
Probable space group: P N M A
;
_chemical_formula_sum "Si O2"
_cell_formula_units_Z 40
_cell_length_a 12.796704
_cell_length_b 9.124451
_cell_length_c 21.499538
_cell_angle_alpha 90.000000
_cell_angle_beta 90.000000
_cell_angle_gamma 90.000000
_cell_volume 2510.348376
_symmetry_space_group_name_H-M "P N M A"
_symmetry_group_IT_number 62
_symmetry_cell_setting 'orthorhombic'
loop_
_space_group_symop_operation_xyz
x,y,z
1/2-x,-y,1/2+z
1/2+x,1/2-y,1/2-z
-x,1/2+y,-z
-x,-y,-z
1/2+x,y,1/2-z
1/2-x,1/2+y,1/2+z
x,1/2-y,z
loop_
_atom_site_type_symbol
_atom_site_label
_atom_site_fract_x
_atom_site_fract_y
_atom_site_fract_z
Si Si1 0.314636 0.075015 0.838789
Si Si2 0.997120 0.425917 0.566721
Si Si3 0.166322 0.074740 0.668878
Si Si4 0.101882 0.577196 0.199345
Si Si5 0.109649 0.575641 0.798959
O O1 0.295043 0.250000 0.841355
O O2 0.394426 0.033896 0.893248
O O3 0.370058 0.047777 0.771953
O O4 0.205781 0.989583 0.838383
O O5 0.996565 0.250000 0.559790
O O6 0.000000 0.500000 0.500000
O O7 0.097250 0.464028 0.609371
O O8 0.153040 0.250000 0.680938
O O9 0.290147 0.047938 0.663042
O O10 0.126872 0.989251 0.729534
O O11 0.076988 0.750000 0.194361
O O12 0.002874 0.483023 0.179695
O O13 0.113187 0.750000 0.798027
#
# Coordination Sequence:
#
# PCOD9464301 Si02
#       5
#     8   8   8   8   8
#     4   9  18  33  51  69  97 136 173 199 238 305
#     4  10  20  35  54  75 100 133 170 208 246 294
#     4   9  18  34  51  69  97 135 173 199 238 304
#     4   9  16  30  52  71  95 131 167 202 241 301
#     4  11  20  28  46  76 107 128 155 209 261 293
#
# _framework density 15.934044999999999
#
# number of rings (size 3 to 8) (size 9 to 14) (size 15 to 20)
#    0.000    2.400    2.000    3.000    0.000    4.800 
#    0.000    0.000    0.000    1.200    0.000    0.000 
#    0.000    0.000    0.000    0.000    0.000    0.000 
#
# Total GULP energy -223058.775045 kJ/mol
# GULP energy per Si atom -5576.469376 kJ/mol
# Density = 1.589778 g / cm^3
# Si number density = 15.934045 Si / 1000 Ang^3
#
#
#
# Elastic Constant Matrix: (Units=GPa)
#
#
# Indices 1 2 3 4 5 6 
#
# 1 158.5516 72.4060 68.7071 0.0000 0.0000 0.0000
# 2 72.4060 53.1603 35.1638 0.0000 0.0000 0.0000
# 3 68.7071 35.1638 94.6862 0.0000 0.0000 0.0000
# 4 0.0000 0.0000 0.0000 24.1975 0.0000 0.0000
# 5 0.0000 0.0000 0.0000 0.0000 18.8620 0.0000
# 6 0.0000 0.0000 0.0000 0.0000 0.0000 6.4818
#
#
#
# Elastic Compliance Matrix: (Units=1/GPa)
#
#
# Indices 1 2 3 4 5 6 
#
# 1 0.018564 -0.021707 -0.005409 0.000000 0.000000 0.000000
# 2 -0.021707 0.050318 -0.002936 0.000000 0.000000 0.000000
# 3 -0.005409 -0.002936 0.015577 0.000000 0.000000 0.000000
# 4 0.000000 0.000000 0.000000 0.041327 0.000000 0.000000
# 5 0.000000 0.000000 0.000000 0.000000 0.053017 0.000000
# 6 0.000000 0.000000 0.000000 0.000000 0.000000 0.154277
#
#
# Mechanical properties :
#
#
# Convention : Reuss Voigt Hill
#
# Bulk Modulus (GPa) = 41.05890 73.21689 57.13789
# Shear Modulus (GPa) = 12.45946 18.58301 15.52123
#
# Velocity S-wave (km/s) = 2.79935 3.41874 3.12443
# Velocity P-wave (km/s) = 6.02266 7.85070 6.99664
#
# Compressibility (1/GPa) = 0.02435526
#
# Stress axis : x y z
#
# Youngs Moduli (GPa) = 53.86765 19.87351 64.19878
#
# Poissons Ratio (x) = 0.43139 0.34727
# Poissons Ratio (y) = 1.16929 0.18847
# Poissons Ratio (z) = 0.29139 0.05834
#
# Static dielectric constant tensor:
#      x y z
#    x 1.556780 0.000000 0.000000 
#    y 0.000000 1.526180 0.000000 
#    z 0.000000 0.000000 1.498870 
# 
# From -- ./inp_files/22773.got.cif
#   From: 2010.05.17/outbox.cif.g08.bks.cpg/sg62_12_cif.got.tgz:22773.got - 2010.06.03 15:25:27.
