data_PCOD9464733
_publ_section_title
;
Structure prediction by ZEFSAII (Michael W. Deem and Ramdas Pophale) SiO2 
 PCOD9464733
Probable space group: P N M A
;
_chemical_formula_sum "Si O2"
_cell_formula_units_Z 64
_cell_length_a 12.648800
_cell_length_b 8.688877
_cell_length_c 29.173546
_cell_angle_alpha 90.000000
_cell_angle_beta 90.000000
_cell_angle_gamma 90.000000
_cell_volume 3206.285531
_symmetry_space_group_name_H-M "P N M A"
_symmetry_group_IT_number 62
_symmetry_cell_setting 'orthorhombic'
loop_
_space_group_symop_operation_xyz
x,y,z
1/2-x,-y,1/2+z
1/2+x,1/2-y,1/2-z
-x,1/2+y,-z
-x,-y,-z
1/2+x,y,1/2-z
1/2-x,1/2+y,1/2+z
x,1/2-y,z
loop_
_atom_site_type_symbol
_atom_site_label
_atom_site_fract_x
_atom_site_fract_y
_atom_site_fract_z
Si Si1 0.868168 0.930464 0.815877
Si Si2 0.916947 0.066863 0.909297
Si Si3 0.168107 0.563265 0.375779
Si Si4 0.355167 0.562895 0.438344
Si Si5 0.938670 0.934291 0.713454
Si Si6 0.234784 0.566442 0.529430
Si Si7 0.355663 0.926871 0.171798
Si Si8 0.536407 0.072795 0.928465
O O1 0.889555 0.750000 0.822613
O O2 0.899374 0.972694 0.764238
O O3 0.744593 0.965649 0.822224
O O4 0.925246 0.025181 0.855848
O O5 0.906895 0.250000 0.914682
O O6 0.023925 0.011004 0.934295
O O7 0.812450 0.990257 0.930241
O O8 0.159129 0.750000 0.372260
O O9 0.283160 0.522098 0.394697
O O10 0.138567 0.491145 0.327106
O O11 0.079699 0.514797 0.413752
O O12 0.358057 0.750000 0.439977
O O13 0.292248 0.509737 0.483226
O O14 0.950496 0.750000 0.709858
O O15 0.049489 0.016918 0.703705
O O16 0.233448 0.750000 0.528906
O O17 0.114729 0.511033 0.536674
O O18 0.325772 0.750000 0.181236
O O19 0.401356 0.932189 0.120218
O O20 0.525356 0.250000 0.943036
#
# Coordination Sequence:
#
# PCOD9464733 Si02
#       8
#     8   8   8   8   8   8   8   8
#     4  11  23  38  58  85 116 150 190 240 293 345
#     4  11  22  38  59  83 115 151 198 247 290 347
#     4   9  19  39  61  81 113 154 197 241 289 345
#     4   9  21  39  58  83 116 155 195 243 293 345
#     4  10  22  38  57  85 119 150 186 235 293 350
#     4  11  21  35  58  85 115 153 194 239 297 349
#     4  10  20  36  59  83 111 148 189 236 284 337
#     4   9  18  33  56  84 112 143 187 241 283 333
#
# _framework density 19.960794
#
# number of rings (size 3 to 8) (size 9 to 14) (size 15 to 20)
#    0.000    2.000    1.250    3.000    0.000    5.500 
#    0.000    6.875    0.000    0.000    0.000    0.000 
#    0.000    0.000    0.000    0.000    0.000    0.000 
#
# Total GULP energy -357378.324548 kJ/mol
# GULP energy per Si atom -5584.036321 kJ/mol
# Density = 1.991536 g / cm^3
# Si number density = 19.960794 Si / 1000 Ang^3
#
#
#
# Elastic Constant Matrix: (Units=GPa)
#
#
# Indices 1 2 3 4 5 6 
#
# 1 44.2146 -6.2653 -7.2253 0.0000 0.0000 0.0000
# 2 -6.2653 21.9641 2.3663 0.0000 0.0000 0.0000
# 3 -7.2253 2.3663 52.8039 0.0000 0.0000 0.0000
# 4 0.0000 0.0000 0.0000 26.8089 0.0000 0.0000
# 5 0.0000 0.0000 0.0000 0.0000 24.0307 0.0000
# 6 0.0000 0.0000 0.0000 0.0000 0.0000 19.4223
#
#
#
# Elastic Compliance Matrix: (Units=1/GPa)
#
#
# Indices 1 2 3 4 5 6 
#
# 1 0.024032 0.006533 0.002996 0.000000 0.000000 0.000000
# 2 0.006533 0.047525 -0.001236 0.000000 0.000000 0.000000
# 3 0.002996 -0.001236 0.019403 0.000000 0.000000 0.000000
# 4 0.000000 0.000000 0.000000 0.037301 0.000000 0.000000
# 5 0.000000 0.000000 0.000000 0.000000 0.041613 0.000000
# 6 0.000000 0.000000 0.000000 0.000000 0.000000 0.051487
#
#
# Mechanical properties :
#
#
# Convention : Reuss Voigt Hill
#
# Bulk Modulus (GPa) = 9.29840 10.74822 10.02331
# Shear Modulus (GPa) = 20.77909 22.72617 21.75263
#
# Velocity S-wave (km/s) = 3.22995 3.37789 3.30474
# Velocity P-wave (km/s) = 4.31028 4.53981 4.42653
#
# Compressibility (1/GPa) = 0.10754537
#
# Stress axis : x y z
#
# Youngs Moduli (GPa) = 41.61086 21.04139 51.53768
#
# Poissons Ratio (x) = -0.13745 -0.15439
# Poissons Ratio (y) = -0.27182 0.06370
# Poissons Ratio (z) = -0.12465 0.02600
#
# Static dielectric constant tensor:
#      x y z
#    x 1.697960 0.000000 0.000000 
#    y 0.000000 1.680910 0.000000 
#    z 0.000000 0.000000 1.713970 
# 
# From -- ./inp_files/32571.got.cif
#   From: 2010.05.17/outbox.cif.g08.bks.cpg/sg62_17_cif.got.tgz:32571.got - 2010.06.03 15:25:27.
