data_PCOD9464623
_publ_section_title
;
Structure prediction by ZEFSAII (Michael W. Deem and Ramdas Pophale) SiO2 
 PCOD9464623
Probable space group: P N M A
;
_chemical_formula_sum "Si O2"
_cell_formula_units_Z 64
_cell_length_a 26.664780
_cell_length_b 8.533726
_cell_length_c 15.201721
_cell_angle_alpha 90.000000
_cell_angle_beta 90.000000
_cell_angle_gamma 90.000000
_cell_volume 3459.150494
_symmetry_space_group_name_H-M "P N M A"
_symmetry_group_IT_number 62
_symmetry_cell_setting 'orthorhombic'
loop_
_space_group_symop_operation_xyz
x,y,z
1/2-x,-y,1/2+z
1/2+x,1/2-y,1/2-z
-x,1/2+y,-z
-x,-y,-z
1/2+x,y,1/2-z
1/2-x,1/2+y,1/2+z
x,1/2-y,z
loop_
_atom_site_type_symbol
_atom_site_label
_atom_site_fract_x
_atom_site_fract_y
_atom_site_fract_z
Si Si1 0.670546 0.939717 0.995176
Si Si2 0.444133 0.562286 0.506055
Si Si3 0.000014 0.436853 0.399797
Si Si4 0.394582 0.561651 0.166666
Si Si5 0.864416 0.560061 0.140811
Si Si6 0.864483 0.437410 0.859220
Si Si7 0.714148 0.439414 0.497316
Si Si8 0.105884 0.939624 0.334981
O O1 0.669595 0.750000 0.990405
O O2 0.728388 0.991400 0.996021
O O3 0.640652 0.006537 0.912533
O O4 0.641584 0.985667 0.084108
O O5 0.500000 0.500000 0.500000
O O6 0.443715 0.750000 0.514101
O O7 0.412517 0.520026 0.418820
O O8 0.413680 0.490053 0.587223
O O9 0.998638 0.250000 0.402962
O O10 0.050658 0.493333 0.352360
O O11 0.000000 0.500000 0.500000
O O12 0.950387 0.498625 0.351198
O O13 0.396779 0.750000 0.167865
O O14 0.372293 0.504923 0.259992
O O15 0.861521 0.750000 0.144230
O O16 0.816249 0.506519 0.084420
O O17 0.860549 0.250000 0.860932
O O18 0.817469 0.506343 0.912694
O O19 0.870933 0.488766 0.758412
O O20 0.713555 0.250000 0.498178
O O21 0.102098 0.750000 0.334658
#
# Coordination Sequence:
#
# PCOD9464623 Si02
#       8
#     8   8   8   8   8   8   8   8
#     4  10  21  38  60  84 113 152 195 239 290 344
#     4  10  20  36  56  81 112 150 191 236 290 345
#     4  12  24  39  59  84 117 154 192 237 292 343
#     4  11  22  37  59  87 116 150 193 238 286 344
#     4   8  18  36  57  80 111 149 189 230 279 343
#     4  10  21  37  58  85 115 151 193 239 288 343
#     4   9  19  39  62  83 113 153 192 238 294 344
#     4  10  22  39  59  84 117 156 197 235 284 348
#
# _framework density 18.501652
#
# number of rings (size 3 to 8) (size 9 to 14) (size 15 to 20)
#    0.000    2.000    1.250    3.000    1.750    2.500 
#    0.000    8.125    0.000    0.000    0.000    0.000 
#    0.000    0.000    0.000    0.000    0.000    0.000 
#
# Total GULP energy -357370.061267 kJ/mol
# GULP energy per Si atom -5583.907207 kJ/mol
# Density = 1.845954 g / cm^3
# Si number density = 18.501652 Si / 1000 Ang^3
#
#
#
# Elastic Constant Matrix: (Units=GPa)
#
#
# Indices 1 2 3 4 5 6 
#
# 1 189.3067 33.3234 96.6768 0.0000 0.0000 0.0000
# 2 33.3234 29.4273 32.9350 0.0000 0.0000 0.0000
# 3 96.6768 32.9350 190.0150 0.0000 0.0000 0.0000
# 4 0.0000 0.0000 0.0000 25.6747 0.0000 0.0000
# 5 0.0000 0.0000 0.0000 0.0000 0.1513 0.0000
# 6 0.0000 0.0000 0.0000 0.0000 0.0000 28.3303
#
#
#
# Elastic Compliance Matrix: (Units=1/GPa)
#
#
# Indices 1 2 3 4 5 6 
#
# 1 0.007779 -0.005433 -0.003016 0.000000 0.000000 0.000000
# 2 -0.005433 0.045956 -0.005201 0.000000 0.000000 0.000000
# 3 -0.003016 -0.005201 0.007699 0.000000 0.000000 0.000000
# 4 0.000000 0.000000 0.000000 0.038949 0.000000 0.000000
# 5 0.000000 0.000000 0.000000 0.000000 6.610159 0.000000
# 6 0.000000 0.000000 0.000000 0.000000 0.000000 0.035298
#
#
# Mechanical properties :
#
#
# Convention : Reuss Voigt Hill
#
# Bulk Modulus (GPa) = 29.29748 81.62437 55.46093
# Shear Modulus (GPa) = 0.73697 27.21885 13.97791
#
# Velocity S-wave (km/s) = 0.63182 3.83973 2.75161
# Velocity P-wave (km/s) = 4.04990 7.99194 6.33533
#
# Compressibility (1/GPa) = 0.03413262
#
# Stress axis : x y z
#
# Youngs Moduli (GPa) = 128.54800 21.76001 129.89021
#
# Poissons Ratio (x) = 0.11823 0.39177
# Poissons Ratio (y) = 0.69846 0.67556
# Poissons Ratio (z) = 0.38772 0.11317
#
# Static dielectric constant tensor:
#      x y z
#    x 1.609600 0.000000 0.000000 
#    y 0.000000 1.637130 0.000000 
#    z 0.000000 0.000000 1.628470 
# 
# From -- ./inp_files/20932.got.cif
#   From: 2010.05.17/outbox.cif.g08.bks.cpg/sg62_11_cif.got.tgz:20932.got - 2010.06.03 15:25:27.
