data_PCOD9464104
_publ_section_title
;
Structure prediction by ZEFSAII (Michael W. Deem and Ramdas Pophale) SiO2 
 PCOD9464104
Probable space group: P N M A
;
_chemical_formula_sum "Si O2"
_cell_formula_units_Z 48
_cell_length_a 23.378891
_cell_length_b 7.509368
_cell_length_c 12.238967
_cell_angle_alpha 90.000000
_cell_angle_beta 90.000000
_cell_angle_gamma 90.000000
_cell_volume 2148.681564
_symmetry_space_group_name_H-M "P N M A"
_symmetry_group_IT_number 62
_symmetry_cell_setting 'orthorhombic'
loop_
_space_group_symop_operation_xyz
x,y,z
1/2-x,-y,1/2+z
1/2+x,1/2-y,1/2-z
-x,1/2+y,-z
-x,-y,-z
1/2+x,y,1/2-z
1/2-x,1/2+y,1/2+z
x,1/2-y,z
loop_
_atom_site_type_symbol
_atom_site_label
_atom_site_fract_x
_atom_site_fract_y
_atom_site_fract_z
Si Si1 0.360872 0.041452 0.690826
Si Si2 0.372748 0.966015 0.033420
Si Si3 0.273178 0.535146 0.870174
Si Si4 0.072452 0.957429 0.750018
Si Si5 0.959044 0.546127 0.643728
Si Si6 0.851829 0.031282 0.057835
O O1 0.375152 0.250000 0.687368
O O2 0.357930 0.974556 0.567390
O O3 0.301408 0.021538 0.756078
O O4 0.409521 0.953002 0.764704
O O5 0.373298 0.750000 0.033751
O O6 0.316658 0.022737 0.966630
O O7 0.427748 0.030916 0.962982
O O8 0.379275 0.030145 0.156482
O O9 0.273230 0.750000 0.870809
O O10 0.209258 0.474171 0.893861
O O11 0.059275 0.750000 0.771319
O O12 0.097702 0.030725 0.862237
O O13 0.015463 0.038564 0.696084
O O14 0.973241 0.750000 0.615039
O O15 0.851724 0.250000 0.058511
#
# Coordination Sequence:
#
# PCOD9464104 Si02
#       6
#     8   8   8   8   8   8
#     4  10  20  35  56  79 103 136 178 217 258 311
#     4   9  18  32  52  77 105 139 173 217 270 306
#     4   9  19  37  56  74 106 144 172 212 270 316
#     4  10  20  34  54  79 106 140 180 215 257 315
#     4   9  19  36  55  76 107 143 174 213 267 315
#     4   9  20  36  53  77 109 141 171 216 268 307
#
# _framework density 22.339278
#
# number of rings (size 3 to 8) (size 9 to 14) (size 15 to 20)
#    0.000    2.667    0.000    2.000    2.333    4.000 
#    0.000    3.333    0.000    0.000    0.000    0.000 
#    0.000    0.000    0.000    0.000    0.000    0.000 
#
# Total GULP energy -268069.431999 kJ/mol
# GULP energy per Si atom -5584.779833 kJ/mol
# Density = 2.228843 g / cm^3
# Si number density = 22.339278 Si / 1000 Ang^3
#
#
#
# Elastic Constant Matrix: (Units=GPa)
#
#
# Indices 1 2 3 4 5 6 
#
# 1 49.7345 0.8399 12.7700 0.0000 0.0000 0.0000
# 2 0.8399 64.5530 -9.1616 0.0000 0.0000 0.0000
# 3 12.7700 -9.1616 132.5874 0.0000 0.0000 0.0000
# 4 0.0000 0.0000 0.0000 13.7716 0.0000 0.0000
# 5 0.0000 0.0000 0.0000 0.0000 15.7343 0.0000
# 6 0.0000 0.0000 0.0000 0.0000 0.0000 8.9003
#
#
#
# Elastic Compliance Matrix: (Units=1/GPa)
#
#
# Indices 1 2 3 4 5 6 
#
# 1 0.020636 -0.000556 -0.002026 0.000000 0.000000 0.000000
# 2 -0.000556 0.015660 0.001136 0.000000 0.000000 0.000000
# 3 -0.002026 0.001136 0.007816 0.000000 0.000000 0.000000
# 4 0.000000 0.000000 0.000000 0.072613 0.000000 0.000000
# 5 0.000000 0.000000 0.000000 0.000000 0.063555 0.000000
# 6 0.000000 0.000000 0.000000 0.000000 0.000000 0.112356
#
#
# Mechanical properties :
#
#
# Convention : Reuss Voigt Hill
#
# Bulk Modulus (GPa) = 24.26074 28.41907 26.33991
# Shear Modulus (GPa) = 16.16718 23.84301 20.00509
#
# Velocity S-wave (km/s) = 2.69311 3.27052 2.99576
# Velocity P-wave (km/s) = 4.53367 5.19720 4.87673
#
# Compressibility (1/GPa) = 0.04121885
#
# Stress axis : x y z
#
# Youngs Moduli (GPa) = 48.45816 63.85880 127.94612
#
# Poissons Ratio (x) = 0.03551 0.25922
# Poissons Ratio (y) = 0.02694 -0.14530
# Poissons Ratio (z) = 0.09818 -0.07252
#
# Static dielectric constant tensor:
#      x y z
#    x 1.825100 0.000000 0.000000 
#    y 0.000000 1.842430 0.000000 
#    z 0.000000 0.000000 1.795670 
# 
# From -- ./inp_files/15109.got.cif
#   From: 2010.05.17/outbox.cif.g08.bks.cpg/sg62_8_cif.got.tgz:15109.got - 2010.06.03 15:25:27.
