data_PCOD9464766
_publ_section_title
;
Structure prediction by ZEFSAII (Michael W. Deem and Ramdas Pophale) SiO2 
 PCOD9464766
Probable space group: P N M A
;
_chemical_formula_sum "Si O2"
_cell_formula_units_Z 64
_cell_length_a 33.204850
_cell_length_b 11.108071
_cell_length_c 8.295437
_cell_angle_alpha 90.000000
_cell_angle_beta 90.000000
_cell_angle_gamma 90.000000
_cell_volume 3059.704175
_symmetry_space_group_name_H-M "P N M A"
_symmetry_group_IT_number 62
_symmetry_cell_setting 'orthorhombic'
loop_
_space_group_symop_operation_xyz
x,y,z
1/2-x,-y,1/2+z
1/2+x,1/2-y,1/2-z
-x,1/2+y,-z
-x,-y,-z
1/2+x,y,1/2-z
1/2-x,1/2+y,1/2+z
x,1/2-y,z
loop_
_atom_site_type_symbol
_atom_site_label
_atom_site_fract_x
_atom_site_fract_y
_atom_site_fract_z
Si Si1 0.077651 0.550506 0.301624
Si Si2 0.278775 0.881385 0.603040
Si Si3 0.658321 0.616980 0.011531
Si Si4 0.128782 0.112883 0.065954
Si Si5 0.141973 0.111821 0.695233
Si Si6 0.948723 0.882488 0.430642
Si Si7 0.497809 0.116438 0.615063
Si Si8 0.738405 0.619782 0.228811
O O1 0.115096 0.609714 0.397240
O O2 0.099369 0.460819 0.177487
O O3 0.049600 0.482043 0.431771
O O4 0.046582 0.623092 0.192956
O O5 0.264038 0.750000 0.661967
O O6 0.326144 0.889625 0.637963
O O7 0.271575 0.881045 0.411595
O O8 0.257890 0.999781 0.669194
O O9 0.660332 0.750000 0.930863
O O10 0.662493 0.499392 0.898178
O O11 0.695286 0.614589 0.137401
O O12 0.114659 0.250000 0.061111
O O13 0.133809 0.075275 0.880267
O O14 0.159259 0.250000 0.689926
O O15 0.098540 0.121970 0.611206
O O16 0.961676 0.750000 0.490072
O O17 0.971658 0.904337 0.263849
O O18 0.507167 0.250000 0.544015
O O19 0.500000 0.000000 0.500000
O O20 0.740334 0.750000 0.314334
#
# Coordination Sequence:
#
# PCOD9464766 Si02
#       8
#     8   8   8   8   8   8   8   8
#     4  11  20  37  62  88 116 157 197 249 298 355
#     4  10  22  39  60  87 118 156 205 247 292 357
#     4  10  21  38  57  83 119 157 192 239 297 356
#     4  10  20  36  59  89 119 153 199 252 297 348
#     4   9  19  35  57  84 113 150 196 243 288 340
#     4   9  19  36  58  87 119 153 196 243 294 349
#     4  11  24  41  61  89 123 159 200 245 295 358
#     4  10  22  40  59  85 122 157 194 244 302 354
#
# _framework density 20.917055999999999
#
# number of rings (size 3 to 8) (size 9 to 14) (size 15 to 20)
#    0.000    2.000    1.250    1.875    1.750    3.500 
#    0.000    7.500    0.000    0.000    0.000    0.000 
#    0.000    0.000    0.000    0.000    0.000    0.000 
#
# Total GULP energy -356951.302415 kJ/mol
# GULP energy per Si atom -5577.364100 kJ/mol
# Density = 2.086945 g / cm^3
# Si number density = 20.917056 Si / 1000 Ang^3
#
#
#
# Elastic Constant Matrix: (Units=GPa)
#
#
# Indices 1 2 3 4 5 6 
#
# 1 52.8389 20.2615 0.1091 0.0000 0.0000 0.0000
# 2 20.2615 160.1286 66.2779 0.0000 0.0000 0.0000
# 3 0.1091 66.2779 49.9772 0.0000 0.0000 0.0000
# 4 0.0000 0.0000 0.0000 16.0284 0.0000 0.0000
# 5 0.0000 0.0000 0.0000 0.0000 26.9535 0.0000
# 6 0.0000 0.0000 0.0000 0.0000 0.0000 18.6997
#
#
#
# Elastic Compliance Matrix: (Units=1/GPa)
#
#
# Indices 1 2 3 4 5 6 
#
# 1 0.021170 -0.005896 0.007773 0.000000 0.000000 0.000000
# 2 -0.005896 0.015486 -0.020524 0.000000 0.000000 0.000000
# 3 0.007773 -0.020524 0.047210 0.000000 0.000000 0.000000
# 4 0.000000 0.000000 0.000000 0.062389 0.000000 0.000000
# 5 0.000000 0.000000 0.000000 0.000000 0.037101 0.000000
# 6 0.000000 0.000000 0.000000 0.000000 0.000000 0.053477
#
#
# Mechanical properties :
#
#
# Convention : Reuss Voigt Hill
#
# Bulk Modulus (GPa) = 21.47212 48.47129 34.97170
# Shear Modulus (GPa) = 17.26210 24.08942 20.67576
#
# Velocity S-wave (km/s) = 2.87586 3.39730 3.14740
# Velocity P-wave (km/s) = 4.61682 6.21388 5.47391
#
# Compressibility (1/GPa) = 0.04657203
#
# Stress axis : x y z
#
# Youngs Moduli (GPa) = 47.23622 64.57453 21.18180
#
# Poissons Ratio (x) = 0.38072 -0.16464
# Poissons Ratio (y) = 0.27850 0.43474
# Poissons Ratio (z) = -0.36715 1.32533
#
# Static dielectric constant tensor:
#      x y z
#    x 1.770730 0.000000 0.000000 
#    y 0.000000 1.802680 0.000000 
#    z 0.000000 0.000000 1.740080 
# 
# From -- ./inp_files/10477.got.cif
#   From: 2010.05.17/outbox.cif.g08.bks.cpg/sg62_6_cif.got.tgz:10477.got - 2010.06.03 15:25:27.
