data_PCOD9464557
_publ_section_title
;
Structure prediction by ZEFSAII (Michael W. Deem and Ramdas Pophale) SiO2 
 PCOD9464557
Probable space group: P N M A
;
_chemical_formula_sum "Si O2"
_cell_formula_units_Z 48
_cell_length_a 5.352719
_cell_length_b 14.187296
_cell_length_c 28.022785
_cell_angle_alpha 90.000000
_cell_angle_beta 90.000000
_cell_angle_gamma 90.000000
_cell_volume 2128.067355
_symmetry_space_group_name_H-M "P N M A"
_symmetry_group_IT_number 62
_symmetry_cell_setting 'orthorhombic'
loop_
_space_group_symop_operation_xyz
x,y,z
1/2-x,-y,1/2+z
1/2+x,1/2-y,1/2-z
-x,1/2+y,-z
-x,-y,-z
1/2+x,y,1/2-z
1/2-x,1/2+y,1/2+z
x,1/2-y,z
loop_
_atom_site_type_symbol
_atom_site_label
_atom_site_fract_x
_atom_site_fract_y
_atom_site_fract_z
Si Si1 0.169918 0.910139 0.157174
Si Si2 0.611071 0.999956 0.577990
Si Si3 0.511010 0.849100 0.077948
Si Si4 0.628792 0.750000 0.781014
Si Si5 0.130747 0.643674 0.000960
Si Si6 0.064906 0.250000 0.780831
Si Si7 0.035948 0.953367 0.719644
O O1 0.287403 0.846807 0.115726
O O2 0.988764 0.843949 0.188088
O O3 0.036042 0.992952 0.127273
O O4 0.384722 0.956792 0.188998
O O5 0.506776 0.073785 0.537886
O O6 0.869847 0.050695 0.588469
O O7 0.624895 0.901901 0.551047
O O8 0.654534 0.750000 0.084855
O O9 0.406355 0.852645 0.024273
O O10 0.411775 0.750000 0.739636
O O11 0.580232 0.648734 0.805283
O O12 0.033264 0.750000 0.001146
O O13 0.841333 0.250000 0.741373
O O14 0.253075 0.955421 0.760849
#
# Coordination Sequence:
#
# PCOD9464557 Si02
#       7
#     8   8   8   4   8   4   8
#     4  11  24  37  57  88 121 158 205 261 322 377
#     4  10  21  35  61  87 120 163 202 256 314 381
#     4  10  20  35  60  85 117 159 203 252 308 381
#     4   8  16  34  58  80 101 140 198 241 288 360
#     4   9  19  38  58  89 120 160 206 250 313 382
#     4  12  28  44  64  94 131 172 220 273 328 394
#     4  10  21  38  61  85 115 159 205 255 312 373
#
# _framework density 22.555676999999999
#
# number of rings (size 3 to 8) (size 9 to 14) (size 15 to 20)
#    0.000    2.000    0.833    2.000    7.000    0.000 
#    1.500    0.000    1.833    0.000    0.000    0.000 
#    0.000    0.000    0.000    0.000    0.000    0.000 
#
# Total GULP energy -267619.228815 kJ/mol
# GULP energy per Si atom -5575.400600 kJ/mol
# Density = 2.250434 g / cm^3
# Si number density = 22.555677 Si / 1000 Ang^3
#
#
#
# Elastic Constant Matrix: (Units=GPa)
#
#
# Indices 1 2 3 4 5 6 
#
# 1 54.4981 -1.3739 8.9996 0.0000 0.0000 0.0000
# 2 -1.3739 79.3891 16.6394 0.0000 0.0000 0.0000
# 3 8.9996 16.6394 60.5388 0.0000 0.0000 0.0000
# 4 0.0000 0.0000 0.0000 14.9935 0.0000 0.0000
# 5 0.0000 0.0000 0.0000 0.0000 15.6305 0.0000
# 6 0.0000 0.0000 0.0000 0.0000 0.0000 41.4147
#
#
#
# Elastic Compliance Matrix: (Units=1/GPa)
#
#
# Indices 1 2 3 4 5 6 
#
# 1 0.018881 0.000971 -0.003074 0.000000 0.000000 0.000000
# 2 0.000971 0.013416 -0.003832 0.000000 0.000000 0.000000
# 3 -0.003074 -0.003832 0.018028 0.000000 0.000000 0.000000
# 4 0.000000 0.000000 0.000000 0.066696 0.000000 0.000000
# 5 0.000000 0.000000 0.000000 0.000000 0.063977 0.000000
# 6 0.000000 0.000000 0.000000 0.000000 0.000000 0.024146
#
#
# Mechanical properties :
#
#
# Convention : Reuss Voigt Hill
#
# Bulk Modulus (GPa) = 26.00323 26.99511 26.49917
# Shear Modulus (GPa) = 21.75491 25.75181 23.75336
#
# Velocity S-wave (km/s) = 3.10901 3.38257 3.24867
# Velocity P-wave (km/s) = 4.94382 5.22014 5.08386
#
# Compressibility (1/GPa) = 0.03845676
#
# Stress axis : x y z
#
# Youngs Moduli (GPa) = 52.96239 74.53724 55.46786
#
# Poissons Ratio (x) = -0.07238 0.17049
# Poissons Ratio (y) = -0.05143 0.21254
# Poissons Ratio (z) = 0.16279 0.28561
#
# Static dielectric constant tensor:
#      x y z
#    x 1.950240 0.000000 0.000000 
#    y 0.000000 1.903450 0.000000 
#    z 0.000000 0.000000 1.829330 
# 
# From -- ./inp_files/30421.got.cif
#   From: 2010.05.17/outbox.cif.g08.bks.cpg/sg62_16_cif.got.tgz:30421.got - 2010.06.03 15:25:27.
