data_PCOD9464159
_publ_section_title
;
Structure prediction by ZEFSAII (Michael W. Deem and Ramdas Pophale) SiO2 
 PCOD9464159
Probable space group: P N M A
;
_chemical_formula_sum "Si O2"
_cell_formula_units_Z 64
_cell_length_a 27.995066
_cell_length_b 7.705259
_cell_length_c 13.215445
_cell_angle_alpha 90.000000
_cell_angle_beta 90.000000
_cell_angle_gamma 90.000000
_cell_volume 2850.693521
_symmetry_space_group_name_H-M "P N M A"
_symmetry_group_IT_number 62
_symmetry_cell_setting 'orthorhombic'
loop_
_space_group_symop_operation_xyz
x,y,z
1/2-x,-y,1/2+z
1/2+x,1/2-y,1/2-z
-x,1/2+y,-z
-x,-y,-z
1/2+x,y,1/2-z
1/2-x,1/2+y,1/2+z
x,1/2-y,z
loop_
_atom_site_type_symbol
_atom_site_label
_atom_site_fract_x
_atom_site_fract_y
_atom_site_fract_z
Si Si1 0.443586 0.951358 0.412621
Si Si2 0.213187 0.545100 0.653816
Si Si3 0.163561 0.540456 0.856349
Si Si4 0.185683 0.950469 0.073859
Si Si5 0.119888 0.459796 0.546807
Si Si6 0.418501 0.950956 0.628620
Si Si7 0.563863 0.042781 0.149032
Si Si8 0.037943 0.040362 0.696495
O O1 0.457537 0.750000 0.421083
O O2 0.443346 0.027575 0.526685
O O3 0.468191 0.027834 0.311994
O O4 0.388092 0.960654 0.378028
O O5 0.219126 0.750000 0.666140
O O6 0.188812 0.474739 0.755841
O O7 0.265384 0.472868 0.632816
O O8 0.174215 0.512094 0.566658
O O9 0.157266 0.750000 0.847994
O O10 0.194113 0.502867 0.956543
O O11 0.171090 0.750000 0.076372
O O12 0.138649 0.047782 0.111324
O O13 0.117952 0.250000 0.546846
O O14 0.096849 0.523190 0.441817
O O15 0.085852 0.520254 0.639590
O O16 0.433623 0.750000 0.632127
O O17 0.426814 0.031760 0.738704
O O18 0.572115 0.250000 0.153704
O O19 0.507958 0.010476 0.131346
O O20 0.040135 0.250000 0.702570
#
# Coordination Sequence:
#
# PCOD9464159 Si02
#       8
#     8   8   8   8   8   8   8   8
#     4   9  17  32  56  80 105 138 178 225 271 314
#     4  11  22  36  57  84 109 139 181 227 274 326
#     4   9  19  35  54  77 105 137 175 221 269 318
#     4  10  21  37  57  81 109 143 180 221 274 330
#     4  10  21  38  56  78 110 146 185 228 275 324
#     4   9  19  37  56  78 110 146 183 225 274 326
#     4  10  22  37  55  79 113 153 185 221 274 331
#     4  10  20  34  55  82 109 142 186 233 277 321
#
# _framework density 22.450679000000001
#
# number of rings (size 3 to 8) (size 9 to 14) (size 15 to 20)
#    0.000    2.250    1.250    1.125    0.000    4.500 
#    0.000    5.000    0.000    0.000    0.000    0.000 
#    0.000    0.000    0.000    0.000    0.000    0.000 
#
# Total GULP energy -357359.037433 kJ/mol
# GULP energy per Si atom -5583.734960 kJ/mol
# Density = 2.239958 g / cm^3
# Si number density = 22.450679 Si / 1000 Ang^3
#
#
#
# Elastic Constant Matrix: (Units=GPa)
#
#
# Indices 1 2 3 4 5 6 
#
# 1 69.9454 1.4058 19.3607 0.0000 0.0000 0.0000
# 2 1.4058 43.6902 13.9099 0.0000 0.0000 0.0000
# 3 19.3607 13.9099 109.3113 0.0000 0.0000 0.0000
# 4 0.0000 0.0000 0.0000 8.4060 0.0000 0.0000
# 5 0.0000 0.0000 0.0000 0.0000 33.7498 0.0000
# 6 0.0000 0.0000 0.0000 0.0000 0.0000 19.6783
#
#
#
# Elastic Compliance Matrix: (Units=1/GPa)
#
#
# Indices 1 2 3 4 5 6 
#
# 1 0.015040 0.000380 -0.002712 0.000000 0.000000 0.000000
# 2 0.000380 0.023864 -0.003104 0.000000 0.000000 0.000000
# 3 -0.002712 -0.003104 0.010024 0.000000 0.000000 0.000000
# 4 0.000000 0.000000 0.000000 0.118962 0.000000 0.000000
# 5 0.000000 0.000000 0.000000 0.000000 0.029630 0.000000
# 6 0.000000 0.000000 0.000000 0.000000 0.000000 0.050817
#
#
# Mechanical properties :
#
#
# Convention : Reuss Voigt Hill
#
# Bulk Modulus (GPa) = 26.27790 32.47776 29.37783
# Shear Modulus (GPa) = 18.38943 24.91818 21.65381
#
# Velocity S-wave (km/s) = 2.86510 3.33514 3.10902
# Velocity P-wave (km/s) = 4.76185 5.41559 5.09921
#
# Compressibility (1/GPa) = 0.03805479
#
# Stress axis : x y z
#
# Youngs Moduli (GPa) = 66.48966 41.90332 99.76526
#
# Poissons Ratio (x) = -0.01590 0.27057
# Poissons Ratio (y) = -0.02523 0.30967
# Poissons Ratio (z) = 0.18033 0.13007
#
# Static dielectric constant tensor:
#      x y z
#    x 1.795620 0.000000 0.000000 
#    y 0.000000 1.817840 0.000000 
#    z 0.000000 0.000000 1.893080 
# 
# From -- ./inp_files/15907.got.cif
#   From: 2010.05.17/outbox.cif.g08.bks.cpg/sg62_8_cif.got.tgz:15907.got - 2010.06.03 15:25:27.
