data_PCOD9464500
_publ_section_title
;
Structure prediction by ZEFSAII (Michael W. Deem and Ramdas Pophale) SiO2 
 PCOD9464500
Probable space group: P N M A
;
_chemical_formula_sum "Si O2"
_cell_formula_units_Z 48
_cell_length_a 10.412872
_cell_length_b 8.799566
_cell_length_c 29.804557
_cell_angle_alpha 90.000000
_cell_angle_beta 90.000000
_cell_angle_gamma 90.000000
_cell_volume 2730.954434
_symmetry_space_group_name_H-M "P N M A"
_symmetry_group_IT_number 62
_symmetry_cell_setting 'orthorhombic'
loop_
_space_group_symop_operation_xyz
x,y,z
1/2-x,-y,1/2+z
1/2+x,1/2-y,1/2-z
-x,1/2+y,-z
-x,-y,-z
1/2+x,y,1/2-z
1/2-x,1/2+y,1/2+z
x,1/2-y,z
loop_
_atom_site_type_symbol
_atom_site_label
_atom_site_fract_x
_atom_site_fract_y
_atom_site_fract_z
Si Si1 0.981611 0.431467 0.121724
Si Si2 0.718528 0.933104 0.783376
Si Si3 0.782404 0.070004 0.387035
Si Si4 0.497480 0.931317 0.281567
Si Si5 0.376464 0.931232 0.023558
Si Si6 0.618952 0.566628 0.527350
O O1 0.968831 0.250000 0.130371
O O2 0.960329 0.519948 0.167742
O O3 0.893936 0.475962 0.079675
O O4 0.129722 0.457790 0.107280
O O5 0.723867 0.750000 0.779646
O O6 0.688415 0.971092 0.835505
O O7 0.608804 0.000134 0.751684
O O8 0.860326 0.999281 0.773176
O O9 0.804238 0.250000 0.392401
O O10 0.859298 0.983377 0.425196
O O11 0.502635 0.750000 0.277619
O O12 0.382231 0.750000 0.021672
O O13 0.250133 0.982458 0.996136
O O14 0.500000 0.000000 0.000000
O O15 0.500000 0.500000 0.500000
O O16 0.611075 0.750000 0.525601
#
# Coordination Sequence:
#
# PCOD9464500 Si02
#       6
#     8   8   8   8   8   8
#     4   9  18  35  58  83 112 148 188 230 281 347
#     4  10  21  40  63  85 114 156 193 228 285 354
#     4   9  18  35  60  83 108 146 189 227 276 340
#     4  11  22  37  59  89 119 146 188 245 290 332
#     4  11  23  37  55  81 115 152 188 231 283 335
#     4  10  20  35  58  85 110 144 188 232 278 332
#
# _framework density 17.576271999999999
#
# number of rings (size 3 to 8) (size 9 to 14) (size 15 to 20)
#    0.000    2.000    1.667    3.500    0.000    4.667 
#    3.000    0.000    0.000    0.000    0.000    0.000 
#    0.000    0.000    0.000    0.000    0.000    0.000 
#
# Total GULP energy -267950.324016 kJ/mol
# GULP energy per Si atom -5582.298417 kJ/mol
# Density = 1.753627 g / cm^3
# Si number density = 17.576272 Si / 1000 Ang^3
#
#
#
# Elastic Constant Matrix: (Units=GPa)
#
#
# Indices 1 2 3 4 5 6 
#
# 1 131.2207 56.2872 97.5145 0.0000 0.0000 0.0000
# 2 56.2872 66.1056 64.9684 0.0000 0.0000 0.0000
# 3 97.5145 64.9684 143.3890 0.0000 0.0000 0.0000
# 4 0.0000 0.0000 0.0000 32.4449 0.0000 0.0000
# 5 0.0000 0.0000 0.0000 0.0000 32.3820 0.0000
# 6 0.0000 0.0000 0.0000 0.0000 0.0000 25.7584
#
#
#
# Elastic Compliance Matrix: (Units=1/GPa)
#
#
# Indices 1 2 3 4 5 6 
#
# 1 0.016418 -0.005419 -0.008710 0.000000 0.000000 0.000000
# 2 -0.005419 0.029060 -0.009481 0.000000 0.000000 0.000000
# 3 -0.008710 -0.009481 0.017193 0.000000 0.000000 0.000000
# 4 0.000000 0.000000 0.000000 0.030822 0.000000 0.000000
# 5 0.000000 0.000000 0.000000 0.000000 0.030881 0.000000
# 6 0.000000 0.000000 0.000000 0.000000 0.000000 0.038822
#
#
# Mechanical properties :
#
#
# Convention : Reuss Voigt Hill
#
# Bulk Modulus (GPa) = 64.72459 86.47284 75.59872
# Shear Modulus (GPa) = 23.19458 26.24674 24.72066
#
# Velocity S-wave (km/s) = 3.63664 3.86852 3.75437
# Velocity P-wave (km/s) = 7.38502 8.32222 7.86759
#
# Compressibility (1/GPa) = 0.01545008
#
# Stress axis : x y z
#
# Youngs Moduli (GPa) = 60.90860 34.41159 58.16243
#
# Poissons Ratio (x) = 0.18649 0.50659
# Poissons Ratio (y) = 0.33009 0.55145
# Poissons Ratio (z) = 0.53051 0.32626
#
# Static dielectric constant tensor:
#      x y z
#    x 1.572760 0.000000 0.000000 
#    y 0.000000 1.593060 0.000000 
#    z 0.000000 0.000000 1.594550 
# 
# From -- ./inp_files/31926.got.cif
#   From: 2010.05.17/outbox.cif.g08.bks.cpg/sg62_16_cif.got.tgz:31926.got - 2010.06.03 15:25:27.
