data_PCOD9464936
_publ_section_title
;
Structure prediction by ZEFSAII (Michael W. Deem and Ramdas Pophale) SiO2 
 PCOD9464936
Probable space group: P N M A
;
_chemical_formula_sum "Si O2"
_cell_formula_units_Z 48
_cell_length_a 15.583388
_cell_length_b 18.494993
_cell_length_c 9.136709
_cell_angle_alpha 90.000000
_cell_angle_beta 90.000000
_cell_angle_gamma 90.000000
_cell_volume 2633.333405
_symmetry_space_group_name_H-M "P N M A"
_symmetry_group_IT_number 62
_symmetry_cell_setting 'orthorhombic'
loop_
_space_group_symop_operation_xyz
x,y,z
1/2-x,-y,1/2+z
1/2+x,1/2-y,1/2-z
-x,1/2+y,-z
-x,-y,-z
1/2+x,y,1/2-z
1/2-x,1/2+y,1/2+z
x,1/2-y,z
loop_
_atom_site_type_symbol
_atom_site_label
_atom_site_fract_x
_atom_site_fract_y
_atom_site_fract_z
Si Si1 0.084919 0.664213 0.588759
Si Si2 0.250233 0.432016 0.584625
Si Si3 0.083326 0.164274 0.596075
Si Si4 0.267003 0.416259 0.930428
Si Si5 0.583683 0.578754 0.610492
Si Si6 0.073906 0.093721 0.903713
O O1 0.089672 0.750000 0.612877
O O2 0.160179 0.638712 0.480148
O O3 0.094157 0.620853 0.739172
O O4 0.993055 0.647063 0.515820
O O5 0.170908 0.378036 0.562144
O O6 0.271307 0.433816 0.757441
O O7 0.223881 0.510715 0.524734
O O8 0.334226 0.410008 0.493630
O O9 0.097779 0.250000 0.595631
O O10 0.055349 0.138269 0.757578
O O11 0.170110 0.387803 0.956176
O O12 0.576374 0.492094 0.634968
O O13 0.498116 0.603255 0.525846
#
# Coordination Sequence:
#
# PCOD9464936 Si02
#       6
#     8   8   8   8   8   8
#     4  11  24  38  54  81 117 153 187 227 277 334
#     4  10  21  37  61  87 111 144 186 236 282 333
#     4  10  22  38  55  79 111 149 188 225 273 330
#     4  10  20  37  60  86 112 143 187 232 282 333
#     4  10  21  38  59  86 112 143 186 231 285 335
#     4   9  20  38  61  83 107 142 186 234 279 330
#
# _framework density 18.227847000000001
#
# number of rings (size 3 to 8) (size 9 to 14) (size 15 to 20)
#    0.000    2.000    0.000    4.000    0.000   12.000 
#    0.000    1.667    0.000    0.000    0.000    0.000 
#    0.000    0.000    0.000    0.000    0.000    0.000 
#
# Total GULP energy -268081.330760 kJ/mol
# GULP energy per Si atom -5585.027724 kJ/mol
# Density = 1.818636 g / cm^3
# Si number density = 18.227847 Si / 1000 Ang^3
#
#
#
# Elastic Constant Matrix: (Units=GPa)
#
#
# Indices 1 2 3 4 5 6 
#
# 1 86.1390 41.6007 57.9085 0.0000 0.0000 0.0000
# 2 41.6007 34.2132 38.5617 0.0000 0.0000 0.0000
# 3 57.9085 38.5617 88.4141 0.0000 0.0000 0.0000
# 4 0.0000 0.0000 0.0000 12.9923 0.0000 0.0000
# 5 0.0000 0.0000 0.0000 0.0000 25.2740 0.0000
# 6 0.0000 0.0000 0.0000 0.0000 0.0000 17.8516
#
#
#
# Elastic Compliance Matrix: (Units=1/GPa)
#
#
# Indices 1 2 3 4 5 6 
#
# 1 0.030438 -0.028599 -0.007462 0.000000 0.000000 0.000000
# 2 -0.028599 0.084361 -0.018062 0.000000 0.000000 0.000000
# 3 -0.007462 -0.018062 0.024076 0.000000 0.000000 0.000000
# 4 0.000000 0.000000 0.000000 0.076969 0.000000 0.000000
# 5 0.000000 0.000000 0.000000 0.000000 0.039566 0.000000
# 6 0.000000 0.000000 0.000000 0.000000 0.000000 0.056018
#
#
# Mechanical properties :
#
#
# Convention : Reuss Voigt Hill
#
# Bulk Modulus (GPa) = 32.65098 53.87868 43.26483
# Shear Modulus (GPa) = 11.63104 15.93660 13.78382
#
# Velocity S-wave (km/s) = 2.52879 2.96006 2.75288
# Velocity P-wave (km/s) = 5.14567 6.42692 5.82165
#
# Compressibility (1/GPa) = 0.03062695
#
# Stress axis : x y z
#
# Youngs Moduli (GPa) = 32.85394 11.85379 41.53549
#
# Poissons Ratio (x) = 0.33901 0.30995
# Poissons Ratio (y) = 0.93960 0.75023
# Poissons Ratio (z) = 0.24516 0.21411
#
# Static dielectric constant tensor:
#      x y z
#    x 1.625900 0.000000 0.000000 
#    y 0.000000 1.603790 0.000000 
#    z 0.000000 0.000000 1.603940 
# 
# From -- ./inp_files/6629.got.cif
#   From: 2010.05.17/outbox.cif.g08.bks.cpg/sg62_4_cif.got.tgz:6629.got - 2010.06.03 15:25:27.
