data_PCOD9464093
_publ_section_title
;
Structure prediction by ZEFSAII (Michael W. Deem and Ramdas Pophale) SiO2 
 PCOD9464093
Probable space group: P N M A
;
_chemical_formula_sum "Si O2"
_cell_formula_units_Z 40
_cell_length_a 16.121605
_cell_length_b 9.244665
_cell_length_c 15.776778
_cell_angle_alpha 90.000000
_cell_angle_beta 90.000000
_cell_angle_gamma 90.000000
_cell_volume 2351.352652
_symmetry_space_group_name_H-M "P N M A"
_symmetry_group_IT_number 62
_symmetry_cell_setting 'orthorhombic'
loop_
_space_group_symop_operation_xyz
x,y,z
1/2-x,-y,1/2+z
1/2+x,1/2-y,1/2-z
-x,1/2+y,-z
-x,-y,-z
1/2+x,y,1/2-z
1/2-x,1/2+y,1/2+z
x,1/2-y,z
loop_
_atom_site_type_symbol
_atom_site_label
_atom_site_fract_x
_atom_site_fract_y
_atom_site_fract_z
Si Si1 0.618057 0.577958 0.049889
Si Si2 0.534249 0.578377 0.870182
Si Si3 0.934375 0.077327 0.937830
Si Si4 0.810292 0.923175 0.046866
Si Si5 0.436807 0.921538 0.300677
O O1 0.607257 0.750000 0.064699
O O2 0.554965 0.491540 0.109087
O O3 0.714367 0.542062 0.061716
O O4 0.590704 0.548292 0.952858
O O5 0.526917 0.750000 0.861168
O O6 0.570288 0.509113 0.785299
O O7 0.934041 0.250000 0.951528
O O8 0.973660 0.051330 0.845341
O O9 0.848011 0.007429 0.966251
O O10 0.000000 0.000000 0.000000
O O11 0.817989 0.750000 0.032554
O O12 0.866661 0.957820 0.129201
O O13 0.430770 0.750000 0.284157
#
# Coordination Sequence:
#
# PCOD9464093 Si02
#       5
#     8   8   8   8   8
#     4   9  19  37  56  73 102 139 173 211 258 309
#     4  10  20  34  54  77 101 136 175 213 256 302
#     4   9  17  30  50  75 103 136 171 206 253 307
#     4   9  18  34  55  77 104 137 171 212 262 307
#     4   9  18  33  52  75 104 137 170 207 257 311
#
# _framework density 17.011483999999999
#
# number of rings (size 3 to 8) (size 9 to 14) (size 15 to 20)
#    0.000    2.800    0.000    2.400    0.000    5.600 
#    3.600    0.000    0.000    0.000    0.000    0.000 
#    0.000    0.000    0.000    0.000    0.000    0.000 
#
# Total GULP energy -222867.780295 kJ/mol
# GULP energy per Si atom -5571.694507 kJ/mol
# Density = 1.697277 g / cm^3
# Si number density = 17.011484 Si / 1000 Ang^3
#
#
#
# Elastic Constant Matrix: (Units=GPa)
#
#
# Indices 1 2 3 4 5 6 
#
# 1 109.6595 36.4963 38.1213 0.0000 0.0000 0.0000
# 2 36.4963 37.9370 40.3767 0.0000 0.0000 0.0000
# 3 38.1213 40.3767 72.0518 0.0000 0.0000 0.0000
# 4 0.0000 0.0000 0.0000 32.9521 0.0000 0.0000
# 5 0.0000 0.0000 0.0000 0.0000 10.3586 0.0000
# 6 0.0000 0.0000 0.0000 0.0000 0.0000 25.6775
#
#
#
# Elastic Compliance Matrix: (Units=1/GPa)
#
#
# Indices 1 2 3 4 5 6 
#
# 1 0.013417 -0.013262 0.000333 0.000000 0.000000 0.000000
# 2 -0.013262 0.078423 -0.036930 0.000000 0.000000 0.000000
# 3 0.000333 -0.036930 0.034398 0.000000 0.000000 0.000000
# 4 0.000000 0.000000 0.000000 0.030347 0.000000 0.000000
# 5 0.000000 0.000000 0.000000 0.000000 0.096538 0.000000
# 6 0.000000 0.000000 0.000000 0.000000 0.000000 0.038945
#
#
# Mechanical properties :
#
#
# Convention : Reuss Voigt Hill
#
# Bulk Modulus (GPa) = 37.70819 49.95963 43.83391
# Shear Modulus (GPa) = 12.48046 20.77459 16.62752
#
# Velocity S-wave (km/s) = 2.71153 3.49837 3.12978
# Velocity P-wave (km/s) = 5.65841 6.76388 6.23569
#
# Compressibility (1/GPa) = 0.02651944
#
# Stress axis : x y z
#
# Youngs Moduli (GPa) = 74.53138 12.75133 29.07159
#
# Poissons Ratio (x) = 0.16911 -0.00968
# Poissons Ratio (y) = 0.98845 1.07362
# Poissons Ratio (z) = -0.02483 0.47091
#
# Static dielectric constant tensor:
#      x y z
#    x 1.588420 0.000000 0.000000 
#    y 0.000000 1.564030 0.000000 
#    z 0.000000 0.000000 1.572600 
# 
# From -- ./inp_files/18607.got.cif
#   From: 2010.05.17/outbox.cif.g08.bks.cpg/sg62_10_cif.got.tgz:18607.got - 2010.06.03 15:25:27.
