data_PCOD9464214
_publ_section_title
;
Structure prediction by ZEFSAII (Michael W. Deem and Ramdas Pophale) SiO2 
 PCOD9464214
Probable space group: P N M A
;
_chemical_formula_sum "Si O2"
_cell_formula_units_Z 64
_cell_length_a 25.067429
_cell_length_b 8.953487
_cell_length_c 14.387316
_cell_angle_alpha 90.000000
_cell_angle_beta 90.000000
_cell_angle_gamma 90.000000
_cell_volume 3229.102147
_symmetry_space_group_name_H-M "P N M A"
_symmetry_group_IT_number 62
_symmetry_cell_setting 'orthorhombic'
loop_
_space_group_symop_operation_xyz
x,y,z
1/2-x,-y,1/2+z
1/2+x,1/2-y,1/2-z
-x,1/2+y,-z
-x,-y,-z
1/2+x,y,1/2-z
1/2-x,1/2+y,1/2+z
x,1/2-y,z
loop_
_atom_site_type_symbol
_atom_site_label
_atom_site_fract_x
_atom_site_fract_y
_atom_site_fract_z
Si Si1 0.883337 0.927361 0.388368
Si Si2 0.829009 0.423924 0.548357
Si Si3 0.455622 0.930227 0.280004
Si Si4 0.339415 0.423986 0.729316
Si Si5 0.560395 0.426852 0.359039
Si Si6 0.901530 0.429420 0.041740
Si Si7 0.718387 0.926680 0.561881
Si Si8 0.280332 0.927196 0.237443
O O1 0.886640 0.750000 0.402458
O O2 0.931348 0.972304 0.320261
O O3 0.828903 0.957892 0.330890
O O4 0.875528 0.005365 0.486711
O O5 0.825765 0.250000 0.528006
O O6 0.838005 0.441158 0.658769
O O7 0.771792 0.496641 0.525042
O O8 0.455972 0.750000 0.286623
O O9 0.513463 0.997652 0.299828
O O10 0.417972 0.997087 0.360801
O O11 0.352705 0.250000 0.707330
O O12 0.383311 0.531569 0.687394
O O13 0.278754 0.452152 0.696655
O O14 0.552346 0.250000 0.366042
O O15 0.562637 0.501448 0.460711
O O16 0.907367 0.250000 0.046486
O O17 0.839419 0.464490 0.020039
O O18 0.725506 0.750000 0.553939
O O19 0.714458 0.976342 0.669634
O O20 0.282324 0.750000 0.263048
#
# Coordination Sequence:
#
# PCOD9464214 Si02
#       8
#     8   8   8   8   8   8   8   8
#     4  10  21  37  61  91 121 157 198 243 298 356
#     4  10  22  38  60  88 123 161 197 246 299 355
#     4  11  23  42  65  88 120 158 199 247 298 356
#     4   9  20  40  61  84 119 158 198 246 300 350
#     4  12  26  41  61  87 117 156 204 253 298 354
#     4  11  23  39  60  88 122 160 199 243 295 353
#     4  10  20  34  56  86 121 158 195 238 290 350
#     4   9  18  35  58  85 119 155 192 239 296 352
#
# _framework density 19.819751
#
# number of rings (size 3 to 8) (size 9 to 14) (size 15 to 20)
#    0.000    1.750    1.250    3.750    1.750    5.500 
#    0.000    0.625    0.000    0.000    0.000    0.000 
#    0.000    0.000    0.000    0.000    0.000    0.000 
#
# Total GULP energy -357680.452901 kJ/mol
# GULP energy per Si atom -5588.757077 kJ/mol
# Density = 1.977464 g / cm^3
# Si number density = 19.819751 Si / 1000 Ang^3
#
#
#
# Elastic Constant Matrix: (Units=GPa)
#
#
# Indices 1 2 3 4 5 6 
#
# 1 52.3131 19.6175 -3.7962 0.0000 0.0000 0.0000
# 2 19.6175 52.7507 12.3295 0.0000 0.0000 0.0000
# 3 -3.7962 12.3295 16.0605 0.0000 0.0000 0.0000
# 4 0.0000 0.0000 0.0000 28.8750 0.0000 0.0000
# 5 0.0000 0.0000 0.0000 0.0000 29.9125 0.0000
# 6 0.0000 0.0000 0.0000 0.0000 0.0000 29.7977
#
#
#
# Elastic Compliance Matrix: (Units=1/GPa)
#
#
# Indices 1 2 3 4 5 6 
#
# 1 0.025197 -0.013116 0.016025 0.000000 0.000000 0.000000
# 2 -0.013116 0.029930 -0.026077 0.000000 0.000000 0.000000
# 3 0.016025 -0.026077 0.086072 0.000000 0.000000 0.000000
# 4 0.000000 0.000000 0.000000 0.034632 0.000000 0.000000
# 5 0.000000 0.000000 0.000000 0.000000 0.033431 0.000000
# 6 0.000000 0.000000 0.000000 0.000000 0.000000 0.033560
#
#
# Mechanical properties :
#
#
# Convention : Reuss Voigt Hill
#
# Bulk Modulus (GPa) = 10.54163 19.71396 15.12780
# Shear Modulus (GPa) = 15.58709 23.91526 19.75118
#
# Velocity S-wave (km/s) = 2.80740 3.47744 3.16023
# Velocity P-wave (km/s) = 3.97982 5.10800 4.57879
#
# Compressibility (1/GPa) = 0.09486201
#
# Stress axis : x y z
#
# Youngs Moduli (GPa) = 39.68713 33.41145 11.61824
#
# Poissons Ratio (x) = 0.43823 -0.18618
# Poissons Ratio (y) = 0.52054 0.30297
# Poissons Ratio (z) = -0.63598 0.87127
#
# Static dielectric constant tensor:
#      x y z
#    x 1.712700 0.000000 0.000000 
#    y 0.000000 1.656540 0.000000 
#    z 0.000000 0.000000 1.706360 
# 
# From -- ./inp_files/20762.got.cif
#   From: 2010.05.17/outbox.cif.g08.bks.cpg/sg62_11_cif.got.tgz:20762.got - 2010.06.03 15:25:27.
