data_PCOD9464341
_publ_section_title
;
Structure prediction by ZEFSAII (Michael W. Deem and Ramdas Pophale) SiO2 
 PCOD9464341
Probable space group: P N M A
;
_chemical_formula_sum "Si O2"
_cell_formula_units_Z 64
_cell_length_a 15.949252
_cell_length_b 9.218999
_cell_length_c 22.598674
_cell_angle_alpha 90.000000
_cell_angle_beta 90.000000
_cell_angle_gamma 90.000000
_cell_volume 3322.821754
_symmetry_space_group_name_H-M "P N M A"
_symmetry_group_IT_number 62
_symmetry_cell_setting 'orthorhombic'
loop_
_space_group_symop_operation_xyz
x,y,z
1/2-x,-y,1/2+z
1/2+x,1/2-y,1/2-z
-x,1/2+y,-z
-x,-y,-z
1/2+x,y,1/2-z
1/2-x,1/2+y,1/2+z
x,1/2-y,z
loop_
_atom_site_type_symbol
_atom_site_label
_atom_site_fract_x
_atom_site_fract_y
_atom_site_fract_z
Si Si1 0.117890 0.923626 0.528503
Si Si2 0.112362 0.910883 0.036612
Si Si3 0.937295 0.424609 0.197010
Si Si4 0.415765 0.074837 0.773942
Si Si5 0.227794 0.081220 0.107360
Si Si6 0.580264 0.413078 0.573132
Si Si7 0.741894 0.579502 0.757212
Si Si8 0.537535 0.576560 0.090940
O O1 0.108504 0.750000 0.534664
O O2 0.205428 0.962593 0.557822
O O3 0.106753 0.959593 0.459327
O O4 0.045261 0.999125 0.566493
O O5 0.146312 0.750000 0.027944
O O6 0.013293 0.900503 0.046864
O O7 0.148199 0.983063 0.095583
O O8 0.130554 0.009451 0.979535
O O9 0.949778 0.250000 0.195620
O O10 0.926864 0.490177 0.131530
O O11 0.848124 0.455823 0.229012
O O12 0.014996 0.499814 0.231354
O O13 0.418019 0.250000 0.766496
O O14 0.439200 0.038445 0.842141
O O15 0.322215 0.014264 0.762215
O O16 0.205306 0.250000 0.099826
O O17 0.265211 0.063272 0.172105
O O18 0.611221 0.250000 0.585964
O O19 0.759466 0.750000 0.744634
O O20 0.524903 0.750000 0.089383
#
# Coordination Sequence:
#
# PCOD9464341 Si02
#       8
#     8   8   8   8   8   8   8   8
#     4   9  18  34  56  80 106 139 179 225 279 337
#     4  10  21  36  56  83 112 144 185 232 281 338
#     4  11  23  40  62  87 118 156 198 244 293 347
#     4  11  23  38  58  85 118 156 195 238 290 347
#     4  10  20  35  55  79 109 144 183 228 281 336
#     4  10  21  38  59  83 112 147 187 232 287 344
#     4  10  23  40  58  84 116 153 198 244 290 347
#     4   9  19  35  54  79 109 140 179 225 275 334
#
# _framework density 19.260738
#
# number of rings (size 3 to 8) (size 9 to 14) (size 15 to 20)
#    0.000    2.000    0.000    3.000    0.000    8.500 
#    0.000    1.250    0.000    0.000    0.000    0.000 
#    0.000    0.000    0.000    0.000    0.000    0.000 
#
# Total GULP energy -357099.095752 kJ/mol
# GULP energy per Si atom -5579.673371 kJ/mol
# Density = 1.921690 g / cm^3
# Si number density = 19.260738 Si / 1000 Ang^3
#
#
#
# Elastic Constant Matrix: (Units=GPa)
#
#
# Indices 1 2 3 4 5 6 
#
# 1 58.5612 38.5085 24.0110 0.0000 0.0000 0.0000
# 2 38.5085 73.4663 47.0512 0.0000 0.0000 0.0000
# 3 24.0110 47.0512 84.6717 0.0000 0.0000 0.0000
# 4 0.0000 0.0000 0.0000 15.1557 0.0000 0.0000
# 5 0.0000 0.0000 0.0000 0.0000 25.3085 0.0000
# 6 0.0000 0.0000 0.0000 0.0000 0.0000 23.9028
#
#
#
# Elastic Compliance Matrix: (Units=1/GPa)
#
#
# Indices 1 2 3 4 5 6 
#
# 1 0.026063 -0.013861 0.000311 0.000000 0.000000 0.000000
# 2 -0.013861 0.028504 -0.011909 0.000000 0.000000 0.000000
# 3 0.000311 -0.011909 0.018340 0.000000 0.000000 0.000000
# 4 0.000000 0.000000 0.000000 0.065982 0.000000 0.000000
# 5 0.000000 0.000000 0.000000 0.000000 0.039512 0.000000
# 6 0.000000 0.000000 0.000000 0.000000 0.000000 0.041836
#
#
# Mechanical properties :
#
#
# Convention : Reuss Voigt Hill
#
# Bulk Modulus (GPa) = 45.47461 48.42675 46.95068
# Shear Modulus (GPa) = 17.95442 20.01530 18.98486
#
# Velocity S-wave (km/s) = 3.05647 3.22712 3.14296
# Velocity P-wave (km/s) = 6.00976 6.25165 6.13190
#
# Compressibility (1/GPa) = 0.02199029
#
# Stress axis : x y z
#
# Youngs Moduli (GPa) = 38.36865 35.08290 54.52683
#
# Poissons Ratio (x) = 0.48627 -0.01698
# Poissons Ratio (y) = 0.53182 0.64935
# Poissons Ratio (z) = -0.01195 0.41779
#
# Static dielectric constant tensor:
#      x y z
#    x 1.685320 0.000000 0.000000 
#    y 0.000000 1.673690 0.000000 
#    z 0.000000 0.000000 1.656670 
# 
# From -- ./inp_files/29731.got.cif
#   From: 2010.05.17/outbox.cif.g08.bks.cpg/sg62_15_cif.got.tgz:29731.got - 2010.06.03 15:25:27.
