data_PCOD9464963
_publ_section_title
;
Structure prediction by ZEFSAII (Michael W. Deem and Ramdas Pophale) SiO2 
 PCOD9464963
Probable space group: P N M A
;
_chemical_formula_sum "Si O2"
_cell_formula_units_Z 56
_cell_length_a 19.404528
_cell_length_b 7.806163
_cell_length_c 17.495371
_cell_angle_alpha 90.000000
_cell_angle_beta 90.000000
_cell_angle_gamma 90.000000
_cell_volume 2650.109722
_symmetry_space_group_name_H-M "P N M A"
_symmetry_group_IT_number 62
_symmetry_cell_setting 'orthorhombic'
loop_
_space_group_symop_operation_xyz
x,y,z
1/2-x,-y,1/2+z
1/2+x,1/2-y,1/2-z
-x,1/2+y,-z
-x,-y,-z
1/2+x,y,1/2-z
1/2-x,1/2+y,1/2+z
x,1/2-y,z
loop_
_atom_site_type_symbol
_atom_site_label
_atom_site_fract_x
_atom_site_fract_y
_atom_site_fract_z
Si Si1 0.648669 0.959825 0.024144
Si Si2 0.293669 0.959764 0.413324
Si Si3 0.913497 0.047908 0.364256
Si Si4 0.284386 0.957225 0.237357
Si Si5 0.933441 0.049068 0.672444
Si Si6 0.361743 0.042493 0.674304
Si Si7 0.920650 0.950657 0.990640
O O1 0.647292 0.750000 0.022342
O O2 0.728054 0.011099 0.035514
O O3 0.606100 0.020481 0.098157
O O4 0.613836 0.019459 0.945847
O O5 0.294019 0.750000 0.412685
O O6 0.282029 0.013184 0.325722
O O7 0.365036 0.025054 0.449346
O O8 0.925968 0.250000 0.372186
O O9 0.853462 0.017921 0.303289
O O10 0.985377 0.968158 0.338724
O O11 0.284164 0.750000 0.237335
O O12 0.216601 0.013916 0.191014
O O13 0.915190 0.250000 0.673964
O O14 0.906726 0.980136 0.753308
O O15 0.362527 0.250000 0.672967
O O16 0.392688 0.985055 0.594215
O O17 0.918875 0.750000 0.004209
O O18 0.000000 0.000000 0.000000
#
# Coordination Sequence:
#
# PCOD9464963 Si02
#       7
#     8   8   8   8   8   8   8
#     4   9  17  35  60  84 111 147 191 235 284 345
#     4   9  18  36  61  84 107 149 200 240 283 345
#     4  11  23  35  54  87 123 150 182 234 297 349
#     4  10  20  38  63  87 111 149 203 246 283 344
#     4  10  20  37  61  85 112 151 194 234 280 348
#     4  10  21  39  63  87 113 150 200 249 295 348
#     4  11  24  40  61  88 123 161 202 247 297 354
#
# _framework density 21.1312
#
# number of rings (size 3 to 8) (size 9 to 14) (size 15 to 20)
#    0.000    2.000    1.429    2.143    2.000    2.286 
#    0.000    1.429    0.000    3.429    0.000    0.000 
#    0.000    0.000    0.000    0.000    0.000    0.000 
#
# Total GULP energy -312883.686651 kJ/mol
# GULP energy per Si atom -5587.208690 kJ/mol
# Density = 2.108310 g / cm^3
# Si number density = 21.131200 Si / 1000 Ang^3
#
#
#
# Elastic Constant Matrix: (Units=GPa)
#
#
# Indices 1 2 3 4 5 6 
#
# 1 131.5956 -13.3914 15.7184 0.0000 0.0000 0.0000
# 2 -13.3914 19.6242 -14.1727 0.0000 0.0000 0.0000
# 3 15.7184 -14.1727 40.5738 0.0000 0.0000 0.0000
# 4 0.0000 0.0000 0.0000 22.7565 0.0000 0.0000
# 5 0.0000 0.0000 0.0000 0.0000 6.3769 0.0000
# 6 0.0000 0.0000 0.0000 0.0000 0.0000 5.6865
#
#
#
# Elastic Compliance Matrix: (Units=1/GPa)
#
#
# Indices 1 2 3 4 5 6 
#
# 1 0.008247 0.004441 -0.001644 0.000000 0.000000 0.000000
# 2 0.004441 0.070541 0.022920 0.000000 0.000000 0.000000
# 3 -0.001644 0.022920 0.033289 0.000000 0.000000 0.000000
# 4 0.000000 0.000000 0.000000 0.043943 0.000000 0.000000
# 5 0.000000 0.000000 0.000000 0.000000 0.156816 0.000000
# 6 0.000000 0.000000 0.000000 0.000000 0.000000 0.175854
#
#
# Mechanical properties :
#
#
# Convention : Reuss Voigt Hill
#
# Bulk Modulus (GPa) = 6.11577 18.67800 12.39688
# Shear Modulus (GPa) = 10.16753 20.53994 15.35374
#
# Velocity S-wave (km/s) = 2.19592 3.12111 2.69846
# Velocity P-wave (km/s) = 3.05449 4.67404 3.94820
#
# Compressibility (1/GPa) = 0.16351182
#
# Stress axis : x y z
#
# Youngs Moduli (GPa) = 121.25214 14.17615 30.03952
#
# Poissons Ratio (x) = -0.06295 0.04938
# Poissons Ratio (y) = -0.53844 -0.68851
# Poissons Ratio (z) = 0.19932 -0.32492
#
# Static dielectric constant tensor:
#      x y z
#    x 1.799790 0.000000 0.000000 
#    y 0.000000 1.792080 0.000000 
#    z 0.000000 0.000000 1.748140 
# 
# From -- ./inp_files/20294.got.cif
#   From: 2010.05.17/outbox.cif.g08.bks.cpg/sg62_11_cif.got.tgz:20294.got - 2010.06.03 15:25:27.
