data_PCOD9464016
_publ_section_title
;
Structure prediction by ZEFSAII (Michael W. Deem and Ramdas Pophale) SiO2 
 PCOD9464016
Probable space group: P N M A
;
_chemical_formula_sum "Si O2"
_cell_formula_units_Z 64
_cell_length_a 14.866696
_cell_length_b 8.863346
_cell_length_c 31.014218
_cell_angle_alpha 90.000000
_cell_angle_beta 90.000000
_cell_angle_gamma 90.000000
_cell_volume 4086.702273
_symmetry_space_group_name_H-M "P N M A"
_symmetry_group_IT_number 62
_symmetry_cell_setting 'orthorhombic'
loop_
_space_group_symop_operation_xyz
x,y,z
1/2-x,-y,1/2+z
1/2+x,1/2-y,1/2-z
-x,1/2+y,-z
-x,-y,-z
1/2+x,y,1/2-z
1/2-x,1/2+y,1/2+z
x,1/2-y,z
loop_
_atom_site_type_symbol
_atom_site_label
_atom_site_fract_x
_atom_site_fract_y
_atom_site_fract_z
Si Si1 0.604033 0.069167 0.954861
Si Si2 0.678860 0.928867 0.135980
Si Si3 0.506243 0.422984 0.174218
Si Si4 0.501931 0.575540 0.722618
Si Si5 0.171011 0.069125 0.636736
Si Si6 0.315219 0.070846 0.707697
Si Si7 0.707194 0.931266 0.711086
Si Si8 0.395000 0.068429 0.953417
O O1 0.604285 0.250000 0.959946
O O2 0.665788 0.030857 0.913912
O O3 0.499811 0.023361 0.945265
O O4 0.630500 0.995411 0.000037
O O5 0.695898 0.750000 0.137488
O O6 0.668331 0.978836 0.086216
O O7 0.581420 0.966157 0.155950
O O8 0.748496 0.014069 0.166615
O O9 0.523818 0.250000 0.160373
O O10 0.508627 0.426704 0.225742
O O11 0.409678 0.478732 0.158811
O O12 0.495843 0.750000 0.708367
O O13 0.417427 0.484862 0.704647
O O14 0.602811 0.519782 0.713062
O O15 0.153719 0.250000 0.640133
O O16 0.260219 0.036519 0.663986
O O17 0.313389 0.250000 0.714688
O O18 0.263868 0.995696 0.748430
O O19 0.710209 0.750000 0.714058
O O20 0.393858 0.250000 0.954574
#
# Coordination Sequence:
#
# PCOD9464016 Si02
#       8
#     8   8   8   8   8   8   8   8
#     4   9  17  31  48  68  99 132 162 200 243 292
#     4  11  21  34  50  72 101 133 166 206 249 291
#     4  11  20  30  48  72  99 135 171 204 242 290
#     4  10  22  37  50  68 101 135 167 211 248 284
#     4  10  20  34  49  72 102 134 169 206 246 291
#     4  11  22  33  52  75  98 131 169 206 246 293
#     4  11  22  36  51  71  99 132 170 206 244 291
#     4   9  18  31  47  70  99 129 161 200 245 294
#
# _framework density 15.660549
#
# number of rings (size 3 to 8) (size 9 to 14) (size 15 to 20)
#    0.000    1.750    3.750    1.500    0.000    3.500 
#    0.000    0.000    0.000    0.000    0.000    0.875 
#    0.000    0.000    0.000    0.000    0.000    0.000 
#
# Total GULP energy -356988.744112 kJ/mol
# GULP energy per Si atom -5577.949127 kJ/mol
# Density = 1.562490 g / cm^3
# Si number density = 15.660549 Si / 1000 Ang^3
#
#
#
# Elastic Constant Matrix: (Units=GPa)
#
#
# Indices 1 2 3 4 5 6 
#
# 1 84.5886 23.8663 38.0018 0.0000 0.0000 0.0000
# 2 23.8663 23.1217 24.7618 0.0000 0.0000 0.0000
# 3 38.0018 24.7618 102.5517 0.0000 0.0000 0.0000
# 4 0.0000 0.0000 0.0000 13.6833 0.0000 0.0000
# 5 0.0000 0.0000 0.0000 0.0000 19.5910 0.0000
# 6 0.0000 0.0000 0.0000 0.0000 0.0000 18.0386
#
#
#
# Elastic Compliance Matrix: (Units=1/GPa)
#
#
# Indices 1 2 3 4 5 6 
#
# 1 0.017266 -0.014796 -0.002825 0.000000 0.000000 0.000000
# 2 -0.014796 0.071013 -0.011664 0.000000 0.000000 0.000000
# 3 -0.002825 -0.011664 0.013614 0.000000 0.000000 0.000000
# 4 0.000000 0.000000 0.000000 0.073082 0.000000 0.000000
# 5 0.000000 0.000000 0.000000 0.000000 0.051044 0.000000
# 6 0.000000 0.000000 0.000000 0.000000 0.000000 0.055437
#
#
# Mechanical properties :
#
#
# Convention : Reuss Voigt Hill
#
# Bulk Modulus (GPa) = 23.08244 42.61353 32.84798
# Shear Modulus (GPa) = 14.10568 18.50473 16.30521
#
# Velocity S-wave (km/s) = 3.00445 3.44119 3.23021
# Velocity P-wave (km/s) = 5.17753 6.56193 5.91040
#
# Compressibility (1/GPa) = 0.04332298
#
# Stress axis : x y z
#
# Youngs Moduli (GPa) = 57.91752 14.08189 73.45111
#
# Poissons Ratio (x) = 0.20836 0.20754
# Poissons Ratio (y) = 0.85695 0.85672
# Poissons Ratio (z) = 0.16365 0.16425
#
# Static dielectric constant tensor:
#      x y z
#    x 1.510590 0.000000 0.000000 
#    y 0.000000 1.532440 0.000000 
#    z 0.000000 0.000000 1.525050 
# 
# From -- ./inp_files/32693.got.cif
#   From: 2010.05.17/outbox.cif.g08.bks.cpg/sg62_17_cif.got.tgz:32693.got - 2010.06.03 15:25:27.
