data_PCOD9464042
_publ_section_title
;
Structure prediction by ZEFSAII (Michael W. Deem and Ramdas Pophale) SiO2 
 PCOD9464042
Probable space group: P N M A
;
_chemical_formula_sum "Si O2"
_cell_formula_units_Z 48
_cell_length_a 16.134397
_cell_length_b 12.333165
_cell_length_c 9.238783
_cell_angle_alpha 90.000000
_cell_angle_beta 90.000000
_cell_angle_gamma 90.000000
_cell_volume 1838.408618
_symmetry_space_group_name_H-M "P N M A"
_symmetry_group_IT_number 62
_symmetry_cell_setting 'orthorhombic'
loop_
_space_group_symop_operation_xyz
x,y,z
1/2-x,-y,1/2+z
1/2+x,1/2-y,1/2-z
-x,1/2+y,-z
-x,-y,-z
1/2+x,y,1/2-z
1/2-x,1/2+y,1/2+z
x,1/2-y,z
loop_
_atom_site_type_symbol
_atom_site_label
_atom_site_fract_x
_atom_site_fract_y
_atom_site_fract_z
Si Si1 0.887307 0.126440 0.478106
Si Si2 0.935156 0.093196 0.173771
Si Si3 0.301095 0.595869 0.631140
Si Si4 0.939232 0.861572 0.086412
Si Si5 0.119598 0.127776 0.436980
Si Si6 0.200163 0.864990 0.054342
O O1 0.890107 0.250000 0.546839
O O2 0.944857 0.133983 0.334484
O O3 0.794324 0.116195 0.408256
O O4 0.905594 0.003666 0.544827
O O5 0.998673 0.130353 0.050216
O O6 0.846616 0.120010 0.099818
O O7 0.947204 0.965035 0.184016
O O8 0.350297 0.633226 0.489088
O O9 0.343050 0.639215 0.775013
O O10 0.321296 0.468318 0.646181
O O11 0.952879 0.750000 0.165436
O O12 0.080957 0.250000 0.469156
O O13 0.202112 0.130964 0.536021
O O14 0.173462 0.750000 0.114418
#
# Coordination Sequence:
#
# PCOD9464042 Si02
#       6
#     8   8   8   8   8   8
#     4  11  21  35  56  79 107 144 182 219 263 320
#     4  10  20  34  55  81 108 141 179 220 273 326
#     4  10  20  34  53  78 107 140 179 220 266 317
#     4  10  20  34  55  82 109 138 176 226 274 318
#     4  10  20  34  52  76 106 140 178 221 267 314
#     4   9  17  31  52  76 103 136 174 220 269 316
#
# _framework density 26.109538000000001
#
# number of rings (size 3 to 8) (size 9 to 14) (size 15 to 20)
#    0.000    2.000    1.667    3.000    0.000    1.333 
#    0.000    0.833    0.000    0.000    0.000    0.000 
#    0.000    0.000    0.000    0.000    0.000    0.000 
#
# Total GULP energy -267480.062655 kJ/mol
# GULP energy per Si atom -5572.501305 kJ/mol
# Density = 2.605011 g / cm^3
# Si number density = 26.109538 Si / 1000 Ang^3
#
#
#
# Elastic Constant Matrix: (Units=GPa)
#
#
# Indices 1 2 3 4 5 6 
#
# 1 74.1604 16.3368 6.4994 0.0000 0.0000 0.0000
# 2 16.3368 336.6099 37.6210 0.0000 0.0000 0.0000
# 3 6.4994 37.6210 61.0687 0.0000 0.0000 0.0000
# 4 0.0000 0.0000 0.0000 -63.5075 0.0000 0.0000
# 5 0.0000 0.0000 0.0000 0.0000 16.4332 0.0000
# 6 0.0000 0.0000 0.0000 0.0000 0.0000 4.5511
#
#
#
# Elastic Compliance Matrix: (Units=1/GPa)
#
#
# Indices 1 2 3 4 5 6 
#
# 1 0.013702 -0.000539 -0.001126 0.000000 0.000000 0.000000
# 2 -0.000539 0.003212 -0.001921 0.000000 0.000000 0.000000
# 3 -0.001126 -0.001921 0.017678 0.000000 0.000000 0.000000
# 4 0.000000 0.000000 0.000000 -0.015746 0.000000 0.000000
# 5 0.000000 0.000000 0.000000 0.000000 0.060852 0.000000
# 6 0.000000 0.000000 0.000000 0.000000 0.000000 0.219729
#
#
# Mechanical properties :
#
#
# Convention : Reuss Voigt Hill
#
# Bulk Modulus (GPa) = 36.47112 65.86152 51.16632
# Shear Modulus (GPa) = 15.83584 18.92082 17.37833
#
# Velocity S-wave (km/s) = 2.46543 2.69489 2.58271
# Velocity P-wave (km/s) = 4.70141 5.91296 5.34165
#
# Compressibility (1/GPa) = 0.02741896
#
# Stress axis : x y z
#
# Youngs Moduli (GPa) = 72.98345 311.36340 56.56633
#
# Poissons Ratio (x) = 0.16787 0.06370
# Poissons Ratio (y) = 0.03935 0.10867
# Poissons Ratio (z) = 0.08219 0.59818
#
# Static dielectric constant tensor:
#      x y z
#    x 2.106070 0.000000 0.000000 
#    y 0.000000 2.150480 0.000000 
#    z 0.000000 0.000000 1.972200 
# 
# From -- ./inp_files/14708.got.cif
#   From: 2010.05.17/outbox.cif.g08.bks.cpg/sg62_8_cif.got.tgz:14708.got - 2010.06.03 15:25:27.
