data_PCOD9464934
_publ_section_title
;
Structure prediction by ZEFSAII (Michael W. Deem and Ramdas Pophale) SiO2 
 PCOD9464934
Probable space group: P N M A
;
_chemical_formula_sum "Si O2"
_cell_formula_units_Z 64
_cell_length_a 13.737553
_cell_length_b 28.361483
_cell_length_c 8.106159
_cell_angle_alpha 90.000000
_cell_angle_beta 90.000000
_cell_angle_gamma 90.000000
_cell_volume 3158.300398
_symmetry_space_group_name_H-M "P N M A"
_symmetry_group_IT_number 62
_symmetry_cell_setting 'orthorhombic'
loop_
_space_group_symop_operation_xyz
x,y,z
1/2-x,-y,1/2+z
1/2+x,1/2-y,1/2-z
-x,1/2+y,-z
-x,-y,-z
1/2+x,y,1/2-z
1/2-x,1/2+y,1/2+z
x,1/2-y,z
loop_
_atom_site_type_symbol
_atom_site_label
_atom_site_fract_x
_atom_site_fract_y
_atom_site_fract_z
Si Si1 0.064226 0.303625 0.162283
Si Si2 0.588525 0.628469 0.829807
Si Si3 0.680854 0.303836 0.994586
Si Si4 0.527428 0.127781 0.832649
Si Si5 0.887905 0.051024 0.069722
Si Si6 0.834056 0.365948 0.852767
Si Si7 0.104694 0.055808 0.924221
Si Si8 0.723183 0.357902 0.508279
O O1 0.031282 0.250000 0.134741
O O2 0.134281 0.304196 0.323680
O O3 0.133161 0.322888 0.017366
O O4 0.977493 0.339011 0.211477
O O5 0.618060 0.581404 0.734793
O O6 0.687276 0.653477 0.888620
O O7 0.527975 0.616340 0.995948
O O8 0.692006 0.250000 0.940396
O O9 0.603361 0.332042 0.882486
O O10 0.782955 0.331016 0.980926
O O11 0.444577 0.144109 0.702965
O O12 0.579918 0.083165 0.746856
O O13 0.856604 0.997175 0.091395
O O14 0.833390 0.081538 0.929100
O O15 0.001805 0.052057 0.018410
O O16 0.771198 0.360201 0.687654
O O17 0.177295 0.090375 0.020930
#
# Coordination Sequence:
#
# PCOD9464934 Si02
#       8
#     8   8   8   8   8   8   8   8
#     4  10  22  40  61  87 121 163 209 257 313 375
#     4  10  21  38  63  91 123 165 205 262 316 373
#     4  10  20  37  60  85 118 162 202 249 313 372
#     4   9  20  38  59  86 127 157 203 260 307 375
#     4  10  21  38  60  86 122 160 205 255 318 369
#     4  10  21  37  58  88 123 159 202 259 309 374
#     4  10  20  38  61  86 120 164 202 255 313 376
#     4  11  21  38  61  89 125 162 208 255 315 376
#
# _framework density 20.264064000000001
#
# number of rings (size 3 to 8) (size 9 to 14) (size 15 to 20)
#    0.000    2.000    2.500    0.750    0.000    3.000 
#    0.000    3.125    0.000    0.000    0.000    0.000 
#    0.000    0.000    0.000    0.000    0.000    0.000 
#
# Total GULP energy -357147.609199 kJ/mol
# GULP energy per Si atom -5580.431394 kJ/mol
# Density = 2.021794 g / cm^3
# Si number density = 20.264064 Si / 1000 Ang^3
#
#
#
# Elastic Constant Matrix: (Units=GPa)
#
#
# Indices 1 2 3 4 5 6 
#
# 1 64.8459 21.9083 31.3794 0.0000 0.0000 0.0000
# 2 21.9083 95.9970 15.1843 0.0000 0.0000 0.0000
# 3 31.3794 15.1843 53.1094 0.0000 0.0000 0.0000
# 4 0.0000 0.0000 0.0000 25.5277 0.0000 0.0000
# 5 0.0000 0.0000 0.0000 0.0000 35.5756 0.0000
# 6 0.0000 0.0000 0.0000 0.0000 0.0000 19.4818
#
#
#
# Elastic Compliance Matrix: (Units=1/GPa)
#
#
# Indices 1 2 3 4 5 6 
#
# 1 0.022482 -0.003173 -0.012376 0.000000 0.000000 0.000000
# 2 -0.003173 0.011358 -0.001373 0.000000 0.000000 0.000000
# 3 -0.012376 -0.001373 0.026534 0.000000 0.000000 0.000000
# 4 0.000000 0.000000 0.000000 0.039173 0.000000 0.000000
# 5 0.000000 0.000000 0.000000 0.000000 0.028109 0.000000
# 6 0.000000 0.000000 0.000000 0.000000 0.000000 0.051330
#
#
# Mechanical properties :
#
#
# Convention : Reuss Voigt Hill
#
# Bulk Modulus (GPa) = 37.69260 38.98848 38.34054
# Shear Modulus (GPa) = 22.55562 25.81571 24.18566
#
# Velocity S-wave (km/s) = 3.33991 3.57314 3.45849
# Velocity P-wave (km/s) = 5.78917 6.02537 5.90845
#
# Compressibility (1/GPa) = 0.02653040
#
# Stress axis : x y z
#
# Youngs Moduli (GPa) = 44.47956 88.04150 37.68756
#
# Poissons Ratio (x) = 0.27938 0.46643
# Poissons Ratio (y) = 0.14114 0.05173
# Poissons Ratio (z) = 0.55049 0.12084
#
# Static dielectric constant tensor:
#      x y z
#    x 1.733660 0.000000 0.000000 
#    y 0.000000 1.692170 0.000000 
#    z 0.000000 0.000000 1.759750 
# 
# From -- ./inp_files/6948.got.cif
#   From: 2010.05.17/outbox.cif.g08.bks.cpg/sg62_4_cif.got.tgz:6948.got - 2010.06.03 15:25:27.
