data_PCOD9464343
_publ_section_title
;
Structure prediction by ZEFSAII (Michael W. Deem and Ramdas Pophale) SiO2 
 PCOD9464343
Probable space group: P N M A
;
_chemical_formula_sum "Si O2"
_cell_formula_units_Z 64
_cell_length_a 28.235515
_cell_length_b 7.622070
_cell_length_c 12.857619
_cell_angle_alpha 90.000000
_cell_angle_beta 90.000000
_cell_angle_gamma 90.000000
_cell_volume 2767.127681
_symmetry_space_group_name_H-M "P N M A"
_symmetry_group_IT_number 62
_symmetry_cell_setting 'orthorhombic'
loop_
_space_group_symop_operation_xyz
x,y,z
1/2-x,-y,1/2+z
1/2+x,1/2-y,1/2-z
-x,1/2+y,-z
-x,-y,-z
1/2+x,y,1/2-z
1/2-x,1/2+y,1/2+z
x,1/2-y,z
loop_
_atom_site_type_symbol
_atom_site_label
_atom_site_fract_x
_atom_site_fract_y
_atom_site_fract_z
Si Si1 0.375158 0.044449 0.544861
Si Si2 0.663627 0.538097 0.125422
Si Si3 0.684496 0.544219 0.900982
Si Si4 0.043636 0.464562 0.199035
Si Si5 0.556664 0.048108 0.075822
Si Si6 0.078957 0.452593 0.649384
Si Si7 0.212114 0.961709 0.164098
Si Si8 0.052474 0.952152 0.878243
O O1 0.368337 0.250000 0.520222
O O2 0.323271 0.972530 0.573031
O O3 0.407553 0.966420 0.452601
O O4 0.407561 0.027762 0.648423
O O5 0.657452 0.750000 0.131583
O O6 0.612151 0.457967 0.106761
O O7 0.689560 0.476132 0.228018
O O8 0.692668 0.496906 0.021536
O O9 0.673880 0.750000 0.895532
O O10 0.635906 0.456102 0.865127
O O11 0.733190 0.508888 0.843300
O O12 0.044361 0.250000 0.201171
O O13 0.034751 0.526894 0.317772
O O14 0.000571 0.527032 0.126120
O O15 0.541706 0.250000 0.066767
O O16 0.555744 0.973248 0.958244
O O17 0.064764 0.250000 0.658641
O O18 0.067797 0.544732 0.757571
O O19 0.209417 0.750000 0.163201
O O20 0.047556 0.750000 0.911257
#
# Coordination Sequence:
#
# PCOD9464343 Si02
#       8
#     8   8   8   8   8   8   8   8
#     4  10  21  37  57  81 113 149 189 233 280 336
#     4   9  18  34  54  76 104 139 179 224 273 325
#     4  10  21  36  56  81 107 139 180 226 279 336
#     4  10  20  35  57  84 114 147 188 237 284 332
#     4   9  18  33  55  81 108 140 183 231 276 324
#     4  10  21  38  57  79 110 148 187 230 280 335
#     4  10  20  35  55  80 108 140 181 228 275 330
#     4  10  22  38  55  81 118 155 188 230 282 336
#
# _framework density 23.128678000000001
#
# number of rings (size 3 to 8) (size 9 to 14) (size 15 to 20)
#    0.000    2.250    1.250    1.125    0.000    4.500 
#    0.000    2.500    0.000    0.000    0.000    0.000 
#    0.000    0.000    0.000    0.000    0.000    0.000 
#
# Total GULP energy -357355.258475 kJ/mol
# GULP energy per Si atom -5583.675914 kJ/mol
# Density = 2.307604 g / cm^3
# Si number density = 23.128678 Si / 1000 Ang^3
#
#
#
# Elastic Constant Matrix: (Units=GPa)
#
#
# Indices 1 2 3 4 5 6 
#
# 1 70.2713 4.0200 10.3733 0.0000 0.0000 0.0000
# 2 4.0200 52.4434 -1.6509 0.0000 0.0000 0.0000
# 3 10.3733 -1.6509 86.6572 0.0000 0.0000 0.0000
# 4 0.0000 0.0000 0.0000 13.3712 0.0000 0.0000
# 5 0.0000 0.0000 0.0000 0.0000 37.8633 0.0000
# 6 0.0000 0.0000 0.0000 0.0000 0.0000 17.7958
#
#
#
# Elastic Compliance Matrix: (Units=1/GPa)
#
#
# Indices 1 2 3 4 5 6 
#
# 1 0.014558 -0.001172 -0.001765 0.000000 0.000000 0.000000
# 2 -0.001172 0.019174 0.000506 0.000000 0.000000 0.000000
# 3 -0.001765 0.000506 0.011761 0.000000 0.000000 0.000000
# 4 0.000000 0.000000 0.000000 0.074787 0.000000 0.000000
# 5 0.000000 0.000000 0.000000 0.000000 0.026411 0.000000
# 6 0.000000 0.000000 0.000000 0.000000 0.000000 0.056193
#
#
# Mechanical properties :
#
#
# Convention : Reuss Voigt Hill
#
# Bulk Modulus (GPa) = 24.61193 26.09518 25.35355
# Shear Modulus (GPa) = 22.59484 26.91469 24.75476
#
# Velocity S-wave (km/s) = 3.12896 3.41500 3.27510
# Velocity P-wave (km/s) = 4.87014 5.18234 5.02867
#
# Compressibility (1/GPa) = 0.04063070
#
# Stress axis : x y z
#
# Youngs Moduli (GPa) = 68.69016 52.15424 85.02942
#
# Poissons Ratio (x) = 0.06110 0.15008
# Poissons Ratio (y) = 0.08047 -0.04298
# Poissons Ratio (z) = 0.12124 -0.02636
#
# Static dielectric constant tensor:
#      x y z
#    x 1.866920 0.000000 0.000000 
#    y 0.000000 1.840380 0.000000 
#    z 0.000000 0.000000 1.905140 
# 
# From -- ./inp_files/15926.got.cif
#   From: 2010.05.17/outbox.cif.g08.bks.cpg/sg62_8_cif.got.tgz:15926.got - 2010.06.03 15:25:27.
