data_PCOD9464359
_publ_section_title
;
Structure prediction by ZEFSAII (Michael W. Deem and Ramdas Pophale) SiO2 
 PCOD9464359
Probable space group: P N M A
;
_chemical_formula_sum "Si O2"
_cell_formula_units_Z 64
_cell_length_a 15.607122
_cell_length_b 9.212245
_cell_length_c 23.703294
_cell_angle_alpha 90.000000
_cell_angle_beta 90.000000
_cell_angle_gamma 90.000000
_cell_volume 3407.979769
_symmetry_space_group_name_H-M "P N M A"
_symmetry_group_IT_number 62
_symmetry_cell_setting 'orthorhombic'
loop_
_space_group_symop_operation_xyz
x,y,z
1/2-x,-y,1/2+z
1/2+x,1/2-y,1/2-z
-x,1/2+y,-z
-x,-y,-z
1/2+x,y,1/2-z
1/2-x,1/2+y,1/2+z
x,1/2-y,z
loop_
_atom_site_type_symbol
_atom_site_label
_atom_site_fract_x
_atom_site_fract_y
_atom_site_fract_z
Si Si1 0.513765 0.077199 0.276248
Si Si2 0.184864 0.577153 0.199512
Si Si3 0.122037 0.422446 0.698237
Si Si4 0.789373 0.577879 0.041399
Si Si5 0.617093 0.077693 0.048649
Si Si6 0.052375 0.079136 0.576762
Si Si7 0.352266 0.419119 0.567589
Si Si8 0.462577 0.579155 0.390690
O O1 0.516338 0.250000 0.274829
O O2 0.478500 0.018908 0.336263
O O3 0.609164 0.010863 0.271077
O O4 0.450044 0.012643 0.229863
O O5 0.171993 0.750000 0.208297
O O6 0.281521 0.538901 0.216488
O O7 0.176300 0.552755 0.131935
O O8 0.110069 0.250000 0.709063
O O9 0.110920 0.444439 0.631184
O O10 0.963511 0.750000 0.126475
O O11 0.705304 0.498912 0.064660
O O12 0.873832 0.547488 0.078489
O O13 0.808826 0.518239 0.978898
O O14 0.622414 0.250000 0.055850
O O15 0.534360 0.013221 0.079867
O O16 0.599438 0.045792 0.982093
O O17 0.029607 0.250000 0.574943
O O18 0.332763 0.250000 0.554950
O O19 0.455153 0.439369 0.568706
O O20 0.724176 0.250000 0.540204
#
# Coordination Sequence:
#
# PCOD9464359 Si02
#       8
#     8   8   8   8   8   8   8   8
#     4  11  23  38  57  84 116 145 182 239 293 331
#     4   9  19  38  62  85 110 147 190 228 276 340
#     4  10  20  38  64  86 108 147 194 231 273 336
#     4  11  21  32  51  81 112 147 188 223 268 335
#     4  10  20  35  55  81 115 147 178 224 277 325
#     4   9  19  37  59  82 108 142 184 225 270 329
#     4   9  17  32  55  81 110 141 181 231 276 325
#     4   9  20  38  55  73 106 150 191 226 269 332
#
# _framework density 18.779454000000001
#
# number of rings (size 3 to 8) (size 9 to 14) (size 15 to 20)
#    0.000    2.250    0.000    3.750    0.000    6.500 
#    2.250    1.250    0.000    0.000    0.000    0.000 
#    0.000    0.000    0.000    0.000    0.000    0.000 
#
# Total GULP energy -357379.114823 kJ/mol
# GULP energy per Si atom -5584.048669 kJ/mol
# Density = 1.873671 g / cm^3
# Si number density = 18.779454 Si / 1000 Ang^3
#
#
#
# Elastic Constant Matrix: (Units=GPa)
#
#
# Indices 1 2 3 4 5 6 
#
# 1 139.3236 63.2589 19.9539 0.0000 0.0000 0.0000
# 2 63.2589 57.4271 20.7183 0.0000 0.0000 0.0000
# 3 19.9539 20.7183 18.1281 0.0000 0.0000 0.0000
# 4 0.0000 0.0000 0.0000 25.7895 0.0000 0.0000
# 5 0.0000 0.0000 0.0000 0.0000 16.9707 0.0000
# 6 0.0000 0.0000 0.0000 0.0000 0.0000 27.3875
#
#
#
# Elastic Compliance Matrix: (Units=1/GPa)
#
#
# Indices 1 2 3 4 5 6 
#
# 1 0.014520 -0.017406 0.003910 0.000000 0.000000 0.000000
# 2 -0.017406 0.050495 -0.038551 0.000000 0.000000 0.000000
# 3 0.003910 -0.038551 0.094919 0.000000 0.000000 0.000000
# 4 0.000000 0.000000 0.000000 0.038775 0.000000 0.000000
# 5 0.000000 0.000000 0.000000 0.000000 0.058925 0.000000
# 6 0.000000 0.000000 0.000000 0.000000 0.000000 0.036513
#
#
# Mechanical properties :
#
#
# Convention : Reuss Voigt Hill
#
# Bulk Modulus (GPa) = 17.90822 46.97121 32.43972
# Shear Modulus (GPa) = 11.99454 21.42605 16.71029
#
# Velocity S-wave (km/s) = 2.53000 3.38143 2.98622
# Velocity P-wave (km/s) = 4.25339 6.34915 5.40384
#
# Compressibility (1/GPa) = 0.05584028
#
# Stress axis : x y z
#
# Youngs Moduli (GPa) = 68.86830 19.80396 10.53525
#
# Poissons Ratio (x) = 0.34470 -0.04119
# Poissons Ratio (y) = 1.19869 0.40615
# Poissons Ratio (z) = -0.26925 0.76347
#
# Static dielectric constant tensor:
#      x y z
#    x 1.654930 0.000000 0.000000 
#    y 0.000000 1.623010 0.000000 
#    z 0.000000 0.000000 1.642590 
# 
# From -- ./inp_files/29814.got.cif
#   From: 2010.05.17/outbox.cif.g08.bks.cpg/sg62_15_cif.got.tgz:29814.got - 2010.06.03 15:25:27.
