data_PCOD9464057
_publ_section_title
;
Structure prediction by ZEFSAII (Michael W. Deem and Ramdas Pophale) SiO2 
 PCOD9464057
Probable space group: P N M A
;
_chemical_formula_sum "Si O2"
_cell_formula_units_Z 64
_cell_length_a 20.590338
_cell_length_b 7.765258
_cell_length_c 21.104427
_cell_angle_alpha 90.000000
_cell_angle_beta 90.000000
_cell_angle_gamma 90.000000
_cell_volume 3374.371783
_symmetry_space_group_name_H-M "P N M A"
_symmetry_group_IT_number 62
_symmetry_cell_setting 'orthorhombic'
loop_
_space_group_symop_operation_xyz
x,y,z
1/2-x,-y,1/2+z
1/2+x,1/2-y,1/2-z
-x,1/2+y,-z
-x,-y,-z
1/2+x,y,1/2-z
1/2-x,1/2+y,1/2+z
x,1/2-y,z
loop_
_atom_site_type_symbol
_atom_site_label
_atom_site_fract_x
_atom_site_fract_y
_atom_site_fract_z
Si Si1 0.780631 0.038695 0.192768
Si Si2 0.062980 0.460691 0.233041
Si Si3 0.078418 0.445127 0.632975
Si Si4 0.800813 0.542199 0.570847
Si Si5 0.062379 0.457456 0.380903
Si Si6 0.920932 0.052290 0.225759
Si Si7 0.800809 0.539647 0.816999
Si Si8 0.289790 0.453991 0.070200
O O1 0.781616 0.250000 0.193227
O O2 0.743088 0.983465 0.129706
O O3 0.854699 0.975900 0.198395
O O4 0.740968 0.987850 0.255503
O O5 0.061435 0.250000 0.232115
O O6 0.071896 0.507777 0.307020
O O7 0.125129 0.517446 0.193161
O O8 0.991957 0.523846 0.211871
O O9 0.077610 0.250000 0.655741
O O10 0.084730 0.553942 0.697475
O O11 0.139947 0.471613 0.588490
O O12 0.009368 0.482038 0.600337
O O13 0.802485 0.750000 0.573755
O O14 0.875155 0.480692 0.580454
O O15 0.774761 0.490991 0.502525
O O16 0.061589 0.250000 0.383201
O O17 0.922876 0.250000 0.203658
O O18 0.801959 0.750000 0.817567
O O19 0.763954 0.481000 0.880076
O O20 0.294840 0.250000 0.079302
#
# Coordination Sequence:
#
# PCOD9464057 Si02
#       8
#     8   8   8   8   8   8   8   8
#     4   9  15  28  52  78  99 126 165 209 249 290
#     4   8  13  24  47  77  99 119 159 208 244 281
#     4  11  21  32  48  72 103 134 165 203 245 294
#     4  10  20  34  53  75 101 131 168 212 253 292
#     4   9  17  31  51  72  96 130 166 202 244 294
#     4   9  16  29  52  78 101 127 164 206 249 296
#     4   9  15  27  50  76  97 124 166 209 245 286
#     4  11  22  35  51  70 100 137 171 207 248 299
#
# _framework density 18.966493
#
# number of rings (size 3 to 8) (size 9 to 14) (size 15 to 20)
#    0.000    2.500    2.500    2.250    0.000    1.000 
#    0.000    0.625    0.000    6.750    0.000    0.000 
#    0.000    0.000    0.000    0.000    0.000    0.125 
#
# Total GULP energy -356990.393630 kJ/mol
# GULP energy per Si atom -5577.974900 kJ/mol
# Density = 1.892332 g / cm^3
# Si number density = 18.966493 Si / 1000 Ang^3
#
#
#
# Elastic Constant Matrix: (Units=GPa)
#
#
# Indices 1 2 3 4 5 6 
#
# 1 143.5352 4.1670 55.4528 0.0000 0.0000 0.0000
# 2 4.1670 32.9423 -3.8510 0.0000 0.0000 0.0000
# 3 55.4528 -3.8510 80.1958 0.0000 0.0000 0.0000
# 4 0.0000 0.0000 0.0000 11.5857 0.0000 0.0000
# 5 0.0000 0.0000 0.0000 0.0000 21.8564 0.0000
# 6 0.0000 0.0000 0.0000 0.0000 0.0000 -7.9257
#
#
#
# Elastic Compliance Matrix: (Units=1/GPa)
#
#
# Indices 1 2 3 4 5 6 
#
# 1 0.009637 -0.002009 -0.006760 0.000000 0.000000 0.000000
# 2 -0.002009 0.030946 0.002875 0.000000 0.000000 0.000000
# 3 -0.006760 0.002875 0.017282 0.000000 0.000000 0.000000
# 4 0.000000 0.000000 0.000000 0.086313 0.000000 0.000000
# 5 0.000000 0.000000 0.000000 0.000000 0.045753 0.000000
# 6 0.000000 0.000000 0.000000 0.000000 0.000000 -0.126172
#
#
# Mechanical properties :
#
#
# Convention : Reuss Voigt Hill
#
# Bulk Modulus (GPa) = 21.70269 40.91233 31.30751
# Shear Modulus (GPa) = 55.00133 18.49690 36.74912
#
# Velocity S-wave (km/s) = 5.39093 3.12627 4.40657
# Velocity P-wave (km/s) = 7.08640 5.88635 6.51407
#
# Compressibility (1/GPa) = 0.04607723
#
# Stress axis : x y z
#
# Youngs Moduli (GPa) = 103.76733 32.31398 57.86379
#
# Poissons Ratio (x) = 0.06493 0.39117
# Poissons Ratio (y) = 0.20850 -0.16638
# Poissons Ratio (z) = 0.70148 -0.09291
#
# Static dielectric constant tensor:
#      x y z
#    x 1.684730 0.000000 0.000000 
#    y 0.000000 1.709840 0.000000 
#    z 0.000000 0.000000 1.624630 
# 
# From -- ./inp_files/24803.got.cif
#   From: 2010.05.17/outbox.cif.g08.bks.cpg/sg62_13_cif.got.tgz:24803.got - 2010.06.03 15:25:27.
