data_PCOD9464705
_publ_section_title
;
Structure prediction by ZEFSAII (Michael W. Deem and Ramdas Pophale) SiO2 
 PCOD9464705
Probable space group: P N M A
;
_chemical_formula_sum "Si O2"
_cell_formula_units_Z 56
_cell_length_a 20.081966
_cell_length_b 8.914698
_cell_length_c 16.008395
_cell_angle_alpha 90.000000
_cell_angle_beta 90.000000
_cell_angle_gamma 90.000000
_cell_volume 2865.897506
_symmetry_space_group_name_H-M "P N M A"
_symmetry_group_IT_number 62
_symmetry_cell_setting 'orthorhombic'
loop_
_space_group_symop_operation_xyz
x,y,z
1/2-x,-y,1/2+z
1/2+x,1/2-y,1/2-z
-x,1/2+y,-z
-x,-y,-z
1/2+x,y,1/2-z
1/2-x,1/2+y,1/2+z
x,1/2-y,z
loop_
_atom_site_type_symbol
_atom_site_label
_atom_site_fract_x
_atom_site_fract_y
_atom_site_fract_z
Si Si1 0.910188 0.420843 0.313353
Si Si2 0.985888 0.419918 0.912688
Si Si3 0.442759 0.571812 0.748609
Si Si4 0.193298 0.925485 0.287925
Si Si5 0.776074 0.574029 0.040278
Si Si6 0.783693 0.928436 0.375503
Si Si7 0.891635 0.417991 0.126280
O O1 0.912066 0.250000 0.347577
O O2 0.861398 0.528071 0.363862
O O3 0.873514 0.410498 0.223143
O O4 0.987045 0.468777 0.294864
O O5 0.964909 0.250000 0.921516
O O6 0.058610 0.441663 0.873595
O O7 0.941172 0.505257 0.845481
O O8 0.000000 0.500000 0.000000
O O9 0.444721 0.750000 0.742181
O O10 0.375294 0.516715 0.790587
O O11 0.176363 0.750000 0.277196
O O12 0.231051 0.940438 0.376267
O O13 0.240023 0.965445 0.208065
O O14 0.795938 0.750000 0.034314
O O15 0.836491 0.461297 0.060085
O O16 0.742632 0.520763 0.954877
O O17 0.777338 0.750000 0.389038
O O18 0.920202 0.250000 0.108708
#
# Coordination Sequence:
#
# PCOD9464705 Si02
#       7
#     8   8   8   8   8   8   8
#     4   9  19  38  61  87 117 154 199 246 298 361
#     4  11  22  36  55  81 118 158 199 244 298 360
#     4  10  22  39  61  88 118 157 204 251 309 368
#     4  10  23  42  62  89 125 161 203 255 308 367
#     4  11  23  40  61  89 123 160 204 252 308 364
#     4  11  23  39  62  91 122 159 207 253 304 366
#     4  10  20  36  58  84 117 154 196 244 295 355
#
# _framework density 19.540126000000001
#
# number of rings (size 3 to 8) (size 9 to 14) (size 15 to 20)
#    0.000    1.714    1.429    3.857    2.000    5.143 
#    0.000    0.714    0.000    0.000    0.000    0.000 
#    0.000    0.000    0.000    0.000    0.000    0.000 
#
# Total GULP energy -311924.219838 kJ/mol
# GULP energy per Si atom -5570.075354 kJ/mol
# Density = 1.949565 g / cm^3
# Si number density = 19.540126 Si / 1000 Ang^3
#
#
#
# Elastic Constant Matrix: (Units=GPa)
#
#
# Indices 1 2 3 4 5 6 
#
# 1 48.9800 24.3458 1.9262 0.0000 0.0000 0.0000
# 2 24.3458 61.4523 24.8300 0.0000 0.0000 0.0000
# 3 1.9262 24.8300 59.8238 0.0000 0.0000 0.0000
# 4 0.0000 0.0000 0.0000 30.3392 0.0000 0.0000
# 5 0.0000 0.0000 0.0000 0.0000 17.6321 0.0000
# 6 0.0000 0.0000 0.0000 0.0000 0.0000 32.3926
#
#
#
# Elastic Compliance Matrix: (Units=1/GPa)
#
#
# Indices 1 2 3 4 5 6 
#
# 1 0.026262 -0.012090 0.004172 0.000000 0.000000 0.000000
# 2 -0.012090 0.025118 -0.010036 0.000000 0.000000 0.000000
# 3 0.004172 -0.010036 0.020747 0.000000 0.000000 0.000000
# 4 0.000000 0.000000 0.000000 0.032961 0.000000 0.000000
# 5 0.000000 0.000000 0.000000 0.000000 0.056715 0.000000
# 6 0.000000 0.000000 0.000000 0.000000 0.000000 0.030871
#
#
# Mechanical properties :
#
#
# Convention : Reuss Voigt Hill
#
# Bulk Modulus (GPa) = 27.60964 30.27336 28.94150
# Shear Modulus (GPa) = 20.77676 24.01637 22.39656
#
# Velocity S-wave (km/s) = 3.26435 3.50963 3.38921
# Velocity P-wave (km/s) = 5.32619 5.65242 5.49173
#
# Compressibility (1/GPa) = 0.03621923
#
# Stress axis : x y z
#
# Youngs Moduli (GPa) = 38.07793 39.81266 48.20011
#
# Poissons Ratio (x) = 0.48134 -0.20111
# Poissons Ratio (y) = 0.46037 0.48373
# Poissons Ratio (z) = -0.15888 0.39955
#
# Static dielectric constant tensor:
#      x y z
#    x 1.758460 0.000000 0.000000 
#    y 0.000000 1.596220 0.000000 
#    z 0.000000 0.000000 1.755620 
# 
# From -- ./inp_files/20329.got.cif
#   From: 2010.05.17/outbox.cif.g08.bks.cpg/sg62_11_cif.got.tgz:20329.got - 2010.06.03 15:25:27.
