data_PCOD9464884
_publ_section_title
;
Structure prediction by ZEFSAII (Michael W. Deem and Ramdas Pophale) SiO2 
 PCOD9464884
Probable space group: P N M A
;
_chemical_formula_sum "Si O2"
_cell_formula_units_Z 60
_cell_length_a 17.057686
_cell_length_b 12.025151
_cell_length_c 14.552513
_cell_angle_alpha 90.000000
_cell_angle_beta 90.000000
_cell_angle_gamma 90.000000
_cell_volume 2985.029655
_symmetry_space_group_name_H-M "P N M A"
_symmetry_group_IT_number 62
_symmetry_cell_setting 'orthorhombic'
loop_
_space_group_symop_operation_xyz
x,y,z
1/2-x,-y,1/2+z
1/2+x,1/2-y,1/2-z
-x,1/2+y,-z
-x,-y,-z
1/2+x,y,1/2-z
1/2-x,1/2+y,1/2+z
x,1/2-y,z
loop_
_atom_site_type_symbol
_atom_site_label
_atom_site_fract_x
_atom_site_fract_y
_atom_site_fract_z
Si Si1 0.930615 0.117204 0.649284
Si Si2 0.906752 0.536573 0.305321
Si Si3 0.766415 0.080189 0.572379
Si Si4 0.726885 0.874341 0.864444
Si Si5 0.321293 0.750000 0.288439
Si Si6 0.130120 0.995247 0.165960
Si Si7 0.672041 0.876114 0.516389
Si Si8 0.525833 0.879667 0.644460
O O1 0.935502 0.250000 0.647309
O O2 0.859867 0.080750 0.583752
O O3 0.016306 0.065689 0.635082
O O4 0.902499 0.075679 0.749845
O O5 0.841648 0.464127 0.356461
O O6 0.870492 0.650374 0.265296
O O7 0.936300 0.456357 0.222999
O O8 0.746965 0.127580 0.471162
O O9 0.727532 0.153855 0.651870
O O10 0.728364 0.958610 0.571109
O O11 0.703555 0.750000 0.836128
O O12 0.800374 0.920954 0.806986
O O13 0.058939 0.067733 0.124916
O O14 0.165701 0.914469 0.088914
O O15 0.699060 0.750000 0.522809
O O16 0.585066 0.884142 0.559059
O O17 0.518369 0.750000 0.671780
#
# Coordination Sequence:
#
# PCOD9464884 Si02
#       8
#     8   8   8   8   4   8   8   8
#     4  11  22  41  62  93 126 169 214 271 325 387
#     4  11  24  39  64  92 126 167 221 270 328 380
#     4  11  23  41  67  89 129 171 216 262 332 393
#     4  11  23  42  62  94 125 173 214 270 320 396
#     4  12  20  42  66  98 122 172 216 276 326 404
#     4  10  22  36  61  94 125 161 214 263 328 389
#     4  10  21  39  59  92 129 167 208 260 327 392
#     4  10  20  37  58  88 127 167 206 263 325 394
#
# _framework density 20.100301999999999
#
# number of rings (size 3 to 8) (size 9 to 14) (size 15 to 20)
#    0.000    1.333    3.333    2.400    0.000    0.533 
#    4.800    3.333    0.000    0.000    0.000    0.000 
#    0.000    0.000    0.000    0.000    0.000    0.000 
#
# Total GULP energy -334041.388249 kJ/mol
# GULP energy per Si atom -5567.356471 kJ/mol
# Density = 2.005455 g / cm^3
# Si number density = 20.100302 Si / 1000 Ang^3
#
#
#
# Elastic Constant Matrix: (Units=GPa)
#
#
# Indices 1 2 3 4 5 6 
#
# 1 103.5397 59.2389 1.7507 0.0000 0.0000 0.0000
# 2 59.2389 183.5129 9.3927 0.0000 0.0000 0.0000
# 3 1.7507 9.3927 8.1257 0.0000 0.0000 0.0000
# 4 0.0000 0.0000 0.0000 14.1256 0.0000 0.0000
# 5 0.0000 0.0000 0.0000 0.0000 22.5807 0.0000
# 6 0.0000 0.0000 0.0000 0.0000 0.0000 11.9915
#
#
#
# Elastic Compliance Matrix: (Units=1/GPa)
#
#
# Indices 1 2 3 4 5 6 
#
# 1 0.011876 -0.003936 0.001990 0.000000 0.000000 0.000000
# 2 -0.003936 0.007096 -0.007355 0.000000 0.000000 0.000000
# 3 0.001990 -0.007355 0.131139 0.000000 0.000000 0.000000
# 4 0.000000 0.000000 0.000000 0.070793 0.000000 0.000000
# 5 0.000000 0.000000 0.000000 0.000000 0.044286 0.000000
# 6 0.000000 0.000000 0.000000 0.000000 0.000000 0.083392
#
#
# Mechanical properties :
#
#
# Convention : Reuss Voigt Hill
#
# Bulk Modulus (GPa) = 7.60389 48.43809 28.02099
# Shear Modulus (GPa) = 12.16490 24.72598 18.44544
#
# Velocity S-wave (km/s) = 2.46277 3.51113 3.03259
# Velocity P-wave (km/s) = 3.44647 6.37086 5.12182
#
# Compressibility (1/GPa) = 0.13151167
#
# Stress axis : x y z
#
# Youngs Moduli (GPa) = 84.20235 140.92344 7.62551
#
# Poissons Ratio (x) = 0.55461 -0.01518
# Poissons Ratio (y) = 0.33138 0.05608
# Poissons Ratio (z) = -0.16760 1.03643
#
# Static dielectric constant tensor:
#      x y z
#    x 1.758980 0.000000 0.000000 
#    y 0.000000 1.705740 0.000000 
#    z 0.000000 0.000000 1.714640 
# 
# From -- ./inp_files/19864.got.cif
#   From: 2010.05.17/outbox.cif.g08.bks.cpg/sg62_10_cif.got.tgz:19864.got - 2010.06.03 15:25:27.
