data_PCOD9464683
_publ_section_title
;
Structure prediction by ZEFSAII (Michael W. Deem and Ramdas Pophale) SiO2 
 PCOD9464683
Probable space group: P N M A
;
_chemical_formula_sum "Si O2"
_cell_formula_units_Z 64
_cell_length_a 28.773887
_cell_length_b 8.543023
_cell_length_c 13.049348
_cell_angle_alpha 90.000000
_cell_angle_beta 90.000000
_cell_angle_gamma 90.000000
_cell_volume 3207.738247
_symmetry_space_group_name_H-M "P N M A"
_symmetry_group_IT_number 62
_symmetry_cell_setting 'orthorhombic'
loop_
_space_group_symop_operation_xyz
x,y,z
1/2-x,-y,1/2+z
1/2+x,1/2-y,1/2-z
-x,1/2+y,-z
-x,-y,-z
1/2+x,y,1/2-z
1/2-x,1/2+y,1/2+z
x,1/2-y,z
loop_
_atom_site_type_symbol
_atom_site_label
_atom_site_fract_x
_atom_site_fract_y
_atom_site_fract_z
Si Si1 0.596066 0.939712 0.117660
Si Si2 0.803856 0.934395 0.556421
Si Si3 0.882188 0.561024 0.037376
Si Si4 0.433409 0.066798 0.098633
Si Si5 0.936566 0.060920 0.844290
Si Si6 0.461914 0.562245 0.309243
Si Si7 0.711288 0.433935 0.637659
Si Si8 0.675692 0.568958 0.843987
O O1 0.597649 0.750000 0.111387
O O2 0.577150 0.984274 0.228581
O O3 0.648234 0.002699 0.104345
O O4 0.565694 0.992577 0.018807
O O5 0.808152 0.750000 0.539834
O O6 0.759007 0.974682 0.623128
O O7 0.798319 0.020327 0.447450
O O8 0.881979 0.750000 0.041123
O O9 0.917460 0.503596 0.126784
O O10 0.829744 0.509809 0.061616
O O11 0.902656 0.507039 0.929599
O O12 0.445897 0.250000 0.099530
O O13 0.378966 0.052625 0.130379
O O14 0.460437 0.982973 0.189814
O O15 0.934913 0.250000 0.850315
O O16 0.989851 0.008302 0.859596
O O17 0.461103 0.750000 0.314032
O O18 0.719834 0.250000 0.620802
O O19 0.690725 0.461692 0.750386
O O20 0.684579 0.750000 0.818302
#
# Coordination Sequence:
#
# PCOD9464683 Si02
#       8
#     8   8   8   8   8   8   8   8
#     4   9  20  40  58  81 117 155 195 244 298 349
#     4  11  23  38  59  87 116 152 194 239 294 356
#     4  10  22  38  57  83 118 152 192 243 291 345
#     4   9  18  33  57  83 111 147 189 238 288 344
#     4  10  22  38  59  83 117 159 196 239 293 350
#     4  10  20  36  57  86 117 151 194 242 292 346
#     4  11  22  38  60  86 116 153 193 243 297 348
#     4  10  20  37  59  84 114 148 189 240 291 347
#
# _framework density 19.951751999999999
#
# number of rings (size 3 to 8) (size 9 to 14) (size 15 to 20)
#    0.000    2.000    1.250    3.000    0.000    6.000 
#    0.000    2.500    0.000    0.000    0.000    0.000 
#    0.000    0.000    0.000    0.000    0.000    0.000 
#
# Total GULP energy -357392.932178 kJ/mol
# GULP energy per Si atom -5584.264565 kJ/mol
# Density = 1.990634 g / cm^3
# Si number density = 19.951752 Si / 1000 Ang^3
#
#
#
# Elastic Constant Matrix: (Units=GPa)
#
#
# Indices 1 2 3 4 5 6 
#
# 1 36.2291 3.7608 2.8500 0.0000 0.0000 0.0000
# 2 3.7608 6.8151 -2.2992 0.0000 0.0000 0.0000
# 3 2.8500 -2.2992 74.2376 0.0000 0.0000 0.0000
# 4 0.0000 0.0000 0.0000 29.2700 0.0000 0.0000
# 5 0.0000 0.0000 0.0000 0.0000 13.6773 0.0000
# 6 0.0000 0.0000 0.0000 0.0000 0.0000 14.1642
#
#
#
# Elastic Compliance Matrix: (Units=1/GPa)
#
#
# Indices 1 2 3 4 5 6 
#
# 1 0.029479 -0.016825 -0.001653 0.000000 0.000000 0.000000
# 2 -0.016825 0.157884 0.005536 0.000000 0.000000 0.000000
# 3 -0.001653 0.005536 0.013705 0.000000 0.000000 0.000000
# 4 0.000000 0.000000 0.000000 0.034165 0.000000 0.000000
# 5 0.000000 0.000000 0.000000 0.000000 0.073114 0.000000
# 6 0.000000 0.000000 0.000000 0.000000 0.000000 0.070600
#
#
# Mechanical properties :
#
#
# Convention : Reuss Voigt Hill
#
# Bulk Modulus (GPa) = 5.70828 13.98946 9.84887
# Shear Modulus (GPa) = 10.79387 18.95364 14.87375
#
# Velocity S-wave (km/s) = 2.32846 3.08551 2.73332
# Velocity P-wave (km/s) = 3.17746 4.44080 3.86115
#
# Compressibility (1/GPa) = 0.17518409
#
# Stress axis : x y z
#
# Youngs Moduli (GPa) = 33.92280 6.33375 72.96529
#
# Poissons Ratio (x) = 0.10656 0.12059
# Poissons Ratio (y) = 0.57075 -0.40391
# Poissons Ratio (z) = 0.05607 -0.03506
#
# Static dielectric constant tensor:
#      x y z
#    x 1.703320 0.000000 0.000000 
#    y 0.000000 1.672390 0.000000 
#    z 0.000000 0.000000 1.699010 
# 
# From -- ./inp_files/15796.got.cif
#   From: 2010.05.17/outbox.cif.g08.bks.cpg/sg62_8_cif.got.tgz:15796.got - 2010.06.03 15:25:27.
