data_PCOD9464758
_publ_section_title
;
Structure prediction by ZEFSAII (Michael W. Deem and Ramdas Pophale) SiO2 
 PCOD9464758
Probable space group: P N M A
;
_chemical_formula_sum "Si O2"
_cell_formula_units_Z 36
_cell_length_a 4.915838
_cell_length_b 25.645720
_cell_length_c 11.465887
_cell_angle_alpha 90.000000
_cell_angle_beta 90.000000
_cell_angle_gamma 90.000000
_cell_volume 1445.506724
_symmetry_space_group_name_H-M "P N M A"
_symmetry_group_IT_number 62
_symmetry_cell_setting 'orthorhombic'
loop_
_space_group_symop_operation_xyz
x,y,z
1/2-x,-y,1/2+z
1/2+x,1/2-y,1/2-z
-x,1/2+y,-z
-x,-y,-z
1/2+x,y,1/2-z
1/2-x,1/2+y,1/2+z
x,1/2-y,z
loop_
_atom_site_type_symbol
_atom_site_label
_atom_site_fract_x
_atom_site_fract_y
_atom_site_fract_z
Si Si1 0.119880 0.750000 0.175957
Si Si2 0.151079 0.496537 0.331170
Si Si3 0.025900 0.191347 0.506991
Si Si4 0.244132 0.391359 0.837430
Si Si5 0.717341 0.614495 0.672041
O O1 0.305910 0.750000 0.292556
O O2 0.239869 0.797359 0.102727
O O3 0.843521 0.496893 0.284815
O O4 0.221439 0.550790 0.392261
O O5 0.220611 0.441228 0.388472
O O6 0.924961 0.250000 0.473851
O O7 0.813195 0.152479 0.567703
O O8 0.177001 0.162097 0.403412
O O9 0.964220 0.388041 0.767502
O O10 0.906309 0.615912 0.788120
#
# Coordination Sequence:
#
# PCOD9464758 Si02
#       5
#     4   8   8   8   8
#     4  10  22  40  58  82 116 144 180 234 278 334
#     4   8  16  33  57  82 111 148 185 233 291 334
#     4  10  24  39  59  90 110 162 194 230 289 345
#     4  10  20  36  59  87 118 149 187 237 291 349
#     4  10  22  41  60  83 117 151 195 245 280 330
#
# _framework density 24.904761000000001
#
# number of rings (size 3 to 8) (size 9 to 14) (size 15 to 20)
#    0.667    1.778    0.000    1.333    0.000    5.333 
#    0.000    0.000    0.000   16.000    0.000    0.000 
#    0.000    0.000    0.000    0.000    0.000    0.000 
#
# Total GULP energy -201294.148369 kJ/mol
# GULP energy per Si atom -5591.504121 kJ/mol
# Density = 2.484808 g / cm^3
# Si number density = 24.904761 Si / 1000 Ang^3
#
#
#
# Elastic Constant Matrix: (Units=GPa)
#
#
# Indices 1 2 3 4 5 6 
#
# 1 93.1943 -7.4442 2.7401 0.0000 0.0000 0.0000
# 2 -7.4442 184.9373 33.7733 0.0000 0.0000 0.0000
# 3 2.7401 33.7733 33.2730 0.0000 0.0000 0.0000
# 4 0.0000 0.0000 0.0000 4.7761 0.0000 0.0000
# 5 0.0000 0.0000 0.0000 0.0000 10.0358 0.0000
# 6 0.0000 0.0000 0.0000 0.0000 0.0000 25.9577
#
#
#
# Elastic Compliance Matrix: (Units=1/GPa)
#
#
# Indices 1 2 3 4 5 6 
#
# 1 0.010837 0.000736 -0.001639 0.000000 0.000000 0.000000
# 2 0.000736 0.006688 -0.006849 0.000000 0.000000 0.000000
# 3 -0.001639 -0.006849 0.037141 0.000000 0.000000 0.000000
# 4 0.000000 0.000000 0.000000 0.209377 0.000000 0.000000
# 5 0.000000 0.000000 0.000000 0.000000 0.099643 0.000000
# 6 0.000000 0.000000 0.000000 0.000000 0.000000 0.038524
#
#
# Mechanical properties :
#
#
# Convention : Reuss Voigt Hill
#
# Bulk Modulus (GPa) = 25.53537 41.06036 33.29786
# Shear Modulus (GPa) = 11.60718 26.97628 19.29173
#
# Velocity S-wave (km/s) = 2.16119 3.29474 2.78622
# Velocity P-wave (km/s) = 4.06240 5.56745 4.87338
#
# Compressibility (1/GPa) = 0.03916137
#
# Stress axis : x y z
#
# Youngs Moduli (GPa) = 92.27465 149.53142 26.92439
#
# Poissons Ratio (x) = -0.10999 0.04413
# Poissons Ratio (y) = -0.06787 0.18440
# Poissons Ratio (z) = 0.15125 1.02409
#
# Static dielectric constant tensor:
#      x y z
#    x 1.917740 0.000000 0.000000 
#    y 0.000000 2.076960 0.000000 
#    z 0.000000 0.000000 1.945540 
# 
# From -- ./inp_files/10719.got.cif
#   From: 2010.05.17/outbox.cif.g08.bks.cpg/sg62_6_cif.got.tgz:10719.got - 2010.06.03 15:25:27.
