data_PCOD9464418
_publ_section_title
;
Structure prediction by ZEFSAII (Michael W. Deem and Ramdas Pophale) SiO2 
 PCOD9464418
Probable space group: P N M A
;
_chemical_formula_sum "Si O2"
_cell_formula_units_Z 64
_cell_length_a 12.854438
_cell_length_b 7.896280
_cell_length_c 28.144161
_cell_angle_alpha 90.000000
_cell_angle_beta 90.000000
_cell_angle_gamma 90.000000
_cell_volume 2856.695432
_symmetry_space_group_name_H-M "P N M A"
_symmetry_group_IT_number 62
_symmetry_cell_setting 'orthorhombic'
loop_
_space_group_symop_operation_xyz
x,y,z
1/2-x,-y,1/2+z
1/2+x,1/2-y,1/2-z
-x,1/2+y,-z
-x,-y,-z
1/2+x,y,1/2-z
1/2-x,1/2+y,1/2+z
x,1/2-y,z
loop_
_atom_site_type_symbol
_atom_site_label
_atom_site_fract_x
_atom_site_fract_y
_atom_site_fract_z
Si Si1 0.191591 0.958554 0.463179
Si Si2 0.867120 0.445029 0.437549
Si Si3 0.083394 0.055420 0.183991
Si Si4 0.147099 0.555001 0.282529
Si Si5 0.553199 0.550672 0.124006
Si Si6 0.862132 0.054503 0.918447
Si Si7 0.586777 0.048473 0.561378
Si Si8 0.355779 0.048134 0.331055
O O1 0.192137 0.750000 0.463366
O O2 0.126555 0.015502 0.508915
O O3 0.312092 0.014982 0.467005
O O4 0.135956 0.016514 0.414851
O O5 0.899495 0.250000 0.437847
O O6 0.940158 0.532067 0.399059
O O7 0.744739 0.457532 0.426628
O O8 0.085923 0.250000 0.167585
O O9 0.963628 0.014571 0.196080
O O10 0.147025 0.035264 0.232004
O O11 0.117390 0.950001 0.138325
O O12 0.120008 0.750000 0.272453
O O13 0.259032 0.541929 0.307254
O O14 0.070134 0.480844 0.323103
O O15 0.576562 0.750000 0.128458
O O16 0.848318 0.250000 0.932796
O O17 0.968358 0.982281 0.942597
O O18 0.579232 0.250000 0.554040
O O19 0.621909 0.015022 0.615692
O O20 0.336597 0.250000 0.332036
#
# Coordination Sequence:
#
# PCOD9464418 Si02
#       8
#     8   8   8   8   8   8   8   8
#     4   9  18  36  60  86 115 153 195 243 298 349
#     4  11  23  37  57  84 121 161 196 241 299 350
#     4  10  22  39  59  85 117 149 186 236 293 347
#     4  11  22  37  61  87 112 150 194 237 286 346
#     4  10  21  39  60  82 115 154 200 247 288 347
#     4  10  21  38  60  84 115 155 197 239 288 351
#     4   9  17  35  61  84 110 148 194 240 286 343
#     4  10  20  35  56  83 115 148 183 235 293 342
#
# _framework density 22.403507000000001
#
# number of rings (size 3 to 8) (size 9 to 14) (size 15 to 20)
#    0.000    2.000    1.250    2.250    0.000    4.500 
#    0.000    4.375    0.000    0.000    0.000    0.000 
#    0.000    0.000    0.000    0.000    0.000    0.000 
#
# Total GULP energy -357430.125934 kJ/mol
# GULP energy per Si atom -5584.845718 kJ/mol
# Density = 2.235252 g / cm^3
# Si number density = 22.403507 Si / 1000 Ang^3
#
#
#
# Elastic Constant Matrix: (Units=GPa)
#
#
# Indices 1 2 3 4 5 6 
#
# 1 90.0601 -6.2731 4.9760 0.0000 0.0000 0.0000
# 2 -6.2731 40.1998 1.8901 0.0000 0.0000 0.0000
# 3 4.9760 1.8901 53.0869 0.0000 0.0000 0.0000
# 4 0.0000 0.0000 0.0000 13.5120 0.0000 0.0000
# 5 0.0000 0.0000 0.0000 0.0000 26.9845 0.0000
# 6 0.0000 0.0000 0.0000 0.0000 0.0000 17.6462
#
#
#
# Elastic Compliance Matrix: (Units=1/GPa)
#
#
# Indices 1 2 3 4 5 6 
#
# 1 0.011292 0.001815 -0.001123 0.000000 0.000000 0.000000
# 2 0.001815 0.025209 -0.001068 0.000000 0.000000 0.000000
# 3 -0.001123 -0.001068 0.018980 0.000000 0.000000 0.000000
# 4 0.000000 0.000000 0.000000 0.074008 0.000000 0.000000
# 5 0.000000 0.000000 0.000000 0.000000 0.037058 0.000000
# 6 0.000000 0.000000 0.000000 0.000000 0.000000 0.056669
#
#
# Mechanical properties :
#
#
# Convention : Reuss Voigt Hill
#
# Bulk Modulus (GPa) = 18.27148 20.50363 19.38755
# Shear Modulus (GPa) = 20.64303 23.81214 22.22758
#
# Velocity S-wave (km/s) = 3.03878 3.26371 3.15325
# Velocity P-wave (km/s) = 4.52610 4.83470 4.68294
#
# Compressibility (1/GPa) = 0.05473010
#
# Stress axis : x y z
#
# Youngs Moduli (GPa) = 88.55699 39.66808 52.68619
#
# Poissons Ratio (x) = -0.07199 0.05917
# Poissons Ratio (y) = -0.16072 0.05625
# Poissons Ratio (z) = 0.09945 0.04235
#
# Static dielectric constant tensor:
#      x y z
#    x 1.844430 0.000000 0.000000 
#    y 0.000000 1.791060 0.000000 
#    z 0.000000 0.000000 1.843370 
# 
# From -- ./inp_files/32592.got.cif
#   From: 2010.05.17/outbox.cif.g08.bks.cpg/sg62_17_cif.got.tgz:32592.got - 2010.06.03 15:25:27.
