data_PCOD9464311
_publ_section_title
;
Structure prediction by ZEFSAII (Michael W. Deem and Ramdas Pophale) SiO2 
 PCOD9464311
Probable space group: P N M A
;
_chemical_formula_sum "Si O2"
_cell_formula_units_Z 56
_cell_length_a 24.358596
_cell_length_b 7.895882
_cell_length_c 14.197363
_cell_angle_alpha 90.000000
_cell_angle_beta 90.000000
_cell_angle_gamma 90.000000
_cell_volume 2730.615735
_symmetry_space_group_name_H-M "P N M A"
_symmetry_group_IT_number 62
_symmetry_cell_setting 'orthorhombic'
loop_
_space_group_symop_operation_xyz
x,y,z
1/2-x,-y,1/2+z
1/2+x,1/2-y,1/2-z
-x,1/2+y,-z
-x,-y,-z
1/2+x,y,1/2-z
1/2-x,1/2+y,1/2+z
x,1/2-y,z
loop_
_atom_site_type_symbol
_atom_site_label
_atom_site_fract_x
_atom_site_fract_y
_atom_site_fract_z
Si Si1 0.228474 0.953254 0.693670
Si Si2 0.445667 0.555782 0.098703
Si Si3 0.382049 0.050569 0.281171
Si Si4 0.475367 0.548301 0.399909
Si Si5 0.162457 0.046264 0.508970
Si Si6 0.831890 0.954037 0.698729
Si Si7 0.958315 0.045426 0.715930
O O1 0.231634 0.750000 0.689991
O O2 0.181550 0.996787 0.770980
O O3 0.287460 0.019844 0.726441
O O4 0.203845 0.007939 0.593669
O O5 0.454497 0.750000 0.069225
O O6 0.414294 0.551389 0.200009
O O7 0.398906 0.476418 0.032331
O O8 0.504861 0.480522 0.127157
O O9 0.386694 0.250000 0.258019
O O10 0.414296 0.018643 0.377462
O O11 0.500000 0.500000 0.500000
O O12 0.473408 0.750000 0.394564
O O13 0.513500 0.485488 0.313330
O O14 0.156870 0.250000 0.505988
O O15 0.181770 0.986533 0.407168
O O16 0.827868 0.750000 0.699416
O O17 0.895092 0.997615 0.715373
O O18 0.962234 0.250000 0.713313
#
# Coordination Sequence:
#
# PCOD9464311 Si02
#       7
#     8   8   8   8   8   8   8
#     4   9  19  36  54  74 105 140 177 224 267 313
#     4   8  15  30  51  74 102 131 168 213 255 310
#     4   9  16  29  51  74  98 134 174 215 264 309
#     4  10  20  35  54  78 108 139 177 222 267 320
#     4   9  18  34  56  78 101 138 181 219 265 320
#     4  10  21  36  53  77 111 143 176 221 270 319
#     4   9  19  34  51  75 107 139 170 216 268 314
#
# _framework density 20.508195000000001
#
# number of rings (size 3 to 8) (size 9 to 14) (size 15 to 20)
#    0.000    2.857    0.000    1.714    0.000    5.143 
#    2.571    0.000    0.000    0.000    0.000    0.000 
#    0.000    0.000    0.000    0.000    0.000    0.000 
#
# Total GULP energy -312117.904964 kJ/mol
# GULP energy per Si atom -5573.534017 kJ/mol
# Density = 2.046152 g / cm^3
# Si number density = 20.508195 Si / 1000 Ang^3
#
#
#
# Elastic Constant Matrix: (Units=GPa)
#
#
# Indices 1 2 3 4 5 6 
#
# 1 132.3135 9.5055 41.9302 0.0000 0.0000 0.0000
# 2 9.5055 32.8772 6.8599 0.0000 0.0000 0.0000
# 3 41.9302 6.8599 69.4030 0.0000 0.0000 0.0000
# 4 0.0000 0.0000 0.0000 19.4105 0.0000 0.0000
# 5 0.0000 0.0000 0.0000 0.0000 29.4098 0.0000
# 6 0.0000 0.0000 0.0000 0.0000 0.0000 23.3073
#
#
#
# Elastic Compliance Matrix: (Units=1/GPa)
#
#
# Indices 1 2 3 4 5 6 
#
# 1 0.009426 -0.001569 -0.005540 0.000000 0.000000 0.000000
# 2 -0.001569 0.031318 -0.002147 0.000000 0.000000 0.000000
# 3 -0.005540 -0.002147 0.017968 0.000000 0.000000 0.000000
# 4 0.000000 0.000000 0.000000 0.051518 0.000000 0.000000
# 5 0.000000 0.000000 0.000000 0.000000 0.034002 0.000000
# 6 0.000000 0.000000 0.000000 0.000000 0.000000 0.042905
#
#
# Mechanical properties :
#
#
# Convention : Reuss Voigt Hill
#
# Bulk Modulus (GPa) = 24.87633 39.02055 31.94844
# Shear Modulus (GPa) = 22.82585 26.17875 24.50230
#
# Velocity S-wave (km/s) = 3.33980 3.57669 3.46027
# Velocity P-wave (km/s) = 5.19891 6.01041 5.61933
#
# Compressibility (1/GPa) = 0.04019886
#
# Stress axis : x y z
#
# Youngs Moduli (GPa) = 106.08856 31.93052 55.65552
#
# Poissons Ratio (x) = 0.05011 0.30831
# Poissons Ratio (y) = 0.16650 0.11951
# Poissons Ratio (z) = 0.58770 0.06857
#
# Static dielectric constant tensor:
#      x y z
#    x 1.766280 0.000000 0.000000 
#    y 0.000000 1.751740 0.000000 
#    z 0.000000 0.000000 1.750280 
# 
# From -- ./inp_files/20275.got.cif
#   From: 2010.05.17/outbox.cif.g08.bks.cpg/sg62_11_cif.got.tgz:20275.got - 2010.06.03 15:25:27.
