data_PCOD9464565
_publ_section_title
;
Structure prediction by ZEFSAII (Michael W. Deem and Ramdas Pophale) SiO2 
 PCOD9464565
Probable space group: P N M A
;
_chemical_formula_sum "Si O2"
_cell_formula_units_Z 56
_cell_length_a 17.840572
_cell_length_b 8.757924
_cell_length_c 19.637400
_cell_angle_alpha 90.000000
_cell_angle_beta 90.000000
_cell_angle_gamma 90.000000
_cell_volume 3068.272539
_symmetry_space_group_name_H-M "P N M A"
_symmetry_group_IT_number 62
_symmetry_cell_setting 'orthorhombic'
loop_
_space_group_symop_operation_xyz
x,y,z
1/2-x,-y,1/2+z
1/2+x,1/2-y,1/2-z
-x,1/2+y,-z
-x,-y,-z
1/2+x,y,1/2-z
1/2-x,1/2+y,1/2+z
x,1/2-y,z
loop_
_atom_site_type_symbol
_atom_site_label
_atom_site_fract_x
_atom_site_fract_y
_atom_site_fract_z
Si Si1 0.930827 0.067682 0.688927
Si Si2 0.310634 0.930728 0.039807
Si Si3 0.150836 0.067005 0.054869
Si Si4 0.033249 0.568180 0.569882
Si Si5 0.125559 0.067146 0.897318
Si Si6 0.475154 0.566690 0.665557
Si Si7 0.713526 0.431992 0.120891
O O1 0.932391 0.250000 0.687267
O O2 0.953874 0.006052 0.762545
O O3 0.848654 0.007678 0.668231
O O4 0.987722 0.001698 0.632600
O O5 0.320688 0.750000 0.049885
O O6 0.229997 0.984808 0.066587
O O7 0.379766 0.020878 0.071879
O O8 0.309280 0.960387 0.958184
O O9 0.162740 0.250000 0.057262
O O10 0.087984 0.025792 0.109609
O O11 0.124148 0.029206 0.978140
O O12 0.024452 0.750000 0.569332
O O13 0.000000 0.500000 0.500000
O O14 0.124009 0.250000 0.890444
O O15 0.204169 0.002093 0.869922
O O16 0.054894 0.993862 0.860312
O O17 0.477172 0.750000 0.671380
O O18 0.715198 0.250000 0.131024
#
# Coordination Sequence:
#
# PCOD9464565 Si02
#       7
#     8   8   8   8   8   8   8
#     4  12  25  41  61  86 120 161 203 250 305 363
#     4  10  20  35  60  92 122 152 196 246 296 353
#     4   9  20  38  62  90 122 159 200 249 302 357
#     4  12  23  38  62  89 120 157 200 247 299 357
#     4  10  20  37  63  93 122 155 202 252 299 358
#     4  11  23  41  61  87 123 162 204 249 305 365
#     4  10  20  37  61  88 119 155 196 244 300 358
#
# _framework density 18.251311999999999
#
# number of rings (size 3 to 8) (size 9 to 14) (size 15 to 20)
#    0.000    1.429    1.429    4.714    0.000    2.857 
#    2.571    0.000    0.000    0.000    0.000    0.000 
#    0.000    0.000    0.000    0.000    0.000    0.000 
#
# Total GULP energy -313105.824068 kJ/mol
# GULP energy per Si atom -5591.175430 kJ/mol
# Density = 1.820977 g / cm^3
# Si number density = 18.251312 Si / 1000 Ang^3
#
#
#
# Elastic Constant Matrix: (Units=GPa)
#
#
# Indices 1 2 3 4 5 6 
#
# 1 176.7503 87.6148 102.3091 0.0000 0.0000 0.0000
# 2 87.6148 114.6489 71.0553 0.0000 0.0000 0.0000
# 3 102.3091 71.0553 117.5216 0.0000 0.0000 0.0000
# 4 0.0000 0.0000 0.0000 28.1445 0.0000 0.0000
# 5 0.0000 0.0000 0.0000 0.0000 11.8632 0.0000
# 6 0.0000 0.0000 0.0000 0.0000 0.0000 38.7064
#
#
#
# Elastic Compliance Matrix: (Units=1/GPa)
#
#
# Indices 1 2 3 4 5 6 
#
# 1 0.012750 -0.004581 -0.008330 0.000000 0.000000 0.000000
# 2 -0.004581 0.015595 -0.005441 0.000000 0.000000 0.000000
# 3 -0.008330 -0.005441 0.019051 0.000000 0.000000 0.000000
# 4 0.000000 0.000000 0.000000 0.035531 0.000000 0.000000
# 5 0.000000 0.000000 0.000000 0.000000 0.084294 0.000000
# 6 0.000000 0.000000 0.000000 0.000000 0.000000 0.025836
#
#
# Mechanical properties :
#
#
# Convention : Reuss Voigt Hill
#
# Bulk Modulus (GPa) = 93.52963 103.43103 98.48033
# Shear Modulus (GPa) = 21.42931 25.60558 23.51745
#
# Velocity S-wave (km/s) = 3.43027 3.74965 3.59351
# Velocity P-wave (km/s) = 8.18814 8.69138 8.44351
#
# Compressibility (1/GPa) = 0.01069180
#
# Stress axis : x y z
#
# Youngs Moduli (GPa) = 78.43005 64.12164 52.49201
#
# Poissons Ratio (x) = 0.29375 0.43726
# Poissons Ratio (y) = 0.35930 0.28561
# Poissons Ratio (z) = 0.65332 0.34889
#
# Static dielectric constant tensor:
#      x y z
#    x 1.607130 0.000000 0.000000 
#    y 0.000000 1.602160 0.000000 
#    z 0.000000 0.000000 1.601100 
# 
# From -- ./inp_files/27096.got.cif
#   From: 2010.05.17/outbox.cif.g08.bks.cpg/sg62_14_cif.got.tgz:27096.got - 2010.06.03 15:25:27.
