data_PCOD9464384
_publ_section_title
;
Structure prediction by ZEFSAII (Michael W. Deem and Ramdas Pophale) SiO2 
 PCOD9464384
Probable space group: P N M A
;
_chemical_formula_sum "Si O2"
_cell_formula_units_Z 40
_cell_length_a 24.219395
_cell_length_b 9.237685
_cell_length_c 8.208023
_cell_angle_alpha 90.000000
_cell_angle_beta 90.000000
_cell_angle_gamma 90.000000
_cell_volume 1836.390359
_symmetry_space_group_name_H-M "P N M A"
_symmetry_group_IT_number 62
_symmetry_cell_setting 'orthorhombic'
loop_
_space_group_symop_operation_xyz
x,y,z
1/2-x,-y,1/2+z
1/2+x,1/2-y,1/2-z
-x,1/2+y,-z
-x,-y,-z
1/2+x,y,1/2-z
1/2-x,1/2+y,1/2+z
x,1/2-y,z
loop_
_atom_site_type_symbol
_atom_site_label
_atom_site_fract_x
_atom_site_fract_y
_atom_site_fract_z
Si Si1 0.870885 0.923616 0.853971
Si Si2 0.426623 0.080164 0.347398
Si Si3 0.468440 0.579670 0.856647
Si Si4 0.269589 0.082267 0.501145
Si Si5 0.824576 0.083405 0.357067
O O1 0.865832 0.750000 0.851118
O O2 0.908007 0.971060 0.700009
O O3 0.811678 0.995296 0.882770
O O4 0.905947 0.976614 0.010728
O O5 0.416109 0.250000 0.391604
O O6 0.489737 0.064682 0.296506
O O7 0.387639 0.050392 0.190226
O O8 0.464858 0.750000 0.895559
O O9 0.500000 0.500000 0.000000
O O10 0.269779 0.250000 0.546405
O O11 0.293518 0.070123 0.318598
O O12 0.208633 0.018626 0.522107
O O13 0.820567 0.250000 0.410949
#
# Coordination Sequence:
#
# PCOD9464384 Si02
#       5
#     8   8   8   8   8
#     4  10  20  35  56  81 107 138 178 219 259 311
#     4   9  19  37  57  78 106 140 178 218 262 314
#     4  10  22  37  54  80 111 140 174 218 265 313
#     4  10  21  36  55  79 107 141 178 216 263 315
#     4   9  19  35  54  78 107 137 175 221 262 309
#
# _framework density 21.781862
#
# number of rings (size 3 to 8) (size 9 to 14) (size 15 to 20)
#    0.000    2.400    0.000    3.000    0.000    8.000 
#    0.000    4.000    0.000    0.000    0.000    0.000 
#    0.000    0.000    0.000    0.000    0.000    0.000 
#
# Total GULP energy -223472.749805 kJ/mol
# GULP energy per Si atom -5586.818745 kJ/mol
# Density = 2.173229 g / cm^3
# Si number density = 21.781862 Si / 1000 Ang^3
#
#
#
# Elastic Constant Matrix: (Units=GPa)
#
#
# Indices 1 2 3 4 5 6 
#
# 1 85.1117 14.3005 -3.5074 0.0000 0.0000 0.0000
# 2 14.3005 38.3950 12.8248 0.0000 0.0000 0.0000
# 3 -3.5074 12.8248 33.1498 0.0000 0.0000 0.0000
# 4 0.0000 0.0000 0.0000 27.3960 0.0000 0.0000
# 5 0.0000 0.0000 0.0000 0.0000 28.0254 0.0000
# 6 0.0000 0.0000 0.0000 0.0000 0.0000 26.3148
#
#
#
# Elastic Compliance Matrix: (Units=1/GPa)
#
#
# Indices 1 2 3 4 5 6 
#
# 1 0.012919 -0.006050 0.003707 0.000000 0.000000 0.000000
# 2 -0.006050 0.032744 -0.013308 0.000000 0.000000 0.000000
# 3 0.003707 -0.013308 0.035707 0.000000 0.000000 0.000000
# 4 0.000000 0.000000 0.000000 0.036502 0.000000 0.000000
# 5 0.000000 0.000000 0.000000 0.000000 0.035682 0.000000
# 6 0.000000 0.000000 0.000000 0.000000 0.000000 0.038001
#
#
# Mechanical properties :
#
#
# Convention : Reuss Voigt Hill
#
# Bulk Modulus (GPa) = 19.97272 22.65470 21.31371
# Shear Modulus (GPa) = 20.87299 25.21647 23.04473
#
# Velocity S-wave (km/s) = 3.09896 3.40616 3.25619
# Velocity P-wave (km/s) = 4.68978 5.08847 4.89319
#
# Compressibility (1/GPa) = 0.05006830
#
# Stress axis : x y z
#
# Youngs Moduli (GPa) = 77.40797 30.54038 28.00585
#
# Poissons Ratio (x) = 0.18477 -0.10383
# Poissons Ratio (y) = 0.46832 0.37269
# Poissons Ratio (z) = -0.28698 0.40642
#
# Static dielectric constant tensor:
#      x y z
#    x 1.799470 0.000000 0.000000 
#    y 0.000000 1.735090 0.000000 
#    z 0.000000 0.000000 1.827190 
# 
# From -- ./inp_files/9098.got.cif
#   From: 2010.05.17/outbox.cif.g08.bks.cpg/sg62_5_cif.got.tgz:9098.got - 2010.06.03 15:25:27.
