data_PCOD9464138
_publ_section_title
;
Structure prediction by ZEFSAII (Michael W. Deem and Ramdas Pophale) SiO2 
 PCOD9464138
Probable space group: P N M A
;
_chemical_formula_sum "Si O2"
_cell_formula_units_Z 40
_cell_length_a 6.998627
_cell_length_b 8.245303
_cell_length_c 28.176131
_cell_angle_alpha 90.000000
_cell_angle_beta 90.000000
_cell_angle_gamma 90.000000
_cell_volume 1625.926186
_symmetry_space_group_name_H-M "P N M A"
_symmetry_group_IT_number 62
_symmetry_cell_setting 'orthorhombic'
loop_
_space_group_symop_operation_xyz
x,y,z
1/2-x,-y,1/2+z
1/2+x,1/2-y,1/2-z
-x,1/2+y,-z
-x,-y,-z
1/2+x,y,1/2-z
1/2-x,1/2+y,1/2+z
x,1/2-y,z
loop_
_atom_site_type_symbol
_atom_site_label
_atom_site_fract_x
_atom_site_fract_y
_atom_site_fract_z
Si Si1 0.813032 0.750000 0.711132
Si Si2 0.252788 0.750000 0.680093
Si Si3 0.813916 0.572764 0.367300
Si Si4 0.669916 0.566047 0.564190
Si Si5 0.743565 0.925438 0.164165
Si Si6 0.776767 0.436610 0.465708
O O1 0.834713 0.750000 0.767395
O O2 0.710988 0.584584 0.694642
O O3 0.022138 0.750000 0.686970
O O4 0.297382 0.585079 0.651685
O O5 0.720741 0.750000 0.363376
O O6 0.862169 0.537376 0.422223
O O7 0.012670 0.580207 0.339114
O O8 0.721504 0.750000 0.578153
O O9 0.692740 0.453998 0.609894
O O10 0.788530 0.511969 0.517912
O O11 0.449894 0.564009 0.547447
O O12 0.809419 0.750000 0.182507
O O13 0.840549 0.250000 0.465247
#
# Coordination Sequence:
#
# PCOD9464138 Si02
#       6
#     4   4   8   8   8   8
#     4  10  22  40  60  84 114 146 188 238 285 338
#     4  10  22  40  60  84 114 146 188 238 285 338
#     4  10  21  38  59  83 113 149 188 232 281 335
#     4  10  20  34  54  82 116 152 190 232 279 332
#     4  10  21  38  59  83 113 149 188 232 281 335
#     4  10  20  34  54  82 116 152 190 232 279 332
#
# _framework density 24.601362999999999
#
# number of rings (size 3 to 8) (size 9 to 14) (size 15 to 20)
#    0.000    2.000    2.000    1.200    0.000    5.600 
#    0.000    0.000    0.000    0.000    0.000    0.000 
#    0.000    0.000    0.000    0.000    0.000    0.000 
#
# Total GULP energy -223910.229871 kJ/mol
# GULP energy per Si atom -5597.755747 kJ/mol
# Density = 2.454537 g / cm^3
# Si number density = 24.601363 Si / 1000 Ang^3
#
#
#
# Elastic Constant Matrix: (Units=GPa)
#
#
# Indices 1 2 3 4 5 6 
#
# 1 59.9330 12.0421 -1.1021 0.0000 0.0000 0.0000
# 2 12.0421 248.0096 77.1371 0.0000 0.0000 0.0000
# 3 -1.1021 77.1371 121.7035 0.0000 0.0000 0.0000
# 4 0.0000 0.0000 0.0000 29.7543 0.0000 0.0000
# 5 0.0000 0.0000 0.0000 0.0000 25.5299 0.0000
# 6 0.0000 0.0000 0.0000 0.0000 0.0000 5.7072
#
#
#
# Elastic Compliance Matrix: (Units=1/GPa)
#
#
# Indices 1 2 3 4 5 6 
#
# 1 0.016918 -0.001083 0.000839 0.000000 0.000000 0.000000
# 2 -0.001083 0.005091 -0.003237 0.000000 0.000000 0.000000
# 3 0.000839 -0.003237 0.010276 0.000000 0.000000 0.000000
# 4 0.000000 0.000000 0.000000 0.033609 0.000000 0.000000
# 5 0.000000 0.000000 0.000000 0.000000 0.039170 0.000000
# 6 0.000000 0.000000 0.000000 0.000000 0.000000 0.175219
#
#
# Mechanical properties :
#
#
# Convention : Reuss Voigt Hill
#
# Bulk Modulus (GPa) = 39.48594 67.31114 53.39854
# Shear Modulus (GPa) = 16.90993 34.96954 25.93974
#
# Velocity S-wave (km/s) = 2.62459 3.77430 3.25068
# Velocity P-wave (km/s) = 5.02691 6.81278 5.98681
#
# Compressibility (1/GPa) = 0.02532547
#
# Stress axis : x y z
#
# Youngs Moduli (GPa) = 59.10778 196.41042 97.31603
#
# Poissons Ratio (x) = 0.21262 -0.08168
# Poissons Ratio (y) = 0.06398 0.31499
# Poissons Ratio (z) = -0.04961 0.63574
#
# Static dielectric constant tensor:
#      x y z
#    x 2.038630 0.000000 0.000000 
#    y 0.000000 1.946610 0.000000 
#    z 0.000000 0.000000 1.866680 
# 
# From -- ./inp_files/28635.got.cif
#   From: 2010.05.17/outbox.cif.g08.bks.cpg/sg62_15_cif.got.tgz:28635.got - 2010.06.03 15:25:27.
