data_PCOD9464782
_publ_section_title
;
Structure prediction by ZEFSAII (Michael W. Deem and Ramdas Pophale) SiO2 
 PCOD9464782
Probable space group: P N M A
;
_chemical_formula_sum "Si O2"
_cell_formula_units_Z 64
_cell_length_a 23.946549
_cell_length_b 11.260201
_cell_length_c 12.112180
_cell_angle_alpha 90.000000
_cell_angle_beta 90.000000
_cell_angle_gamma 90.000000
_cell_volume 3265.964007
_symmetry_space_group_name_H-M "P N M A"
_symmetry_group_IT_number 62
_symmetry_cell_setting 'orthorhombic'
loop_
_space_group_symop_operation_xyz
x,y,z
1/2-x,-y,1/2+z
1/2+x,1/2-y,1/2-z
-x,1/2+y,-z
-x,-y,-z
1/2+x,y,1/2-z
1/2-x,1/2+y,1/2+z
x,1/2-y,z
loop_
_atom_site_type_symbol
_atom_site_label
_atom_site_fract_x
_atom_site_fract_y
_atom_site_fract_z
Si Si1 0.052361 0.385343 0.611488
Si Si2 0.788392 0.616398 0.624459
Si Si3 0.588809 0.106661 0.120593
Si Si4 0.181332 0.466043 0.933065
Si Si5 0.750299 0.380110 0.371512
Si Si6 0.514837 0.491593 0.309367
Si Si7 0.681040 0.382803 0.816103
Si Si8 0.930053 0.113261 0.016702
O O1 0.030853 0.250000 0.609730
O O2 0.052059 0.431427 0.485085
O O3 0.118185 0.382742 0.639534
O O4 0.022320 0.450469 0.712396
O O5 0.791169 0.750000 0.581679
O O6 0.848402 0.557823 0.603629
O O7 0.731773 0.559366 0.582120
O O8 0.781783 0.619309 0.755934
O O9 0.591595 0.250000 0.117009
O O10 0.563036 0.071374 0.237921
O O11 0.177651 0.400892 0.815849
O O12 0.123068 0.528692 0.961801
O O13 0.205076 0.387373 0.031788
O O14 0.780084 0.250000 0.379084
O O15 0.787538 0.500846 0.365433
O O16 0.475273 0.409754 0.385990
O O17 0.541881 0.580614 0.399122
O O18 0.705525 0.250000 0.836143
O O19 0.912522 0.250000 0.018180
#
# Coordination Sequence:
#
# PCOD9464782 Si02
#       8
#     8   8   8   8   8   8   8   8
#     4  10  20  37  60  87 118 157 207 257 316 385
#     4   9  19  35  56  83 117 155 199 251 310 376
#     4  10  20  36  60  86 116 158 206 258 318 388
#     4  11  20  37  60  88 120 159 207 259 315 381
#     4  10  21  36  57  88 122 160 203 256 317 376
#     4  11  22  40  58  87 122 163 211 266 322 388
#     4  10  21  38  60  89 122 162 208 257 311 381
#     4  11  24  39  60  89 125 167 214 270 332 387
#
# _framework density 19.596052
#
# number of rings (size 3 to 8) (size 9 to 14) (size 15 to 20)
#    0.000    1.750    1.250    3.375    0.000    2.500 
#    0.000    1.250    0.000    9.750    0.000    0.000 
#    0.000    0.000    0.000    0.000    0.000    0.000 
#
# Total GULP energy -356708.764403 kJ/mol
# GULP energy per Si atom -5573.574444 kJ/mol
# Density = 1.955145 g / cm^3
# Si number density = 19.596052 Si / 1000 Ang^3
#
#
#
# Elastic Constant Matrix: (Units=GPa)
#
#
# Indices 1 2 3 4 5 6 
#
# 1 77.1218 26.0933 21.1522 0.0000 0.0000 0.0000
# 2 26.0933 88.4006 18.0340 0.0000 0.0000 0.0000
# 3 21.1522 18.0340 128.8917 0.0000 0.0000 0.0000
# 4 0.0000 0.0000 0.0000 -8.5294 0.0000 0.0000
# 5 0.0000 0.0000 0.0000 0.0000 25.1056 0.0000
# 6 0.0000 0.0000 0.0000 0.0000 0.0000 55.0148
#
#
#
# Elastic Compliance Matrix: (Units=1/GPa)
#
#
# Indices 1 2 3 4 5 6 
#
# 1 0.014833 -0.003996 -0.001875 0.000000 0.000000 0.000000
# 2 -0.003996 0.012721 -0.001124 0.000000 0.000000 0.000000
# 3 -0.001875 -0.001124 0.008223 0.000000 0.000000 0.000000
# 4 0.000000 0.000000 0.000000 -0.117241 0.000000 0.000000
# 5 0.000000 0.000000 0.000000 0.000000 0.039832 0.000000
# 6 0.000000 0.000000 0.000000 0.000000 0.000000 0.018177
#
#
# Mechanical properties :
#
#
# Convention : Reuss Voigt Hill
#
# Bulk Modulus (GPa) = 45.89849 47.21925 46.55887
# Shear Modulus (GPa) = -2269.51911 29.59382 -1119.96264
#
# Velocity S-wave (km/s) = -34.06854 3.89034 -23.93252
# Velocity P-wave (km/s) = 39.03948 6.65795 27.20067
#
# Compressibility (1/GPa) = 0.02178721
#
# Stress axis : x y z
#
# Youngs Moduli (GPa) = 67.41869 78.61098 121.60338
#
# Poissons Ratio (x) = 0.31410 0.22802
# Poissons Ratio (y) = 0.26938 0.13670
# Poissons Ratio (z) = 0.12642 0.08837
#
# Static dielectric constant tensor:
#      x y z
#    x 1.673010 0.000000 0.000000 
#    y 0.000000 1.715530 0.000000 
#    z 0.000000 0.000000 1.708330 
# 
# From -- ./inp_files/15300.got.cif
#   From: 2010.05.17/outbox.cif.g08.bks.cpg/sg62_8_cif.got.tgz:15300.got - 2010.06.03 15:25:27.
