data_PCOD9464566
_publ_section_title
;
Structure prediction by ZEFSAII (Michael W. Deem and Ramdas Pophale) SiO2 
 PCOD9464566
Probable space group: P N M A
;
_chemical_formula_sum "Si O2"
_cell_formula_units_Z 32
_cell_length_a 5.338498
_cell_length_b 10.053305
_cell_length_c 29.370127
_cell_angle_alpha 90.000000
_cell_angle_beta 90.000000
_cell_angle_gamma 90.000000
_cell_volume 1576.281459
_symmetry_space_group_name_H-M "P N M A"
_symmetry_group_IT_number 62
_symmetry_cell_setting 'orthorhombic'
loop_
_space_group_symop_operation_xyz
x,y,z
1/2-x,-y,1/2+z
1/2+x,1/2-y,1/2-z
-x,1/2+y,-z
-x,-y,-z
1/2+x,y,1/2-z
1/2-x,1/2+y,1/2+z
x,1/2-y,z
loop_
_atom_site_type_symbol
_atom_site_label
_atom_site_fract_x
_atom_site_fract_y
_atom_site_fract_z
Si Si1 0.553894 0.606223 0.919136
Si Si2 0.546032 0.514764 0.621700
Si Si3 0.142817 0.598778 0.034302
Si Si4 0.393993 0.910723 0.276608
O O1 0.575144 0.750000 0.942376
O O2 0.290123 0.593670 0.894447
O O3 0.603744 0.480309 0.951902
O O4 0.786443 0.594749 0.884034
O O5 0.505900 0.403479 0.582469
O O6 0.582311 0.461710 0.672075
O O7 0.169192 0.750000 0.018200
O O8 0.000000 0.500000 0.000000
O O9 0.635118 0.953046 0.247133
O O10 0.394351 0.750000 0.277945
#
# Coordination Sequence:
#
# PCOD9464566 Si02
#       4
#     8   8   8   8
#     4  10  22  40  65  90 124 170 210 253 309 372
#     4  10  22  39  64  91 129 160 214 257 318 371
#     4  10  23  40  65  97 130 168 212 262 316 377
#     4  10  20  35  60  92 126 161 205 261 318 373
#
# _framework density 20.300941999999999
#
# number of rings (size 3 to 8) (size 9 to 14) (size 15 to 20)
#    1.500    0.500    0.000    3.750    0.000    3.000 
#    0.000    0.000    0.000   15.000    0.000    0.000 
#    0.000    0.000    0.000    0.000    0.000    0.000 
#
# Total GULP energy -178272.297667 kJ/mol
# GULP energy per Si atom -5571.009302 kJ/mol
# Density = 2.025474 g / cm^3
# Si number density = 20.300942 Si / 1000 Ang^3
#
#
#
# Elastic Constant Matrix: (Units=GPa)
#
#
# Indices 1 2 3 4 5 6 
#
# 1 117.8071 21.4716 13.5296 0.0000 0.0000 0.0000
# 2 21.4716 122.6083 31.1239 0.0000 0.0000 0.0000
# 3 13.5296 31.1239 105.6349 0.0000 0.0000 0.0000
# 4 0.0000 0.0000 0.0000 11.9303 0.0000 0.0000
# 5 0.0000 0.0000 0.0000 0.0000 31.7477 0.0000
# 6 0.0000 0.0000 0.0000 0.0000 0.0000 -12.8208
#
#
#
# Elastic Compliance Matrix: (Units=1/GPa)
#
#
# Indices 1 2 3 4 5 6 
#
# 1 0.008820 -0.001360 -0.000729 0.000000 0.000000 0.000000
# 2 -0.001360 0.009025 -0.002485 0.000000 0.000000 0.000000
# 3 -0.000729 -0.002485 0.010292 0.000000 0.000000 0.000000
# 4 0.000000 0.000000 0.000000 0.083820 0.000000 0.000000
# 5 0.000000 0.000000 0.000000 0.000000 0.031498 0.000000
# 6 0.000000 0.000000 0.000000 0.000000 0.000000 -0.077998
#
#
# Mechanical properties :
#
#
# Convention : Reuss Voigt Hill
#
# Bulk Modulus (GPa) = 52.65953 53.14450 52.90202
# Shear Modulus (GPa) = 61.77826 24.83310 43.30568
#
# Velocity S-wave (km/s) = 5.52244 3.50129 4.62365
# Velocity P-wave (km/s) = 8.16449 6.52538 7.39051
#
# Compressibility (1/GPa) = 0.01898991
#
# Stress axis : x y z
#
# Youngs Moduli (GPa) = 113.37903 110.80407 97.16183
#
# Poissons Ratio (x) = 0.15064 0.07084
# Poissons Ratio (y) = 0.15414 0.24144
# Poissons Ratio (z) = 0.08266 0.27534
#
# Static dielectric constant tensor:
#      x y z
#    x 1.741720 0.000000 0.000000 
#    y 0.000000 1.716890 0.000000 
#    z 0.000000 0.000000 1.702440 
# 
# From -- ./inp_files/30218.got.cif
#   From: 2010.05.17/outbox.cif.g08.bks.cpg/sg62_16_cif.got.tgz:30218.got - 2010.06.03 15:25:27.
