data_PCOD9464990
_publ_section_title
;
Structure prediction by ZEFSAII (Michael W. Deem and Ramdas Pophale) SiO2 
 PCOD9464990
Probable space group: P N M A
;
_chemical_formula_sum "Si O2"
_cell_formula_units_Z 48
_cell_length_a 14.482823
_cell_length_b 8.652880
_cell_length_c 20.706710
_cell_angle_alpha 90.000000
_cell_angle_beta 90.000000
_cell_angle_gamma 90.000000
_cell_volume 2594.926165
_symmetry_space_group_name_H-M "P N M A"
_symmetry_group_IT_number 62
_symmetry_cell_setting 'orthorhombic'
loop_
_space_group_symop_operation_xyz
x,y,z
1/2-x,-y,1/2+z
1/2+x,1/2-y,1/2-z
-x,1/2+y,-z
-x,-y,-z
1/2+x,y,1/2-z
1/2-x,1/2+y,1/2+z
x,1/2-y,z
loop_
_atom_site_type_symbol
_atom_site_label
_atom_site_fract_x
_atom_site_fract_y
_atom_site_fract_z
Si Si1 0.050492 0.062818 0.312790
Si Si2 0.551214 0.435033 0.437533
Si Si3 0.558011 0.936240 0.940712
Si Si4 0.745081 0.935609 0.640454
Si Si5 0.747001 0.435863 0.494233
Si Si6 0.448648 0.933952 0.313159
O O1 0.049201 0.250000 0.308628
O O2 0.157061 0.017226 0.327056
O O3 0.988764 0.013527 0.374176
O O4 0.002652 0.995970 0.249318
O O5 0.500000 0.500000 0.500000
O O6 0.539939 0.250000 0.433069
O O7 0.657867 0.471178 0.451280
O O8 0.507400 0.512085 0.375048
O O9 0.554933 0.750000 0.941263
O O10 0.662520 0.984558 0.954914
O O11 0.500000 0.000000 0.000000
O O12 0.740999 0.750000 0.640875
O O13 0.743331 0.990818 0.565650
O O14 0.654907 0.999751 0.676990
O O15 0.749431 0.250000 0.503749
O O16 0.442879 0.750000 0.311218
#
# Coordination Sequence:
#
# PCOD9464990 Si02
#       6
#     8   8   8   8   8   8
#     4  10  23  42  63  91 125 165 208 254 312 374
#     4  11  22  38  61  91 123 162 207 257 308 362
#     4  10  20  37  61  91 123 157 201 252 304 365
#     4  11  22  39  65  91 121 162 206 255 311 377
#     4  10  21  36  61  93 125 158 202 256 309 368
#     4  12  26  42  62  91 127 167 208 259 314 371
#
# _framework density 18.497636
#
# number of rings (size 3 to 8) (size 9 to 14) (size 15 to 20)
#    0.000    1.333    3.333    2.500    0.000    4.000 
#    0.000    3.333    0.000    0.000    0.000    0.000 
#    0.000    0.000    0.000    0.000    0.000    0.000 
#
# Total GULP energy -268145.796326 kJ/mol
# GULP energy per Si atom -5586.370757 kJ/mol
# Density = 1.845553 g / cm^3
# Si number density = 18.497636 Si / 1000 Ang^3
#
#
#
# Elastic Constant Matrix: (Units=GPa)
#
#
# Indices 1 2 3 4 5 6 
#
# 1 203.4354 58.9136 97.9104 0.0000 0.0000 0.0000
# 2 58.9136 46.9404 42.4529 0.0000 0.0000 0.0000
# 3 97.9104 42.4529 169.1792 0.0000 0.0000 0.0000
# 4 0.0000 0.0000 0.0000 35.9138 0.0000 0.0000
# 5 0.0000 0.0000 0.0000 0.0000 29.7607 0.0000
# 6 0.0000 0.0000 0.0000 0.0000 0.0000 22.1748
#
#
#
# Elastic Compliance Matrix: (Units=1/GPa)
#
#
# Indices 1 2 3 4 5 6 
#
# 1 0.008752 -0.008283 -0.002986 0.000000 0.000000 0.000000
# 2 -0.008283 0.035397 -0.004089 0.000000 0.000000 0.000000
# 3 -0.002986 -0.004089 0.008665 0.000000 0.000000 0.000000
# 4 0.000000 0.000000 0.000000 0.027844 0.000000 0.000000
# 5 0.000000 0.000000 0.000000 0.000000 0.033601 0.000000
# 6 0.000000 0.000000 0.000000 0.000000 0.000000 0.045096
#
#
# Mechanical properties :
#
#
# Convention : Reuss Voigt Hill
#
# Bulk Modulus (GPa) = 45.25327 90.90096 68.07711
# Shear Modulus (GPa) = 25.32441 32.25507 28.78974
#
# Velocity S-wave (km/s) = 3.70410 4.18034 3.94940
# Velocity P-wave (km/s) = 6.54303 8.51757 7.59474
#
# Compressibility (1/GPa) = 0.02209785
#
# Stress axis : x y z
#
# Youngs Moduli (GPa) = 114.26545 28.25086 115.40396
#
# Poissons Ratio (x) = 0.23400 0.34464
# Poissons Ratio (y) = 0.94646 0.47185
# Poissons Ratio (z) = 0.34124 0.11551
#
# Static dielectric constant tensor:
#      x y z
#    x 1.592510 0.000000 0.000000 
#    y 0.000000 1.628200 0.000000 
#    z 0.000000 0.000000 1.598600 
# 
# From -- ./inp_files/26856.got.cif
#   From: 2010.05.17/outbox.cif.g08.bks.cpg/sg62_14_cif.got.tgz:26856.got - 2010.06.03 15:25:27.
