data_PCOD9464136
_publ_section_title
;
Structure prediction by ZEFSAII (Michael W. Deem and Ramdas Pophale) SiO2 
 PCOD9464136
Probable space group: P N M A
;
_chemical_formula_sum "Si O2"
_cell_formula_units_Z 56
_cell_length_a 22.843971
_cell_length_b 8.410644
_cell_length_c 14.921194
_cell_angle_alpha 90.000000
_cell_angle_beta 90.000000
_cell_angle_gamma 90.000000
_cell_volume 2866.846420
_symmetry_space_group_name_H-M "P N M A"
_symmetry_group_IT_number 62
_symmetry_cell_setting 'orthorhombic'
loop_
_space_group_symop_operation_xyz
x,y,z
1/2-x,-y,1/2+z
1/2+x,1/2-y,1/2-z
-x,1/2+y,-z
-x,-y,-z
1/2+x,y,1/2-z
1/2-x,1/2+y,1/2+z
x,1/2-y,z
loop_
_atom_site_type_symbol
_atom_site_label
_atom_site_fract_x
_atom_site_fract_y
_atom_site_fract_z
Si Si1 0.219524 0.942196 0.099998
Si Si2 0.890509 0.442900 0.786220
Si Si3 0.223696 0.558184 0.895099
Si Si4 0.644967 0.939030 0.095595
Si Si5 0.501153 0.559456 0.601686
Si Si6 0.387386 0.058616 0.283976
Si Si7 0.352933 0.939556 0.100513
O O1 0.221570 0.750000 0.107713
O O2 0.170110 0.999477 0.167839
O O3 0.285831 0.000724 0.114036
O O4 0.203322 0.977350 0.996875
O O5 0.890263 0.250000 0.788156
O O6 0.891306 0.493437 0.682397
O O7 0.944539 0.502493 0.844073
O O8 0.230399 0.750000 0.888706
O O9 0.287212 0.481503 0.884025
O O10 0.174358 0.502903 0.826116
O O11 0.639717 0.750000 0.087527
O O12 0.629271 0.013686 0.999987
O O13 0.500000 0.500000 0.500000
O O14 0.502335 0.750000 0.600279
O O15 0.559044 0.502679 0.654613
O O16 0.386636 0.250000 0.287472
O O17 0.391222 0.005894 0.181350
O O18 0.351898 0.750000 0.106148
#
# Coordination Sequence:
#
# PCOD9464136 Si02
#       7
#     8   8   8   8   8   8   8
#     4   8  15  30  52  79 111 143 173 213 268 321
#     4  10  20  36  57  79 108 146 184 222 269 321
#     4   9  17  31  53  80 111 145 178 216 268 328
#     4  10  20  34  54  82 115 146 178 222 274 324
#     4  11  24  41  60  82 110 142 179 223 268 318
#     4  10  21  37  56  79 109 144 180 225 278 321
#     4  10  20  35  56  81 110 144 183 225 269 325
#
# _framework density 19.533660000000001
#
# number of rings (size 3 to 8) (size 9 to 14) (size 15 to 20)
#    0.000    2.286    0.000    3.857    0.000    6.286 
#    0.000    7.143    0.000    0.000    0.000    0.000 
#    0.000    0.000    0.000    0.000    0.000    0.000 
#
# Total GULP energy -312627.648975 kJ/mol
# GULP energy per Si atom -5582.636589 kJ/mol
# Density = 1.948920 g / cm^3
# Si number density = 19.533660 Si / 1000 Ang^3
#
#
#
# Elastic Constant Matrix: (Units=GPa)
#
#
# Indices 1 2 3 4 5 6 
#
# 1 47.8996 9.5126 70.2844 0.0000 0.0000 0.0000
# 2 9.5126 11.5242 15.0784 0.0000 0.0000 0.0000
# 3 70.2844 15.0784 170.2199 0.0000 0.0000 0.0000
# 4 0.0000 0.0000 0.0000 26.0979 0.0000 0.0000
# 5 0.0000 0.0000 0.0000 0.0000 35.7373 0.0000
# 6 0.0000 0.0000 0.0000 0.0000 0.0000 24.5661
#
#
#
# Elastic Compliance Matrix: (Units=1/GPa)
#
#
# Indices 1 2 3 4 5 6 
#
# 1 0.056121 -0.018104 -0.021569 0.000000 0.000000 0.000000
# 2 -0.018104 0.103990 -0.001736 0.000000 0.000000 0.000000
# 3 -0.021569 -0.001736 0.014934 0.000000 0.000000 0.000000
# 4 0.000000 0.000000 0.000000 0.038317 0.000000 0.000000
# 5 0.000000 0.000000 0.000000 0.000000 0.027982 0.000000
# 6 0.000000 0.000000 0.000000 0.000000 0.000000 0.040706
#
#
# Mechanical properties :
#
#
# Convention : Reuss Voigt Hill
#
# Bulk Modulus (GPa) = 10.84289 46.59938 28.72113
# Shear Modulus (GPa) = 12.63867 26.26482 19.45174
#
# Velocity S-wave (km/s) = 2.54642 3.67085 3.15906
# Velocity P-wave (km/s) = 3.76943 6.47105 5.29543
#
# Compressibility (1/GPa) = 0.09222637
#
# Stress axis : x y z
#
# Youngs Moduli (GPa) = 17.81866 9.61635 66.95949
#
# Poissons Ratio (x) = 0.17410 1.44424
# Poissons Ratio (y) = 0.32259 0.11626
# Poissons Ratio (z) = 0.38433 0.01670
#
# Static dielectric constant tensor:
#      x y z
#    x 1.674230 0.000000 0.000000 
#    y 0.000000 1.668210 0.000000 
#    z 0.000000 0.000000 1.688100 
# 
# From -- ./inp_files/20230.got.cif
#   From: 2010.05.17/outbox.cif.g08.bks.cpg/sg62_11_cif.got.tgz:20230.got - 2010.06.03 15:25:27.
