data_PCOD9464403
_publ_section_title
;
Structure prediction by ZEFSAII (Michael W. Deem and Ramdas Pophale) SiO2 
 PCOD9464403
Probable space group: P N M A
;
_chemical_formula_sum "Si O2"
_cell_formula_units_Z 64
_cell_length_a 21.078396
_cell_length_b 8.942534
_cell_length_c 17.294987
_cell_angle_alpha 90.000000
_cell_angle_beta 90.000000
_cell_angle_gamma 90.000000
_cell_volume 3260.005999
_symmetry_space_group_name_H-M "P N M A"
_symmetry_group_IT_number 62
_symmetry_cell_setting 'orthorhombic'
loop_
_space_group_symop_operation_xyz
x,y,z
1/2-x,-y,1/2+z
1/2+x,1/2-y,1/2-z
-x,1/2+y,-z
-x,-y,-z
1/2+x,y,1/2-z
1/2-x,1/2+y,1/2+z
x,1/2-y,z
loop_
_atom_site_type_symbol
_atom_site_label
_atom_site_fract_x
_atom_site_fract_y
_atom_site_fract_z
Si Si1 0.152617 0.421136 0.381488
Si Si2 0.618343 0.069025 0.696612
Si Si3 0.115572 0.430297 0.622538
Si Si4 0.487389 0.928989 0.871602
Si Si5 0.650405 0.421805 0.305368
Si Si6 0.243552 0.927888 0.083685
Si Si7 0.478713 0.428835 0.701216
Si Si8 0.779707 0.572540 0.072163
O O1 0.168043 0.250000 0.405528
O O2 0.150732 0.424797 0.287908
O O3 0.207820 0.530364 0.406629
O O4 0.081323 0.455891 0.409780
O O5 0.621398 0.250000 0.697738
O O6 0.624407 0.024786 0.786644
O O7 0.547619 0.028856 0.667541
O O8 0.673457 0.015924 0.639776
O O9 0.106755 0.250000 0.619192
O O10 0.052269 0.510400 0.592023
O O11 0.181871 0.468911 0.582200
O O12 0.491328 0.750000 0.858783
O O13 0.483582 0.016328 0.790028
O O14 0.653736 0.250000 0.329988
O O15 0.709375 0.510233 0.340252
O O16 0.583928 0.494324 0.331888
O O17 0.239984 0.750000 0.083603
O O18 0.208350 0.995830 0.009889
O O19 0.471818 0.250000 0.698997
O O20 0.786973 0.750000 0.065354
#
# Coordination Sequence:
#
# PCOD9464403 Si02
#       8
#     8   8   8   8   8   8   8   8
#     4   9  19  35  54  79 109 137 168 212 262 312
#     4   8  16  32  54  79 103 130 169 215 259 307
#     4   9  18  34  56  79 103 134 174 217 262 317
#     4   9  17  30  51  80 110 135 167 216 266 311
#     4  10  20  35  56  83 110 136 174 221 265 313
#     4  11  23  38  54  75 107 144 180 219 267 319
#     4   9  16  30  53  79 107 137 171 213 263 315
#     4  11  22  36  54  76 105 141 181 221 262 312
#
# _framework density 19.631865999999999
#
# number of rings (size 3 to 8) (size 9 to 14) (size 15 to 20)
#    0.000    2.500    0.000    4.125    0.000    5.000 
#    0.000    8.750    0.000    0.000    0.000    0.000 
#    0.000    0.000    0.000    0.000    0.000    0.000 
#
# Total GULP energy -356990.168253 kJ/mol
# GULP energy per Si atom -5577.971379 kJ/mol
# Density = 1.958718 g / cm^3
# Si number density = 19.631866 Si / 1000 Ang^3
#
#
#
# Elastic Constant Matrix: (Units=GPa)
#
#
# Indices 1 2 3 4 5 6 
#
# 1 92.3725 33.5120 8.1126 0.0000 0.0000 0.0000
# 2 33.5120 51.5255 11.1606 0.0000 0.0000 0.0000
# 3 8.1126 11.1606 24.3660 0.0000 0.0000 0.0000
# 4 0.0000 0.0000 0.0000 19.6412 0.0000 0.0000
# 5 0.0000 0.0000 0.0000 0.0000 -11.2355 0.0000
# 6 0.0000 0.0000 0.0000 0.0000 0.0000 30.6427
#
#
#
# Elastic Compliance Matrix: (Units=1/GPa)
#
#
# Indices 1 2 3 4 5 6 
#
# 1 0.014176 -0.009100 -0.000551 0.000000 0.000000 0.000000
# 2 -0.009100 0.027388 -0.009515 0.000000 0.000000 0.000000
# 3 -0.000551 -0.009515 0.045582 0.000000 0.000000 0.000000
# 4 0.000000 0.000000 0.000000 0.050913 0.000000 0.000000
# 5 0.000000 0.000000 0.000000 0.000000 -0.089004 0.000000
# 6 0.000000 0.000000 0.000000 0.000000 0.000000 0.032634
#
#
# Mechanical properties :
#
#
# Convention : Reuss Voigt Hill
#
# Bulk Modulus (GPa) = 20.48643 30.42606 25.45625
# Shear Modulus (GPa) = 36.68550 15.50827 26.09689
#
# Velocity S-wave (km/s) = 4.32750 2.81366 3.64993
# Velocity P-wave (km/s) = 5.95211 5.10760 5.54595
#
# Compressibility (1/GPa) = 0.04881280
#
# Stress axis : x y z
#
# Youngs Moduli (GPa) = 70.54322 36.51277 21.93825
#
# Poissons Ratio (x) = 0.33228 0.01210
# Poissons Ratio (y) = 0.64197 0.20874
# Poissons Ratio (z) = 0.03890 0.34741
#
# Static dielectric constant tensor:
#      x y z
#    x 1.719870 0.000000 0.000000 
#    y 0.000000 1.657600 0.000000 
#    z 0.000000 0.000000 1.704430 
# 
# From -- ./inp_files/24816.got.cif
#   From: 2010.05.17/outbox.cif.g08.bks.cpg/sg62_13_cif.got.tgz:24816.got - 2010.06.03 15:25:27.
