data_PCOD9464539
_publ_section_title
;
Structure prediction by ZEFSAII (Michael W. Deem and Ramdas Pophale) SiO2 
 PCOD9464539
Probable space group: P N M A
;
_chemical_formula_sum "Si O2"
_cell_formula_units_Z 60
_cell_length_a 5.225735
_cell_length_b 21.737356
_cell_length_c 23.797447
_cell_angle_alpha 90.000000
_cell_angle_beta 90.000000
_cell_angle_gamma 90.000000
_cell_volume 2703.239152
_symmetry_space_group_name_H-M "P N M A"
_symmetry_group_IT_number 62
_symmetry_cell_setting 'orthorhombic'
loop_
_space_group_symop_operation_xyz
x,y,z
1/2-x,-y,1/2+z
1/2+x,1/2-y,1/2-z
-x,1/2+y,-z
-x,-y,-z
1/2+x,y,1/2-z
1/2-x,1/2+y,1/2+z
x,1/2-y,z
loop_
_atom_site_type_symbol
_atom_site_label
_atom_site_fract_x
_atom_site_fract_y
_atom_site_fract_z
Si Si1 0.210250 0.824585 0.783567
Si Si2 0.225545 0.936361 0.102699
Si Si3 0.528246 0.320954 0.402888
Si Si4 0.793024 0.750000 0.285655
Si Si5 0.245591 0.507419 0.444666
Si Si6 0.112403 0.900165 0.534466
Si Si7 0.661385 0.878881 0.285158
Si Si8 0.243450 0.320263 0.524311
O O1 0.978466 0.845824 0.742926
O O2 0.218250 0.750000 0.781161
O O3 0.143565 0.838368 0.848833
O O4 0.500004 0.960610 0.083910
O O5 0.225940 0.927796 0.168752
O O6 0.168301 0.872852 0.068199
O O7 0.997112 0.982876 0.090245
O O8 0.619245 0.250000 0.392987
O O9 0.388666 0.320384 0.463825
O O10 0.754782 0.369856 0.412193
O O11 0.589118 0.750000 0.233038
O O12 0.720356 0.813108 0.314287
O O13 0.148136 0.438565 0.454649
O O14 0.275672 0.548361 0.501279
O O15 0.040300 0.843706 0.493394
O O16 0.370783 0.881479 0.264371
O O17 0.247205 0.250000 0.545277
#
# Coordination Sequence:
#
# PCOD9464539 Si02
#       8
#     8   8   8   4   8   8   8   8
#     4   9  19  34  53  79 110 150 193 228 273 345
#     4  11  22  40  60  90 122 156 207 254 303 354
#     4  10  20  35  59  87 121 155 188 239 306 366
#     4   8  16  30  50  80 108 144 196 238 282 348
#     4  10  23  38  62  86 117 159 207 250 288 358
#     4  10  21  37  60  84 122 157 202 242 298 356
#     4  10  20  36  60  84 117 160 206 248 300 360
#     4  10  22  36  58  93 128 158 190 242 319 369
#
# _framework density 22.195595000000001
#
# number of rings (size 3 to 8) (size 9 to 14) (size 15 to 20)
#    0.000    2.133    1.333    1.200    4.667    1.600 
#    0.000    0.000    0.000    4.800    0.000    0.000 
#    0.000    0.000    0.000    0.000    0.000    0.000 
#
# Total GULP energy -334800.480007 kJ/mol
# GULP energy per Si atom -5580.008000 kJ/mol
# Density = 2.214508 g / cm^3
# Si number density = 22.195595 Si / 1000 Ang^3
#
#
#
# Elastic Constant Matrix: (Units=GPa)
#
#
# Indices 1 2 3 4 5 6 
#
# 1 77.4930 14.2536 6.5979 0.0000 0.0000 0.0000
# 2 14.2536 71.5212 4.3191 0.0000 0.0000 0.0000
# 3 6.5979 4.3191 46.3986 0.0000 0.0000 0.0000
# 4 0.0000 0.0000 0.0000 26.0145 0.0000 0.0000
# 5 0.0000 0.0000 0.0000 0.0000 16.3966 0.0000
# 6 0.0000 0.0000 0.0000 0.0000 0.0000 28.0082
#
#
#
# Elastic Compliance Matrix: (Units=1/GPa)
#
#
# Indices 1 2 3 4 5 6 
#
# 1 0.013525 -0.002594 -0.001682 0.000000 0.000000 0.000000
# 2 -0.002594 0.014558 -0.000986 0.000000 0.000000 0.000000
# 3 -0.001682 -0.000986 0.021883 0.000000 0.000000 0.000000
# 4 0.000000 0.000000 0.000000 0.038440 0.000000 0.000000
# 5 0.000000 0.000000 0.000000 0.000000 0.060988 0.000000
# 6 0.000000 0.000000 0.000000 0.000000 0.000000 0.035704
#
#
# Mechanical properties :
#
#
# Convention : Reuss Voigt Hill
#
# Bulk Modulus (GPa) = 25.35332 27.30598 26.32965
# Shear Modulus (GPa) = 23.94980 25.43334 24.69157
#
# Velocity S-wave (km/s) = 3.28843 3.38875 3.33896
# Velocity P-wave (km/s) = 5.08585 5.25743 5.17235
#
# Compressibility (1/GPa) = 0.03944257
#
# Stress axis : x y z
#
# Youngs Moduli (GPa) = 73.93896 68.68912 45.69686
#
# Poissons Ratio (x) = 0.17817 0.07685
# Poissons Ratio (y) = 0.19178 0.04507
# Poissons Ratio (z) = 0.12435 0.06775
#
# Static dielectric constant tensor:
#      x y z
#    x 1.861350 0.000000 0.000000 
#    y 0.000000 1.962070 0.000000 
#    z 0.000000 0.000000 1.791910 
# 
# From -- ./inp_files/28412.got.cif
#   From: 2010.05.17/outbox.cif.g08.bks.cpg/sg62_15_cif.got.tgz:28412.got - 2010.06.03 15:25:27.
