data_PCOD9464909
_publ_section_title
;
Structure prediction by ZEFSAII (Michael W. Deem and Ramdas Pophale) SiO2 
 PCOD9464909
Probable space group: P N M A
;
_chemical_formula_sum "Si O2"
_cell_formula_units_Z 36
_cell_length_a 14.055156
_cell_length_b 14.970219
_cell_length_c 8.185362
_cell_angle_alpha 90.000000
_cell_angle_beta 90.000000
_cell_angle_gamma 90.000000
_cell_volume 1722.271896
_symmetry_space_group_name_H-M "P N M A"
_symmetry_group_IT_number 62
_symmetry_cell_setting 'orthorhombic'
loop_
_space_group_symop_operation_xyz
x,y,z
1/2-x,-y,1/2+z
1/2+x,1/2-y,1/2-z
-x,1/2+y,-z
-x,-y,-z
1/2+x,y,1/2-z
1/2-x,1/2+y,1/2+z
x,1/2-y,z
loop_
_atom_site_type_symbol
_atom_site_label
_atom_site_fract_x
_atom_site_fract_y
_atom_site_fract_z
Si Si1 0.036740 0.750000 0.726768
Si Si2 0.382566 0.443138 0.672098
Si Si3 0.743345 0.750000 0.665806
Si Si4 0.030513 0.946496 0.659541
Si Si5 0.411711 0.250000 0.592659
Si Si6 0.271336 0.052699 0.329115
O O1 0.004028 0.842195 0.651118
O O2 0.151468 0.750000 0.715414
O O3 0.024467 0.750000 0.925946
O O4 0.470656 0.509499 0.693425
O O5 0.420291 0.342062 0.688351
O O6 0.304024 0.474714 0.802808
O O7 0.327500 0.449676 0.500127
O O8 0.694968 0.750000 0.485503
O O9 0.781731 0.649598 0.686932
O O10 0.142403 0.953547 0.699244
O O11 0.000000 0.000000 0.500000
#
# Coordination Sequence:
#
# PCOD9464909 Si02
#       6
#     4   8   4   8   4   8
#     4   8  18  38  59  85 121 161 195 246 321 349
#     4  11  21  38  62  88 119 163 204 251 307 363
#     4   6  14  33  55  74 111 153 182 237 303 352
#     4  11  22  38  62  90 121 163 207 251 307 370
#     4   8  18  37  60  83 118 160 199 249 308 353
#     4  10  20  37  59  86 117 156 202 252 301 367
#
# _framework density 20.902621
#
# number of rings (size 3 to 8) (size 9 to 14) (size 15 to 20)
#    0.667    1.778    2.222    2.000    0.000    1.778 
#    0.000    8.889    0.000    0.000    0.000    0.000 
#    0.000    0.000    0.000    0.000    0.000    0.000 
#
# Total GULP energy -200453.802130 kJ/mol
# GULP energy per Si atom -5568.161170 kJ/mol
# Density = 2.085505 g / cm^3
# Si number density = 20.902621 Si / 1000 Ang^3
#
#
#
# Elastic Constant Matrix: (Units=GPa)
#
#
# Indices 1 2 3 4 5 6 
#
# 1 55.1818 13.2195 8.5248 0.0000 0.0000 0.0000
# 2 13.2195 185.0832 47.6400 0.0000 0.0000 0.0000
# 3 8.5248 47.6400 66.9573 0.0000 0.0000 0.0000
# 4 0.0000 0.0000 0.0000 33.4080 0.0000 0.0000
# 5 0.0000 0.0000 0.0000 0.0000 25.1662 0.0000
# 6 0.0000 0.0000 0.0000 0.0000 0.0000 6.1762
#
#
#
# Elastic Compliance Matrix: (Units=1/GPa)
#
#
# Indices 1 2 3 4 5 6 
#
# 1 0.018602 -0.000880 -0.001742 0.000000 0.000000 0.000000
# 2 -0.000880 0.006656 -0.004624 0.000000 0.000000 0.000000
# 3 -0.001742 -0.004624 0.018446 0.000000 0.000000 0.000000
# 4 0.000000 0.000000 0.000000 0.029933 0.000000 0.000000
# 5 0.000000 0.000000 0.000000 0.000000 0.039736 0.000000
# 6 0.000000 0.000000 0.000000 0.000000 0.000000 0.161912
#
#
# Mechanical properties :
#
#
# Convention : Reuss Voigt Hill
#
# Bulk Modulus (GPa) = 34.23203 49.55453 41.89328
# Shear Modulus (GPa) = 16.69368 28.80595 22.74981
#
# Velocity S-wave (km/s) = 2.82909 3.71631 3.30263
# Velocity P-wave (km/s) = 5.20424 6.49410 5.88462
#
# Compressibility (1/GPa) = 0.02921241
#
# Stress axis : x y z
#
# Youngs Moduli (GPa) = 53.75794 150.24139 54.21117
#
# Poissons Ratio (x) = 0.13225 0.09444
# Poissons Ratio (y) = 0.04732 0.25065
# Poissons Ratio (z) = 0.09365 0.69466
#
# Static dielectric constant tensor:
#      x y z
#    x 1.774180 0.000000 0.000000 
#    y 0.000000 1.774560 0.000000 
#    z 0.000000 0.000000 1.807650 
# 
# From -- ./inp_files/6056.got.cif
#   From: 2010.05.17/outbox.cif.g08.bks.cpg/sg62_4_cif.got.tgz:6056.got - 2010.06.03 15:25:27.
