data_PCOD9464533
_publ_section_title
;
Structure prediction by ZEFSAII (Michael W. Deem and Ramdas Pophale) SiO2 
 PCOD9464533
Probable space group: P N M A
;
_chemical_formula_sum "Si O2"
_cell_formula_units_Z 64
_cell_length_a 9.226175
_cell_length_b 14.073235
_cell_length_c 24.536832
_cell_angle_alpha 90.000000
_cell_angle_beta 90.000000
_cell_angle_gamma 90.000000
_cell_volume 3185.914504
_symmetry_space_group_name_H-M "P N M A"
_symmetry_group_IT_number 62
_symmetry_cell_setting 'orthorhombic'
loop_
_space_group_symop_operation_xyz
x,y,z
1/2-x,-y,1/2+z
1/2+x,1/2-y,1/2-z
-x,1/2+y,-z
-x,-y,-z
1/2+x,y,1/2-z
1/2-x,1/2+y,1/2+z
x,1/2-y,z
loop_
_atom_site_type_symbol
_atom_site_label
_atom_site_fract_x
_atom_site_fract_y
_atom_site_fract_z
Si Si1 0.424176 0.514925 0.322553
Si Si2 0.090325 0.141271 0.031242
Si Si3 0.714295 0.051954 0.262908
Si Si4 0.994622 0.360664 0.321756
Si Si5 0.810987 0.861402 0.480973
Si Si6 0.562433 0.934317 0.422565
Si Si7 0.203652 0.451028 0.402742
Si Si8 0.856264 0.142308 0.541892
O O1 0.306001 0.524584 0.273889
O O2 0.580063 0.486621 0.298138
O O3 0.476552 0.590514 0.367895
O O4 0.334285 0.439270 0.359794
O O5 0.058349 0.250000 0.049854
O O6 0.257011 0.136873 0.011820
O O7 0.009172 0.118407 0.974198
O O8 0.061466 0.048574 0.067834
O O9 0.622941 0.121405 0.222752
O O10 0.842189 0.099962 0.298397
O O11 0.978831 0.250000 0.332656
O O12 0.057746 0.411695 0.375459
O O13 0.783543 0.750000 0.483093
O O14 0.727977 0.904014 0.429226
O O15 0.764071 0.905488 0.538752
O O16 0.980337 0.878058 0.474914
O O17 0.188355 0.562561 0.415184
O O18 0.844503 0.250000 0.563003
#
# Coordination Sequence:
#
# PCOD9464533 Si02
#       8
#     8   8   8   8   8   8   8   8
#     4  10  21  38  60  85 110 156 196 244 303 351
#     4  10  20  36  56  86 125 159 197 243 284 345
#     4   9  21  39  56  82 121 147 197 256 300 353
#     4  10  20  35  59  86 117 158 196 241 301 356
#     4  11  23  36  54  88 129 161 194 238 287 350
#     4  11  20  35  58  86 119 157 202 236 293 356
#     4  11  20  37  59  87 121 162 200 241 283 353
#     4  10  21  37  56  82 119 164 197 235 285 335
#
# _framework density 20.088425000000001
#
# number of rings (size 3 to 8) (size 9 to 14) (size 15 to 20)
#    0.000    1.750    2.500    2.250    1.750    0.000 
#    0.000    8.750    0.000    0.000    0.000   35.000 
#    0.000    0.000    0.000    0.000    0.000    0.000 
#
# Total GULP energy -356377.454898 kJ/mol
# GULP energy per Si atom -5568.397733 kJ/mol
# Density = 2.004270 g / cm^3
# Si number density = 20.088425 Si / 1000 Ang^3
#
#
#
# Elastic Constant Matrix: (Units=GPa)
#
#
# Indices 1 2 3 4 5 6 
#
# 1 132.3159 30.8781 34.4939 0.0000 0.0000 0.0000
# 2 30.8781 40.1909 24.9635 0.0000 0.0000 0.0000
# 3 34.4939 24.9635 65.4451 0.0000 0.0000 0.0000
# 4 0.0000 0.0000 0.0000 11.1265 0.0000 0.0000
# 5 0.0000 0.0000 0.0000 0.0000 23.1922 0.0000
# 6 0.0000 0.0000 0.0000 0.0000 0.0000 16.5390
#
#
#
# Elastic Compliance Matrix: (Units=1/GPa)
#
#
# Indices 1 2 3 4 5 6 
#
# 1 0.009625 -0.005561 -0.002952 0.000000 0.000000 0.000000
# 2 -0.005561 0.035820 -0.010732 0.000000 0.000000 0.000000
# 3 -0.002952 -0.010732 0.020929 0.000000 0.000000 0.000000
# 4 0.000000 0.000000 0.000000 0.089875 0.000000 0.000000
# 5 0.000000 0.000000 0.000000 0.000000 0.043118 0.000000
# 6 0.000000 0.000000 0.000000 0.000000 0.000000 0.060463
#
#
# Mechanical properties :
#
#
# Convention : Reuss Voigt Hill
#
# Bulk Modulus (GPa) = 35.86270 46.51368 41.18819
# Shear Modulus (GPa) = 16.25406 20.01263 18.13335
#
# Velocity S-wave (km/s) = 2.84760 3.15973 3.00772
# Velocity P-wave (km/s) = 5.35751 6.04290 5.71050
#
# Compressibility (1/GPa) = 0.02788413
#
# Stress axis : x y z
#
# Youngs Moduli (GPa) = 103.89607 27.91746 47.77990
#
# Poissons Ratio (x) = 0.15526 0.14103
# Poissons Ratio (y) = 0.57781 0.51277
# Poissons Ratio (z) = 0.30667 0.29961
#
# Static dielectric constant tensor:
#      x y z
#    x 1.786640 0.000000 0.000000 
#    y 0.000000 1.701390 0.000000 
#    z 0.000000 0.000000 1.754120 
# 
# From -- ./inp_files/28957.got.cif
#   From: 2010.05.17/outbox.cif.g08.bks.cpg/sg62_15_cif.got.tgz:28957.got - 2010.06.03 15:25:27.
