data_PCOD9464177
_publ_section_title
;
Structure prediction by ZEFSAII (Michael W. Deem and Ramdas Pophale) SiO2 
 PCOD9464177
Probable space group: P N M A
;
_chemical_formula_sum "Si O2"
_cell_formula_units_Z 56
_cell_length_a 14.473461
_cell_length_b 8.905925
_cell_length_c 21.221365
_cell_angle_alpha 90.000000
_cell_angle_beta 90.000000
_cell_angle_gamma 90.000000
_cell_volume 2735.424572
_symmetry_space_group_name_H-M "P N M A"
_symmetry_group_IT_number 62
_symmetry_cell_setting 'orthorhombic'
loop_
_space_group_symop_operation_xyz
x,y,z
1/2-x,-y,1/2+z
1/2+x,1/2-y,1/2-z
-x,1/2+y,-z
-x,-y,-z
1/2+x,y,1/2-z
1/2-x,1/2+y,1/2+z
x,1/2-y,z
loop_
_atom_site_type_symbol
_atom_site_label
_atom_site_fract_x
_atom_site_fract_y
_atom_site_fract_z
Si Si1 0.272231 0.072170 0.256981
Si Si2 0.292119 0.432574 0.395747
Si Si3 0.961216 0.577191 0.273570
Si Si4 0.876443 0.424052 0.828874
Si Si5 0.852254 0.575553 0.502731
Si Si6 0.498496 0.429931 0.430928
Si Si7 0.972460 0.422140 0.402992
O O1 0.256808 0.250000 0.253964
O O2 0.249919 0.019365 0.328561
O O3 0.378783 0.031475 0.246966
O O4 0.213823 0.993628 0.202673
O O5 0.287418 0.250000 0.396185
O O6 0.234469 0.482346 0.456792
O O7 0.399513 0.474839 0.400507
O O8 0.928898 0.750000 0.273179
O O9 0.989036 0.527280 0.343429
O O10 0.045610 0.564698 0.225468
O O11 0.861943 0.250000 0.844789
O O12 0.917830 0.509418 0.888768
O O13 0.836712 0.750000 0.484428
O O14 0.884876 0.480270 0.443037
O O15 0.938813 0.573552 0.551182
O O16 0.500000 0.500000 0.500000
O O17 0.501454 0.250000 0.434058
O O18 0.959093 0.250000 0.382733
#
# Coordination Sequence:
#
# PCOD9464177 Si02
#       7
#     8   8   8   8   8   8   8
#     4  11  22  39  65  93 120 157 208 259 313 374
#     4   9  19  37  62  88 115 155 206 257 310 369
#     4  11  23  39  60  87 123 161 199 250 308 368
#     4  11  24  42  63  92 128 165 207 259 321 382
#     4   9  18  35  57  82 115 155 199 250 307 365
#     4  11  23  42  65  90 123 165 213 265 318 377
#     4  10  20  34  55  85 120 156 200 250 304 366
#
# _framework density 20.472142999999999
#
# number of rings (size 3 to 8) (size 9 to 14) (size 15 to 20)
#    0.000    1.714    1.429    3.000    0.000    4.571 
#    0.000    7.143    0.000    0.000    0.000    0.000 
#    0.000    0.000    0.000    0.000    0.000    0.000 
#
# Total GULP energy -312962.661928 kJ/mol
# GULP energy per Si atom -5588.618963 kJ/mol
# Density = 2.042555 g / cm^3
# Si number density = 20.472143 Si / 1000 Ang^3
#
#
#
# Elastic Constant Matrix: (Units=GPa)
#
#
# Indices 1 2 3 4 5 6 
#
# 1 27.3379 2.8569 -13.8075 0.0000 0.0000 0.0000
# 2 2.8569 47.9311 19.0150 0.0000 0.0000 0.0000
# 3 -13.8075 19.0150 78.0693 0.0000 0.0000 0.0000
# 4 0.0000 0.0000 0.0000 32.1831 0.0000 0.0000
# 5 0.0000 0.0000 0.0000 0.0000 33.1904 0.0000
# 6 0.0000 0.0000 0.0000 0.0000 0.0000 24.7997
#
#
#
# Elastic Compliance Matrix: (Units=1/GPa)
#
#
# Indices 1 2 3 4 5 6 
#
# 1 0.041662 -0.005985 0.008826 0.000000 0.000000 0.000000
# 2 -0.005985 0.023955 -0.006893 0.000000 0.000000 0.000000
# 3 0.008826 -0.006893 0.016049 0.000000 0.000000 0.000000
# 4 0.000000 0.000000 0.000000 0.031072 0.000000 0.000000
# 5 0.000000 0.000000 0.000000 0.000000 0.030129 0.000000
# 6 0.000000 0.000000 0.000000 0.000000 0.000000 0.040323
#
#
# Mechanical properties :
#
#
# Convention : Reuss Voigt Hill
#
# Bulk Modulus (GPa) = 13.59381 18.82969 16.21175
# Shear Modulus (GPa) = 23.16804 27.71958 25.44381
#
# Velocity S-wave (km/s) = 3.36770 3.68369 3.52923
# Velocity P-wave (km/s) = 4.66653 5.22594 4.95413
#
# Compressibility (1/GPa) = 0.07356291
#
# Stress axis : x y z
#
# Youngs Moduli (GPa) = 24.00242 41.74573 62.30905
#
# Poissons Ratio (x) = 0.24984 -0.54995
# Poissons Ratio (y) = 0.14365 0.42949
# Poissons Ratio (z) = -0.21185 0.28775
#
# Static dielectric constant tensor:
#      x y z
#    x 1.726450 0.000000 0.000000 
#    y 0.000000 1.689080 0.000000 
#    z 0.000000 0.000000 1.730990 
# 
# From -- ./inp_files/27270.got.cif
#   From: 2010.05.17/outbox.cif.g08.bks.cpg/sg62_14_cif.got.tgz:27270.got - 2010.06.03 15:25:27.
