data_PCOD9464650
_publ_section_title
;
Structure prediction by ZEFSAII (Michael W. Deem and Ramdas Pophale) SiO2 
 PCOD9464650
Probable space group: P N M A
;
_chemical_formula_sum "Si O2"
_cell_formula_units_Z 40
_cell_length_a 7.157242
_cell_length_b 11.574125
_cell_length_c 22.110775
_cell_angle_alpha 90.000000
_cell_angle_beta 90.000000
_cell_angle_gamma 90.000000
_cell_volume 1831.630368
_symmetry_space_group_name_H-M "P N M A"
_symmetry_group_IT_number 62
_symmetry_cell_setting 'orthorhombic'
loop_
_space_group_symop_operation_xyz
x,y,z
1/2-x,-y,1/2+z
1/2+x,1/2-y,1/2-z
-x,1/2+y,-z
-x,-y,-z
1/2+x,y,1/2-z
1/2-x,1/2+y,1/2+z
x,1/2-y,z
loop_
_atom_site_type_symbol
_atom_site_label
_atom_site_fract_x
_atom_site_fract_y
_atom_site_fract_z
Si Si1 0.894481 0.376595 0.808683
Si Si2 0.044088 0.620279 0.332736
Si Si3 0.275848 0.374543 0.494089
Si Si4 0.497695 0.621854 0.893923
Si Si5 0.090331 0.052858 0.094728
O O1 0.980107 0.250000 0.819600
O O2 0.680641 0.374166 0.829869
O O3 0.892221 0.393209 0.736784
O O4 0.982360 0.477866 0.848502
O O5 0.103652 0.750000 0.355038
O O6 0.079444 0.498571 0.366213
O O7 0.292620 0.250000 0.524113
O O8 0.073533 0.383579 0.463303
O O9 0.422895 0.381993 0.438555
O O10 0.329804 0.467715 0.543023
O O11 0.433337 0.750000 0.871440
O O12 0.722219 0.620352 0.887071
#
# Coordination Sequence:
#
# PCOD9464650 Si02
#       5
#     8   8   8   8   8
#     4   9  18  33  55  79 108 140 184 236 277 322
#     4   9  19  35  55  81 109 142 186 232 278 329
#     4  10  21  36  56  83 113 146 186 229 276 332
#     4  10  21  38  57  81 115 148 183 228 278 333
#     4  10  20  36  57  80 111 147 186 227 278 329
#
# _framework density 21.838467000000001
#
# number of rings (size 3 to 8) (size 9 to 14) (size 15 to 20)
#    0.000    2.400    0.000    1.800    2.800    0.800 
#    0.000   10.000    0.000    0.000    0.000    0.000 
#    0.000    0.000    0.000    0.000    0.000    0.000 
#
# Total GULP energy -222940.673534 kJ/mol
# GULP energy per Si atom -5573.516838 kJ/mol
# Density = 2.178876 g / cm^3
# Si number density = 21.838467 Si / 1000 Ang^3
#
#
#
# Elastic Constant Matrix: (Units=GPa)
#
#
# Indices 1 2 3 4 5 6 
#
# 1 50.4374 8.6113 -11.8461 0.0000 0.0000 0.0000
# 2 8.6113 181.2591 46.2083 0.0000 0.0000 0.0000
# 3 -11.8461 46.2083 45.3123 0.0000 0.0000 0.0000
# 4 0.0000 0.0000 0.0000 19.2815 0.0000 0.0000
# 5 0.0000 0.0000 0.0000 0.0000 22.5304 0.0000
# 6 0.0000 0.0000 0.0000 0.0000 0.0000 -56.6657
#
#
#
# Elastic Compliance Matrix: (Units=1/GPa)
#
#
# Indices 1 2 3 4 5 6 
#
# 1 0.022651 -0.003494 0.009485 0.000000 0.000000 0.000000
# 2 -0.003494 0.007994 -0.009066 0.000000 0.000000 0.000000
# 3 0.009485 -0.009066 0.033794 0.000000 0.000000 0.000000
# 4 0.000000 0.000000 0.000000 0.051863 0.000000 0.000000
# 5 0.000000 0.000000 0.000000 0.000000 0.044385 0.000000
# 6 0.000000 0.000000 0.000000 0.000000 0.000000 -0.017647
#
#
# Mechanical properties :
#
#
# Convention : Reuss Voigt Hill
#
# Bulk Modulus (GPa) = 17.15598 40.32843 28.74221
# Shear Modulus (GPa) = 29.65282 12.63159 21.14220
#
# Velocity S-wave (km/s) = 3.68887 2.40762 3.11483
# Velocity P-wave (km/s) = 5.10064 5.12208 5.11137
#
# Compressibility (1/GPa) = 0.05828870
#
# Stress axis : x y z
#
# Youngs Moduli (GPa) = 44.14858 125.09315 29.59147
#
# Poissons Ratio (x) = 0.43708 -0.28067
# Poissons Ratio (y) = 0.15426 0.26826
# Poissons Ratio (z) = -0.41874 1.13404
#
# Static dielectric constant tensor:
#      x y z
#    x 1.832650 0.000000 0.000000 
#    y 0.000000 1.863790 0.000000 
#    z 0.000000 0.000000 1.785490 
# 
# From -- ./inp_files/21905.got.cif
#   From: 2010.05.17/outbox.cif.g08.bks.cpg/sg62_11_cif.got.tgz:21905.got - 2010.06.03 15:25:27.
