data_PCOD9464352
_publ_section_title
;
Structure prediction by ZEFSAII (Michael W. Deem and Ramdas Pophale) SiO2 
 PCOD9464352
Probable space group: P N M A
;
_chemical_formula_sum "Si O2"
_cell_formula_units_Z 64
_cell_length_a 12.868429
_cell_length_b 9.753363
_cell_length_c 27.017784
_cell_angle_alpha 90.000000
_cell_angle_beta 90.000000
_cell_angle_gamma 90.000000
_cell_volume 3391.014478
_symmetry_space_group_name_H-M "P N M A"
_symmetry_group_IT_number 62
_symmetry_cell_setting 'orthorhombic'
loop_
_space_group_symop_operation_xyz
x,y,z
1/2-x,-y,1/2+z
1/2+x,1/2-y,1/2-z
-x,1/2+y,-z
-x,-y,-z
1/2+x,y,1/2-z
1/2-x,1/2+y,1/2+z
x,1/2-y,z
loop_
_atom_site_type_symbol
_atom_site_label
_atom_site_fract_x
_atom_site_fract_y
_atom_site_fract_z
Si Si1 0.923020 0.583501 0.846192
Si Si2 0.009669 0.094450 0.637627
Si Si3 0.081197 0.903257 0.473094
Si Si4 0.832671 0.594050 0.667178
Si Si5 0.754739 0.898772 0.555007
Si Si6 0.119492 0.915439 0.782176
Si Si7 0.510545 0.909504 0.548842
Si Si8 0.183740 0.586007 0.670570
O O1 0.928283 0.750000 0.845954
O O2 0.805667 0.548922 0.830683
O O3 0.014987 0.534292 0.809412
O O4 0.947975 0.541439 0.902726
O O5 0.027894 0.250000 0.655197
O O6 0.957188 0.104000 0.583667
O O7 0.928698 0.008558 0.671271
O O8 0.114591 0.005690 0.634263
O O9 0.084080 0.750000 0.493771
O O10 0.192643 0.977400 0.473951
O O11 0.000000 0.000000 0.500000
O O12 0.856741 0.750000 0.685491
O O13 0.806283 0.605128 0.609085
O O14 0.727223 0.540827 0.692080
O O15 0.775170 0.750000 0.530807
O O16 0.632407 0.912622 0.562453
O O17 0.118424 0.750000 0.787679
O O18 0.134702 0.943395 0.724460
O O19 0.482687 0.750000 0.539091
O O20 0.500000 0.000000 0.500000
O O21 0.174365 0.750000 0.660899
#
# Coordination Sequence:
#
# PCOD9464352 Si02
#       8
#     8   8   8   8   8   8   8   8
#     4   9  18  35  55  83 119 146 181 238 293 332
#     4  10  22  38  53  76 115 150 179 225 283 339
#     4  10  21  36  56  80 107 144 186 235 287 337
#     4   9  16  31  58  84 104 136 182 231 277 326
#     4   9  17  32  53  78 107 143 184 228 281 337
#     4   9  17  31  57  88 111 137 182 236 280 325
#     4  10  20  35  55  80 113 152 191 233 284 338
#     4  10  21  34  57  87 113 148 189 231 282 340
#
# _framework density 18.873408000000001
#
# number of rings (size 3 to 8) (size 9 to 14) (size 15 to 20)
#    0.000    2.500    1.250    0.750    1.750    3.000 
#    0.000    3.750    0.000    1.500    0.000    0.000 
#    0.000    0.000    0.000    0.000    0.000    0.000 
#
# Total GULP energy -356660.188858 kJ/mol
# GULP energy per Si atom -5572.815451 kJ/mol
# Density = 1.883045 g / cm^3
# Si number density = 18.873408 Si / 1000 Ang^3
#
#
#
# Elastic Constant Matrix: (Units=GPa)
#
#
# Indices 1 2 3 4 5 6 
#
# 1 108.8062 45.2451 31.4496 0.0000 0.0000 0.0000
# 2 45.2451 83.5344 21.9440 0.0000 0.0000 0.0000
# 3 31.4496 21.9440 42.7974 0.0000 0.0000 0.0000
# 4 0.0000 0.0000 0.0000 14.5158 0.0000 0.0000
# 5 0.0000 0.0000 0.0000 0.0000 25.2049 0.0000
# 6 0.0000 0.0000 0.0000 0.0000 0.0000 16.7481
#
#
#
# Elastic Compliance Matrix: (Units=1/GPa)
#
#
# Indices 1 2 3 4 5 6 
#
# 1 0.013520 -0.005447 -0.007142 0.000000 0.000000 0.000000
# 2 -0.005447 0.016029 -0.004216 0.000000 0.000000 0.000000
# 3 -0.007142 -0.004216 0.030776 0.000000 0.000000 0.000000
# 4 0.000000 0.000000 0.000000 0.068891 0.000000 0.000000
# 5 0.000000 0.000000 0.000000 0.000000 0.039675 0.000000
# 6 0.000000 0.000000 0.000000 0.000000 0.000000 0.059708
#
#
# Mechanical properties :
#
#
# Convention : Reuss Voigt Hill
#
# Bulk Modulus (GPa) = 37.43272 48.04616 42.73944
# Shear Modulus (GPa) = 18.44243 20.39372 19.41807
#
# Velocity S-wave (km/s) = 3.12935 3.29074 3.21106
# Velocity P-wave (km/s) = 5.73880 6.32068 6.03675
#
# Compressibility (1/GPa) = 0.02671459
#
# Stress axis : x y z
#
# Youngs Moduli (GPa) = 73.96452 62.38790 32.49253
#
# Poissons Ratio (x) = 0.33980 0.23208
# Poissons Ratio (y) = 0.40286 0.13699
# Poissons Ratio (z) = 0.52829 0.26304
#
# Static dielectric constant tensor:
#      x y z
#    x 1.666170 0.000000 0.000000 
#    y 0.000000 1.662100 0.000000 
#    z 0.000000 0.000000 1.691050 
# 
# From -- ./inp_files/32600.got.cif
#   From: 2010.05.17/outbox.cif.g08.bks.cpg/sg62_17_cif.got.tgz:32600.got - 2010.06.03 15:25:27.
