data_PCOD9464118
_publ_section_title
;
Structure prediction by ZEFSAII (Michael W. Deem and Ramdas Pophale) SiO2 
 PCOD9464118
Probable space group: P N M A
;
_chemical_formula_sum "Si O2"
_cell_formula_units_Z 64
_cell_length_a 14.535736
_cell_length_b 11.095062
_cell_length_c 19.855749
_cell_angle_alpha 90.000000
_cell_angle_beta 90.000000
_cell_angle_gamma 90.000000
_cell_volume 3202.233778
_symmetry_space_group_name_H-M "P N M A"
_symmetry_group_IT_number 62
_symmetry_cell_setting 'orthorhombic'
loop_
_space_group_symop_operation_xyz
x,y,z
1/2-x,-y,1/2+z
1/2+x,1/2-y,1/2-z
-x,1/2+y,-z
-x,-y,-z
1/2+x,y,1/2-z
1/2-x,1/2+y,1/2+z
x,1/2-y,z
loop_
_atom_site_type_symbol
_atom_site_label
_atom_site_fract_x
_atom_site_fract_y
_atom_site_fract_z
Si Si1 0.910187 0.948643 0.923338
Si Si2 0.362882 0.612364 0.170279
Si Si3 0.235919 0.507564 0.388603
Si Si4 0.665135 0.886761 0.733799
Si Si5 0.575849 0.377244 0.573080
Si Si6 0.055933 0.379015 0.217736
Si Si7 0.920062 0.385684 0.698416
Si Si8 0.739812 0.390770 0.966941
O O1 0.830291 0.043017 0.939281
O O2 0.004636 0.019490 0.910352
O O3 0.897741 0.876849 0.855349
O O4 0.920623 0.876016 0.992133
O O5 0.332620 0.750000 0.190522
O O6 0.324671 0.501194 0.215345
O O7 0.473231 0.610600 0.176661
O O8 0.334151 0.595179 0.092636
O O9 0.272836 0.414727 0.331728
O O10 0.323622 0.593658 0.400081
O O11 0.149793 0.582117 0.361324
O O12 0.215608 0.446052 0.460422
O O13 0.685126 0.750000 0.759253
O O14 0.555859 0.885831 0.715291
O O15 0.542834 0.250000 0.600517
O O16 0.076742 0.250000 0.252573
O O17 0.090001 0.502277 0.251016
O O18 0.901267 0.250000 0.724350
O O19 0.758841 0.250000 0.976227
#
# Coordination Sequence:
#
# PCOD9464118 Si02
#       8
#     8   8   8   8   8   8   8   8
#     4  10  20  35  53  85 119 157 201 244 298 365
#     4   9  21  43  64  88 120 160 207 258 308 363
#     4  11  22  38  59  90 122 158 204 255 305 365
#     4  10  21  39  61  88 122 161 201 249 307 367
#     4  10  20  34  54  80 117 159 196 241 300 361
#     4  10  21  39  61  87 121 160 202 249 306 369
#     4  10  23  41  62  88 120 159 208 259 309 364
#     4  10  22  39  61  88 121 162 209 256 309 367
#
# _framework density 19.986049000000001
#
# number of rings (size 3 to 8) (size 9 to 14) (size 15 to 20)
#    0.000    2.000    1.250    1.500    1.750    3.500 
#    0.000    3.125    0.000    0.000    0.000    0.000 
#    0.000    0.000    0.000    0.000    0.000    0.000 
#
# Total GULP energy -356957.129911 kJ/mol
# GULP energy per Si atom -5577.455155 kJ/mol
# Density = 1.994056 g / cm^3
# Si number density = 19.986049 Si / 1000 Ang^3
#
#
#
# Elastic Constant Matrix: (Units=GPa)
#
#
# Indices 1 2 3 4 5 6 
#
# 1 38.6902 32.4605 28.5892 0.0000 0.0000 0.0000
# 2 32.4605 169.0187 70.9464 0.0000 0.0000 0.0000
# 3 28.5892 70.9464 89.2776 0.0000 0.0000 0.0000
# 4 0.0000 0.0000 0.0000 -4.7824 0.0000 0.0000
# 5 0.0000 0.0000 0.0000 0.0000 29.0784 0.0000
# 6 0.0000 0.0000 0.0000 0.0000 0.0000 16.0308
#
#
#
# Elastic Compliance Matrix: (Units=1/GPa)
#
#
# Indices 1 2 3 4 5 6 
#
# 1 0.034852 -0.003014 -0.008765 0.000000 0.000000 0.000000
# 2 -0.003014 0.009139 -0.006297 0.000000 0.000000 0.000000
# 3 -0.008765 -0.006297 0.019012 0.000000 0.000000 0.000000
# 4 0.000000 0.000000 0.000000 -0.209100 0.000000 0.000000
# 5 0.000000 0.000000 0.000000 0.000000 0.034390 0.000000
# 6 0.000000 0.000000 0.000000 0.000000 0.000000 0.062380
#
#
# Mechanical properties :
#
#
# Convention : Reuss Voigt Hill
#
# Bulk Modulus (GPa) = 37.24433 62.33094 49.78763
# Shear Modulus (GPa) = -1183.62266 19.06471 -582.27898
#
# Velocity S-wave (km/s) = -24.36206 3.09188 -17.08728
# Velocity P-wave (km/s) = 27.79696 6.63334 19.08756
#
# Compressibility (1/GPa) = 0.02684973
#
# Stress axis : x y z
#
# Youngs Moduli (GPa) = 28.69264 109.42662 52.59853
#
# Poissons Ratio (x) = 0.32983 0.46105
# Poissons Ratio (y) = 0.08648 0.33121
# Poissons Ratio (z) = 0.25150 0.68905
#
# Static dielectric constant tensor:
#      x y z
#    x 1.694320 0.000000 0.000000 
#    y 0.000000 1.501680 0.000000 
#    z 0.000000 0.000000 1.708950 
# 
# From -- ./inp_files/24050.got.cif
#   From: 2010.05.17/outbox.cif.g08.bks.cpg/sg62_13_cif.got.tgz:24050.got - 2010.06.03 15:25:27.
