data_PCOD9464732
_publ_section_title
;
Structure prediction by ZEFSAII (Michael W. Deem and Ramdas Pophale) SiO2 
 PCOD9464732
Probable space group: P N M A
;
_chemical_formula_sum "Si O2"
_cell_formula_units_Z 56
_cell_length_a 14.299166
_cell_length_b 7.337764
_cell_length_c 21.374767
_cell_angle_alpha 90.000000
_cell_angle_beta 90.000000
_cell_angle_gamma 90.000000
_cell_volume 2242.724033
_symmetry_space_group_name_H-M "P N M A"
_symmetry_group_IT_number 62
_symmetry_cell_setting 'orthorhombic'
loop_
_space_group_symop_operation_xyz
x,y,z
1/2-x,-y,1/2+z
1/2+x,1/2-y,1/2-z
-x,1/2+y,-z
-x,-y,-z
1/2+x,y,1/2-z
1/2-x,1/2+y,1/2+z
x,1/2-y,z
loop_
_atom_site_type_symbol
_atom_site_label
_atom_site_fract_x
_atom_site_fract_y
_atom_site_fract_z
Si Si1 0.798062 0.526483 0.101858
Si Si2 0.495232 0.032980 0.573208
Si Si3 0.495623 0.535157 0.764809
Si Si4 0.511122 0.527823 0.907081
Si Si5 0.158733 0.957512 0.500162
Si Si6 0.655166 0.953798 0.336671
Si Si7 0.709795 0.467937 0.737314
O O1 0.795607 0.750000 0.100596
O O2 0.905864 0.467276 0.100024
O O3 0.743288 0.461421 0.040232
O O4 0.755406 0.469207 0.168849
O O5 0.493139 0.250000 0.584744
O O6 0.401812 0.959102 0.606178
O O7 0.500000 0.000000 0.500000
O O8 0.474763 0.750000 0.764164
O O9 0.494234 0.470203 0.836292
O O10 0.422922 0.444636 0.718147
O O11 0.600433 0.504849 0.741245
O O12 0.510571 0.750000 0.909536
O O13 0.427312 0.459671 0.950783
O O14 0.609894 0.465930 0.937488
O O15 0.185780 0.750000 0.515123
O O16 0.684192 0.750000 0.356548
O O17 0.740406 0.042913 0.299320
O O18 0.724532 0.250000 0.738657
#
# Coordination Sequence:
#
# PCOD9464732 Si02
#       7
#     8   8   8   8   8   8   8
#     4   9  17  33  56  79 104 140 186 230 272 328
#     4  10  21  38  58  82 112 146 187 236 287 342
#     4  11  22  35  54  82 117 150 180 229 291 344
#     4   9  19  33  48  76 114 142 173 224 278 328
#     4   9  17  32  55  77 100 141 187 219 265 330
#     4  10  21  39  62  85 112 149 197 245 284 339
#     4  10  20  36  59  83 108 145 193 241 284 333
#
# _framework density 24.969633999999999
#
# number of rings (size 3 to 8) (size 9 to 14) (size 15 to 20)
#    0.000    2.286    1.429    1.286    0.000    4.571 
#    0.000    2.857    0.000    0.000    0.000    0.000 
#    0.000    0.000    0.000    0.000    0.000    0.000 
#
# Total GULP energy -312972.496702 kJ/mol
# GULP energy per Si atom -5588.794584 kJ/mol
# Density = 2.491280 g / cm^3
# Si number density = 24.969634 Si / 1000 Ang^3
#
#
#
# Elastic Constant Matrix: (Units=GPa)
#
#
# Indices 1 2 3 4 5 6 
#
# 1 42.0302 -8.3464 -11.4420 0.0000 0.0000 0.0000
# 2 -8.3464 107.6792 -7.4603 0.0000 0.0000 0.0000
# 3 -11.4420 -7.4603 112.3616 0.0000 0.0000 0.0000
# 4 0.0000 0.0000 0.0000 5.2105 0.0000 0.0000
# 5 0.0000 0.0000 0.0000 0.0000 47.0160 0.0000
# 6 0.0000 0.0000 0.0000 0.0000 0.0000 34.8495
#
#
#
# Elastic Compliance Matrix: (Units=1/GPa)
#
#
# Indices 1 2 3 4 5 6 
#
# 1 0.024943 0.002119 0.002681 0.000000 0.000000 0.000000
# 2 0.002119 0.009510 0.000847 0.000000 0.000000 0.000000
# 3 0.002681 0.000847 0.009229 0.000000 0.000000 0.000000
# 4 0.000000 0.000000 0.000000 0.191919 0.000000 0.000000
# 5 0.000000 0.000000 0.000000 0.000000 0.021269 0.000000
# 6 0.000000 0.000000 0.000000 0.000000 0.000000 0.028695
#
#
# Mechanical properties :
#
#
# Convention : Reuss Voigt Hill
#
# Bulk Modulus (GPa) = 18.18982 23.06375 20.62678
# Shear Modulus (GPa) = 17.08840 36.70320 26.89580
#
# Velocity S-wave (km/s) = 2.61888 3.83810 3.28554
# Velocity P-wave (km/s) = 4.05528 5.37570 4.76148
#
# Compressibility (1/GPa) = 0.05497582
#
# Stress axis : x y z
#
# Youngs Moduli (GPa) = 40.09143 105.15478 108.35331
#
# Poissons Ratio (x) = -0.22283 -0.29046
# Poissons Ratio (y) = -0.08496 -0.09180
# Poissons Ratio (z) = -0.10747 -0.08909
#
# Static dielectric constant tensor:
#      x y z
#    x 1.883360 0.000000 0.000000 
#    y 0.000000 1.911650 0.000000 
#    z 0.000000 0.000000 1.983510 
# 
# From -- ./inp_files/27213.got.cif
#   From: 2010.05.17/outbox.cif.g08.bks.cpg/sg62_14_cif.got.tgz:27213.got - 2010.06.03 15:25:27.
