data_PCOD9464685
_publ_section_title
;
Structure prediction by ZEFSAII (Michael W. Deem and Ramdas Pophale) SiO2 
 PCOD9464685
Probable space group: P N M A
;
_chemical_formula_sum "Si O2"
_cell_formula_units_Z 64
_cell_length_a 18.168316
_cell_length_b 12.779372
_cell_length_c 15.289996
_cell_angle_alpha 90.000000
_cell_angle_beta 90.000000
_cell_angle_gamma 90.000000
_cell_volume 3550.026207
_symmetry_space_group_name_H-M "P N M A"
_symmetry_group_IT_number 62
_symmetry_cell_setting 'orthorhombic'
loop_
_space_group_symop_operation_xyz
x,y,z
1/2-x,-y,1/2+z
1/2+x,1/2-y,1/2-z
-x,1/2+y,-z
-x,-y,-z
1/2+x,y,1/2-z
1/2-x,1/2+y,1/2+z
x,1/2-y,z
loop_
_atom_site_type_symbol
_atom_site_label
_atom_site_fract_x
_atom_site_fract_y
_atom_site_fract_z
Si Si1 0.881646 0.451016 0.829991
Si Si2 0.188967 0.130152 0.932828
Si Si3 0.657775 0.625833 0.991094
Si Si4 0.913144 0.499670 0.333835
Si Si5 0.772757 0.627210 0.269384
Si Si6 0.077167 0.947000 0.979023
Si Si7 0.998305 0.130593 0.185131
Si Si8 0.055499 0.627812 0.350521
O O1 0.795509 0.440839 0.805875
O O2 0.920567 0.390328 0.749882
O O3 0.926418 0.562267 0.829458
O O4 0.892826 0.406186 0.927958
O O5 0.160905 0.250000 0.945609
O O6 0.224019 0.126747 0.836060
O O7 0.129686 0.039627 0.944315
O O8 0.255236 0.108747 0.999671
O O9 0.647150 0.750000 0.982566
O O10 0.622474 0.568433 0.909821
O O11 0.617760 0.592314 0.081106
O O12 0.849892 0.576762 0.298364
O O13 0.949964 0.427265 0.259236
O O14 0.980917 0.567139 0.369211
O O15 0.765048 0.750000 0.295894
O O16 0.054127 0.871269 0.900540
O O17 0.000000 0.000000 0.000000
O O18 0.016204 0.250000 0.208042
O O19 0.043947 0.750000 0.363118
#
# Coordination Sequence:
#
# PCOD9464685 Si02
#       8
#     8   8   8   8   8   8   8   8
#     4  10  21  37  61  84 114 153 195 242 293 345
#     4  10  20  37  60  86 116 149 193 243 290 347
#     4  10  20  36  60  84 113 152 192 231 282 348
#     4  11  21  36  57  86 116 153 187 236 289 344
#     4  11  21  37  61  88 117 152 192 244 297 343
#     4  10  21  38  56  85 117 156 194 242 297 344
#     4  10  22  39  56  81 119 155 195 236 284 350
#     4  10  20  36  57  87 115 145 192 244 291 339
#
# _framework density 18.028037000000001
#
# number of rings (size 3 to 8) (size 9 to 14) (size 15 to 20)
#    0.000    1.750    2.500    2.250    0.000    3.000 
#    0.000    3.125    0.000    0.750    0.000    0.000 
#    0.000    0.000    0.000    0.000    0.000    0.000 
#
# Total GULP energy -356736.669834 kJ/mol
# GULP energy per Si atom -5574.010466 kJ/mol
# Density = 1.798700 g / cm^3
# Si number density = 18.028037 Si / 1000 Ang^3
#
#
#
# Elastic Constant Matrix: (Units=GPa)
#
#
# Indices 1 2 3 4 5 6 
#
# 1 81.9724 47.4547 5.3572 0.0000 0.0000 0.0000
# 2 47.4547 81.5845 20.7811 0.0000 0.0000 0.0000
# 3 5.3572 20.7811 62.8348 0.0000 0.0000 0.0000
# 4 0.0000 0.0000 0.0000 -21.3055 0.0000 0.0000
# 5 0.0000 0.0000 0.0000 0.0000 26.9434 0.0000
# 6 0.0000 0.0000 0.0000 0.0000 0.0000 102.1190
#
#
#
# Elastic Compliance Matrix: (Units=1/GPa)
#
#
# Indices 1 2 3 4 5 6 
#
# 1 0.018663 -0.011411 0.002183 0.000000 0.000000 0.000000
# 2 -0.011411 0.020362 -0.005761 0.000000 0.000000 0.000000
# 3 0.002183 -0.005761 0.017634 0.000000 0.000000 0.000000
# 4 0.000000 0.000000 0.000000 -0.046936 0.000000 0.000000
# 5 0.000000 0.000000 0.000000 0.000000 0.037115 0.000000
# 6 0.000000 0.000000 0.000000 0.000000 0.000000 0.009792
#
#
# Mechanical properties :
#
#
# Convention : Reuss Voigt Hill
#
# Bulk Modulus (GPa) = 37.48228 41.50861 39.49545
# Shear Modulus (GPa) = 52.35415 31.73798 42.04606
#
# Velocity S-wave (km/s) = 5.39476 4.20036 4.83459
# Velocity P-wave (km/s) = 7.72275 6.82631 7.28832
#
# Compressibility (1/GPa) = 0.02667927
#
# Stress axis : x y z
#
# Youngs Moduli (GPa) = 53.58253 49.11005 56.70834
#
# Poissons Ratio (x) = 0.56042 -0.12379
# Poissons Ratio (y) = 0.61146 0.32672
# Poissons Ratio (z) = -0.11697 0.28295
#
# Static dielectric constant tensor:
#      x y z
#    x 1.596930 0.000000 0.000000 
#    y 0.000000 1.617620 0.000000 
#    z 0.000000 0.000000 1.643200 
# 
# From -- ./inp_files/19894.got.cif
#   From: 2010.05.17/outbox.cif.g08.bks.cpg/sg62_10_cif.got.tgz:19894.got - 2010.06.03 15:25:27.
