data_PCOD9464846
_publ_section_title
;
Structure prediction by ZEFSAII (Michael W. Deem and Ramdas Pophale) SiO2 
 PCOD9464846
Probable space group: P N M A
;
_chemical_formula_sum "Si O2"
_cell_formula_units_Z 56
_cell_length_a 13.298214
_cell_length_b 16.337444
_cell_length_c 11.811942
_cell_angle_alpha 90.000000
_cell_angle_beta 90.000000
_cell_angle_gamma 90.000000
_cell_volume 2566.248658
_symmetry_space_group_name_H-M "P N M A"
_symmetry_group_IT_number 62
_symmetry_cell_setting 'orthorhombic'
loop_
_space_group_symop_operation_xyz
x,y,z
1/2-x,-y,1/2+z
1/2+x,1/2-y,1/2-z
-x,1/2+y,-z
-x,-y,-z
1/2+x,y,1/2-z
1/2-x,1/2+y,1/2+z
x,1/2-y,z
loop_
_atom_site_type_symbol
_atom_site_label
_atom_site_fract_x
_atom_site_fract_y
_atom_site_fract_z
Si Si1 0.241328 0.846018 0.224609
Si Si2 0.574874 0.040172 0.165955
Si Si3 0.751711 0.074884 0.327519
Si Si4 0.339566 0.849274 0.449657
Si Si5 0.077639 0.655040 0.802082
Si Si6 0.567049 0.650687 0.439196
Si Si7 0.402821 0.931813 0.094849
O O1 0.221323 0.750000 0.237414
O O2 0.263523 0.876487 0.351106
O O3 0.150241 0.879737 0.148591
O O4 0.345207 0.858253 0.155415
O O5 0.678309 0.037350 0.233594
O O6 0.504898 0.100280 0.239829
O O7 0.511426 0.956906 0.144606
O O8 0.589359 0.076403 0.039824
O O9 0.690104 0.112349 0.431266
O O10 0.819430 0.142981 0.266059
O O11 0.829207 0.007953 0.375959
O O12 0.338251 0.750000 0.457955
O O13 0.452686 0.874983 0.416084
O O14 0.046785 0.750000 0.803771
O O15 0.091742 0.626740 0.931744
O O16 0.569141 0.750000 0.436252
#
# Coordination Sequence:
#
# PCOD9464846 Si02
#       7
#     8   8   8   8   8   8   8
#     4  10  22  41  63  87 120 162 206 262 315 366
#     4  10  22  42  61  88 129 167 200 262 320 368
#     4  11  22  38  64  90 126 171 205 253 323 375
#     4  10  21  39  62  91 124 162 209 259 314 379
#     4  10  20  36  64  96 123 159 209 259 313 378
#     4   9  18  37  61  89 121 152 200 259 306 366
#     4  10  24  41  60  90 127 160 215 258 308 390
#
# _framework density 21.821736999999999
#
# number of rings (size 3 to 8) (size 9 to 14) (size 15 to 20)
#    0.000    2.000    1.429    1.286    2.000    2.286 
#    5.143    1.429    0.000    0.000    0.000    0.000 
#    0.000    0.000    0.000    0.000    0.000    0.000 
#
# Total GULP energy -313024.044956 kJ/mol
# GULP energy per Si atom -5589.715089 kJ/mol
# Density = 2.177207 g / cm^3
# Si number density = 21.821737 Si / 1000 Ang^3
#
#
#
# Elastic Constant Matrix: (Units=GPa)
#
#
# Indices 1 2 3 4 5 6 
#
# 1 72.8511 -1.2143 43.5147 0.0000 0.0000 0.0000
# 2 -1.2143 23.1192 18.2791 0.0000 0.0000 0.0000
# 3 43.5147 18.2791 154.1515 0.0000 0.0000 0.0000
# 4 0.0000 0.0000 0.0000 26.8386 0.0000 0.0000
# 5 0.0000 0.0000 0.0000 0.0000 51.2428 0.0000
# 6 0.0000 0.0000 0.0000 0.0000 0.0000 25.4098
#
#
#
# Elastic Compliance Matrix: (Units=1/GPa)
#
#
# Indices 1 2 3 4 5 6 
#
# 1 0.017057 0.005189 -0.005430 0.000000 0.000000 0.000000
# 2 0.005189 0.049308 -0.007312 0.000000 0.000000 0.000000
# 3 -0.005430 -0.007312 0.008887 0.000000 0.000000 0.000000
# 4 0.000000 0.000000 0.000000 0.037260 0.000000 0.000000
# 5 0.000000 0.000000 0.000000 0.000000 0.019515 0.000000
# 6 0.000000 0.000000 0.000000 0.000000 0.000000 0.039355
#
#
# Mechanical properties :
#
#
# Convention : Reuss Voigt Hill
#
# Bulk Modulus (GPa) = 16.62623 41.25343 28.93983
# Shear Modulus (GPa) = 24.20901 33.33439 28.77170
#
# Velocity S-wave (km/s) = 3.33438 3.91266 3.63504
# Velocity P-wave (km/s) = 4.73917 6.27357 5.55956
#
# Compressibility (1/GPa) = 0.06014594
#
# Stress axis : x y z
#
# Youngs Moduli (GPa) = 58.62823 20.28087 112.52398
#
# Poissons Ratio (x) = -0.10524 0.61102
# Poissons Ratio (y) = -0.30424 0.82274
# Poissons Ratio (z) = 0.31836 0.14829
#
# Static dielectric constant tensor:
#      x y z
#    x 1.803650 0.000000 0.000000 
#    y 0.000000 1.808320 0.000000 
#    z 0.000000 0.000000 1.757080 
# 
# From -- ./inp_files/12401.got.cif
#   From: 2010.05.17/outbox.cif.g08.bks.cpg/sg62_7_cif.got.tgz:12401.got - 2010.06.03 15:25:27.
