data_PCOD9464757
_publ_section_title
;
Structure prediction by ZEFSAII (Michael W. Deem and Ramdas Pophale) SiO2 
 PCOD9464757
Probable space group: P N M A
;
_chemical_formula_sum "Si O2"
_cell_formula_units_Z 64
_cell_length_a 18.756863
_cell_length_b 19.278905
_cell_length_c 9.076271
_cell_angle_alpha 90.000000
_cell_angle_beta 90.000000
_cell_angle_gamma 90.000000
_cell_volume 3282.086511
_symmetry_space_group_name_H-M "P N M A"
_symmetry_group_IT_number 62
_symmetry_cell_setting 'orthorhombic'
loop_
_space_group_symop_operation_xyz
x,y,z
1/2-x,-y,1/2+z
1/2+x,1/2-y,1/2-z
-x,1/2+y,-z
-x,-y,-z
1/2+x,y,1/2-z
1/2-x,1/2+y,1/2+z
x,1/2-y,z
loop_
_atom_site_type_symbol
_atom_site_label
_atom_site_fract_x
_atom_site_fract_y
_atom_site_fract_z
Si Si1 0.365846 0.827825 0.474500
Si Si2 0.984217 0.169900 0.814473
Si Si3 0.792893 0.556297 0.831720
Si Si4 0.378917 0.926437 0.958427
Si Si5 0.507485 0.831245 0.958759
Si Si6 0.360427 0.077975 0.030361
Si Si7 0.296423 0.673966 0.162571
Si Si8 0.158879 0.597418 0.183508
O O1 0.366234 0.750000 0.540834
O O2 0.443494 0.841406 0.404547
O O3 0.338957 0.887420 0.580464
O O4 0.312279 0.826135 0.335748
O O5 0.961897 0.250000 0.838450
O O6 0.996841 0.163521 0.638186
O O7 0.921068 0.118174 0.857353
O O8 0.816891 0.564955 0.662839
O O9 0.815661 0.477729 0.871315
O O10 0.710127 0.568482 0.871013
O O11 0.444758 0.880828 0.899718
O O12 0.399001 0.003243 0.012860
O O13 0.345288 0.883827 0.091185
O O14 0.500824 0.750000 0.919535
O O15 0.583727 0.864273 0.916689
O O16 0.338358 0.096497 0.862479
O O17 0.315923 0.750000 0.104418
O O18 0.215132 0.654694 0.132642
#
# Coordination Sequence:
#
# PCOD9464757 Si02
#       8
#     8   8   8   8   8   8   8   8
#     4  10  21  37  59  84 115 154 195 236 289 355
#     4   9  18  35  59  87 115 149 198 251 293 341
#     4  11  23  38  58  89 122 160 190 240 303 354
#     4  11  22  38  60  89 123 155 195 249 297 354
#     4  10  20  37  61  88 115 153 206 251 291 348
#     4  10  21  38  60  86 121 159 198 242 298 357
#     4  11  20  35  60  86 113 154 198 242 289 345
#     4  10  20  36  59  87 117 150 199 250 288 346
#
# _framework density 19.499790999999998
#
# number of rings (size 3 to 8) (size 9 to 14) (size 15 to 20)
#    0.000    1.750    3.750    1.125    0.000    2.500 
#    0.000    1.250    0.000    0.000    0.000    0.000 
#    0.000    0.000    0.000    0.000    0.000    0.000 
#
# Total GULP energy -357131.878582 kJ/mol
# GULP energy per Si atom -5580.185603 kJ/mol
# Density = 1.945541 g / cm^3
# Si number density = 19.499791 Si / 1000 Ang^3
#
#
#
# Elastic Constant Matrix: (Units=GPa)
#
#
# Indices 1 2 3 4 5 6 
#
# 1 106.5740 42.0642 -4.7057 0.0000 0.0000 0.0000
# 2 42.0642 81.5052 8.4811 0.0000 0.0000 0.0000
# 3 -4.7057 8.4811 13.0729 0.0000 0.0000 0.0000
# 4 0.0000 0.0000 0.0000 26.4712 0.0000 0.0000
# 5 0.0000 0.0000 0.0000 0.0000 23.2064 0.0000
# 6 0.0000 0.0000 0.0000 0.0000 0.0000 34.7186
#
#
#
# Elastic Compliance Matrix: (Units=1/GPa)
#
#
# Indices 1 2 3 4 5 6 
#
# 1 0.012804 -0.007601 0.009540 0.000000 0.000000 0.000000
# 2 -0.007601 0.017669 -0.014199 0.000000 0.000000 0.000000
# 3 0.009540 -0.014199 0.089140 0.000000 0.000000 0.000000
# 4 0.000000 0.000000 0.000000 0.037777 0.000000 0.000000
# 5 0.000000 0.000000 0.000000 0.000000 0.043091 0.000000
# 6 0.000000 0.000000 0.000000 0.000000 0.000000 0.028803
#
#
# Mechanical properties :
#
#
# Convention : Reuss Voigt Hill
#
# Bulk Modulus (GPa) = 10.51591 32.53681 21.52636
# Shear Modulus (GPa) = 17.51295 27.23343 22.37319
#
# Velocity S-wave (km/s) = 3.00010 3.74117 3.39094
# Velocity P-wave (km/s) = 4.17197 5.94842 5.13756
#
# Compressibility (1/GPa) = 0.09509399
#
# Stress axis : x y z
#
# Youngs Moduli (GPa) = 78.09766 56.59473 11.21833
#
# Poissons Ratio (x) = 0.43018 -0.10703
# Poissons Ratio (y) = 0.59362 0.15929
# Poissons Ratio (z) = -0.74507 0.80360
#
# Static dielectric constant tensor:
#      x y z
#    x 1.690110 0.000000 0.000000 
#    y 0.000000 1.696070 0.000000 
#    z 0.000000 0.000000 1.667730 
# 
# From -- ./inp_files/8915.got.cif
#   From: 2010.05.17/outbox.cif.g08.bks.cpg/sg62_5_cif.got.tgz:8915.got - 2010.06.03 15:25:27.
