data_PCOD9464834
_publ_section_title
;
Structure prediction by ZEFSAII (Michael W. Deem and Ramdas Pophale) SiO2 
 PCOD9464834
Probable space group: P N M A
;
_chemical_formula_sum "Si O2"
_cell_formula_units_Z 56
_cell_length_a 18.015649
_cell_length_b 20.866270
_cell_length_c 7.849098
_cell_angle_alpha 90.000000
_cell_angle_beta 90.000000
_cell_angle_gamma 90.000000
_cell_volume 2950.628181
_symmetry_space_group_name_H-M "P N M A"
_symmetry_group_IT_number 62
_symmetry_cell_setting 'orthorhombic'
loop_
_space_group_symop_operation_xyz
x,y,z
1/2-x,-y,1/2+z
1/2+x,1/2-y,1/2-z
-x,1/2+y,-z
-x,-y,-z
1/2+x,y,1/2-z
1/2-x,1/2+y,1/2+z
x,1/2-y,z
loop_
_atom_site_type_symbol
_atom_site_label
_atom_site_fract_x
_atom_site_fract_y
_atom_site_fract_z
Si Si1 0.285557 0.428655 0.376299
Si Si2 0.412738 0.825971 0.233434
Si Si3 0.329851 0.477719 0.716314
Si Si4 0.086589 0.100991 0.078434
Si Si5 0.950316 0.047873 0.249364
Si Si6 0.023466 0.579730 0.368658
Si Si7 0.834866 0.826058 0.625856
O O1 0.297500 0.430028 0.578071
O O2 0.232268 0.488312 0.329475
O O3 0.364620 0.437498 0.284965
O O4 0.240489 0.364537 0.333778
O O5 0.409900 0.750000 0.259160
O O6 0.391970 0.863382 0.405383
O O7 0.495506 0.851681 0.192241
O O8 0.364348 0.842085 0.064948
O O9 0.367606 0.535821 0.609705
O O10 0.394663 0.443402 0.819965
O O11 0.107210 0.147824 0.234680
O O12 0.001094 0.078315 0.100605
O O13 0.979653 0.076266 0.427800
O O14 0.968347 0.972695 0.280709
O O15 0.826519 0.750000 0.637269
#
# Coordination Sequence:
#
# PCOD9464834 Si02
#       7
#     8   8   8   8   8   8   8
#     4  11  22  36  56  88 122 160 192 240 304 363
#     4  11  22  37  63  87 113 156 201 246 294 351
#     4  10  22  34  57  90 121 154 192 244 306 354
#     4  10  20  39  64  90 111 153 201 251 294 348
#     4  10  20  36  63  91 118 153 194 254 309 345
#     4  10  20  38  61  90 122 149 200 254 297 355
#     4  10  23  42  58  83 120 160 202 242 293 357
#
# _framework density 18.979009999999999
#
# number of rings (size 3 to 8) (size 9 to 14) (size 15 to 20)
#    0.000    1.714    1.429    3.000    6.000    2.286 
#    0.000    4.286    0.000    0.000    0.000    0.000 
#    0.000    0.000    0.000    0.000    0.000    0.000 
#
# Total GULP energy -312617.890024 kJ/mol
# GULP energy per Si atom -5582.462322 kJ/mol
# Density = 1.893581 g / cm^3
# Si number density = 18.979010 Si / 1000 Ang^3
#
#
#
# Elastic Constant Matrix: (Units=GPa)
#
#
# Indices 1 2 3 4 5 6 
#
# 1 110.8914 25.5466 11.0034 0.0000 0.0000 0.0000
# 2 25.5466 28.2511 8.8868 0.0000 0.0000 0.0000
# 3 11.0034 8.8868 79.9825 0.0000 0.0000 0.0000
# 4 0.0000 0.0000 0.0000 23.8274 0.0000 0.0000
# 5 0.0000 0.0000 0.0000 0.0000 22.0835 0.0000
# 6 0.0000 0.0000 0.0000 0.0000 0.0000 5.8246
#
#
#
# Elastic Compliance Matrix: (Units=1/GPa)
#
#
# Indices 1 2 3 4 5 6 
#
# 1 0.011406 -0.010176 -0.000438 0.000000 0.000000 0.000000
# 2 -0.010176 0.045757 -0.003684 0.000000 0.000000 0.000000
# 3 -0.000438 -0.003684 0.012972 0.000000 0.000000 0.000000
# 4 0.000000 0.000000 0.000000 0.041968 0.000000 0.000000
# 5 0.000000 0.000000 0.000000 0.000000 0.045283 0.000000
# 6 0.000000 0.000000 0.000000 0.000000 0.000000 0.171686
#
#
# Mechanical properties :
#
#
# Convention : Reuss Voigt Hill
#
# Bulk Modulus (GPa) = 24.07402 34.44429 29.25916
# Shear Modulus (GPa) = 13.45840 21.92632 17.69236
#
# Velocity S-wave (km/s) = 2.66582 3.40265 3.05652
# Velocity P-wave (km/s) = 4.71037 5.79874 5.28266
#
# Compressibility (1/GPa) = 0.04153855
#
# Stress axis : x y z
#
# Youngs Moduli (GPa) = 87.67634 21.85437 77.08671
#
# Poissons Ratio (x) = 0.22239 0.03380
# Poissons Ratio (y) = 0.89218 0.28400
# Poissons Ratio (z) = 0.03844 0.08052
#
# Static dielectric constant tensor:
#      x y z
#    x 1.659820 0.000000 0.000000 
#    y 0.000000 1.637240 0.000000 
#    z 0.000000 0.000000 1.696130 
# 
# From -- ./inp_files/6781.got.cif
#   From: 2010.05.17/outbox.cif.g08.bks.cpg/sg62_4_cif.got.tgz:6781.got - 2010.06.03 15:25:27.
