data_PCOD9464069
_publ_section_title
;
Structure prediction by ZEFSAII (Michael W. Deem and Ramdas Pophale) SiO2 
 PCOD9464069
Probable space group: P N M A
;
_chemical_formula_sum "Si O2"
_cell_formula_units_Z 40
_cell_length_a 7.356092
_cell_length_b 17.189799
_cell_length_c 13.208100
_cell_angle_alpha 90.000000
_cell_angle_beta 90.000000
_cell_angle_gamma 90.000000
_cell_volume 1670.160849
_symmetry_space_group_name_H-M "P N M A"
_symmetry_group_IT_number 62
_symmetry_cell_setting 'orthorhombic'
loop_
_space_group_symop_operation_xyz
x,y,z
1/2-x,-y,1/2+z
1/2+x,1/2-y,1/2-z
-x,1/2+y,-z
-x,-y,-z
1/2+x,y,1/2-z
1/2-x,1/2+y,1/2+z
x,1/2-y,z
loop_
_atom_site_type_symbol
_atom_site_label
_atom_site_fract_x
_atom_site_fract_y
_atom_site_fract_z
Si Si1 0.253102 0.161768 0.417662
Si Si2 0.317846 0.161413 0.069287
Si Si3 0.026519 0.462821 0.112279
Si Si4 0.583229 0.836178 0.146502
Si Si5 0.206057 0.615976 0.145013
O O1 0.294410 0.250000 0.382645
O O2 0.352604 0.090259 0.362257
O O3 0.326250 0.153285 0.534295
O O4 0.034797 0.152065 0.415559
O O5 0.270272 0.250000 0.098073
O O6 0.193294 0.097209 0.118688
O O7 0.285159 0.151795 0.948042
O O8 0.087118 0.540279 0.168228
O O9 0.000000 0.500000 0.000000
O O10 0.500798 0.750000 0.126650
O O11 0.675547 0.834446 0.254561
O O12 0.422073 0.898152 0.139978
#
# Coordination Sequence:
#
# PCOD9464069 Si02
#       5
#     8   8   8   8   8
#     4   9  18  34  55  78 104 136 181 226 267 319
#     4   9  19  36  57  80 106 143 185 227 272 324
#     4  10  21  33  50  80 113 145 177 223 273 322
#     4  10  20  34  53  77 111 148 180 215 265 329
#     4  10  21  33  48  80 114 142 177 216 269 325
#
# _framework density 23.94979
#
# number of rings (size 3 to 8) (size 9 to 14) (size 15 to 20)
#    0.000    2.400    0.000    3.600    5.600    7.200 
#    0.000    0.000    0.000    0.000    0.000    5.600 
#    0.000    0.000    0.000    0.000    0.000    0.000 
#
# Total GULP energy -223189.433466 kJ/mol
# GULP energy per Si atom -5579.735837 kJ/mol
# Density = 2.389528 g / cm^3
# Si number density = 23.949790 Si / 1000 Ang^3
#
#
#
# Elastic Constant Matrix: (Units=GPa)
#
#
# Indices 1 2 3 4 5 6 
#
# 1 72.0819 36.1502 0.6905 0.0000 0.0000 0.0000
# 2 36.1502 112.1934 3.6513 0.0000 0.0000 0.0000
# 3 0.6905 3.6513 24.4480 0.0000 0.0000 0.0000
# 4 0.0000 0.0000 0.0000 11.8822 0.0000 0.0000
# 5 0.0000 0.0000 0.0000 0.0000 15.4153 0.0000
# 6 0.0000 0.0000 0.0000 0.0000 0.0000 34.8812
#
#
#
# Elastic Compliance Matrix: (Units=1/GPa)
#
#
# Indices 1 2 3 4 5 6 
#
# 1 0.016550 -0.005343 0.000331 0.000000 0.000000 0.000000
# 2 -0.005343 0.010682 -0.001444 0.000000 0.000000 0.000000
# 3 0.000331 -0.001444 0.041109 0.000000 0.000000 0.000000
# 4 0.000000 0.000000 0.000000 0.084160 0.000000 0.000000
# 5 0.000000 0.000000 0.000000 0.000000 0.064871 0.000000
# 6 0.000000 0.000000 0.000000 0.000000 0.000000 0.028669
#
#
# Mechanical properties :
#
#
# Convention : Reuss Voigt Hill
#
# Bulk Modulus (GPa) = 18.04182 32.18970 25.11576
# Shear Modulus (GPa) = 18.02257 23.65116 20.83687
#
# Velocity S-wave (km/s) = 2.74618 3.14591 2.95282
# Velocity P-wave (km/s) = 4.19581 5.16385 4.70479
#
# Compressibility (1/GPa) = 0.05542678
#
# Stress axis : x y z
#
# Youngs Moduli (GPa) = 60.42412 93.61662 24.32530
#
# Poissons Ratio (x) = 0.50022 -0.00804
# Poissons Ratio (y) = 0.32286 0.03514
# Poissons Ratio (z) = -0.01997 0.13522
#
# Static dielectric constant tensor:
#      x y z
#    x 1.897060 0.000000 0.000000 
#    y 0.000000 1.417350 0.000000 
#    z 0.000000 0.000000 1.963870 
# 
# From -- ./inp_files/16647.got.cif
#   From: 2010.05.17/outbox.cif.g08.bks.cpg/sg62_9_cif.got.tgz:16647.got - 2010.06.03 15:25:27.
