data_PCOD9464771
_publ_section_title
;
Structure prediction by ZEFSAII (Michael W. Deem and Ramdas Pophale) SiO2 
 PCOD9464771
Probable space group: P N M A
;
_chemical_formula_sum "Si O2"
_cell_formula_units_Z 64
_cell_length_a 11.344793
_cell_length_b 15.766616
_cell_length_c 19.040063
_cell_angle_alpha 90.000000
_cell_angle_beta 90.000000
_cell_angle_gamma 90.000000
_cell_volume 3405.676930
_symmetry_space_group_name_H-M "P N M A"
_symmetry_group_IT_number 62
_symmetry_cell_setting 'orthorhombic'
loop_
_space_group_symop_operation_xyz
x,y,z
1/2-x,-y,1/2+z
1/2+x,1/2-y,1/2-z
-x,1/2+y,-z
-x,-y,-z
1/2+x,y,1/2-z
1/2-x,1/2+y,1/2+z
x,1/2-y,z
loop_
_atom_site_type_symbol
_atom_site_label
_atom_site_fract_x
_atom_site_fract_y
_atom_site_fract_z
Si Si1 0.296816 0.651268 0.088438
Si Si2 0.276345 0.154434 0.007004
Si Si3 0.119034 0.844900 0.658083
Si Si4 0.459834 0.934783 0.560358
Si Si5 0.392420 0.938223 0.826475
Si Si6 0.030978 0.937185 0.436494
Si Si7 0.799314 0.998632 0.818919
Si Si8 0.793386 0.149341 0.068746
O O1 0.273436 0.750000 0.105068
O O2 0.434556 0.635599 0.072065
O O3 0.256421 0.584849 0.148635
O O4 0.236381 0.629592 0.013215
O O5 0.260877 0.250000 0.982959
O O6 0.368173 0.154806 0.072901
O O7 0.152059 0.117826 0.031707
O O8 0.338933 0.097934 0.949128
O O9 0.157026 0.750000 0.680529
O O10 0.988371 0.864055 0.686701
O O11 0.207314 0.920254 0.677655
O O12 0.571454 0.877184 0.579457
O O13 0.500000 0.000000 0.500000
O O14 0.408903 0.980158 0.629275
O O15 0.291663 0.901045 0.877931
O O16 0.470122 0.005239 0.868808
O O17 0.343133 0.989312 0.760383
O O18 0.000000 0.000000 0.500000
O O19 0.775976 0.250000 0.078321
#
# Coordination Sequence:
#
# PCOD9464771 Si02
#       8
#     8   8   8   8   8   8   8   8
#     4  11  22  42  69  94 126 171 224 276 320 380
#     4  10  20  36  59  91 123 156 203 262 319 370
#     4  10  21  40  63  89 126 165 203 259 325 394
#     4  11  21  39  62  87 126 172 212 254 314 393
#     4  12  24  38  64  93 129 161 212 267 331 384
#     4  12  19  37  65  94 122 159 210 270 328 389
#     4  11  25  43  61  93 131 174 209 266 334 384
#     4  11  23  38  63  98 125 166 222 267 317 394
#
# _framework density 18.792152999999999
#
# number of rings (size 3 to 8) (size 9 to 14) (size 15 to 20)
#    0.000    1.000    5.000    2.625    1.750    3.500 
#    0.000    1.250    0.000    0.000    0.000    0.000 
#    0.000    0.000    0.000    0.000    0.000    0.000 
#
# Total GULP energy -357042.737305 kJ/mol
# GULP energy per Si atom -5578.792770 kJ/mol
# Density = 1.874938 g / cm^3
# Si number density = 18.792153 Si / 1000 Ang^3
#
#
#
# Elastic Constant Matrix: (Units=GPa)
#
#
# Indices 1 2 3 4 5 6 
#
# 1 93.2183 28.6231 25.0768 0.0000 0.0000 0.0000
# 2 28.6231 101.3796 46.5647 0.0000 0.0000 0.0000
# 3 25.0768 46.5647 84.8685 0.0000 0.0000 0.0000
# 4 0.0000 0.0000 0.0000 13.7457 0.0000 0.0000
# 5 0.0000 0.0000 0.0000 0.0000 26.3029 0.0000
# 6 0.0000 0.0000 0.0000 0.0000 0.0000 27.3234
#
#
#
# Elastic Compliance Matrix: (Units=1/GPa)
#
#
# Indices 1 2 3 4 5 6 
#
# 1 0.012063 -0.002365 -0.002267 0.000000 0.000000 0.000000
# 2 -0.002365 0.013651 -0.006791 0.000000 0.000000 0.000000
# 3 -0.002267 -0.006791 0.016179 0.000000 0.000000 0.000000
# 4 0.000000 0.000000 0.000000 0.072750 0.000000 0.000000
# 5 0.000000 0.000000 0.000000 0.000000 0.038019 0.000000
# 6 0.000000 0.000000 0.000000 0.000000 0.000000 0.036599
#
#
# Mechanical properties :
#
#
# Convention : Reuss Voigt Hill
#
# Bulk Modulus (GPa) = 52.50033 53.33286 52.91660
# Shear Modulus (GPa) = 22.88801 25.42118 24.15460
#
# Velocity S-wave (km/s) = 3.49371 3.68197 3.58907
# Velocity P-wave (km/s) = 6.65377 6.82040 6.73760
#
# Compressibility (1/GPa) = 0.01904750
#
# Stress axis : x y z
#
# Youngs Moduli (GPa) = 82.89500 73.25614 61.80917
#
# Poissons Ratio (x) = 0.17323 0.14013
# Poissons Ratio (y) = 0.19602 0.41975
# Poissons Ratio (z) = 0.18793 0.49748
#
# Static dielectric constant tensor:
#      x y z
#    x 1.535020 0.000000 0.000000 
#    y 0.000000 1.661590 0.000000 
#    z 0.000000 0.000000 1.748000 
# 
# From -- ./inp_files/23246.got.cif
#   From: 2010.05.17/outbox.cif.g08.bks.cpg/sg62_12_cif.got.tgz:23246.got - 2010.06.03 15:25:27.
