data_PCOD9464655
_publ_section_title
;
Structure prediction by ZEFSAII (Michael W. Deem and Ramdas Pophale) SiO2 
 PCOD9464655
Probable space group: P N M A
;
_chemical_formula_sum "Si O2"
_cell_formula_units_Z 56
_cell_length_a 10.770668
_cell_length_b 13.390875
_cell_length_c 21.317168
_cell_angle_alpha 90.000000
_cell_angle_beta 90.000000
_cell_angle_gamma 90.000000
_cell_volume 3074.546764
_symmetry_space_group_name_H-M "P N M A"
_symmetry_group_IT_number 62
_symmetry_cell_setting 'orthorhombic'
loop_
_space_group_symop_operation_xyz
x,y,z
1/2-x,-y,1/2+z
1/2+x,1/2-y,1/2-z
-x,1/2+y,-z
-x,-y,-z
1/2+x,y,1/2-z
1/2-x,1/2+y,1/2+z
x,1/2-y,z
loop_
_atom_site_type_symbol
_atom_site_label
_atom_site_fract_x
_atom_site_fract_y
_atom_site_fract_z
Si Si1 0.069217 0.016240 0.263948
Si Si2 0.644480 0.996467 0.589289
Si Si3 0.670778 0.869816 0.712299
Si Si4 0.430057 0.044757 0.904141
Si Si5 0.827303 0.361236 0.980799
Si Si6 0.039797 0.144029 0.482794
Si Si7 0.065135 0.631779 0.147662
O O1 0.195639 0.082302 0.268388
O O2 0.947070 0.082908 0.249217
O O3 0.048662 0.960362 0.330246
O O4 0.086503 0.934129 0.209303
O O5 0.782699 0.039686 0.585717
O O6 0.554698 0.082809 0.614067
O O7 0.649323 0.908096 0.641074
O O8 0.610228 0.944459 0.523902
O O9 0.673728 0.750000 0.716805
O O10 0.481141 0.130678 0.948667
O O11 0.489959 0.945692 0.935982
O O12 0.882552 0.250000 0.989385
O O13 0.686910 0.358224 0.005474
O O14 0.831349 0.381364 0.906589
O O15 0.003947 0.250000 0.454642
O O16 0.051800 0.750000 0.160891
#
# Coordination Sequence:
#
# PCOD9464655 Si02
#       7
#     8   8   8   8   8   8   8
#     4  10  22  36  55  80 112 149 179 226 274 326
#     4   9  18  34  54  77 104 142 178 227 268 322
#     4  10  20  36  57  81 107 140 186 229 280 330
#     4   9  19  34  52  75 105 137 175 217 273 320
#     4   9  17  31  54  78 103 136 179 225 270 316
#     4   9  18  32  53  79 101 131 176 222 268 320
#     4  10  21  35  51  78 111 147 184 219 264 324
#
# _framework density 18.214068000000001
#
# number of rings (size 3 to 8) (size 9 to 14) (size 15 to 20)
#    0.000    2.571    0.000    1.286    2.000    5.143 
#    0.000    5.714    0.000    0.857    0.000    0.000 
#    0.000    0.000    0.000    0.000    0.000    0.000 
#
# Total GULP energy -311868.394733 kJ/mol
# GULP energy per Si atom -5569.078477 kJ/mol
# Density = 1.817261 g / cm^3
# Si number density = 18.214068 Si / 1000 Ang^3
#
#
#
# Elastic Constant Matrix: (Units=GPa)
#
#
# Indices 1 2 3 4 5 6 
#
# 1 32.2969 -0.3412 11.2409 0.0000 0.0000 0.0000
# 2 -0.3412 78.4953 32.6165 0.0000 0.0000 0.0000
# 3 11.2409 32.6165 94.1839 0.0000 0.0000 0.0000
# 4 0.0000 0.0000 0.0000 14.2616 0.0000 0.0000
# 5 0.0000 0.0000 0.0000 0.0000 25.0365 0.0000
# 6 0.0000 0.0000 0.0000 0.0000 0.0000 17.6319
#
#
#
# Elastic Compliance Matrix: (Units=1/GPa)
#
#
# Indices 1 2 3 4 5 6 
#
# 1 0.032585 0.002053 -0.004600 0.000000 0.000000 0.000000
# 2 0.002053 0.015010 -0.005443 0.000000 0.000000 0.000000
# 3 -0.004600 -0.005443 0.013052 0.000000 0.000000 0.000000
# 4 0.000000 0.000000 0.000000 0.070118 0.000000 0.000000
# 5 0.000000 0.000000 0.000000 0.000000 0.039942 0.000000
# 6 0.000000 0.000000 0.000000 0.000000 0.000000 0.056715
#
#
# Mechanical properties :
#
#
# Convention : Reuss Voigt Hill
#
# Bulk Modulus (GPa) = 22.38792 32.44539 27.41666
# Shear Modulus (GPa) = 19.35792 22.14999 20.75396
#
# Velocity S-wave (km/s) = 3.26360 3.49103 3.37923
# Velocity P-wave (km/s) = 5.14973 5.83968 5.50552
#
# Compressibility (1/GPa) = 0.04466694
#
# Stress axis : x y z
#
# Youngs Moduli (GPa) = 30.68850 66.62085 76.61919
#
# Poissons Ratio (x) = -0.13678 0.35245
# Poissons Ratio (y) = -0.06301 0.41705
# Poissons Ratio (z) = 0.14117 0.36263
#
# Static dielectric constant tensor:
#      x y z
#    x 1.632450 0.000000 0.000000 
#    y 0.000000 1.645520 0.000000 
#    z 0.000000 0.000000 1.634570 
# 
# From -- ./inp_files/25995.got.cif
#   From: 2010.05.17/outbox.cif.g08.bks.cpg/sg62_13_cif.got.tgz:25995.got - 2010.06.03 15:25:27.
