data_PCOD9464832
_publ_section_title
;
Structure prediction by ZEFSAII (Michael W. Deem and Ramdas Pophale) SiO2 
 PCOD9464832
Probable space group: P N M A
;
_chemical_formula_sum "Si O2"
_cell_formula_units_Z 56
_cell_length_a 9.377288
_cell_length_b 18.793649
_cell_length_c 13.804290
_cell_angle_alpha 90.000000
_cell_angle_beta 90.000000
_cell_angle_gamma 90.000000
_cell_volume 2432.777779
_symmetry_space_group_name_H-M "P N M A"
_symmetry_group_IT_number 62
_symmetry_cell_setting 'orthorhombic'
loop_
_space_group_symop_operation_xyz
x,y,z
1/2-x,-y,1/2+z
1/2+x,1/2-y,1/2-z
-x,1/2+y,-z
-x,-y,-z
1/2+x,y,1/2-z
1/2-x,1/2+y,1/2+z
x,1/2-y,z
loop_
_atom_site_type_symbol
_atom_site_label
_atom_site_fract_x
_atom_site_fract_y
_atom_site_fract_z
Si Si1 0.707678 0.750000 0.259169
Si Si2 0.325570 0.890106 0.134949
Si Si3 0.966128 0.165465 0.483718
Si Si4 0.466652 0.100365 0.541850
Si Si5 0.897455 0.002433 0.198640
Si Si6 0.343749 0.666412 0.602834
Si Si7 0.367912 0.599474 0.803228
Si Si8 0.554415 0.250000 0.635585
O O1 0.767364 0.681135 0.313962
O O2 0.537913 0.750000 0.265057
O O3 0.778250 0.750000 0.154408
O O4 0.341881 0.946934 0.219872
O O5 0.200965 0.910721 0.058864
O O6 0.471221 0.874813 0.077265
O O7 0.984947 0.250000 0.496139
O O8 0.060524 0.140115 0.392245
O O9 0.801881 0.150994 0.455744
O O10 0.544773 0.041784 0.607118
O O11 0.534834 0.112851 0.436718
O O12 0.506934 0.177923 0.585631
O O13 0.768274 0.053108 0.168930
O O14 0.017492 0.046384 0.255574
O O15 0.379647 0.750000 0.589919
O O16 0.321990 0.651934 0.716220
#
# Coordination Sequence:
#
# PCOD9464832 Si02
#       8
#     4   8   8   8   8   8   8   4
#     4  10  20  36  62  97 134 171 218 273 336 390
#     4  11  24  42  68 104 137 176 226 276 342 405
#     4  11  26  47  73 101 131 177 233 289 339 395
#     4  11  24  42  68 103 138 175 224 280 342 403
#     4  12  26  45  69 101 143 186 221 271 344 415
#     4  11  26  47  73 102 131 176 235 289 338 394
#     4  12  27  50  66  98 139 185 231 274 339 407
#     4  10  20  36  62  97 132 173 216 277 334 390
#
# _framework density 23.018954999999998
#
# number of rings (size 3 to 8) (size 9 to 14) (size 15 to 20)
#    0.000    0.857    5.714    0.429    4.000    3.429 
#    0.000    0.000    0.000    0.000    0.000    0.000 
#    0.000    0.000    0.000    0.000    0.000    0.000 
#
# Total GULP energy -313511.055652 kJ/mol
# GULP energy per Si atom -5598.411708 kJ/mol
# Density = 2.296656 g / cm^3
# Si number density = 23.018955 Si / 1000 Ang^3
#
#
#
# Elastic Constant Matrix: (Units=GPa)
#
#
# Indices 1 2 3 4 5 6 
#
# 1 83.0960 41.9299 10.6102 0.0000 0.0000 0.0000
# 2 41.9299 78.4058 25.2831 0.0000 0.0000 0.0000
# 3 10.6102 25.2831 78.6568 0.0000 0.0000 0.0000
# 4 0.0000 0.0000 0.0000 26.8947 0.0000 0.0000
# 5 0.0000 0.0000 0.0000 0.0000 42.8553 0.0000
# 6 0.0000 0.0000 0.0000 0.0000 0.0000 11.0053
#
#
#
# Elastic Compliance Matrix: (Units=1/GPa)
#
#
# Indices 1 2 3 4 5 6 
#
# 1 0.016515 -0.009052 0.000682 0.000000 0.000000 0.000000
# 2 -0.009052 0.019190 -0.004947 0.000000 0.000000 0.000000
# 3 0.000682 -0.004947 0.014212 0.000000 0.000000 0.000000
# 4 0.000000 0.000000 0.000000 0.037182 0.000000 0.000000
# 5 0.000000 0.000000 0.000000 0.000000 0.023334 0.000000
# 6 0.000000 0.000000 0.000000 0.000000 0.000000 0.090865
#
#
# Mechanical properties :
#
#
# Convention : Reuss Voigt Hill
#
# Bulk Modulus (GPa) = 42.95133 43.97834 43.46484
# Shear Modulus (GPa) = 21.21405 26.97345 24.09375
#
# Velocity S-wave (km/s) = 3.03906 3.42686 3.23877
# Velocity P-wave (km/s) = 5.56904 5.89954 5.73667
#
# Compressibility (1/GPa) = 0.02328216
#
# Stress axis : x y z
#
# Youngs Moduli (GPa) = 60.55262 52.11026 70.36428
#
# Poissons Ratio (x) = 0.47168 -0.04797
# Poissons Ratio (y) = 0.54809 0.34812
# Poissons Ratio (z) = -0.04128 0.25781
#
# Static dielectric constant tensor:
#      x y z
#    x 1.842680 0.000000 0.000000 
#    y 0.000000 1.819490 0.000000 
#    z 0.000000 0.000000 1.920140 
# 
# From -- ./inp_files/17247.got.cif
#   From: 2010.05.17/outbox.cif.g08.bks.cpg/sg62_9_cif.got.tgz:17247.got - 2010.06.03 15:25:27.
