data_PCOD9464955
_publ_section_title
;
Structure prediction by ZEFSAII (Michael W. Deem and Ramdas Pophale) SiO2 
 PCOD9464955
Probable space group: P N M A
;
_chemical_formula_sum "Si O2"
_cell_formula_units_Z 64
_cell_length_a 20.111052
_cell_length_b 16.979048
_cell_length_c 9.519688
_cell_angle_alpha 90.000000
_cell_angle_beta 90.000000
_cell_angle_gamma 90.000000
_cell_volume 3250.654707
_symmetry_space_group_name_H-M "P N M A"
_symmetry_group_IT_number 62
_symmetry_cell_setting 'orthorhombic'
loop_
_space_group_symop_operation_xyz
x,y,z
1/2-x,-y,1/2+z
1/2+x,1/2-y,1/2-z
-x,1/2+y,-z
-x,-y,-z
1/2+x,y,1/2-z
1/2-x,1/2+y,1/2+z
x,1/2-y,z
loop_
_atom_site_type_symbol
_atom_site_label
_atom_site_fract_x
_atom_site_fract_y
_atom_site_fract_z
Si Si1 0.740568 0.097718 0.261869
Si Si2 0.499009 0.412768 0.062905
Si Si3 0.488002 0.839066 0.230537
Si Si4 0.861284 0.158095 0.429575
Si Si5 0.145450 0.658585 0.248572
Si Si6 0.800685 0.037919 0.975482
Si Si7 0.906458 0.841738 0.787840
Si Si8 0.935655 0.550480 0.045574
O O1 0.801817 0.147911 0.321176
O O2 0.671730 0.145275 0.262561
O O3 0.731932 0.027989 0.375941
O O4 0.757005 0.064765 0.107562
O O5 0.513721 0.353159 0.935358
O O6 0.500000 0.500000 0.000000
O O7 0.425236 0.391880 0.115711
O O8 0.552959 0.396717 0.180923
O O9 0.466606 0.750000 0.265296
O O10 0.565746 0.847857 0.272105
O O11 0.447927 0.908221 0.305732
O O12 0.880479 0.250000 0.439901
O O13 0.841861 0.133187 0.589398
O O14 0.164121 0.750000 0.237354
O O15 0.181688 0.608237 0.131171
O O16 0.869929 0.002415 0.034701
O O17 0.924236 0.750000 0.773344
O O18 0.925105 0.876679 0.939133
O O19 0.000000 0.500000 0.000000
#
# Coordination Sequence:
#
# PCOD9464955 Si02
#       8
#     8   8   8   8   8   8   8   8
#     4  11  26  41  66  90 131 174 217 267 324 389
#     4  11  24  38  69  97 127 165 215 265 323 381
#     4  10  20  37  60  91 129 164 205 258 325 386
#     4  10  22  42  66  94 128 170 215 261 325 391
#     4   9  19  37  62  89 125 164 208 265 319 379
#     4  11  24  40  62  91 129 166 223 265 318 384
#     4  11  25  44  63  94 134 169 210 270 327 379
#     4  11  22  38  62  94 125 166 209 269 324 376
#
# _framework density 19.688341999999999
#
# number of rings (size 3 to 8) (size 9 to 14) (size 15 to 20)
#    0.000    1.500    1.250    4.125   10.500    1.000 
#    0.000    0.000    0.000    3.750    0.000    0.000 
#    0.000    0.000    0.000    0.000    0.000    0.000 
#
# Total GULP energy -357664.523521 kJ/mol
# GULP energy per Si atom -5588.508180 kJ/mol
# Density = 1.964353 g / cm^3
# Si number density = 19.688342 Si / 1000 Ang^3
#
#
#
# Elastic Constant Matrix: (Units=GPa)
#
#
# Indices 1 2 3 4 5 6 
#
# 1 62.0137 10.9731 19.4302 0.0000 0.0000 0.0000
# 2 10.9731 67.1990 3.1852 0.0000 0.0000 0.0000
# 3 19.4302 3.1852 50.7807 0.0000 0.0000 0.0000
# 4 0.0000 0.0000 0.0000 31.1466 0.0000 0.0000
# 5 0.0000 0.0000 0.0000 0.0000 35.7317 0.0000
# 6 0.0000 0.0000 0.0000 0.0000 0.0000 15.5387
#
#
#
# Elastic Compliance Matrix: (Units=1/GPa)
#
#
# Indices 1 2 3 4 5 6 
#
# 1 0.018811 -0.002739 -0.007026 0.000000 0.000000 0.000000
# 2 -0.002739 0.015324 0.000087 0.000000 0.000000 0.000000
# 3 -0.007026 0.000087 0.022375 0.000000 0.000000 0.000000
# 4 0.000000 0.000000 0.000000 0.032106 0.000000 0.000000
# 5 0.000000 0.000000 0.000000 0.000000 0.027986 0.000000
# 6 0.000000 0.000000 0.000000 0.000000 0.000000 0.064355
#
#
# Mechanical properties :
#
#
# Convention : Reuss Voigt Hill
#
# Bulk Modulus (GPa) = 26.91424 27.46338 27.18881
# Shear Modulus (GPa) = 23.50726 26.24375 24.87551
#
# Velocity S-wave (km/s) = 3.45913 3.65493 3.55838
# Velocity P-wave (km/s) = 5.44554 5.63832 5.54277
#
# Compressibility (1/GPa) = 0.03715506
#
# Stress axis : x y z
#
# Youngs Moduli (GPa) = 53.15909 65.25597 44.69187
#
# Poissons Ratio (x) = 0.17872 0.31401
# Poissons Ratio (y) = 0.14559 -0.00387
# Poissons Ratio (z) = 0.37350 -0.00566
#
# Static dielectric constant tensor:
#      x y z
#    x 1.680310 0.000000 0.000000 
#    y 0.000000 1.695980 0.000000 
#    z 0.000000 0.000000 1.685740 
# 
# From -- ./inp_files/8908.got.cif
#   From: 2010.05.17/outbox.cif.g08.bks.cpg/sg62_5_cif.got.tgz:8908.got - 2010.06.03 15:25:27.
