data_PCOD9464986
_publ_section_title
;
Structure prediction by ZEFSAII (Michael W. Deem and Ramdas Pophale) SiO2 
 PCOD9464986
Probable space group: P N M A
;
_chemical_formula_sum "Si O2"
_cell_formula_units_Z 40
_cell_length_a 26.761920
_cell_length_b 11.180212
_cell_length_c 6.113734
_cell_angle_alpha 90.000000
_cell_angle_beta 90.000000
_cell_angle_gamma 90.000000
_cell_volume 1829.253296
_symmetry_space_group_name_H-M "P N M A"
_symmetry_group_IT_number 62
_symmetry_cell_setting 'orthorhombic'
loop_
_space_group_symop_operation_xyz
x,y,z
1/2-x,-y,1/2+z
1/2+x,1/2-y,1/2-z
-x,1/2+y,-z
-x,-y,-z
1/2+x,y,1/2-z
1/2-x,1/2+y,1/2+z
x,1/2-y,z
loop_
_atom_site_type_symbol
_atom_site_label
_atom_site_fract_x
_atom_site_fract_y
_atom_site_fract_z
Si Si1 0.580965 0.025832 0.988723
Si Si2 0.006150 0.892613 0.185160
Si Si3 0.768716 0.124244 0.452958
Si Si4 0.670975 0.448212 0.253634
Si Si5 0.356718 0.117092 0.367868
O O1 0.609610 0.939561 0.820188
O O2 0.542542 0.100809 0.842350
O O3 0.550304 0.943446 0.159364
O O4 0.624904 0.100137 0.111046
O O5 0.012225 0.750000 0.117908
O O6 0.000000 0.000000 0.000000
O O7 0.781321 0.250000 0.567488
O O8 0.710160 0.122719 0.402167
O O9 0.800783 0.121736 0.230650
O O10 0.791002 0.018410 0.594891
O O11 0.644501 0.538896 0.418097
O O12 0.373873 0.250000 0.416319
#
# Coordination Sequence:
#
# PCOD9464986 Si02
#       5
#     8   8   8   8   8
#     4  10  24  41  66  97 131 169 216 274 328 400
#     4  11  25  47  72 100 133 172 220 279 343 409
#     4  10  21  35  56  85 123 168 212 258 308 369
#     4  11  20  38  60  90 129 164 214 261 312 383
#     4  10  20  37  61  90 126 173 218 265 318 379
#
# _framework density 21.866847
#
# number of rings (size 3 to 8) (size 9 to 14) (size 15 to 20)
#    0.000    1.600    2.000    2.400    0.000    8.800 
#    0.000    3.000    0.000    0.000    0.000    0.000 
#    0.000    0.000    0.000    0.000    0.000    0.000 
#
# Total GULP energy -222901.543543 kJ/mol
# GULP energy per Si atom -5572.538589 kJ/mol
# Density = 2.181708 g / cm^3
# Si number density = 21.866847 Si / 1000 Ang^3
#
#
#
# Elastic Constant Matrix: (Units=GPa)
#
#
# Indices 1 2 3 4 5 6 
#
# 1 142.5143 30.4825 43.5113 0.0000 0.0000 0.0000
# 2 30.4825 107.8371 38.2022 0.0000 0.0000 0.0000
# 3 43.5113 38.2022 87.6849 0.0000 0.0000 0.0000
# 4 0.0000 0.0000 0.0000 -1.4790 0.0000 0.0000
# 5 0.0000 0.0000 0.0000 0.0000 33.7118 0.0000
# 6 0.0000 0.0000 0.0000 0.0000 0.0000 4.7747
#
#
#
# Elastic Compliance Matrix: (Units=1/GPa)
#
#
# Indices 1 2 3 4 5 6 
#
# 1 0.008371 -0.001058 -0.003693 0.000000 0.000000 0.000000
# 2 -0.001058 0.011099 -0.004311 0.000000 0.000000 0.000000
# 3 -0.003693 -0.004311 0.015115 0.000000 0.000000 0.000000
# 4 0.000000 0.000000 0.000000 -0.676146 0.000000 0.000000
# 5 0.000000 0.000000 0.000000 0.000000 0.029663 0.000000
# 6 0.000000 0.000000 0.000000 0.000000 0.000000 0.209439
#
#
# Mechanical properties :
#
#
# Convention : Reuss Voigt Hill
#
# Bulk Modulus (GPa) = 60.74575 62.49204 61.61890
# Shear Modulus (GPa) = -13.19787 22.45753 4.62983
#
# Velocity S-wave (km/s) = -2.45940 3.20818 1.45667
# Velocity P-wave (km/s) = 4.44694 6.50874 5.57400
#
# Compressibility (1/GPa) = 0.01646206
#
# Stress axis : x y z
#
# Youngs Moduli (GPa) = 119.46628 90.09474 66.15941
#
# Poissons Ratio (x) = 0.09531 0.24431
# Poissons Ratio (y) = 0.12639 0.28520
# Poissons Ratio (z) = 0.44116 0.38838
#
# Static dielectric constant tensor:
#      x y z
#    x 1.834130 0.000000 0.000000 
#    y 0.000000 1.772430 0.000000 
#    z 0.000000 0.000000 1.788340 
# 
# From -- ./inp_files/3041.got.cif
#   From: 2010.05.17/outbox.cif.g08.bks.cpg/sg62_2_cif.got.tgz:3041.got - 2010.06.03 15:25:27.
