data_PCOD9464816
_publ_section_title
;
Structure prediction by ZEFSAII (Michael W. Deem and Ramdas Pophale) SiO2 
 PCOD9464816
Probable space group: P N M A
;
_chemical_formula_sum "Si O2"
_cell_formula_units_Z 48
_cell_length_a 12.193655
_cell_length_b 9.032713
_cell_length_c 23.458430
_cell_angle_alpha 90.000000
_cell_angle_beta 90.000000
_cell_angle_gamma 90.000000
_cell_volume 2583.753378
_symmetry_space_group_name_H-M "P N M A"
_symmetry_group_IT_number 62
_symmetry_cell_setting 'orthorhombic'
loop_
_space_group_symop_operation_xyz
x,y,z
1/2-x,-y,1/2+z
1/2+x,1/2-y,1/2-z
-x,1/2+y,-z
-x,-y,-z
1/2+x,y,1/2-z
1/2-x,1/2+y,1/2+z
x,1/2-y,z
loop_
_atom_site_type_symbol
_atom_site_label
_atom_site_fract_x
_atom_site_fract_y
_atom_site_fract_z
Si Si1 0.004700 0.426745 0.621782
Si Si2 0.915101 0.074352 0.155135
Si Si3 0.691437 0.573676 0.948894
Si Si4 0.345218 0.925090 0.229662
Si Si5 0.266601 0.426337 0.918132
Si Si6 0.848488 0.426549 0.857429
O O1 0.015999 0.250000 0.611529
O O2 0.877152 0.463921 0.616740
O O3 0.076717 0.511048 0.574797
O O4 0.059765 0.456421 0.683010
O O5 0.924948 0.250000 0.153270
O O6 0.862104 0.020489 0.214459
O O7 0.836053 0.015440 0.105393
O O8 0.034063 0.999814 0.150267
O O9 0.695428 0.750000 0.939939
O O10 0.784773 0.495269 0.911219
O O11 0.708645 0.544422 0.015580
O O12 0.350578 0.750000 0.244121
O O13 0.231067 0.952596 0.196874
O O14 0.246446 0.250000 0.911471
O O15 0.858445 0.250000 0.864291
#
# Coordination Sequence:
#
# PCOD9464816 Si02
#       6
#     8   8   8   8   8   8
#     4   9  19  37  62  89 117 158 201 236 286 354
#     4  12  26  39  57  88 121 153 194 250 302 341
#     4  10  20  36  61  91 122 153 192 249 297 337
#     4   9  20  39  62  85 112 153 199 240 287 352
#     4  10  22  39  59  87 122 160 201 237 285 355
#     4  10  22  42  65  84 112 158 201 236 287 360
#
# _framework density 18.577624
#
# number of rings (size 3 to 8) (size 9 to 14) (size 15 to 20)
#    0.000    2.000    0.000    4.000    2.333    6.000 
#    0.000    0.000    0.000    0.000    0.000    0.000 
#    0.000    0.000    0.000    0.000    0.000    0.000 
#
# Total GULP energy -268218.409965 kJ/mol
# GULP energy per Si atom -5587.883541 kJ/mol
# Density = 1.853534 g / cm^3
# Si number density = 18.577624 Si / 1000 Ang^3
#
#
#
# Elastic Constant Matrix: (Units=GPa)
#
#
# Indices 1 2 3 4 5 6 
#
# 1 83.3705 30.4202 3.3534 0.0000 0.0000 0.0000
# 2 30.4202 47.3824 14.5869 0.0000 0.0000 0.0000
# 3 3.3534 14.5869 18.2949 0.0000 0.0000 0.0000
# 4 0.0000 0.0000 0.0000 32.0147 0.0000 0.0000
# 5 0.0000 0.0000 0.0000 0.0000 6.3030 0.0000
# 6 0.0000 0.0000 0.0000 0.0000 0.0000 25.5543
#
#
#
# Elastic Compliance Matrix: (Units=1/GPa)
#
#
# Indices 1 2 3 4 5 6 
#
# 1 0.016334 -0.012676 0.007113 0.000000 0.000000 0.000000
# 2 -0.012676 0.037808 -0.027822 0.000000 0.000000 0.000000
# 3 0.007113 -0.027822 0.075539 0.000000 0.000000 0.000000
# 4 0.000000 0.000000 0.000000 0.031236 0.000000 0.000000
# 5 0.000000 0.000000 0.000000 0.000000 0.158654 0.000000
# 6 0.000000 0.000000 0.000000 0.000000 0.000000 0.039132
#
#
# Mechanical properties :
#
#
# Convention : Reuss Voigt Hill
#
# Bulk Modulus (GPa) = 15.89537 27.30762 21.60149
# Shear Modulus (GPa) = 11.19961 19.48689 15.34325
#
# Velocity S-wave (km/s) = 2.45797 3.24225 2.87696
# Velocity P-wave (km/s) = 4.07802 5.36166 4.76328
#
# Compressibility (1/GPa) = 0.06291140
#
# Stress axis : x y z
#
# Youngs Moduli (GPa) = 61.22225 26.44913 13.23817
#
# Poissons Ratio (x) = 0.33528 -0.09417
# Poissons Ratio (y) = 0.77608 0.36831
# Poissons Ratio (z) = -0.43549 0.73586
#
# Static dielectric constant tensor:
#      x y z
#    x 1.628400 0.000000 0.000000 
#    y 0.000000 1.615540 0.000000 
#    z 0.000000 0.000000 1.624810 
# 
# From -- ./inp_files/29228.got.cif
#   From: 2010.05.17/outbox.cif.g08.bks.cpg/sg62_15_cif.got.tgz:29228.got - 2010.06.03 15:25:27.
