data_PCOD9464491
_publ_section_title
;
Structure prediction by ZEFSAII (Michael W. Deem and Ramdas Pophale) SiO2 
 PCOD9464491
Probable space group: P N M A
;
_chemical_formula_sum "Si O2"
_cell_formula_units_Z 56
_cell_length_a 15.413615
_cell_length_b 8.826995
_cell_length_c 21.412685
_cell_angle_alpha 90.000000
_cell_angle_beta 90.000000
_cell_angle_gamma 90.000000
_cell_volume 2913.322183
_symmetry_space_group_name_H-M "P N M A"
_symmetry_group_IT_number 62
_symmetry_cell_setting 'orthorhombic'
loop_
_space_group_symop_operation_xyz
x,y,z
1/2-x,-y,1/2+z
1/2+x,1/2-y,1/2-z
-x,1/2+y,-z
-x,-y,-z
1/2+x,y,1/2-z
1/2-x,1/2+y,1/2+z
x,1/2-y,z
loop_
_atom_site_type_symbol
_atom_site_label
_atom_site_fract_x
_atom_site_fract_y
_atom_site_fract_z
Si Si1 0.504751 0.420039 0.099745
Si Si2 0.565796 0.931254 0.450113
Si Si3 0.211626 0.427247 0.972608
Si Si4 0.995264 0.568404 0.186920
Si Si5 0.375995 0.581430 0.021080
Si Si6 0.310993 0.068671 0.334843
Si Si7 0.628416 0.931788 0.202069
O O1 0.483658 0.250000 0.122212
O O2 0.420976 0.520590 0.083770
O O3 0.571643 0.501711 0.145416
O O4 0.553072 0.403720 0.033493
O O5 0.569164 0.750000 0.455280
O O6 0.532960 0.970226 0.381239
O O7 0.500000 0.000000 0.500000
O O8 0.655572 0.003622 0.471321
O O9 0.193942 0.250000 0.964533
O O10 0.192184 0.509109 0.906748
O O11 0.308974 0.461552 0.993442
O O12 0.980492 0.750000 0.189304
O O13 0.902010 0.488216 0.194310
O O14 0.069701 0.532172 0.237331
O O15 0.337284 0.750000 0.029677
O O16 0.307318 0.250000 0.334915
O O17 0.224669 0.002703 0.301538
O O18 0.636403 0.750000 0.196760
#
# Coordination Sequence:
#
# PCOD9464491 Si02
#       7
#     8   8   8   8   8   8   8
#     4  10  20  35  58  88 123 160 203 255 309 365
#     4  11  22  39  64  93 124 159 202 256 315 372
#     4  12  23  37  61  91 125 162 203 254 309 374
#     4  10  24  45  67  92 124 166 210 258 316 379
#     4  10  20  35  57  87 123 161 204 255 309 367
#     4  12  24  40  66  95 123 163 209 259 312 373
#     4  11  23  42  67  92 125 170 214 258 312 380
#
# _framework density 19.222041999999998
#
# number of rings (size 3 to 8) (size 9 to 14) (size 15 to 20)
#    0.000    1.143    2.857    4.286    0.000    2.857 
#    2.571    0.000    0.000    0.000    0.000    0.000 
#    0.000    0.000    0.000    0.000    0.000    0.000 
#
# Total GULP energy -312665.754294 kJ/mol
# GULP energy per Si atom -5583.317041 kJ/mol
# Density = 1.917829 g / cm^3
# Si number density = 19.222042 Si / 1000 Ang^3
#
#
#
# Elastic Constant Matrix: (Units=GPa)
#
#
# Indices 1 2 3 4 5 6 
#
# 1 84.3941 51.0193 63.3441 0.0000 0.0000 0.0000
# 2 51.0193 116.1494 61.7259 0.0000 0.0000 0.0000
# 3 63.3441 61.7259 86.8905 0.0000 0.0000 0.0000
# 4 0.0000 0.0000 0.0000 17.8983 0.0000 0.0000
# 5 0.0000 0.0000 0.0000 0.0000 29.0521 0.0000
# 6 0.0000 0.0000 0.0000 0.0000 0.0000 36.3430
#
#
#
# Elastic Compliance Matrix: (Units=1/GPa)
#
#
# Indices 1 2 3 4 5 6 
#
# 1 0.026515 -0.002208 -0.017761 0.000000 0.000000 0.000000
# 2 -0.002208 0.014015 -0.008347 0.000000 0.000000 0.000000
# 3 -0.017761 -0.008347 0.030386 0.000000 0.000000 0.000000
# 4 0.000000 0.000000 0.000000 0.055871 0.000000 0.000000
# 5 0.000000 0.000000 0.000000 0.000000 0.034421 0.000000
# 6 0.000000 0.000000 0.000000 0.000000 0.000000 0.027516
#
#
# Mechanical properties :
#
#
# Convention : Reuss Voigt Hill
#
# Bulk Modulus (GPa) = 70.00424 71.06805 70.53614
# Shear Modulus (GPa) = 19.99060 24.08164 22.03612
#
# Velocity S-wave (km/s) = 3.22838 3.54335 3.38952
# Velocity P-wave (km/s) = 7.09890 7.33436 7.21759
#
# Compressibility (1/GPa) = 0.01428485
#
# Stress axis : x y z
#
# Youngs Moduli (GPa) = 37.71424 71.35169 32.90971
#
# Poissons Ratio (x) = 0.15754 0.58452
# Poissons Ratio (y) = 0.08327 0.27468
# Poissons Ratio (z) = 0.66986 0.59554
#
# Static dielectric constant tensor:
#      x y z
#    x 1.884320 0.000000 0.000000 
#    y 0.000000 1.679730 0.000000 
#    z 0.000000 0.000000 1.621750 
# 
# From -- ./inp_files/27296.got.cif
#   From: 2010.05.17/outbox.cif.g08.bks.cpg/sg62_14_cif.got.tgz:27296.got - 2010.06.03 15:25:27.
