data_PCOD9464907
_publ_section_title
;
Structure prediction by ZEFSAII (Michael W. Deem and Ramdas Pophale) SiO2 
 PCOD9464907
Probable space group: P N M A
;
_chemical_formula_sum "Si O2"
_cell_formula_units_Z 64
_cell_length_a 19.341265
_cell_length_b 7.761246
_cell_length_c 19.802587
_cell_angle_alpha 90.000000
_cell_angle_beta 90.000000
_cell_angle_gamma 90.000000
_cell_volume 2972.612190
_symmetry_space_group_name_H-M "P N M A"
_symmetry_group_IT_number 62
_symmetry_cell_setting 'orthorhombic'
loop_
_space_group_symop_operation_xyz
x,y,z
1/2-x,-y,1/2+z
1/2+x,1/2-y,1/2-z
-x,1/2+y,-z
-x,-y,-z
1/2+x,y,1/2-z
1/2-x,1/2+y,1/2+z
x,1/2-y,z
loop_
_atom_site_type_symbol
_atom_site_label
_atom_site_fract_x
_atom_site_fract_y
_atom_site_fract_z
Si Si1 0.389395 0.449756 0.034132
Si Si2 0.478025 0.542136 0.629945
Si Si3 0.733047 0.051464 0.872735
Si Si4 0.601760 0.457439 0.237182
Si Si5 0.757523 0.451195 0.225886
Si Si6 0.864285 0.461790 0.114174
Si Si7 0.143253 0.955940 0.037787
Si Si8 0.033999 0.956197 0.403691
O O1 0.369548 0.250000 0.028631
O O2 0.328256 0.542200 0.073203
O O3 0.460227 0.465461 0.076646
O O4 0.410121 0.516092 0.959773
O O5 0.479595 0.750000 0.632455
O O6 0.436433 0.477571 0.695680
O O7 0.557101 0.482617 0.628783
O O8 0.433314 0.491765 0.564822
O O9 0.746573 0.250000 0.855638
O O10 0.801267 0.974160 0.908243
O O11 0.714375 0.963645 0.802177
O O12 0.605835 0.250000 0.243809
O O13 0.679871 0.525218 0.228320
O O14 0.558343 0.499588 0.170743
O O15 0.749906 0.250000 0.208538
O O16 0.810184 0.523402 0.170509
O O17 0.864622 0.250000 0.114989
O O18 0.845461 0.518125 0.038333
O O19 0.153329 0.750000 0.036211
O O20 0.027726 0.750000 0.411284
#
# Coordination Sequence:
#
# PCOD9464907 Si02
#       8
#     8   8   8   8   8   8   8   8
#     4  10  22  40  61  85 116 154 196 240 294 356
#     4  10  20  37  59  86 115 149 200 245 287 345
#     4  11  23  37  58  86 119 154 195 245 295 351
#     4  10  21  35  57  86 117 158 200 241 292 352
#     4  10  21  39  60  82 115 158 202 240 289 356
#     4   9  20  37  60  86 113 150 195 243 291 349
#     4  10  21  38  59  84 115 154 194 239 301 350
#     4  10  22  39  60  88 118 151 194 246 297 349
#
# _framework density 21.529886000000001
#
# number of rings (size 3 to 8) (size 9 to 14) (size 15 to 20)
#    0.000    2.000    1.250    1.500    3.500    3.000 
#    0.000    1.250    0.000    0.000    0.000    0.000 
#    0.000    0.000    0.000    0.000    0.000    0.000 
#
# Total GULP energy -357587.065018 kJ/mol
# GULP energy per Si atom -5587.297891 kJ/mol
# Density = 2.148088 g / cm^3
# Si number density = 21.529886 Si / 1000 Ang^3
#
#
#
# Elastic Constant Matrix: (Units=GPa)
#
#
# Indices 1 2 3 4 5 6 
#
# 1 37.9997 1.1507 45.8130 0.0000 0.0000 0.0000
# 2 1.1507 30.1557 0.2928 0.0000 0.0000 0.0000
# 3 45.8130 0.2928 134.2821 0.0000 0.0000 0.0000
# 4 0.0000 0.0000 0.0000 -4.7766 0.0000 0.0000
# 5 0.0000 0.0000 0.0000 0.0000 40.5966 0.0000
# 6 0.0000 0.0000 0.0000 0.0000 0.0000 4.5351
#
#
#
# Elastic Compliance Matrix: (Units=1/GPa)
#
#
# Indices 1 2 3 4 5 6 
#
# 1 0.044777 -0.001560 -0.015273 0.000000 0.000000 0.000000
# 2 -0.001560 0.033216 0.000460 0.000000 0.000000 0.000000
# 3 -0.015273 0.000460 0.012657 0.000000 0.000000 0.000000
# 4 0.000000 0.000000 0.000000 -0.209354 0.000000 0.000000
# 5 0.000000 0.000000 0.000000 0.000000 0.024633 0.000000
# 6 0.000000 0.000000 0.000000 0.000000 0.000000 0.220502
#
#
# Mechanical properties :
#
#
# Convention : Reuss Voigt Hill
#
# Bulk Modulus (GPa) = 17.27033 32.99450 25.13242
# Shear Modulus (GPa) = 28.01460 18.41642 23.21551
#
# Velocity S-wave (km/s) = 3.61112 2.92788 3.28730
# Velocity P-wave (km/s) = 5.04241 5.17573 5.10951
#
# Compressibility (1/GPa) = 0.05790276
#
# Stress axis : x y z
#
# Youngs Moduli (GPa) = 22.33307 30.10566 79.00947
#
# Poissons Ratio (x) = 0.04698 1.20672
# Poissons Ratio (y) = 0.03485 -0.03634
# Poissons Ratio (z) = 0.34109 -0.01385
#
# Static dielectric constant tensor:
#      x y z
#    x 1.763590 0.000000 0.000000 
#    y 0.000000 1.795100 0.000000 
#    z 0.000000 0.000000 1.759700 
# 
# From -- ./inp_files/24778.got.cif
#   From: 2010.05.17/outbox.cif.g08.bks.cpg/sg62_13_cif.got.tgz:24778.got - 2010.06.03 15:25:27.
