data_PCOD9464763
_publ_section_title
;
Structure prediction by ZEFSAII (Michael W. Deem and Ramdas Pophale) SiO2 
 PCOD9464763
Probable space group: P N M A
;
_chemical_formula_sum "Si O2"
_cell_formula_units_Z 56
_cell_length_a 24.499217
_cell_length_b 8.915057
_cell_length_c 13.619460
_cell_angle_alpha 90.000000
_cell_angle_beta 90.000000
_cell_angle_gamma 90.000000
_cell_volume 2974.652354
_symmetry_space_group_name_H-M "P N M A"
_symmetry_group_IT_number 62
_symmetry_cell_setting 'orthorhombic'
loop_
_space_group_symop_operation_xyz
x,y,z
1/2-x,-y,1/2+z
1/2+x,1/2-y,1/2-z
-x,1/2+y,-z
-x,-y,-z
1/2+x,y,1/2-z
1/2-x,1/2+y,1/2+z
x,1/2-y,z
loop_
_atom_site_type_symbol
_atom_site_label
_atom_site_fract_x
_atom_site_fract_y
_atom_site_fract_z
Si Si1 0.231956 0.071426 0.769157
Si Si2 0.438898 0.428733 0.198405
Si Si3 0.377861 0.928988 0.383925
Si Si4 0.445456 0.428882 0.546122
Si Si5 0.158571 0.070980 0.585898
Si Si6 0.837228 0.927729 0.640948
Si Si7 0.946842 0.071542 0.721330
O O1 0.242778 0.250000 0.769165
O O2 0.183823 0.041895 0.848324
O O3 0.205484 0.030564 0.664169
O O4 0.286311 0.984499 0.795892
O O5 0.438816 0.250000 0.205873
O O6 0.416709 0.500480 0.300130
O O7 0.396072 0.484436 0.116917
O O8 0.499371 0.490284 0.180892
O O9 0.386437 0.750000 0.385755
O O10 0.395008 0.000964 0.486588
O O11 0.500000 0.500000 0.500000
O O12 0.446607 0.250000 0.532110
O O13 0.443412 0.460105 0.661840
O O14 0.148502 0.250000 0.598541
O O15 0.174114 0.042269 0.474033
O O16 0.844737 0.750000 0.653292
O O17 0.892205 0.011647 0.671626
O O18 0.952248 0.250000 0.708611
#
# Coordination Sequence:
#
# PCOD9464763 Si02
#       7
#     8   8   8   8   8   8   8
#     4   9  20  40  63  85 115 156 197 240 296 359
#     4  11  21  35  60  90 117 151 199 246 291 353
#     4  10  20  36  59  87 121 160 199 243 297 354
#     4  11  22  35  57  87 121 160 199 244 297 356
#     4   9  21  42  64  85 116 157 196 241 297 354
#     4  11  24  41  62  89 119 153 199 252 297 349
#     4  11  24  40  58  83 122 163 196 242 303 358
#
# _framework density 18.82573
#
# number of rings (size 3 to 8) (size 9 to 14) (size 15 to 20)
#    0.000    1.714    1.429    3.857    0.000    7.429 
#    0.000    4.286    0.000    0.000    0.000    0.000 
#    0.000    0.000    0.000    0.000    0.000    0.000 
#
# Total GULP energy -312979.612495 kJ/mol
# GULP energy per Si atom -5588.921652 kJ/mol
# Density = 1.878288 g / cm^3
# Si number density = 18.825730 Si / 1000 Ang^3
#
#
#
# Elastic Constant Matrix: (Units=GPa)
#
#
# Indices 1 2 3 4 5 6 
#
# 1 107.4150 47.3309 36.9854 0.0000 0.0000 0.0000
# 2 47.3309 63.0467 40.6498 0.0000 0.0000 0.0000
# 3 36.9854 40.6498 66.2697 0.0000 0.0000 0.0000
# 4 0.0000 0.0000 0.0000 28.8836 0.0000 0.0000
# 5 0.0000 0.0000 0.0000 0.0000 19.3070 0.0000
# 6 0.0000 0.0000 0.0000 0.0000 0.0000 34.5891
#
#
#
# Elastic Compliance Matrix: (Units=1/GPa)
#
#
# Indices 1 2 3 4 5 6 
#
# 1 0.014117 -0.009128 -0.002279 0.000000 0.000000 0.000000
# 2 -0.009128 0.032141 -0.014621 0.000000 0.000000 0.000000
# 3 -0.002279 -0.014621 0.025330 0.000000 0.000000 0.000000
# 4 0.000000 0.000000 0.000000 0.034622 0.000000 0.000000
# 5 0.000000 0.000000 0.000000 0.000000 0.051795 0.000000
# 6 0.000000 0.000000 0.000000 0.000000 0.000000 0.028911
#
#
# Mechanical properties :
#
#
# Convention : Reuss Voigt Hill
#
# Bulk Modulus (GPa) = 51.19969 54.07372 52.63671
# Shear Modulus (GPa) = 20.36811 24.00697 22.18754
#
# Velocity S-wave (km/s) = 3.29284 3.57490 3.43676
# Velocity P-wave (km/s) = 6.45854 6.76945 6.61582
#
# Compressibility (1/GPa) = 0.01953137
#
# Stress axis : x y z
#
# Youngs Moduli (GPa) = 70.83797 31.11317 39.47843
#
# Poissons Ratio (x) = 0.28401 0.08999
# Poissons Ratio (y) = 0.64662 0.57720
# Poissons Ratio (z) = 0.16147 0.45489
#
# Static dielectric constant tensor:
#      x y z
#    x 1.629110 0.000000 0.000000 
#    y 0.000000 1.607680 0.000000 
#    z 0.000000 0.000000 1.650690 
# 
# From -- ./inp_files/20273.got.cif
#   From: 2010.05.17/outbox.cif.g08.bks.cpg/sg62_11_cif.got.tgz:20273.got - 2010.06.03 15:25:27.
