data_PCOD9464262
_publ_section_title
;
Structure prediction by ZEFSAII (Michael W. Deem and Ramdas Pophale) SiO2 
 PCOD9464262
Probable space group: P N M A
;
_chemical_formula_sum "Si O2"
_cell_formula_units_Z 48
_cell_length_a 21.725367
_cell_length_b 18.154030
_cell_length_c 5.365441
_cell_angle_alpha 90.000000
_cell_angle_beta 90.000000
_cell_angle_gamma 90.000000
_cell_volume 2116.145835
_symmetry_space_group_name_H-M "P N M A"
_symmetry_group_IT_number 62
_symmetry_cell_setting 'orthorhombic'
loop_
_space_group_symop_operation_xyz
x,y,z
1/2-x,-y,1/2+z
1/2+x,1/2-y,1/2-z
-x,1/2+y,-z
-x,-y,-z
1/2+x,y,1/2-z
1/2-x,1/2+y,1/2+z
x,1/2-y,z
loop_
_atom_site_type_symbol
_atom_site_label
_atom_site_fract_x
_atom_site_fract_y
_atom_site_fract_z
Si Si1 0.573019 0.442779 0.285790
Si Si2 0.653223 0.332419 0.545122
Si Si3 0.547933 0.598320 0.429120
Si Si4 0.965531 0.671856 0.399987
Si Si5 0.282637 0.161209 0.730131
Si Si6 0.148261 0.839049 0.731121
O O1 0.632913 0.394588 0.350475
O O2 0.580790 0.529932 0.294034
O O3 0.519950 0.427658 0.489478
O O4 0.544279 0.403553 0.047193
O O5 0.665727 0.250000 0.436108
O O6 0.594177 0.323965 0.723241
O O7 0.712691 0.357091 0.698990
O O8 0.529988 0.664642 0.245894
O O9 0.585446 0.625101 0.668735
O O10 0.966056 0.750000 0.547687
O O11 0.285436 0.250000 0.727431
O O12 0.325720 0.137859 0.962448
O O13 0.304840 0.138753 0.455974
O O14 0.142440 0.750000 0.730832
#
# Coordination Sequence:
#
# PCOD9464262 Si02
#       6
#     8   8   8   8   8   8
#     4  10  21  37  58  82 114 158 194 243 310 358
#     4   9  19  36  57  86 114 145 197 251 295 352
#     4  10  22  38  54  83 120 154 197 246 301 366
#     4  10  20  34  59  88 115 151 199 252 303 358
#     4   9  20  37  60  87 119 154 199 250 299 349
#     4  10  21  38  60  88 118 158 199 244 297 358
#
# _framework density 22.682746000000002
#
# number of rings (size 3 to 8) (size 9 to 14) (size 15 to 20)
#    0.000    2.333    0.000    1.500    4.667    2.000 
#    0.000    1.667    0.000    0.000    0.000    0.000 
#    0.000    0.000    0.000    0.000    0.000    0.000 
#
# Total GULP energy -267736.823842 kJ/mol
# GULP energy per Si atom -5577.850497 kJ/mol
# Density = 2.263112 g / cm^3
# Si number density = 22.682746 Si / 1000 Ang^3
#
#
#
# Elastic Constant Matrix: (Units=GPa)
#
#
# Indices 1 2 3 4 5 6 
#
# 1 77.0084 25.3616 0.4946 0.0000 0.0000 0.0000
# 2 25.3616 73.5525 13.2486 0.0000 0.0000 0.0000
# 3 0.4946 13.2486 50.5633 0.0000 0.0000 0.0000
# 4 0.0000 0.0000 0.0000 7.8874 0.0000 0.0000
# 5 0.0000 0.0000 0.0000 0.0000 17.6666 0.0000
# 6 0.0000 0.0000 0.0000 0.0000 0.0000 -167.1935
#
#
#
# Elastic Compliance Matrix: (Units=1/GPa)
#
#
# Indices 1 2 3 4 5 6 
#
# 1 0.014723 -0.005301 0.001245 0.000000 0.000000 0.000000
# 2 -0.005301 0.016178 -0.004187 0.000000 0.000000 0.000000
# 3 0.001245 -0.004187 0.020862 0.000000 0.000000 0.000000
# 4 0.000000 0.000000 0.000000 0.126784 0.000000 0.000000
# 5 0.000000 0.000000 0.000000 0.000000 0.056604 0.000000
# 6 0.000000 0.000000 0.000000 0.000000 0.000000 -0.005981
#
#
# Mechanical properties :
#
#
# Convention : Reuss Voigt Hill
#
# Bulk Modulus (GPa) = 28.34704 31.03708 29.69206
# Shear Modulus (GPa) = 19.42381 -17.52660 0.94861
#
# Velocity S-wave (km/s) = 2.92948 -2.78274 0.64739
# Velocity P-wave (km/s) = 4.89559 1.84065 3.69830
#
# Compressibility (1/GPa) = 0.03527705
#
# Stress axis : x y z
#
# Youngs Moduli (GPa) = 67.91907 61.81325 47.93383
#
# Poissons Ratio (x) = 0.32767 -0.05968
# Poissons Ratio (y) = 0.36004 0.20070
# Poissons Ratio (z) = -0.08456 0.25882
#
# Static dielectric constant tensor:
#      x y z
#    x 1.850460 0.000000 0.000000 
#    y 0.000000 1.885670 0.000000 
#    z 0.000000 0.000000 1.899320 
# 
# From -- ./inp_files/2753.got.cif
#   From: 2010.05.17/outbox.cif.g08.bks.cpg/sg62_2_cif.got.tgz:2753.got - 2010.06.03 15:25:27.
