data_PCOD9464475
_publ_section_title
;
Structure prediction by ZEFSAII (Michael W. Deem and Ramdas Pophale) SiO2 
 PCOD9464475
Probable space group: P N M A
;
_chemical_formula_sum "Si O2"
_cell_formula_units_Z 64
_cell_length_a 24.914319
_cell_length_b 7.498485
_cell_length_c 14.324700
_cell_angle_alpha 90.000000
_cell_angle_beta 90.000000
_cell_angle_gamma 90.000000
_cell_volume 2676.135402
_symmetry_space_group_name_H-M "P N M A"
_symmetry_group_IT_number 62
_symmetry_cell_setting 'orthorhombic'
loop_
_space_group_symop_operation_xyz
x,y,z
1/2-x,-y,1/2+z
1/2+x,1/2-y,1/2-z
-x,1/2+y,-z
-x,-y,-z
1/2+x,y,1/2-z
1/2-x,1/2+y,1/2+z
x,1/2-y,z
loop_
_atom_site_type_symbol
_atom_site_label
_atom_site_fract_x
_atom_site_fract_y
_atom_site_fract_z
Si Si1 0.443043 0.030326 0.237956
Si Si2 0.264985 0.966514 0.541540
Si Si3 0.863781 0.461072 0.682530
Si Si4 0.443323 0.463145 0.451375
Si Si5 0.530987 0.039819 0.095127
Si Si6 0.258489 0.533544 0.333083
Si Si7 0.875371 0.455555 0.880468
Si Si8 0.168208 0.955435 0.656825
O O1 0.442674 0.250000 0.238436
O O2 0.441464 0.969272 0.345386
O O3 0.495225 0.968887 0.181172
O O4 0.389576 0.968868 0.183396
O O5 0.264980 0.750000 0.546831
O O6 0.278293 0.018489 0.435980
O O7 0.206805 0.030843 0.576433
O O8 0.311348 0.036545 0.608586
O O9 0.857074 0.250000 0.696382
O O10 0.803476 0.528625 0.669857
O O11 0.888163 0.535912 0.779549
O O12 0.907368 0.480741 0.601667
O O13 0.500000 0.500000 0.500000
O O14 0.435426 0.250000 0.442885
O O15 0.400468 0.536566 0.526064
O O16 0.532615 0.250000 0.105285
O O17 0.500000 0.000000 0.000000
O O18 0.260047 0.750000 0.327071
O O19 0.295206 0.461937 0.250248
O O20 0.893685 0.250000 0.879141
O O21 0.158342 0.750000 0.630661
#
# Coordination Sequence:
#
# PCOD9464475 Si02
#       8
#     8   8   8   8   8   8   8   8
#     4   9  20  38  59  82 113 152 191 234 288 345
#     4  10  21  34  55  84 112 149 192 231 280 345
#     4  10  21  38  60  84 117 154 190 236 290 346
#     4  10  20  35  57  85 112 146 187 228 282 341
#     4  11  24  41  62  85 113 153 200 246 292 342
#     4  10  21  37  57  85 120 156 189 232 295 347
#     4  10  20  36  59  86 117 152 186 231 289 345
#     4  10  20  37  60  84 111 148 192 233 276 338
#
# _framework density 23.915084
#
# number of rings (size 3 to 8) (size 9 to 14) (size 15 to 20)
#    0.000    2.000    1.250    1.875    1.750    3.000 
#    0.000    2.500    0.000    0.000    0.000    0.000 
#    0.000    0.000    0.000    0.000    0.000    0.000 
#
# Total GULP energy -357676.790976 kJ/mol
# GULP energy per Si atom -5588.699859 kJ/mol
# Density = 2.386065 g / cm^3
# Si number density = 23.915084 Si / 1000 Ang^3
#
#
#
# Elastic Constant Matrix: (Units=GPa)
#
#
# Indices 1 2 3 4 5 6 
#
# 1 86.0605 -13.0193 -22.0459 0.0000 0.0000 0.0000
# 2 -13.0193 66.2441 -4.3206 0.0000 0.0000 0.0000
# 3 -22.0459 -4.3206 40.2250 0.0000 0.0000 0.0000
# 4 0.0000 0.0000 0.0000 11.9544 0.0000 0.0000
# 5 0.0000 0.0000 0.0000 0.0000 43.3673 0.0000
# 6 0.0000 0.0000 0.0000 0.0000 0.0000 18.4675
#
#
#
# Elastic Compliance Matrix: (Units=1/GPa)
#
#
# Indices 1 2 3 4 5 6 
#
# 1 0.014209 0.003324 0.008144 0.000000 0.000000 0.000000
# 2 0.003324 0.015980 0.003538 0.000000 0.000000 0.000000
# 3 0.008144 0.003538 0.029704 0.000000 0.000000 0.000000
# 4 0.000000 0.000000 0.000000 0.083651 0.000000 0.000000
# 5 0.000000 0.000000 0.000000 0.000000 0.023059 0.000000
# 6 0.000000 0.000000 0.000000 0.000000 0.000000 0.054149
#
#
# Mechanical properties :
#
#
# Convention : Reuss Voigt Hill
#
# Bulk Modulus (GPa) = 11.12289 12.63977 11.88133
# Shear Modulus (GPa) = 22.65441 30.21885 26.43663
#
# Velocity S-wave (km/s) = 3.08114 3.55856 3.32842
# Velocity P-wave (km/s) = 4.16161 4.70969 4.44411
#
# Compressibility (1/GPa) = 0.08990473
#
# Stress axis : x y z
#
# Youngs Moduli (GPa) = 70.37848 62.57948 33.66566
#
# Poissons Ratio (x) = -0.20800 -0.27419
# Poissons Ratio (y) = -0.23392 -0.11911
# Poissons Ratio (z) = -0.57319 -0.22141
#
# Static dielectric constant tensor:
#      x y z
#    x 1.877590 0.000000 0.000000 
#    y 0.000000 1.927740 0.000000 
#    z 0.000000 0.000000 1.905960 
# 
# From -- ./inp_files/20782.got.cif
#   From: 2010.05.17/outbox.cif.g08.bks.cpg/sg62_11_cif.got.tgz:20782.got - 2010.06.03 15:25:27.
