data_PCOD9464665
_publ_section_title
;
Structure prediction by ZEFSAII (Michael W. Deem and Ramdas Pophale) SiO2 
 PCOD9464665
Probable space group: P N M A
;
_chemical_formula_sum "Si O2"
_cell_formula_units_Z 40
_cell_length_a 17.811065
_cell_length_b 7.392644
_cell_length_c 12.949832
_cell_angle_alpha 90.000000
_cell_angle_beta 90.000000
_cell_angle_gamma 90.000000
_cell_volume 1705.115553
_symmetry_space_group_name_H-M "P N M A"
_symmetry_group_IT_number 62
_symmetry_cell_setting 'orthorhombic'
loop_
_space_group_symop_operation_xyz
x,y,z
1/2-x,-y,1/2+z
1/2+x,1/2-y,1/2-z
-x,1/2+y,-z
-x,-y,-z
1/2+x,y,1/2-z
1/2-x,1/2+y,1/2+z
x,1/2-y,z
loop_
_atom_site_type_symbol
_atom_site_label
_atom_site_fract_x
_atom_site_fract_y
_atom_site_fract_z
Si Si1 0.130109 0.460448 0.807374
Si Si2 0.878164 0.958889 0.964249
Si Si3 0.962425 0.969511 0.764808
Si Si4 0.212021 0.029459 0.610410
Si Si5 0.917161 0.534282 0.545618
O O1 0.150258 0.250000 0.822275
O O2 0.189110 0.534301 0.724952
O O3 0.048604 0.473142 0.755065
O O4 0.122106 0.541991 0.921449
O O5 0.902661 0.750000 0.975946
O O6 0.930027 0.036908 0.873756
O O7 0.793501 0.966341 0.923138
O O8 0.960102 0.750000 0.765656
O O9 0.917146 0.032083 0.663869
O O10 0.211871 0.250000 0.610939
O O11 0.148547 0.966969 0.529108
O O12 0.907673 0.750000 0.549714
O O13 0.000000 0.500000 0.500000
#
# Coordination Sequence:
#
# PCOD9464665 Si02
#       5
#     8   8   8   8   8
#     4  10  21  39  59  82 113 147 186 231 276 331
#     4  10  23  39  57  83 115 148 186 231 278 332
#     4  10  21  37  59  86 112 144 187 232 280 333
#     4  10  22  38  56  82 114 148 186 229 278 330
#     4  10  20  36  57  82 111 144 185 230 275 327
#
# _framework density 23.458821
#
# number of rings (size 3 to 8) (size 9 to 14) (size 15 to 20)
#    0.000    2.000    2.000    0.600    2.800    3.200 
#    0.000    0.000    0.000    0.000    0.000    0.000 
#    0.000    0.000    0.000    0.000    0.000    0.000 
#
# Total GULP energy -223611.470196 kJ/mol
# GULP energy per Si atom -5590.286755 kJ/mol
# Density = 2.340543 g / cm^3
# Si number density = 23.458821 Si / 1000 Ang^3
#
#
#
# Elastic Constant Matrix: (Units=GPa)
#
#
# Indices 1 2 3 4 5 6 
#
# 1 42.5324 -21.3648 -13.4584 0.0000 0.0000 0.0000
# 2 -21.3648 84.7350 7.1998 0.0000 0.0000 0.0000
# 3 -13.4584 7.1998 133.9735 0.0000 0.0000 0.0000
# 4 0.0000 0.0000 0.0000 -28.1105 0.0000 0.0000
# 5 0.0000 0.0000 0.0000 0.0000 32.8595 0.0000
# 6 0.0000 0.0000 0.0000 0.0000 0.0000 19.9969
#
#
#
# Elastic Compliance Matrix: (Units=1/GPa)
#
#
# Indices 1 2 3 4 5 6 
#
# 1 0.027679 0.006773 0.002416 0.000000 0.000000 0.000000
# 2 0.006773 0.013513 -0.000046 0.000000 0.000000 0.000000
# 3 0.002416 -0.000046 0.007709 0.000000 0.000000 0.000000
# 4 0.000000 0.000000 0.000000 -0.035574 0.000000 0.000000
# 5 0.000000 0.000000 0.000000 0.000000 0.030433 0.000000
# 6 0.000000 0.000000 0.000000 0.000000 0.000000 0.050008
#
#
# Mechanical properties :
#
#
# Convention : Reuss Voigt Hill
#
# Bulk Modulus (GPa) = 14.88329 22.88823 18.88576
# Shear Modulus (GPa) = 51.08511 24.20679 37.64595
#
# Velocity S-wave (km/s) = 4.67159 3.21578 4.01030
# Velocity P-wave (km/s) = 5.95454 4.85451 5.43244
#
# Compressibility (1/GPa) = 0.06718945
#
# Stress axis : x y z
#
# Youngs Moduli (GPa) = 36.12904 74.00159 129.71227
#
# Poissons Ratio (x) = -0.50125 -0.31344
# Poissons Ratio (y) = -0.24472 0.00594
# Poissons Ratio (z) = -0.08730 0.00339
#
# Static dielectric constant tensor:
#      x y z
#    x 1.802660 0.000000 0.000000 
#    y 0.000000 1.874540 0.000000 
#    z 0.000000 0.000000 1.922600 
# 
# From -- ./inp_files/12982.got.cif
#   From: 2010.05.17/outbox.cif.g08.bks.cpg/sg62_7_cif.got.tgz:12982.got - 2010.06.03 15:25:27.
