data_PCOD9464770
_publ_section_title
;
Structure prediction by ZEFSAII (Michael W. Deem and Ramdas Pophale) SiO2 
 PCOD9464770
Probable space group: P N M A
;
_chemical_formula_sum "Si O2"
_cell_formula_units_Z 40
_cell_length_a 8.664292
_cell_length_b 13.807938
_cell_length_c 13.776948
_cell_angle_alpha 90.000000
_cell_angle_beta 90.000000
_cell_angle_gamma 90.000000
_cell_volume 1648.219044
_symmetry_space_group_name_H-M "P N M A"
_symmetry_group_IT_number 62
_symmetry_cell_setting 'orthorhombic'
loop_
_space_group_symop_operation_xyz
x,y,z
1/2-x,-y,1/2+z
1/2+x,1/2-y,1/2-z
-x,1/2+y,-z
-x,-y,-z
1/2+x,y,1/2-z
1/2-x,1/2+y,1/2+z
x,1/2-y,z
loop_
_atom_site_type_symbol
_atom_site_label
_atom_site_fract_x
_atom_site_fract_y
_atom_site_fract_z
Si Si1 0.673952 0.750000 0.625678
Si Si2 0.922621 0.607337 0.378391
Si Si3 0.823847 0.470003 0.119546
Si Si4 0.312605 0.750000 0.664586
Si Si5 0.857079 0.093851 0.462477
Si Si6 0.621804 0.939853 0.290177
O O1 0.697087 0.640931 0.584803
O O2 0.493928 0.750000 0.651928
O O3 0.773758 0.750000 0.723108
O O4 0.933040 0.491570 0.399928
O O5 0.743293 0.620588 0.354555
O O6 0.012285 0.645338 0.472241
O O7 0.020399 0.626578 0.281747
O O8 0.725601 0.494032 0.217435
O O9 0.999583 0.498385 0.147358
O O10 0.759396 0.542482 0.037972
O O11 0.233689 0.661054 0.609723
#
# Coordination Sequence:
#
# PCOD9464770 Si02
#       6
#     4   8   8   4   8   8
#     4  12  24  38  62  94 123 166 212 252 303 376
#     4   9  18  34  56  81 110 151 196 241 304 360
#     4  10  20  36  59  89 126 163 210 260 311 365
#     4  12  26  42  62  94 131 162 204 256 311 370
#     4  10  22  38  57  87 128 165 199 257 317 360
#     4   9  17  33  58  83 112 155 203 249 302 369
#
# _framework density 24.268619000000001
#
# number of rings (size 3 to 8) (size 9 to 14) (size 15 to 20)
#    0.000    2.000    0.000    4.800    0.000    6.400 
#    0.000    0.000    0.000   19.200    0.000    9.800 
#    0.000    0.000    0.000    0.000    0.000    0.000 
#
# Total GULP energy -223616.055872 kJ/mol
# GULP energy per Si atom -5590.401397 kJ/mol
# Density = 2.421338 g / cm^3
# Si number density = 24.268619 Si / 1000 Ang^3
#
#
#
# Elastic Constant Matrix: (Units=GPa)
#
#
# Indices 1 2 3 4 5 6 
#
# 1 134.1189 -1.9361 18.6106 0.0000 0.0000 0.0000
# 2 -1.9361 72.5204 -15.3686 0.0000 0.0000 0.0000
# 3 18.6106 -15.3686 65.0687 0.0000 0.0000 0.0000
# 4 0.0000 0.0000 0.0000 -47.9251 0.0000 0.0000
# 5 0.0000 0.0000 0.0000 0.0000 139.9718 0.0000
# 6 0.0000 0.0000 0.0000 0.0000 0.0000 3.2283
#
#
#
# Elastic Compliance Matrix: (Units=1/GPa)
#
#
# Indices 1 2 3 4 5 6 
#
# 1 0.007770 -0.000277 -0.002288 0.000000 0.000000 0.000000
# 2 -0.000277 0.014526 0.003510 0.000000 0.000000 0.000000
# 3 -0.002288 0.003510 0.016852 0.000000 0.000000 0.000000
# 4 0.000000 0.000000 0.000000 -0.020866 0.000000 0.000000
# 5 0.000000 0.000000 0.000000 0.000000 0.007144 0.000000
# 6 0.000000 0.000000 0.000000 0.000000 0.000000 0.309762
#
#
# Mechanical properties :
#
#
# Convention : Reuss Voigt Hill
#
# Bulk Modulus (GPa) = 24.36820 30.47998 27.42409
# Shear Modulus (GPa) = 14.41020 37.08183 25.74601
#
# Velocity S-wave (km/s) = 2.43940 3.91317 3.26064
# Velocity P-wave (km/s) = 4.24230 5.74490 5.04980
#
# Compressibility (1/GPa) = 0.04103709
#
# Stress axis : x y z
#
# Youngs Moduli (GPa) = 128.70826 68.84350 59.34105
#
# Poissons Ratio (x) = 0.01910 0.13575
# Poissons Ratio (y) = 0.03570 -0.20830
# Poissons Ratio (z) = 0.29445 -0.24165
#
# Static dielectric constant tensor:
#      x y z
#    x 1.965920 0.000000 0.000000 
#    y 0.000000 1.948960 0.000000 
#    z 0.000000 0.000000 1.915110 
# 
# From -- ./inp_files/16707.got.cif
#   From: 2010.05.17/outbox.cif.g08.bks.cpg/sg62_9_cif.got.tgz:16707.got - 2010.06.03 15:25:27.
