data_PCOD9464579
_publ_section_title
;
Structure prediction by ZEFSAII (Michael W. Deem and Ramdas Pophale) SiO2 
 PCOD9464579
Probable space group: P N M A
;
_chemical_formula_sum "Si O2"
_cell_formula_units_Z 64
_cell_length_a 13.788580
_cell_length_b 12.170513
_cell_length_c 16.627124
_cell_angle_alpha 90.000000
_cell_angle_beta 90.000000
_cell_angle_gamma 90.000000
_cell_volume 2790.265719
_symmetry_space_group_name_H-M "P N M A"
_symmetry_group_IT_number 62
_symmetry_cell_setting 'orthorhombic'
loop_
_space_group_symop_operation_xyz
x,y,z
1/2-x,-y,1/2+z
1/2+x,1/2-y,1/2-z
-x,1/2+y,-z
-x,-y,-z
1/2+x,y,1/2-z
1/2-x,1/2+y,1/2+z
x,1/2-y,z
loop_
_atom_site_type_symbol
_atom_site_label
_atom_site_fract_x
_atom_site_fract_y
_atom_site_fract_z
Si Si1 0.311047 0.628922 0.387193
Si Si2 0.840645 0.456240 0.990620
Si Si3 0.699323 0.515473 0.865573
Si Si4 0.943628 0.121213 0.491930
Si Si5 0.376033 0.081529 0.830413
Si Si6 0.988467 0.627302 0.910546
Si Si7 0.128976 0.123913 0.240412
Si Si8 0.434295 0.874811 0.251063
O O1 0.312243 0.750000 0.422306
O O2 0.284283 0.534591 0.447744
O O3 0.232247 0.622488 0.316610
O O4 0.411859 0.601997 0.344415
O O5 0.905818 0.379292 0.047849
O O6 0.762154 0.430729 0.921735
O O7 0.919330 0.537242 0.950189
O O8 0.637647 0.595925 0.924089
O O9 0.779998 0.579178 0.812271
O O10 0.621697 0.454855 0.809143
O O11 0.981970 0.250000 0.477017
O O12 0.904674 0.126717 0.583122
O O13 0.000000 0.000000 0.500000
O O14 0.452436 0.121439 0.765778
O O15 0.378983 0.950673 0.819159
O O16 0.950618 0.750000 0.927959
O O17 0.968358 0.614406 0.814957
O O18 0.144145 0.250000 0.259977
O O19 0.401341 0.750000 0.237132
#
# Coordination Sequence:
#
# PCOD9464579 Si02
#       8
#     8   8   8   8   8   8   8   8
#     4  11  22  38  62  90 121 160 209 261 322 386
#     4  10  20  35  62  90 121 162 210 263 318 389
#     4  11  22  41  64  93 129 172 219 269 333 403
#     4  12  26  44  71 100 135 178 224 275 333 403
#     4  12  23  41  66  94 129 168 223 269 331 390
#     4   9  19  37  60  89 125 163 209 265 327 388
#     4  10  22  42  65  91 127 170 221 278 334 401
#     4  11  24  41  62  92 132 170 213 274 332 398
#
# _framework density 22.936885
#
# number of rings (size 3 to 8) (size 9 to 14) (size 15 to 20)
#    0.000    1.250    3.750    2.625    0.000    2.000 
#    0.000    0.625    0.000    0.000    0.000    0.000 
#    0.000    0.000    0.000    0.000    0.000    0.000 
#
# Total GULP energy -356637.282807 kJ/mol
# GULP energy per Si atom -5572.457544 kJ/mol
# Density = 2.288468 g / cm^3
# Si number density = 22.936885 Si / 1000 Ang^3
#
#
#
# Elastic Constant Matrix: (Units=GPa)
#
#
# Indices 1 2 3 4 5 6 
#
# 1 52.8931 9.9585 -6.0883 0.0000 0.0000 0.0000
# 2 9.9585 118.4636 26.3082 0.0000 0.0000 0.0000
# 3 -6.0883 26.3082 45.9497 0.0000 0.0000 0.0000
# 4 0.0000 0.0000 0.0000 510.0850 0.0000 0.0000
# 5 0.0000 0.0000 0.0000 0.0000 27.9834 0.0000
# 6 0.0000 0.0000 0.0000 0.0000 0.0000 16.6801
#
#
#
# Elastic Compliance Matrix: (Units=1/GPa)
#
#
# Indices 1 2 3 4 5 6 
#
# 1 0.019866 -0.002583 0.004111 0.000000 0.000000 0.000000
# 2 -0.002583 0.010007 -0.006072 0.000000 0.000000 0.000000
# 3 0.004111 -0.006072 0.025784 0.000000 0.000000 0.000000
# 4 0.000000 0.000000 0.000000 0.001960 0.000000 0.000000
# 5 0.000000 0.000000 0.000000 0.000000 0.035736 0.000000
# 6 0.000000 0.000000 0.000000 0.000000 0.000000 0.059952
#
#
# Mechanical properties :
#
#
# Convention : Reuss Voigt Hill
#
# Bulk Modulus (GPa) = 21.47339 30.85146 26.16243
# Shear Modulus (GPa) = 28.10342 123.42488 75.76415
#
# Velocity S-wave (km/s) = 3.50415 7.34353 5.75355
# Velocity P-wave (km/s) = 5.07488 9.24030 7.45444
#
# Compressibility (1/GPa) = 0.04656927
#
# Stress axis : x y z
#
# Youngs Moduli (GPa) = 50.33836 99.93083 38.78386
#
# Poissons Ratio (x) = 0.25812 -0.15944
# Poissons Ratio (y) = 0.13002 0.23548
# Poissons Ratio (z) = -0.20694 0.60674
#
# Static dielectric constant tensor:
#      x y z
#    x 1.930960 0.000000 0.000000 
#    y 0.000000 1.896900 0.000000 
#    z 0.000000 0.000000 1.902700 
# 
# From -- ./inp_files/24033.got.cif
#   From: 2010.05.17/outbox.cif.g08.bks.cpg/sg62_13_cif.got.tgz:24033.got - 2010.06.03 15:25:27.
