data_PCOD9464215
_publ_section_title
;
Structure prediction by ZEFSAII (Michael W. Deem and Ramdas Pophale) SiO2 
 PCOD9464215
Probable space group: P N M A
;
_chemical_formula_sum "Si O2"
_cell_formula_units_Z 56
_cell_length_a 15.554976
_cell_length_b 9.069335
_cell_length_c 20.665788
_cell_angle_alpha 90.000000
_cell_angle_beta 90.000000
_cell_angle_gamma 90.000000
_cell_volume 2915.390668
_symmetry_space_group_name_H-M "P N M A"
_symmetry_group_IT_number 62
_symmetry_cell_setting 'orthorhombic'
loop_
_space_group_symop_operation_xyz
x,y,z
1/2-x,-y,1/2+z
1/2+x,1/2-y,1/2-z
-x,1/2+y,-z
-x,-y,-z
1/2+x,y,1/2-z
1/2-x,1/2+y,1/2+z
x,1/2-y,z
loop_
_atom_site_type_symbol
_atom_site_label
_atom_site_fract_x
_atom_site_fract_y
_atom_site_fract_z
Si Si1 0.446367 0.082766 0.446659
Si Si2 0.191404 0.427355 0.165572
Si Si3 0.493550 0.427719 0.304116
Si Si4 0.865952 0.926436 0.299273
Si Si5 0.881113 0.414815 0.539047
Si Si6 0.224616 0.919689 0.027409
Si Si7 0.974945 0.415085 0.403333
O O1 0.479151 0.250000 0.443700
O O2 0.458703 0.024436 0.374682
O O3 0.351192 0.082384 0.474826
O O4 0.500000 0.000000 0.500000
O O5 0.202676 0.250000 0.162484
O O6 0.271181 0.500306 0.204095
O O7 0.197239 0.493986 0.092624
O O8 0.096473 0.457606 0.195060
O O9 0.482544 0.250000 0.296688
O O10 0.434675 0.510676 0.252243
O O11 0.860292 0.750000 0.296497
O O12 0.906836 0.983115 0.366699
O O13 0.858241 0.250000 0.561214
O O14 0.801971 0.502196 0.509409
O O15 0.942968 0.398685 0.476739
O O16 0.933012 0.505960 0.592812
O O17 0.245036 0.750000 0.045278
O O18 0.978444 0.250000 0.374607
#
# Coordination Sequence:
#
# PCOD9464215 Si02
#       7
#     8   8   8   8   8   8   8
#     4  10  21  38  62  92 123 157 198 251 310 364
#     4  11  22  40  67  92 118 161 208 251 304 372
#     4  10  23  44  66  89 122 165 210 256 311 373
#     4  12  25  41  64  92 126 164 208 260 312 373
#     4  10  20  34  56  86 121 160 202 251 303 361
#     4  11  21  34  59  92 125 158 197 251 305 365
#     4  10  20  36  59  85 119 159 201 250 305 363
#
# _framework density 19.208404999999999
#
# number of rings (size 3 to 8) (size 9 to 14) (size 15 to 20)
#    0.000    1.429    2.857    3.000    0.000    3.429 
#    2.571    0.000    0.000    0.000    0.000    0.000 
#    0.000    0.000    0.000    0.000    0.000    0.000 
#
# Total GULP energy -312449.690058 kJ/mol
# GULP energy per Si atom -5579.458751 kJ/mol
# Density = 1.916469 g / cm^3
# Si number density = 19.208405 Si / 1000 Ang^3
#
#
#
# Elastic Constant Matrix: (Units=GPa)
#
#
# Indices 1 2 3 4 5 6 
#
# 1 115.4159 73.0459 33.3353 0.0000 0.0000 0.0000
# 2 73.0459 136.9107 28.2052 0.0000 0.0000 0.0000
# 3 33.3353 28.2052 37.7483 0.0000 0.0000 0.0000
# 4 0.0000 0.0000 0.0000 28.3250 0.0000 0.0000
# 5 0.0000 0.0000 0.0000 0.0000 33.4727 0.0000
# 6 0.0000 0.0000 0.0000 0.0000 0.0000 26.3519
#
#
#
# Elastic Compliance Matrix: (Units=1/GPa)
#
#
# Indices 1 2 3 4 5 6 
#
# 1 0.015158 -0.006299 -0.008679 0.000000 0.000000 0.000000
# 2 -0.006299 0.011251 -0.002844 0.000000 0.000000 0.000000
# 3 -0.008679 -0.002844 0.036280 0.000000 0.000000 0.000000
# 4 0.000000 0.000000 0.000000 0.035305 0.000000 0.000000
# 5 0.000000 0.000000 0.000000 0.000000 0.029875 0.000000
# 6 0.000000 0.000000 0.000000 0.000000 0.000000 0.037948
#
#
# Mechanical properties :
#
#
# Convention : Reuss Voigt Hill
#
# Bulk Modulus (GPa) = 36.97523 62.13864 49.55693
# Shear Modulus (GPa) = 23.75577 27.99581 25.87579
#
# Velocity S-wave (km/s) = 3.52054 3.82183 3.67428
# Velocity P-wave (km/s) = 5.98473 7.20383 6.62239
#
# Compressibility (1/GPa) = 0.02704514
#
# Stress axis : x y z
#
# Youngs Moduli (GPa) = 65.97292 88.88405 27.56304
#
# Poissons Ratio (x) = 0.55989 0.23922
# Poissons Ratio (y) = 0.41557 0.07838
# Poissons Ratio (z) = 0.57258 0.25275
#
# Static dielectric constant tensor:
#      x y z
#    x 1.749470 0.000000 0.000000 
#    y 0.000000 1.685580 0.000000 
#    z 0.000000 0.000000 1.752760 
# 
# From -- ./inp_files/27220.got.cif
#   From: 2010.05.17/outbox.cif.g08.bks.cpg/sg62_14_cif.got.tgz:27220.got - 2010.06.03 15:25:27.
