data_PCOD9464917
_publ_section_title
;
Structure prediction by ZEFSAII (Michael W. Deem and Ramdas Pophale) SiO2 
 PCOD9464917
Probable space group: P N M A
;
_chemical_formula_sum "Si O2"
_cell_formula_units_Z 52
_cell_length_a 13.818001
_cell_length_b 23.575762
_cell_length_c 8.635407
_cell_angle_alpha 90.000000
_cell_angle_beta 90.000000
_cell_angle_gamma 90.000000
_cell_volume 2813.155700
_symmetry_space_group_name_H-M "P N M A"
_symmetry_group_IT_number 62
_symmetry_cell_setting 'orthorhombic'
loop_
_space_group_symop_operation_xyz
x,y,z
1/2-x,-y,1/2+z
1/2+x,1/2-y,1/2-z
-x,1/2+y,-z
-x,-y,-z
1/2+x,y,1/2-z
1/2-x,1/2+y,1/2+z
x,1/2-y,z
loop_
_atom_site_type_symbol
_atom_site_label
_atom_site_fract_x
_atom_site_fract_y
_atom_site_fract_z
Si Si1 0.677984 0.639863 0.654157
Si Si2 0.184472 0.750000 0.343560
Si Si3 0.187278 0.039051 0.786182
Si Si4 0.468799 0.750000 0.095191
Si Si5 0.528535 0.541362 0.641263
Si Si6 0.802157 0.661945 0.353464
Si Si7 0.314424 0.557596 0.656009
Si Si8 0.390869 0.250000 0.172450
O O1 0.599673 0.593033 0.598395
O O2 0.743509 0.661174 0.513374
O O3 0.747134 0.607191 0.776330
O O4 0.625328 0.693341 0.730464
O O5 0.237267 0.804177 0.271058
O O6 0.185926 0.750000 0.529677
O O7 0.069152 0.750000 0.308718
O O8 0.181873 0.097953 0.698698
O O9 0.093391 0.999803 0.752644
O O10 0.276952 0.001073 0.730722
O O11 0.193570 0.051480 0.970130
O O12 0.402062 0.804047 0.128380
O O13 0.507280 0.750000 0.918603
O O14 0.500000 0.500000 0.500000
O O15 0.426819 0.565071 0.700944
#
# Coordination Sequence:
#
# PCOD9464917 Si02
#       8
#     8   4   8   4   8   8   8   4
#     4  11  23  39  64  89 122 163 205 259 308 368
#     4   9  22  39  59  85 121 157 206 259 300 370
#     4  10  20  37  59  88 122 160 203 248 307 368
#     4   9  24  39  63  86 123 154 207 253 307 365
#     4   9  20  38  57  90 125 158 201 249 303 374
#     4  11  21  40  63  90 121 163 200 256 315 363
#     4  10  21  38  58  89 122 163 201 253 306 367
#     4  10  22  44  58  87 122 153 211 252 301 371
#
# _framework density 18.484579
#
# number of rings (size 3 to 8) (size 9 to 14) (size 15 to 20)
#    0.462    1.538    0.000    4.615    2.154    3.692 
#    0.000    2.308    0.000    0.000    0.000    0.000 
#    0.000    0.000    0.000    0.000    0.000    0.000 
#
# Total GULP energy -289947.479487 kJ/mol
# GULP energy per Si atom -5575.913067 kJ/mol
# Density = 1.844251 g / cm^3
# Si number density = 18.484579 Si / 1000 Ang^3
#
#
#
# Elastic Constant Matrix: (Units=GPa)
#
#
# Indices 1 2 3 4 5 6 
#
# 1 95.2192 15.1481 -1.9872 0.0000 0.0000 0.0000
# 2 15.1481 82.9924 -2.3491 0.0000 0.0000 0.0000
# 3 -1.9872 -2.3491 49.6688 0.0000 0.0000 0.0000
# 4 0.0000 0.0000 0.0000 30.4389 0.0000 0.0000
# 5 0.0000 0.0000 0.0000 0.0000 24.2014 0.0000
# 6 0.0000 0.0000 0.0000 0.0000 0.0000 5.6409
#
#
#
# Elastic Compliance Matrix: (Units=1/GPa)
#
#
# Indices 1 2 3 4 5 6 
#
# 1 0.010822 -0.001966 0.000340 0.000000 0.000000 0.000000
# 2 -0.001966 0.012422 0.000509 0.000000 0.000000 0.000000
# 3 0.000340 0.000509 0.020171 0.000000 0.000000 0.000000
# 4 0.000000 0.000000 0.000000 0.032853 0.000000 0.000000
# 5 0.000000 0.000000 0.000000 0.000000 0.041320 0.000000
# 6 0.000000 0.000000 0.000000 0.000000 0.000000 0.177275
#
#
# Mechanical properties :
#
#
# Convention : Reuss Voigt Hill
#
# Bulk Modulus (GPa) = 24.28250 27.72266 26.00258
# Shear Modulus (GPa) = 16.08627 26.52750 21.30688
#
# Velocity S-wave (km/s) = 2.95321 3.79240 3.39880
# Velocity P-wave (km/s) = 4.97933 5.84865 5.43141
#
# Compressibility (1/GPa) = 0.04118192
#
# Stress axis : x y z
#
# Youngs Moduli (GPa) = 92.40533 80.49928 49.57600
#
# Poissons Ratio (x) = 0.15823 -0.01686
# Poissons Ratio (y) = 0.18163 -0.02523
# Poissons Ratio (z) = -0.03142 -0.04096
#
# Static dielectric constant tensor:
#      x y z
#    x 1.654950 0.000000 0.000000 
#    y 0.000000 1.616830 0.000000 
#    z 0.000000 0.000000 1.635040 
# 
# From -- ./inp_files/6867.got.cif
#   From: 2010.05.17/outbox.cif.g08.bks.cpg/sg62_4_cif.got.tgz:6867.got - 2010.06.03 15:25:27.
