data_PCOD9464385
_publ_section_title
;
Structure prediction by ZEFSAII (Michael W. Deem and Ramdas Pophale) SiO2 
 PCOD9464385
Probable space group: P N M A
;
_chemical_formula_sum "Si O2"
_cell_formula_units_Z 48
_cell_length_a 28.694357
_cell_length_b 9.298013
_cell_length_c 7.935416
_cell_angle_alpha 90.000000
_cell_angle_beta 90.000000
_cell_angle_gamma 90.000000
_cell_volume 2117.172992
_symmetry_space_group_name_H-M "P N M A"
_symmetry_group_IT_number 62
_symmetry_cell_setting 'orthorhombic'
loop_
_space_group_symop_operation_xyz
x,y,z
1/2-x,-y,1/2+z
1/2+x,1/2-y,1/2-z
-x,1/2+y,-z
-x,-y,-z
1/2+x,y,1/2-z
1/2-x,1/2+y,1/2+z
x,1/2-y,z
loop_
_atom_site_type_symbol
_atom_site_label
_atom_site_fract_x
_atom_site_fract_y
_atom_site_fract_z
Si Si1 0.732711 0.419787 0.444188
Si Si2 0.145906 0.412407 0.272094
Si Si3 0.180034 0.920220 0.762498
Si Si4 0.984736 0.085551 0.236264
Si Si5 0.433109 0.413455 0.903033
Si Si6 0.904527 0.915211 0.093052
O O1 0.727360 0.250000 0.493909
O O2 0.699117 0.438746 0.281084
O O3 0.711675 0.525883 0.581279
O O4 0.786079 0.446328 0.395459
O O5 0.141445 0.250000 0.338937
O O6 0.118547 0.522927 0.388423
O O7 0.118844 0.418727 0.091394
O O8 0.170144 0.750000 0.772865
O O9 0.133054 0.009788 0.784496
O O10 0.993115 0.250000 0.184745
O O11 0.954122 0.085420 0.409249
O O12 0.952882 0.999646 0.105608
O O13 0.032175 0.008989 0.290842
O O14 0.433276 0.250000 0.841739
O O15 0.911869 0.750000 0.141856
#
# Coordination Sequence:
#
# PCOD9464385 Si02
#       6
#     8   8   8   8   8   8
#     4   9  20  37  54  77 109 141 177 219 262 313
#     4   9  19  36  55  76 105 140 176 216 262 313
#     4  10  20  35  56  81 108 140 179 221 265 313
#     4  10  21  37  56  79 107 139 176 217 262 315
#     4  10  21  36  55  80 107 137 175 218 264 313
#     4  10  21  37  56  79 108 141 177 218 265 315
#
# _framework density 22.671741999999998
#
# number of rings (size 3 to 8) (size 9 to 14) (size 15 to 20)
#    0.000    2.333    0.000    3.000    0.000    8.667 
#    0.000    3.333    0.000    0.000    0.000    0.000 
#    0.000    0.000    0.000    0.000    0.000    0.000 
#
# Total GULP energy -268452.125100 kJ/mol
# GULP energy per Si atom -5592.752606 kJ/mol
# Density = 2.262014 g / cm^3
# Si number density = 22.671742 Si / 1000 Ang^3
#
#
#
# Elastic Constant Matrix: (Units=GPa)
#
#
# Indices 1 2 3 4 5 6 
#
# 1 114.6646 39.9220 5.3457 0.0000 0.0000 0.0000
# 2 39.9220 106.4802 19.3711 0.0000 0.0000 0.0000
# 3 5.3457 19.3711 36.5900 0.0000 0.0000 0.0000
# 4 0.0000 0.0000 0.0000 20.6680 0.0000 0.0000
# 5 0.0000 0.0000 0.0000 0.0000 38.4199 0.0000
# 6 0.0000 0.0000 0.0000 0.0000 0.0000 28.8631
#
#
#
# Elastic Compliance Matrix: (Units=1/GPa)
#
#
# Indices 1 2 3 4 5 6 
#
# 1 0.010042 -0.003871 0.000582 0.000000 0.000000 0.000000
# 2 -0.003871 0.011884 -0.005726 0.000000 0.000000 0.000000
# 3 0.000582 -0.005726 0.030276 0.000000 0.000000 0.000000
# 4 0.000000 0.000000 0.000000 0.048384 0.000000 0.000000
# 5 0.000000 0.000000 0.000000 0.000000 0.026028 0.000000
# 6 0.000000 0.000000 0.000000 0.000000 0.000000 0.034646
#
#
# Mechanical properties :
#
#
# Convention : Reuss Voigt Hill
#
# Bulk Modulus (GPa) = 29.26311 43.00138 36.13225
# Shear Modulus (GPa) = 26.22177 30.46326 28.34252
#
# Velocity S-wave (km/s) = 3.40455 3.66958 3.53955
# Velocity P-wave (km/s) = 5.32822 6.07969 5.71631
#
# Compressibility (1/GPa) = 0.03417271
#
# Stress axis : x y z
#
# Youngs Moduli (GPa) = 99.58580 84.14407 33.02911
#
# Poissons Ratio (x) = 0.32570 -0.01923
# Poissons Ratio (y) = 0.38547 0.18913
# Poissons Ratio (z) = -0.05797 0.48183
#
# Static dielectric constant tensor:
#      x y z
#    x 1.822720 0.000000 0.000000 
#    y 0.000000 1.778720 0.000000 
#    z 0.000000 0.000000 1.890730 
# 
# From -- ./inp_files/10175.got.cif
#   From: 2010.05.17/outbox.cif.g08.bks.cpg/sg62_6_cif.got.tgz:10175.got - 2010.06.03 15:25:27.
