data_PCOD9464226
_publ_section_title
;
Structure prediction by ZEFSAII (Michael W. Deem and Ramdas Pophale) SiO2 
 PCOD9464226
Probable space group: P N M A
;
_chemical_formula_sum "Si O2"
_cell_formula_units_Z 48
_cell_length_a 15.480748
_cell_length_b 9.023762
_cell_length_c 19.334131
_cell_angle_alpha 90.000000
_cell_angle_beta 90.000000
_cell_angle_gamma 90.000000
_cell_volume 2700.873417
_symmetry_space_group_name_H-M "P N M A"
_symmetry_group_IT_number 62
_symmetry_cell_setting 'orthorhombic'
loop_
_space_group_symop_operation_xyz
x,y,z
1/2-x,-y,1/2+z
1/2+x,1/2-y,1/2-z
-x,1/2+y,-z
-x,-y,-z
1/2+x,y,1/2-z
1/2-x,1/2+y,1/2+z
x,1/2-y,z
loop_
_atom_site_type_symbol
_atom_site_label
_atom_site_fract_x
_atom_site_fract_y
_atom_site_fract_z
Si Si1 0.002693 0.071816 0.323702
Si Si2 0.851932 0.072329 0.430048
Si Si3 0.839051 0.927346 0.577370
Si Si4 0.847882 0.573259 0.916568
Si Si5 0.994476 0.072643 0.826189
Si Si6 0.154656 0.071956 0.923442
O O1 0.000910 0.250000 0.314279
O O2 0.090024 0.033746 0.365173
O O3 0.921951 0.031306 0.372666
O O4 0.998992 0.994170 0.250030
O O5 0.857138 0.250000 0.441610
O O6 0.753720 0.039727 0.406848
O O7 0.866820 0.991967 0.502926
O O8 0.833728 0.750000 0.572884
O O9 0.745167 0.994440 0.593480
O O10 0.859733 0.750000 0.907723
O O11 0.910085 0.488124 0.865050
O O12 0.867960 0.535507 0.996750
O O13 0.991530 0.250000 0.823146
O O14 0.077908 0.029578 0.872145
O O15 0.166873 0.250000 0.920744
#
# Coordination Sequence:
#
# PCOD9464226 Si02
#       6
#     8   8   8   8   8   8
#     4  10  22  38  54  77 111 147 178 211 262 323
#     4   9  19  37  59  80 106 141 177 217 265 315
#     4  10  20  34  57  85 107 135 178 222 263 312
#     4   9  18  35  58  80 105 138 174 216 267 320
#     4  11  23  36  53  79 109 142 180 222 265 310
#     4   9  20  38  57  79 107 139 177 220 267 316
#
# _framework density 17.772027999999999
#
# number of rings (size 3 to 8) (size 9 to 14) (size 15 to 20)
#    0.000    2.333    0.000    3.000    0.000    7.333 
#    0.000    5.000    0.000    0.000    0.000    0.000 
#    0.000    0.000    0.000    0.000    0.000    0.000 
#
# Total GULP energy -267998.819612 kJ/mol
# GULP energy per Si atom -5583.308742 kJ/mol
# Density = 1.773158 g / cm^3
# Si number density = 17.772028 Si / 1000 Ang^3
#
#
#
# Elastic Constant Matrix: (Units=GPa)
#
#
# Indices 1 2 3 4 5 6 
#
# 1 69.8588 29.1043 60.1314 0.0000 0.0000 0.0000
# 2 29.1043 22.9435 34.2523 0.0000 0.0000 0.0000
# 3 60.1314 34.2523 93.6702 0.0000 0.0000 0.0000
# 4 0.0000 0.0000 0.0000 23.7289 0.0000 0.0000
# 5 0.0000 0.0000 0.0000 0.0000 10.2443 0.0000
# 6 0.0000 0.0000 0.0000 0.0000 0.0000 27.7706
#
#
#
# Elastic Compliance Matrix: (Units=1/GPa)
#
#
# Indices 1 2 3 4 5 6 
#
# 1 0.037883 -0.025875 -0.014857 0.000000 0.000000 0.000000
# 2 -0.025875 0.113656 -0.024950 0.000000 0.000000 0.000000
# 3 -0.014857 -0.024950 0.029337 0.000000 0.000000 0.000000
# 4 0.000000 0.000000 0.000000 0.042143 0.000000 0.000000
# 5 0.000000 0.000000 0.000000 0.000000 0.097616 0.000000
# 6 0.000000 0.000000 0.000000 0.000000 0.000000 0.036009
#
#
# Mechanical properties :
#
#
# Convention : Reuss Voigt Hill
#
# Bulk Modulus (GPa) = 20.19743 48.16093 34.17918
# Shear Modulus (GPa) = 9.91057 16.54773 13.22915
#
# Velocity S-wave (km/s) = 2.36402 3.05472 2.73129
# Velocity P-wave (km/s) = 4.34061 6.29284 5.40559
#
# Compressibility (1/GPa) = 0.04951124
#
# Stress axis : x y z
#
# Youngs Moduli (GPa) = 26.39713 8.79847 34.08683
#
# Poissons Ratio (x) = 0.22766 0.50644
# Poissons Ratio (y) = 0.68302 0.85047
# Poissons Ratio (z) = 0.39219 0.21952
#
# Static dielectric constant tensor:
#      x y z
#    x 1.596630 0.000000 0.000000 
#    y 0.000000 1.591400 0.000000 
#    z 0.000000 0.000000 1.574000 
# 
# From -- ./inp_files/23700.got.cif
#   From: 2010.05.17/outbox.cif.g08.bks.cpg/sg62_12_cif.got.tgz:23700.got - 2010.06.03 15:25:27.
