data_PCOD9464607
_publ_section_title
;
Structure prediction by ZEFSAII (Michael W. Deem and Ramdas Pophale) SiO2 
 PCOD9464607
Probable space group: P N M A
;
_chemical_formula_sum "Si O2"
_cell_formula_units_Z 64
_cell_length_a 8.857687
_cell_length_b 14.939489
_cell_length_c 23.223556
_cell_angle_alpha 90.000000
_cell_angle_beta 90.000000
_cell_angle_gamma 90.000000
_cell_volume 3073.157315
_symmetry_space_group_name_H-M "P N M A"
_symmetry_group_IT_number 62
_symmetry_cell_setting 'orthorhombic'
loop_
_space_group_symop_operation_xyz
x,y,z
1/2-x,-y,1/2+z
1/2+x,1/2-y,1/2-z
-x,1/2+y,-z
-x,-y,-z
1/2+x,y,1/2-z
1/2-x,1/2+y,1/2+z
x,1/2-y,z
loop_
_atom_site_type_symbol
_atom_site_label
_atom_site_fract_x
_atom_site_fract_y
_atom_site_fract_z
Si Si1 0.984128 0.091426 0.315820
Si Si2 0.357645 0.959786 0.534072
Si Si3 0.265239 0.356992 0.935985
Si Si4 0.197238 0.650665 0.789647
Si Si5 0.400434 0.417398 0.750017
Si Si6 0.647005 0.346491 0.809849
Si Si7 0.921815 0.961072 0.416441
Si Si8 0.951980 0.987829 0.139467
O O1 0.126828 0.155330 0.306976
O O2 0.842879 0.125163 0.277233
O O3 0.052769 0.005250 0.283404
O O4 0.953251 0.053504 0.380126
O O5 0.307937 0.871394 0.499553
O O6 0.500000 0.000000 0.500000
O O7 0.203894 0.018653 0.535716
O O8 0.424484 0.964052 0.598286
O O9 0.272498 0.250000 0.922219
O O10 0.428674 0.406697 0.934699
O O11 0.161748 0.420510 0.894317
O O12 0.130925 0.750000 0.799960
O O13 0.129936 0.570084 0.828108
O O14 0.474923 0.342620 0.789344
O O15 0.225478 0.402002 0.740872
O O16 0.461385 0.427116 0.685703
O O17 0.718944 0.250000 0.812849
O O18 0.654002 0.396585 0.869382
#
# Coordination Sequence:
#
# PCOD9464607 Si02
#       8
#     8   8   8   8   8   8   8   8
#     4  10  21  37  61  89 128 171 208 255 316 381
#     4  10  23  44  69  90 117 165 221 276 333 380
#     4  11  24  42  67  97 125 164 217 274 336 395
#     4  11  22  38  62  96 130 172 216 258 315 385
#     4  10  20  36  55  84 126 174 201 243 314 372
#     4  11  22  33  54  92 128 166 211 250 295 377
#     4  11  21  42  66  87 127 175 205 266 333 391
#     4  10  21  42  65  90 129 174 207 268 324 385
#
# _framework density 20.825486999999999
#
# number of rings (size 3 to 8) (size 9 to 14) (size 15 to 20)
#    0.000    1.500    2.500    3.750    3.500    1.500 
#    0.000    1.875    0.000    0.750    0.000    0.000 
#    0.000    0.000    0.000    0.000    0.000    0.000 
#
# Total GULP energy -356353.995699 kJ/mol
# GULP energy per Si atom -5568.031183 kJ/mol
# Density = 2.077809 g / cm^3
# Si number density = 20.825487 Si / 1000 Ang^3
#
#
#
# Elastic Constant Matrix: (Units=GPa)
#
#
# Indices 1 2 3 4 5 6 
#
# 1 87.5361 32.4800 20.6395 0.0000 0.0000 0.0000
# 2 32.4800 131.4584 27.2598 0.0000 0.0000 0.0000
# 3 20.6395 27.2598 60.7134 0.0000 0.0000 0.0000
# 4 0.0000 0.0000 0.0000 7.4321 0.0000 0.0000
# 5 0.0000 0.0000 0.0000 0.0000 38.1241 0.0000
# 6 0.0000 0.0000 0.0000 0.0000 0.0000 14.5939
#
#
#
# Elastic Compliance Matrix: (Units=1/GPa)
#
#
# Indices 1 2 3 4 5 6 
#
# 1 0.013158 -0.002562 -0.003323 0.000000 0.000000 0.000000
# 2 -0.002562 0.008887 -0.003119 0.000000 0.000000 0.000000
# 3 -0.003323 -0.003119 0.019001 0.000000 0.000000 0.000000
# 4 0.000000 0.000000 0.000000 0.134551 0.000000 0.000000
# 5 0.000000 0.000000 0.000000 0.000000 0.026230 0.000000
# 6 0.000000 0.000000 0.000000 0.000000 0.000000 0.068522
#
#
# Mechanical properties :
#
#
# Convention : Reuss Voigt Hill
#
# Bulk Modulus (GPa) = 43.40680 48.94071 46.17376
# Shear Modulus (GPa) = 16.88987 25.31859 21.10423
#
# Velocity S-wave (km/s) = 2.85093 3.49054 3.18682
# Velocity P-wave (km/s) = 5.63253 6.30845 5.98005
#
# Compressibility (1/GPa) = 0.02303786
#
# Stress axis : x y z
#
# Youngs Moduli (GPa) = 75.99987 112.52691 52.62926
#
# Poissons Ratio (x) = 0.28829 0.17487
# Poissons Ratio (y) = 0.19471 0.16416
# Poissons Ratio (z) = 0.25253 0.35099
#
# Static dielectric constant tensor:
#      x y z
#    x 1.816470 0.000000 0.000000 
#    y 0.000000 1.872800 0.000000 
#    z 0.000000 0.000000 1.785580 
# 
# From -- ./inp_files/28962.got.cif
#   From: 2010.05.17/outbox.cif.g08.bks.cpg/sg62_15_cif.got.tgz:28962.got - 2010.06.03 15:25:27.
