data_PCOD9464260
_publ_section_title
;
Structure prediction by ZEFSAII (Michael W. Deem and Ramdas Pophale) SiO2 
 PCOD9464260
Probable space group: P N M A
;
_chemical_formula_sum "Si O2"
_cell_formula_units_Z 40
_cell_length_a 16.436309
_cell_length_b 18.514011
_cell_length_c 6.584448
_cell_angle_alpha 90.000000
_cell_angle_beta 90.000000
_cell_angle_gamma 90.000000
_cell_volume 2003.660732
_symmetry_space_group_name_H-M "P N M A"
_symmetry_group_IT_number 62
_symmetry_cell_setting 'orthorhombic'
loop_
_space_group_symop_operation_xyz
x,y,z
1/2-x,-y,1/2+z
1/2+x,1/2-y,1/2-z
-x,1/2+y,-z
-x,-y,-z
1/2+x,y,1/2-z
1/2-x,1/2+y,1/2+z
x,1/2-y,z
loop_
_atom_site_type_symbol
_atom_site_label
_atom_site_fract_x
_atom_site_fract_y
_atom_site_fract_z
Si Si1 0.881897 0.962984 0.330891
Si Si2 0.781068 0.834597 0.272522
Si Si3 0.373529 0.167456 0.020075
Si Si4 0.170635 0.587378 0.906799
Si Si5 0.933996 0.465128 0.716805
O O1 0.859747 0.884505 0.247352
O O2 0.972123 0.984917 0.256953
O O3 0.815253 0.019084 0.242194
O O4 0.889346 0.976105 0.573181
O O5 0.797084 0.750000 0.301231
O O6 0.740751 0.871928 0.470652
O O7 0.714803 0.841353 0.090815
O O8 0.398628 0.250000 0.990259
O O9 0.367586 0.146338 0.255378
O O10 0.430992 0.109153 0.913517
O O11 0.113257 0.554147 0.080386
#
# Coordination Sequence:
#
# PCOD9464260 Si02
#       5
#     8   8   8   8   8
#     4  10  21  35  58  82 115 146 191 237 284 338
#     4  10  22  36  54  83 116 148 188 237 287 337
#     4   9  19  36  55  79 112 150 190 232 281 340
#     4  10  20  34  59  79 110 149 189 234 282 339
#     4   9  20  37  55  86 112 146 192 239 279 340
#
# _framework density 19.963460000000001
#
# number of rings (size 3 to 8) (size 9 to 14) (size 15 to 20)
#    0.000    2.400    0.000    1.200    8.400    1.600 
#    0.000    0.000    0.000    2.400    0.000    0.000 
#    0.000    0.000    0.000    0.000    0.000    0.000 
#
# Total GULP energy -222890.592184 kJ/mol
# GULP energy per Si atom -5572.264805 kJ/mol
# Density = 1.991802 g / cm^3
# Si number density = 19.963460 Si / 1000 Ang^3
#
#
#
# Elastic Constant Matrix: (Units=GPa)
#
#
# Indices 1 2 3 4 5 6 
#
# 1 23.8895 22.7612 3.2322 0.0000 0.0000 0.0000
# 2 22.7612 113.6200 11.7392 0.0000 0.0000 0.0000
# 3 3.2322 11.7392 61.6716 0.0000 0.0000 0.0000
# 4 0.0000 0.0000 0.0000 25.3462 0.0000 0.0000
# 5 0.0000 0.0000 0.0000 0.0000 13.1079 0.0000
# 6 0.0000 0.0000 0.0000 0.0000 0.0000 26.0242
#
#
#
# Elastic Compliance Matrix: (Units=1/GPa)
#
#
# Indices 1 2 3 4 5 6 
#
# 1 0.051768 -0.010293 -0.000754 0.000000 0.000000 0.000000
# 2 -0.010293 0.011024 -0.001559 0.000000 0.000000 0.000000
# 3 -0.000754 -0.001559 0.016551 0.000000 0.000000 0.000000
# 4 0.000000 0.000000 0.000000 0.039454 0.000000 0.000000
# 5 0.000000 0.000000 0.000000 0.000000 0.076290 0.000000
# 6 0.000000 0.000000 0.000000 0.000000 0.000000 0.038426
#
#
# Mechanical properties :
#
#
# Convention : Reuss Voigt Hill
#
# Bulk Modulus (GPa) = 18.47333 30.51628 24.49481
# Shear Modulus (GPa) = 18.06566 23.65889 20.86228
#
# Velocity S-wave (km/s) = 3.01148 3.44628 3.23619
# Velocity P-wave (km/s) = 4.62230 5.58167 5.12448
#
# Compressibility (1/GPa) = 0.05413209
#
# Stress axis : x y z
#
# Youngs Moduli (GPa) = 19.31697 90.70912 60.41862
#
# Poissons Ratio (x) = 0.93364 0.04555
# Poissons Ratio (y) = 0.19882 0.09419
# Poissons Ratio (z) = 0.01456 0.14142
#
# Static dielectric constant tensor:
#      x y z
#    x 1.742610 0.000000 0.000000 
#    y 0.000000 1.707580 0.000000 
#    z 0.000000 0.000000 1.747320 
# 
# From -- ./inp_files/1555.got.cif
#   From: 2010.05.17/outbox.cif.g08.bks.cpg/sg62_1_cif.got.tgz:1555.got - 2010.06.03 15:25:27.
