data_PCOD9464537
_publ_section_title
;
Structure prediction by ZEFSAII (Michael W. Deem and Ramdas Pophale) SiO2 
 PCOD9464537
Probable space group: P N M A
;
_chemical_formula_sum "Si O2"
_cell_formula_units_Z 56
_cell_length_a 20.115748
_cell_length_b 8.929700
_cell_length_c 16.375700
_cell_angle_alpha 90.000000
_cell_angle_beta 90.000000
_cell_angle_gamma 90.000000
_cell_volume 2941.527606
_symmetry_space_group_name_H-M "P N M A"
_symmetry_group_IT_number 62
_symmetry_cell_setting 'orthorhombic'
loop_
_space_group_symop_operation_xyz
x,y,z
1/2-x,-y,1/2+z
1/2+x,1/2-y,1/2-z
-x,1/2+y,-z
-x,-y,-z
1/2+x,y,1/2-z
1/2-x,1/2+y,1/2+z
x,1/2-y,z
loop_
_atom_site_type_symbol
_atom_site_label
_atom_site_fract_x
_atom_site_fract_y
_atom_site_fract_z
Si Si1 0.685188 0.929403 0.826572
Si Si2 0.906843 0.069785 0.172919
Si Si3 0.327454 0.429366 0.489072
Si Si4 0.172721 0.427737 0.497977
Si Si5 0.660609 0.072041 0.335610
Si Si6 0.965257 0.428848 0.754998
Si Si7 0.955208 0.071086 0.570478
O O1 0.678984 0.750000 0.840718
O O2 0.640471 0.970640 0.749300
O O3 0.763129 0.960806 0.810694
O O4 0.665198 0.015204 0.908896
O O5 0.913478 0.250000 0.172922
O O6 0.871588 0.026709 0.088359
O O7 0.977997 0.996545 0.187605
O O8 0.334347 0.250000 0.502279
O O9 0.249124 0.457523 0.473305
O O10 0.346511 0.514769 0.571481
O O11 0.160957 0.250000 0.494027
O O12 0.119441 0.512647 0.443128
O O13 0.650877 0.250000 0.331476
O O14 0.606256 0.990863 0.280860
O O15 0.965471 0.250000 0.760527
O O16 0.979252 0.472128 0.660933
O O17 0.957205 0.250000 0.563646
O O18 0.000000 0.000000 0.500000
#
# Coordination Sequence:
#
# PCOD9464537 Si02
#       7
#     8   8   8   8   8   8   8
#     4   9  19  36  60  87 118 151 193 242 288 344
#     4  10  21  38  60  85 113 152 196 240 290 347
#     4   9  20  38  60  86 117 151 192 240 292 347
#     4  10  20  35  59  87 117 152 190 235 292 350
#     4  10  21  38  62  88 116 153 196 242 293 348
#     4  11  25  41  57  84 119 155 195 242 294 350
#     4  11  24  40  59  85 119 156 197 241 293 353
#
# _framework density 19.037725999999999
#
# number of rings (size 3 to 8) (size 9 to 14) (size 15 to 20)
#    0.000    2.000    0.000    2.571    2.000    7.429 
#    0.000    0.000    0.000    0.000    0.000    0.000 
#    0.000    0.000    0.000    0.000    0.000    0.000 
#
# Total GULP energy -312935.392781 kJ/mol
# GULP energy per Si atom -5588.132014 kJ/mol
# Density = 1.899440 g / cm^3
# Si number density = 19.037726 Si / 1000 Ang^3
#
#
#
# Elastic Constant Matrix: (Units=GPa)
#
#
# Indices 1 2 3 4 5 6 
#
# 1 43.5836 14.3756 13.2864 0.0000 0.0000 0.0000
# 2 14.3756 21.3277 11.8322 0.0000 0.0000 0.0000
# 3 13.2864 11.8322 29.9023 0.0000 0.0000 0.0000
# 4 0.0000 0.0000 0.0000 29.5112 0.0000 0.0000
# 5 0.0000 0.0000 0.0000 0.0000 33.9692 0.0000
# 6 0.0000 0.0000 0.0000 0.0000 0.0000 31.1895
#
#
#
# Elastic Compliance Matrix: (Units=1/GPa)
#
#
# Indices 1 2 3 4 5 6 
#
# 1 0.030595 -0.016759 -0.006963 0.000000 0.000000 0.000000
# 2 -0.016759 0.069256 -0.019958 0.000000 0.000000 0.000000
# 3 -0.006963 -0.019958 0.044433 0.000000 0.000000 0.000000
# 4 0.000000 0.000000 0.000000 0.033885 0.000000 0.000000
# 5 0.000000 0.000000 0.000000 0.000000 0.029438 0.000000
# 6 0.000000 0.000000 0.000000 0.000000 0.000000 0.032062
#
#
# Mechanical properties :
#
#
# Convention : Reuss Voigt Hill
#
# Bulk Modulus (GPa) = 17.56704 19.31134 18.43919
# Shear Modulus (GPa) = 14.45071 22.62195 18.53633
#
# Velocity S-wave (km/s) = 2.75809 3.45087 3.12374
# Velocity P-wave (km/s) = 4.40344 5.10331 4.76623
#
# Compressibility (1/GPa) = 0.05692479
#
# Stress axis : x y z
#
# Youngs Moduli (GPa) = 32.68531 14.43920 22.50571
#
# Poissons Ratio (x) = 0.24199 0.15670
# Poissons Ratio (y) = 0.54778 0.44916
# Poissons Ratio (z) = 0.22757 0.28817
#
# Static dielectric constant tensor:
#      x y z
#    x 1.652860 0.000000 0.000000 
#    y 0.000000 1.632080 0.000000 
#    z 0.000000 0.000000 1.640490 
# 
# From -- ./inp_files/20382.got.cif
#   From: 2010.05.17/outbox.cif.g08.bks.cpg/sg62_11_cif.got.tgz:20382.got - 2010.06.03 15:25:27.
