data_PCOD9464356
_publ_section_title
;
Structure prediction by ZEFSAII (Michael W. Deem and Ramdas Pophale) SiO2 
 PCOD9464356
Probable space group: P N M A
;
_chemical_formula_sum "Si O2"
_cell_formula_units_Z 64
_cell_length_a 20.023355
_cell_length_b 7.929895
_cell_length_c 20.673705
_cell_angle_alpha 90.000000
_cell_angle_beta 90.000000
_cell_angle_gamma 90.000000
_cell_volume 3282.635024
_symmetry_space_group_name_H-M "P N M A"
_symmetry_group_IT_number 62
_symmetry_cell_setting 'orthorhombic'
loop_
_space_group_symop_operation_xyz
x,y,z
1/2-x,-y,1/2+z
1/2+x,1/2-y,1/2-z
-x,1/2+y,-z
-x,-y,-z
1/2+x,y,1/2-z
1/2-x,1/2+y,1/2+z
x,1/2-y,z
loop_
_atom_site_type_symbol
_atom_site_label
_atom_site_fract_x
_atom_site_fract_y
_atom_site_fract_z
Si Si1 0.781783 0.549451 0.140582
Si Si2 0.754362 0.045966 0.280814
Si Si3 0.403475 0.451735 0.182381
Si Si4 0.967226 0.549127 0.932335
Si Si5 0.571002 0.450290 0.677083
Si Si6 0.065816 0.546548 0.539563
Si Si7 0.819066 0.543903 0.905916
Si Si8 0.709413 0.956545 0.011428
O O1 0.788500 0.750000 0.130277
O O2 0.745239 0.518343 0.208435
O O3 0.857323 0.480657 0.150884
O O4 0.740631 0.484024 0.079311
O O5 0.755511 0.250000 0.278616
O O6 0.827321 0.987744 0.306092
O O7 0.700318 0.992612 0.333458
O O8 0.399638 0.250000 0.176794
O O9 0.440656 0.490234 0.249485
O O10 0.432831 0.514794 0.114397
O O11 0.963287 0.750000 0.930399
O O12 0.891763 0.482570 0.926611
O O13 0.013178 0.493568 0.872852
O O14 0.000000 0.500000 0.000000
O O15 0.577687 0.250000 0.680126
O O16 0.068480 0.750000 0.541326
O O17 0.134377 0.487707 0.505116
O O18 0.000000 0.500000 0.500000
O O19 0.819505 0.750000 0.907220
O O20 0.760667 0.492698 0.954961
O O21 0.707921 0.750000 0.012184
#
# Coordination Sequence:
#
# PCOD9464356 Si02
#       8
#     8   8   8   8   8   8   8   8
#     4   9  18  32  53  79 107 138 173 216 264 314
#     4   9  16  31  55  78  99 128 174 220 259 310
#     4   9  17  33  57  80 102 137 181 223 264 317
#     4  11  22  36  55  80 112 146 181 224 271 322
#     4  10  20  35  55  81 111 146 183 221 265 320
#     4  10  20  35  56  79 105 137 177 221 269 323
#     4   9  17  32  56  79 100 136 180 220 260 312
#     4   9  16  32  56  78 101 135 177 212 257 321
#
# _framework density 19.496531999999998
#
# number of rings (size 3 to 8) (size 9 to 14) (size 15 to 20)
#    0.000    2.500    1.250    1.500    0.000    3.000 
#    2.250    1.875    0.000    2.250    0.000    0.000 
#    0.000    0.000    0.000    0.000    0.000    0.000 
#
# Total GULP energy -357028.730083 kJ/mol
# GULP energy per Si atom -5578.573908 kJ/mol
# Density = 1.945216 g / cm^3
# Si number density = 19.496532 Si / 1000 Ang^3
#
#
#
# Elastic Constant Matrix: (Units=GPa)
#
#
# Indices 1 2 3 4 5 6 
#
# 1 134.1650 -1.9476 89.1631 0.0000 0.0000 0.0000
# 2 -1.9476 11.1770 0.7569 0.0000 0.0000 0.0000
# 3 89.1631 0.7569 157.7733 0.0000 0.0000 0.0000
# 4 0.0000 0.0000 0.0000 26.8953 0.0000 0.0000
# 5 0.0000 0.0000 0.0000 0.0000 31.5647 0.0000
# 6 0.0000 0.0000 0.0000 0.0000 0.0000 13.7181
#
#
#
# Elastic Compliance Matrix: (Units=1/GPa)
#
#
# Indices 1 2 3 4 5 6 
#
# 1 0.012009 0.002553 -0.006799 0.000000 0.000000 0.000000
# 2 0.002553 0.090041 -0.001875 0.000000 0.000000 0.000000
# 3 -0.006799 -0.001875 0.010190 0.000000 0.000000 0.000000
# 4 0.000000 0.000000 0.000000 0.037181 0.000000 0.000000
# 5 0.000000 0.000000 0.000000 0.000000 0.031681 0.000000
# 6 0.000000 0.000000 0.000000 0.000000 0.000000 0.072897
#
#
# Mechanical properties :
#
#
# Convention : Reuss Voigt Hill
#
# Bulk Modulus (GPa) = 10.00016 53.22891 31.61454
# Shear Modulus (GPa) = 16.69043 28.77846 22.73445
#
# Velocity S-wave (km/s) = 2.92904 3.84615 3.41849
# Velocity P-wave (km/s) = 4.07178 6.86184 5.64199
#
# Compressibility (1/GPa) = 0.09999838
#
# Stress axis : x y z
#
# Youngs Moduli (GPa) = 83.27095 11.10601 98.14016
#
# Poissons Ratio (x) = -0.02835 0.66725
# Poissons Ratio (y) = -0.21259 0.18399
# Poissons Ratio (z) = 0.56615 0.02082
#
# Static dielectric constant tensor:
#      x y z
#    x 1.673310 0.000000 0.000000 
#    y 0.000000 1.720740 0.000000 
#    z 0.000000 0.000000 1.666900 
# 
# From -- ./inp_files/27683.got.cif
#   From: 2010.05.17/outbox.cif.g08.bks.cpg/sg62_14_cif.got.tgz:27683.got - 2010.06.03 15:25:27.
