data_PCOD9464985
_publ_section_title
;
Structure prediction by ZEFSAII (Michael W. Deem and Ramdas Pophale) SiO2 
 PCOD9464985
Probable space group: P N M A
;
_chemical_formula_sum "Si O2"
_cell_formula_units_Z 64
_cell_length_a 24.953401
_cell_length_b 8.797977
_cell_length_c 15.001470
_cell_angle_alpha 90.000000
_cell_angle_beta 90.000000
_cell_angle_gamma 90.000000
_cell_volume 3293.414444
_symmetry_space_group_name_H-M "P N M A"
_symmetry_group_IT_number 62
_symmetry_cell_setting 'orthorhombic'
loop_
_space_group_symop_operation_xyz
x,y,z
1/2-x,-y,1/2+z
1/2+x,1/2-y,1/2-z
-x,1/2+y,-z
-x,-y,-z
1/2+x,y,1/2-z
1/2-x,1/2+y,1/2+z
x,1/2-y,z
loop_
_atom_site_type_symbol
_atom_site_label
_atom_site_fract_x
_atom_site_fract_y
_atom_site_fract_z
Si Si1 0.156990 0.074561 0.860915
Si Si2 0.635246 0.426019 0.439671
Si Si3 0.944233 0.932148 0.251599
Si Si4 0.739973 0.570032 0.363908
Si Si5 0.165420 0.065044 0.502847
Si Si6 0.233017 0.071118 0.331542
Si Si7 0.482943 0.933122 0.595552
Si Si8 0.449807 0.431784 0.053534
O O1 0.175375 0.250000 0.850425
O O2 0.116599 0.038233 0.781401
O O3 0.207693 0.966758 0.866658
O O4 0.125640 0.066272 0.954192
O O5 0.648062 0.250000 0.418373
O O6 0.686282 0.525219 0.416128
O O7 0.580139 0.468234 0.392017
O O8 0.950068 0.750000 0.259933
O O9 0.954616 0.013559 0.344450
O O10 0.982747 0.994836 0.174558
O O11 0.744919 0.750000 0.357413
O O12 0.792225 0.516760 0.419791
O O13 0.732330 0.504233 0.265295
O O14 0.161996 0.250000 0.505301
O O15 0.190996 0.019773 0.407256
O O16 0.106999 0.995913 0.518049
O O17 0.225578 0.250000 0.320735
O O18 0.488958 0.750000 0.593968
O O19 0.500000 0.000000 0.500000
O O20 0.450256 0.250000 0.047773
O O21 0.500000 0.500000 0.000000
#
# Coordination Sequence:
#
# PCOD9464985 Si02
#       8
#     8   8   8   8   8   8   8   8
#     4  10  20  37  61  90 126 165 207 257 313 370
#     4  10  21  38  59  87 125 167 205 253 312 367
#     4  11  23  42  66  95 129 170 214 265 322 380
#     4  11  23  40  62  93 128 167 209 256 313 370
#     4  10  23  44  66  92 129 167 207 261 318 374
#     4  11  23  39  62  93 127 167 210 256 312 373
#     4  11  22  38  60  91 129 170 213 260 315 374
#     4  12  27  47  71  97 123 163 213 266 320 378
#
# _framework density 19.43272
#
# number of rings (size 3 to 8) (size 9 to 14) (size 15 to 20)
#    0.000    1.250    2.500    3.375    0.000    8.000 
#    0.000    1.250    0.000    0.000    0.000    0.000 
#    0.000    0.000    0.000    0.000    0.000    0.000 
#
# Total GULP energy -357646.494631 kJ/mol
# GULP energy per Si atom -5588.226479 kJ/mol
# Density = 1.938849 g / cm^3
# Si number density = 19.432720 Si / 1000 Ang^3
#
#
#
# Elastic Constant Matrix: (Units=GPa)
#
#
# Indices 1 2 3 4 5 6 
#
# 1 135.3536 57.2964 78.8649 0.0000 0.0000 0.0000
# 2 57.2964 66.7785 51.1804 0.0000 0.0000 0.0000
# 3 78.8649 51.1804 136.1309 0.0000 0.0000 0.0000
# 4 0.0000 0.0000 0.0000 36.7470 0.0000 0.0000
# 5 0.0000 0.0000 0.0000 0.0000 32.5668 0.0000
# 6 0.0000 0.0000 0.0000 0.0000 0.0000 35.4677
#
#
#
# Elastic Compliance Matrix: (Units=1/GPa)
#
#
# Indices 1 2 3 4 5 6 
#
# 1 0.013589 -0.007903 -0.004901 0.000000 0.000000 0.000000
# 2 -0.007903 0.025633 -0.005058 0.000000 0.000000 0.000000
# 3 -0.004901 -0.005058 0.012087 0.000000 0.000000 0.000000
# 4 0.000000 0.000000 0.000000 0.027213 0.000000 0.000000
# 5 0.000000 0.000000 0.000000 0.000000 0.030706 0.000000
# 6 0.000000 0.000000 0.000000 0.000000 0.000000 0.028195
#
#
# Mechanical properties :
#
#
# Convention : Reuss Voigt Hill
#
# Bulk Modulus (GPa) = 64.17160 79.21626 71.69393
# Shear Modulus (GPa) = 28.03569 31.01771 29.52670
#
# Velocity S-wave (km/s) = 3.80242 3.99953 3.90222
# Velocity P-wave (km/s) = 7.23685 7.88551 7.56813
#
# Compressibility (1/GPa) = 0.01558322
#
# Stress axis : x y z
#
# Youngs Moduli (GPa) = 73.58654 39.01246 82.73207
#
# Poissons Ratio (x) = 0.30833 0.40551
# Poissons Ratio (y) = 0.58157 0.41849
# Poissons Ratio (z) = 0.36068 0.19734
#
# Static dielectric constant tensor:
#      x y z
#    x 1.669720 0.000000 0.000000 
#    y 0.000000 1.656020 0.000000 
#    z 0.000000 0.000000 1.735170 
# 
# From -- ./inp_files/20855.got.cif
#   From: 2010.05.17/outbox.cif.g08.bks.cpg/sg62_11_cif.got.tgz:20855.got - 2010.06.03 15:25:27.
