data_PCOD9464028
_publ_section_title
;
Structure prediction by ZEFSAII (Michael W. Deem and Ramdas Pophale) SiO2 
 PCOD9464028
Probable space group: P N M A
;
_chemical_formula_sum "Si O2"
_cell_formula_units_Z 56
_cell_length_a 16.382339
_cell_length_b 10.562511
_cell_length_c 14.601430
_cell_angle_alpha 90.000000
_cell_angle_beta 90.000000
_cell_angle_gamma 90.000000
_cell_volume 2526.611529
_symmetry_space_group_name_H-M "P N M A"
_symmetry_group_IT_number 62
_symmetry_cell_setting 'orthorhombic'
loop_
_space_group_symop_operation_xyz
x,y,z
1/2-x,-y,1/2+z
1/2+x,1/2-y,1/2-z
-x,1/2+y,-z
-x,-y,-z
1/2+x,y,1/2-z
1/2-x,1/2+y,1/2+z
x,1/2-y,z
loop_
_atom_site_type_symbol
_atom_site_label
_atom_site_fract_x
_atom_site_fract_y
_atom_site_fract_z
Si Si1 0.658290 0.605972 0.308461
Si Si2 0.809610 0.888658 0.490278
Si Si3 0.787193 0.390338 0.270993
Si Si4 0.976039 0.893426 0.128958
Si Si5 0.857390 0.105609 0.067719
Si Si6 0.077942 0.044894 0.665702
Si Si7 0.403816 0.395445 0.901491
O O1 0.687116 0.750000 0.328459
O O2 0.723685 0.493525 0.306657
O O3 0.573124 0.583671 0.362662
O O4 0.630769 0.609534 0.201356
O O5 0.821610 0.750000 0.535758
O O6 0.712215 0.910102 0.490999
O O7 0.855505 0.882344 0.393952
O O8 0.850360 0.007273 0.540743
O O9 0.756674 0.250000 0.288804
O O10 0.805788 0.405703 0.162860
O O11 0.876043 0.412771 0.316566
O O12 0.962508 0.750000 0.095434
O O13 0.941886 0.900545 0.233812
O O14 0.926829 0.000055 0.073908
O O15 0.889391 0.250000 0.063648
O O16 0.994865 0.049364 0.609284
O O17 0.406134 0.250000 0.936211
#
# Coordination Sequence:
#
# PCOD9464028 Si02
#       7
#     8   8   8   8   8   8   8
#     4   9  18  32  53  78 103 132 171 216 261 307
#     4  11  21  34  52  76 109 146 176 211 258 313
#     4  10  20  35  53  76 105 136 175 217 260 309
#     4   9  18  34  54  77 101 133 176 216 256 306
#     4   9  19  33  49  73 103 135 172 210 255 307
#     4  10  21  34  51  76 108 140 176 212 255 307
#     4  10  20  34  51  77 108 141 178 213 252 309
#
# _framework density 22.164072000000001
#
# number of rings (size 3 to 8) (size 9 to 14) (size 15 to 20)
#    0.000    2.286    1.429    2.571    0.000    5.714 
#    0.000    2.857    0.000    0.857    0.000    0.000 
#    0.000    0.000    0.000    0.000    0.000    0.000 
#
# Total GULP energy -312728.053389 kJ/mol
# GULP energy per Si atom -5584.429525 kJ/mol
# Density = 2.211363 g / cm^3
# Si number density = 22.164072 Si / 1000 Ang^3
#
#
#
# Elastic Constant Matrix: (Units=GPa)
#
#
# Indices 1 2 3 4 5 6 
#
# 1 152.2522 114.5367 35.7785 0.0000 0.0000 0.0000
# 2 114.5367 165.5151 45.1017 0.0000 0.0000 0.0000
# 3 35.7785 45.1017 65.0590 0.0000 0.0000 0.0000
# 4 0.0000 0.0000 0.0000 19.8696 0.0000 0.0000
# 5 0.0000 0.0000 0.0000 0.0000 40.6292 0.0000
# 6 0.0000 0.0000 0.0000 0.0000 0.0000 35.1202
#
#
#
# Elastic Compliance Matrix: (Units=1/GPa)
#
#
# Indices 1 2 3 4 5 6 
#
# 1 0.013775 -0.009207 -0.001192 0.000000 0.000000 0.000000
# 2 -0.009207 0.013603 -0.004367 0.000000 0.000000 0.000000
# 3 -0.001192 -0.004367 0.019054 0.000000 0.000000 0.000000
# 4 0.000000 0.000000 0.000000 0.050328 0.000000 0.000000
# 5 0.000000 0.000000 0.000000 0.000000 0.024613 0.000000
# 6 0.000000 0.000000 0.000000 0.000000 0.000000 0.028474
#
#
# Mechanical properties :
#
#
# Convention : Reuss Voigt Hill
#
# Bulk Modulus (GPa) = 59.17662 85.96221 72.56942
# Shear Modulus (GPa) = 27.02533 31.61777 29.32155
#
# Velocity S-wave (km/s) = 3.49568 3.78104 3.64116
# Velocity P-wave (km/s) = 6.56128 7.61120 7.10566
#
# Compressibility (1/GPa) = 0.01689857
#
# Stress axis : x y z
#
# Youngs Moduli (GPa) = 72.59721 73.51302 52.48323
#
# Poissons Ratio (x) = 0.67684 0.06258
# Poissons Ratio (y) = 0.66841 0.22919
# Poissons Ratio (z) = 0.08657 0.32102
#
# Static dielectric constant tensor:
#      x y z
#    x 1.804530 0.000000 0.000000 
#    y 0.000000 1.775380 0.000000 
#    z 0.000000 0.000000 1.896900 
# 
# From -- ./inp_files/18998.got.cif
#   From: 2010.05.17/outbox.cif.g08.bks.cpg/sg62_10_cif.got.tgz:18998.got - 2010.06.03 15:25:27.
