data_PCOD9464616
_publ_section_title
;
Structure prediction by ZEFSAII (Michael W. Deem and Ramdas Pophale) SiO2 
 PCOD9464616
Probable space group: P N M A
;
_chemical_formula_sum "Si O2"
_cell_formula_units_Z 56
_cell_length_a 14.000030
_cell_length_b 15.084324
_cell_length_c 13.198085
_cell_angle_alpha 90.000000
_cell_angle_beta 90.000000
_cell_angle_gamma 90.000000
_cell_volume 2787.184637
_symmetry_space_group_name_H-M "P N M A"
_symmetry_group_IT_number 62
_symmetry_cell_setting 'orthorhombic'
loop_
_space_group_symop_operation_xyz
x,y,z
1/2-x,-y,1/2+z
1/2+x,1/2-y,1/2-z
-x,1/2+y,-z
-x,-y,-z
1/2+x,y,1/2-z
1/2-x,1/2+y,1/2+z
x,1/2-y,z
loop_
_atom_site_type_symbol
_atom_site_label
_atom_site_fract_x
_atom_site_fract_y
_atom_site_fract_z
Si Si1 0.108171 0.417848 0.122741
Si Si2 0.487918 0.648293 0.810366
Si Si3 0.614995 0.151987 0.595626
Si Si4 0.783422 0.649554 0.293394
Si Si5 0.676533 0.958041 0.880366
Si Si6 0.931070 0.106536 0.786319
Si Si7 0.913477 0.011055 0.578849
O O1 0.221281 0.416972 0.148907
O O2 0.071528 0.513459 0.155743
O O3 0.045501 0.353781 0.193476
O O4 0.098720 0.405605 0.003171
O O5 0.492722 0.750000 0.846017
O O6 0.588687 0.596970 0.830840
O O7 0.410066 0.585390 0.867631
O O8 0.635151 0.250000 0.555169
O O9 0.697646 0.129002 0.674978
O O10 0.522728 0.153526 0.668659
O O11 0.820213 0.750000 0.315634
O O12 0.824852 0.562555 0.349413
O O13 0.670003 0.650665 0.309386
O O14 0.668932 0.958541 0.002719
O O15 0.934845 0.081358 0.667386
O O16 0.000000 0.000000 0.500000
#
# Coordination Sequence:
#
# PCOD9464616 Si02
#       7
#     8   8   8   8   8   8   8
#     4  10  21  37  59  82 112 154 199 240 287 348
#     4  10  21  37  58  86 120 156 198 246 294 347
#     4  11  21  34  55  82 112 145 186 237 289 346
#     4  10  21  36  56  84 115 150 194 241 293 352
#     4  10  21  39  62  86 119 158 196 243 296 347
#     4  10  20  36  56  79 112 149 187 239 296 348
#     4   9  18  35  56  79 109 148 190 234 289 346
#
# _framework density 20.09196
#
# number of rings (size 3 to 8) (size 9 to 14) (size 15 to 20)
#    0.000    2.000    0.000    4.714    0.000    1.714 
#    0.000   11.429    0.000    3.429    0.000    0.000 
#    0.000    0.000    0.000    0.000    0.000    0.000 
#
# Total GULP energy -311955.865046 kJ/mol
# GULP energy per Si atom -5570.640447 kJ/mol
# Density = 2.004623 g / cm^3
# Si number density = 20.091960 Si / 1000 Ang^3
#
#
#
# Elastic Constant Matrix: (Units=GPa)
#
#
# Indices 1 2 3 4 5 6 
#
# 1 70.0971 15.6539 13.4866 0.0000 0.0000 0.0000
# 2 15.6539 75.5387 34.6455 0.0000 0.0000 0.0000
# 3 13.4866 34.6455 103.1141 0.0000 0.0000 0.0000
# 4 0.0000 0.0000 0.0000 6.7328 0.0000 0.0000
# 5 0.0000 0.0000 0.0000 0.0000 31.6838 0.0000
# 6 0.0000 0.0000 0.0000 0.0000 0.0000 7.9704
#
#
#
# Elastic Compliance Matrix: (Units=1/GPa)
#
#
# Indices 1 2 3 4 5 6 
#
# 1 0.015061 -0.002622 -0.001089 0.000000 0.000000 0.000000
# 2 -0.002622 0.016106 -0.005069 0.000000 0.000000 0.000000
# 3 -0.001089 -0.005069 0.011543 0.000000 0.000000 0.000000
# 4 0.000000 0.000000 0.000000 0.148526 0.000000 0.000000
# 5 0.000000 0.000000 0.000000 0.000000 0.031562 0.000000
# 6 0.000000 0.000000 0.000000 0.000000 0.000000 0.125465
#
#
# Mechanical properties :
#
#
# Convention : Reuss Voigt Hill
#
# Bulk Modulus (GPa) = 39.75826 41.81355 40.78590
# Shear Modulus (GPa) = 13.36162 21.60833 17.48497
#
# Velocity S-wave (km/s) = 2.58160 3.28300 2.95320
# Velocity P-wave (km/s) = 5.35885 5.93523 5.65439
#
# Compressibility (1/GPa) = 0.02515201
#
# Stress axis : x y z
#
# Youngs Moduli (GPa) = 66.39709 62.08768 86.62908
#
# Poissons Ratio (x) = 0.16277 0.09434
# Poissons Ratio (y) = 0.17407 0.43910
# Poissons Ratio (z) = 0.07231 0.31470
#
# Static dielectric constant tensor:
#      x y z
#    x 1.757960 0.000000 0.000000 
#    y 0.000000 1.748570 0.000000 
#    z 0.000000 0.000000 1.737400 
# 
# From -- ./inp_files/13397.got.cif
#   From: 2010.05.17/outbox.cif.g08.bks.cpg/sg62_7_cif.got.tgz:13397.got - 2010.06.03 15:25:27.
