data_PCOD9464192
_publ_section_title
;
Structure prediction by ZEFSAII (Michael W. Deem and Ramdas Pophale) SiO2 
 PCOD9464192
Probable space group: P N M A
;
_chemical_formula_sum "Si O2"
_cell_formula_units_Z 48
_cell_length_a 8.836461
_cell_length_b 29.161608
_cell_length_c 8.020121
_cell_angle_alpha 90.000000
_cell_angle_beta 90.000000
_cell_angle_gamma 90.000000
_cell_volume 2066.668182
_symmetry_space_group_name_H-M "P N M A"
_symmetry_group_IT_number 62
_symmetry_cell_setting 'orthorhombic'
loop_
_space_group_symop_operation_xyz
x,y,z
1/2-x,-y,1/2+z
1/2+x,1/2-y,1/2-z
-x,1/2+y,-z
-x,-y,-z
1/2+x,y,1/2-z
1/2-x,1/2+y,1/2+z
x,1/2-y,z
loop_
_atom_site_type_symbol
_atom_site_label
_atom_site_fract_x
_atom_site_fract_y
_atom_site_fract_z
Si Si1 0.757175 0.007893 0.983901
Si Si2 0.505205 0.062680 0.335241
Si Si3 0.854831 0.840945 0.818789
Si Si4 0.466351 0.159898 0.999754
Si Si5 0.131370 0.750000 0.310470
Si Si6 0.978966 0.061447 0.565759
Si Si7 0.551868 0.250000 0.505899
O O1 0.875184 0.975458 0.891250
O O2 0.661783 0.971559 0.094549
O O3 0.628753 0.034796 0.879400
O O4 0.848743 0.046906 0.082393
O O5 0.566178 0.112634 0.385077
O O6 0.488872 0.063695 0.136357
O O7 0.680376 0.842462 0.876867
O O8 0.887756 0.839495 0.620659
O O9 0.928426 0.795361 0.895816
O O10 0.466968 0.114225 0.885713
O O11 0.444349 0.205040 0.891447
O O12 0.306207 0.750000 0.365369
O O13 0.099308 0.750000 0.114583
#
# Coordination Sequence:
#
# PCOD9464192 Si02
#       7
#     8   8   8   8   4   8   4
#     4  10  20  34  56  82 118 152 186 244 290 348
#     4  10  20  36  57  84 116 152 199 241 295 337
#     4  10  21  38  65  92 118 152 204 250 292 350
#     4  10  21  38  65  92 118 152 204 250 292 350
#     4  10  23  44  62  88 126 158 191 242 304 364
#     4  10  20  36  57  84 116 152 199 241 295 337
#     4  10  23  44  62  88 126 158 191 242 304 364
#
# _framework density 23.225788999999999
#
# number of rings (size 3 to 8) (size 9 to 14) (size 15 to 20)
#    0.000    2.000    1.667    1.500    7.000    1.333 
#    0.000   10.000    0.000    0.000    0.000    0.000 
#    0.000    0.000    0.000    0.000    0.000    0.000 
#
# Total GULP energy -268538.549566 kJ/mol
# GULP energy per Si atom -5594.553116 kJ/mol
# Density = 2.317293 g / cm^3
# Si number density = 23.225789 Si / 1000 Ang^3
#
#
#
# Elastic Constant Matrix: (Units=GPa)
#
#
# Indices 1 2 3 4 5 6 
#
# 1 73.7715 22.4088 15.5335 0.0000 0.0000 0.0000
# 2 22.4088 168.4973 18.9732 0.0000 0.0000 0.0000
# 3 15.5335 18.9732 24.8742 0.0000 0.0000 0.0000
# 4 0.0000 0.0000 0.0000 19.3531 0.0000 0.0000
# 5 0.0000 0.0000 0.0000 0.0000 31.3168 0.0000
# 6 0.0000 0.0000 0.0000 0.0000 0.0000 35.1606
#
#
#
# Elastic Compliance Matrix: (Units=1/GPa)
#
#
# Indices 1 2 3 4 5 6 
#
# 1 0.015786 -0.001082 -0.009033 0.000000 0.000000 0.000000
# 2 -0.001082 0.006567 -0.004333 0.000000 0.000000 0.000000
# 3 -0.009033 -0.004333 0.049148 0.000000 0.000000 0.000000
# 4 0.000000 0.000000 0.000000 0.051671 0.000000 0.000000
# 5 0.000000 0.000000 0.000000 0.000000 0.031932 0.000000
# 6 0.000000 0.000000 0.000000 0.000000 0.000000 0.028441
#
#
# Mechanical properties :
#
#
# Convention : Reuss Voigt Hill
#
# Bulk Modulus (GPa) = 23.47134 42.33044 32.90089
# Shear Modulus (GPa) = 22.06122 31.18127 26.62125
#
# Velocity S-wave (km/s) = 3.08532 3.66803 3.38922
# Velocity P-wave (km/s) = 4.77702 6.01701 5.43251
#
# Compressibility (1/GPa) = 0.04260514
#
# Stress axis : x y z
#
# Youngs Moduli (GPa) = 63.34712 152.28459 20.34670
#
# Poissons Ratio (x) = 0.16482 0.18378
# Poissons Ratio (y) = 0.06856 0.08816
# Poissons Ratio (z) = 0.57218 0.65984
#
# Static dielectric constant tensor:
#      x y z
#    x 1.875390 0.000000 0.000000 
#    y 0.000000 1.864400 0.000000 
#    z 0.000000 0.000000 1.871520 
# 
# From -- ./inp_files/4551.got.cif
#   From: 2010.05.17/outbox.cif.g08.bks.cpg/sg62_3_cif.got.tgz:4551.got - 2010.06.03 15:25:27.
