data_PCOD9464633
_publ_section_title
;
Structure prediction by ZEFSAII (Michael W. Deem and Ramdas Pophale) SiO2 
 PCOD9464633
Probable space group: P N M A
;
_chemical_formula_sum "Si O2"
_cell_formula_units_Z 48
_cell_length_a 7.773762
_cell_length_b 28.433432
_cell_length_c 8.756033
_cell_angle_alpha 90.000000
_cell_angle_beta 90.000000
_cell_angle_gamma 90.000000
_cell_volume 1935.387418
_symmetry_space_group_name_H-M "P N M A"
_symmetry_group_IT_number 62
_symmetry_cell_setting 'orthorhombic'
loop_
_space_group_symop_operation_xyz
x,y,z
1/2-x,-y,1/2+z
1/2+x,1/2-y,1/2-z
-x,1/2+y,-z
-x,-y,-z
1/2+x,y,1/2-z
1/2-x,1/2+y,1/2+z
x,1/2-y,z
loop_
_atom_site_type_symbol
_atom_site_label
_atom_site_fract_x
_atom_site_fract_y
_atom_site_fract_z
Si Si1 0.363184 0.955780 0.422046
Si Si2 0.913727 0.301031 0.504000
Si Si3 0.566400 0.104625 0.067877
Si Si4 0.912089 0.398841 0.748832
Si Si5 0.712746 0.549540 0.760056
Si Si6 0.962447 0.697787 0.163730
O O1 0.549322 0.941035 0.362668
O O2 0.348878 0.956838 0.602297
O O3 0.246080 0.912500 0.360067
O O4 0.301567 0.003119 0.341362
O O5 0.915940 0.250000 0.427313
O O6 0.976614 0.344949 0.405417
O O7 0.722451 0.307411 0.579799
O O8 0.041478 0.298946 0.650970
O O9 0.453616 0.062428 0.139004
O O10 0.742388 0.094468 0.154662
O O11 0.560645 0.100326 0.885081
O O12 0.925561 0.350154 0.843476
O O13 0.030426 0.750000 0.116282
#
# Coordination Sequence:
#
# PCOD9464633 Si02
#       6
#     8   8   8   8   8   8
#     4  11  23  37  57  83 114 150 194 240 288 343
#     4   9  18  35  59  87 118 150 185 232 285 338
#     4  10  22  39  57  80 115 151 190 236 285 340
#     4  10  20  36  56  84 115 145 184 236 288 338
#     4  11  23  39  57  82 112 152 197 240 289 342
#     4   9  16  30  56  86 114 143 178 222 277 336
#
# _framework density 24.801235999999999
#
# number of rings (size 3 to 8) (size 9 to 14) (size 15 to 20)
#    0.000    2.000    0.000    5.000    0.000    6.667 
#    0.000    4.167    0.000    2.000    0.000    0.000 
#    0.000    0.000    0.000    0.000    0.000    0.000 
#
# Total GULP energy -267730.283410 kJ/mol
# GULP energy per Si atom -5577.714238 kJ/mol
# Density = 2.474479 g / cm^3
# Si number density = 24.801236 Si / 1000 Ang^3
#
#
#
# Elastic Constant Matrix: (Units=GPa)
#
#
# Indices 1 2 3 4 5 6 
#
# 1 42.1069 28.9339 14.4772 0.0000 0.0000 0.0000
# 2 28.9339 187.7422 50.7975 0.0000 0.0000 0.0000
# 3 14.4772 50.7975 96.7662 0.0000 0.0000 0.0000
# 4 0.0000 0.0000 0.0000 38.4828 0.0000 0.0000
# 5 0.0000 0.0000 0.0000 0.0000 40.7587 0.0000
# 6 0.0000 0.0000 0.0000 0.0000 0.0000 39.8431
#
#
#
# Elastic Compliance Matrix: (Units=1/GPa)
#
#
# Indices 1 2 3 4 5 6 
#
# 1 0.026943 -0.003569 -0.002158 0.000000 0.000000 0.000000
# 2 -0.003569 0.006681 -0.002973 0.000000 0.000000 0.000000
# 3 -0.002158 -0.002973 0.012218 0.000000 0.000000 0.000000
# 4 0.000000 0.000000 0.000000 0.025986 0.000000 0.000000
# 5 0.000000 0.000000 0.000000 0.000000 0.024535 0.000000
# 6 0.000000 0.000000 0.000000 0.000000 0.000000 0.025098
#
#
# Mechanical properties :
#
#
# Convention : Reuss Voigt Hill
#
# Bulk Modulus (GPa) = 35.15817 57.22583 46.19200
# Shear Modulus (GPa) = 33.70629 39.31070 36.50850
#
# Velocity S-wave (km/s) = 3.69054 3.98556 3.84088
# Velocity P-wave (km/s) = 5.68919 6.65609 6.19154
#
# Compressibility (1/GPa) = 0.02844289
#
# Stress axis : x y z
#
# Youngs Moduli (GPa) = 37.11533 149.68061 81.84778
#
# Poissons Ratio (x) = 0.53414 0.17660
# Poissons Ratio (y) = 0.13245 0.24335
# Poissons Ratio (z) = 0.08008 0.44504
#
# Static dielectric constant tensor:
#      x y z
#    x 2.185760 0.000000 0.000000 
#    y 0.000000 1.996990 0.000000 
#    z 0.000000 0.000000 1.920060 
# 
# From -- ./inp_files/4534.got.cif
#   From: 2010.05.17/outbox.cif.g08.bks.cpg/sg62_3_cif.got.tgz:4534.got - 2010.06.03 15:25:27.
