data_PCOD9464169
_publ_section_title
;
Structure prediction by ZEFSAII (Michael W. Deem and Ramdas Pophale) SiO2 
 PCOD9464169
Probable space group: P N M A
;
_chemical_formula_sum "Si O2"
_cell_formula_units_Z 64
_cell_length_a 28.615712
_cell_length_b 9.586105
_cell_length_c 11.536214
_cell_angle_alpha 90.000000
_cell_angle_beta 90.000000
_cell_angle_gamma 90.000000
_cell_volume 3164.536008
_symmetry_space_group_name_H-M "P N M A"
_symmetry_group_IT_number 62
_symmetry_cell_setting 'orthorhombic'
loop_
_space_group_symop_operation_xyz
x,y,z
1/2-x,-y,1/2+z
1/2+x,1/2-y,1/2-z
-x,1/2+y,-z
-x,-y,-z
1/2+x,y,1/2-z
1/2-x,1/2+y,1/2+z
x,1/2-y,z
loop_
_atom_site_type_symbol
_atom_site_label
_atom_site_fract_x
_atom_site_fract_y
_atom_site_fract_z
Si Si1 0.430622 0.906973 0.062895
Si Si2 0.320897 0.090712 0.555549
Si Si3 0.658062 0.591574 0.180463
Si Si4 0.731806 0.585635 0.975454
Si Si5 0.094394 0.915899 0.907746
Si Si6 0.148462 0.915652 0.669762
Si Si7 0.934302 0.586439 0.695278
Si Si8 0.487564 0.588316 0.303444
O O1 0.410446 0.750000 0.060629
O O2 0.463431 0.913813 0.175479
O O3 0.389065 0.014687 0.084648
O O4 0.453748 0.926653 0.937308
O O5 0.315202 0.250000 0.513338
O O6 0.318499 0.088901 0.693692
O O7 0.373132 0.048614 0.516783
O O8 0.279414 0.996748 0.508839
O O9 0.638944 0.750000 0.162814
O O10 0.696616 0.566206 0.082807
O O11 0.616900 0.479484 0.184222
O O12 0.742062 0.750000 0.964047
O O13 0.700635 0.538532 0.864309
O O14 0.082646 0.750000 0.908429
O O15 0.129084 0.942736 0.798117
O O16 0.048551 0.008291 0.887364
O O17 0.147317 0.750000 0.651857
O O18 0.933992 0.750000 0.725059
O O19 0.965179 0.497650 0.784221
O O20 0.495022 0.750000 0.336163
#
# Coordination Sequence:
#
# PCOD9464169 Si02
#       8
#     8   8   8   8   8   8   8   8
#     4   9  18  31  49  79 115 147 182 224 274 329
#     4  10  23  40  60  82 110 149 190 234 281 332
#     4  10  22  41  59  82 115 150 189 233 283 335
#     4  10  21  36  57  84 113 145 183 229 283 340
#     4   9  19  37  57  80 111 146 189 235 278 329
#     4   9  17  31  53  79 108 144 179 221 276 328
#     4  11  21  34  55  84 115 151 191 235 283 335
#     4  10  20  34  55  83 115 152 189 231 284 340
#
# _framework density 20.224133999999999
#
# number of rings (size 3 to 8) (size 9 to 14) (size 15 to 20)
#    0.000    2.250    1.250    1.125    1.750    3.000 
#    0.000    0.625    0.000    0.000    0.000    0.000 
#    0.000    0.000    0.000    0.000    0.000    0.000 
#
# Total GULP energy -357170.214972 kJ/mol
# GULP energy per Si atom -5580.784609 kJ/mol
# Density = 2.017810 g / cm^3
# Si number density = 20.224134 Si / 1000 Ang^3
#
#
#
# Elastic Constant Matrix: (Units=GPa)
#
#
# Indices 1 2 3 4 5 6 
#
# 1 63.0691 47.3054 -0.9209 0.0000 0.0000 0.0000
# 2 47.3054 74.4038 7.9641 0.0000 0.0000 0.0000
# 3 -0.9209 7.9641 28.5896 0.0000 0.0000 0.0000
# 4 0.0000 0.0000 0.0000 14.4054 0.0000 0.0000
# 5 0.0000 0.0000 0.0000 0.0000 17.2670 0.0000
# 6 0.0000 0.0000 0.0000 0.0000 0.0000 36.8858
#
#
#
# Elastic Compliance Matrix: (Units=1/GPa)
#
#
# Indices 1 2 3 4 5 6 
#
# 1 0.031544 -0.020784 0.006806 0.000000 0.000000 0.000000
# 2 -0.020784 0.027548 -0.008343 0.000000 0.000000 0.000000
# 3 0.006806 -0.008343 0.037521 0.000000 0.000000 0.000000
# 4 0.000000 0.000000 0.000000 0.069418 0.000000 0.000000
# 5 0.000000 0.000000 0.000000 0.000000 0.057914 0.000000
# 6 0.000000 0.000000 0.000000 0.000000 0.000000 0.027111
#
#
# Mechanical properties :
#
#
# Convention : Reuss Voigt Hill
#
# Bulk Modulus (GPa) = 19.24194 30.52886 24.88540
# Shear Modulus (GPa) = 15.97330 21.15924 18.56627
#
# Velocity S-wave (km/s) = 2.81341 3.23807 3.03318
# Velocity P-wave (km/s) = 4.48204 5.39520 4.95968
#
# Compressibility (1/GPa) = 0.05196981
#
# Stress axis : x y z
#
# Youngs Moduli (GPa) = 31.70150 36.30079 26.65163
#
# Poissons Ratio (x) = 0.75448 -0.18139
# Poissons Ratio (y) = 0.65889 0.22236
# Poissons Ratio (z) = -0.21575 0.30287
#
# Static dielectric constant tensor:
#      x y z
#    x 1.690750 0.000000 0.000000 
#    y 0.000000 1.691260 0.000000 
#    z 0.000000 0.000000 1.761770 
# 
# From -- ./inp_files/15881.got.cif
#   From: 2010.05.17/outbox.cif.g08.bks.cpg/sg62_8_cif.got.tgz:15881.got - 2010.06.03 15:25:27.
