data_PCOD9464553
_publ_section_title
;
Structure prediction by ZEFSAII (Michael W. Deem and Ramdas Pophale) SiO2 
 PCOD9464553
Probable space group: P N M A
;
_chemical_formula_sum "Si O2"
_cell_formula_units_Z 40
_cell_length_a 26.924684
_cell_length_b 10.235710
_cell_length_c 5.684935
_cell_angle_alpha 90.000000
_cell_angle_beta 90.000000
_cell_angle_gamma 90.000000
_cell_volume 1566.729754
_symmetry_space_group_name_H-M "P N M A"
_symmetry_group_IT_number 62
_symmetry_cell_setting 'orthorhombic'
loop_
_space_group_symop_operation_xyz
x,y,z
1/2-x,-y,1/2+z
1/2+x,1/2-y,1/2-z
-x,1/2+y,-z
-x,-y,-z
1/2+x,y,1/2-z
1/2-x,1/2+y,1/2+z
x,1/2-y,z
loop_
_atom_site_type_symbol
_atom_site_label
_atom_site_fract_x
_atom_site_fract_y
_atom_site_fract_z
Si Si1 0.684111 0.931281 0.196146
Si Si2 0.216483 0.951844 0.799610
Si Si3 0.021032 0.100322 0.813575
Si Si4 0.073306 0.512542 0.421126
Si Si5 0.329081 0.750000 0.272408
Si Si6 0.609497 0.250000 0.234631
O O1 0.723539 0.052958 0.198267
O O2 0.694484 0.890467 0.463819
O O3 0.625439 0.932471 0.161856
O O4 0.699960 0.883459 0.938661
O O5 0.199775 0.108061 0.784367
O O6 0.030164 0.250000 0.872414
O O7 0.068639 0.033282 0.691261
O O8 0.974565 0.099024 0.629549
O O9 0.000000 0.000000 0.000000
O O10 0.074630 0.375694 0.282929
O O11 0.360169 0.750000 0.520478
O O12 0.358366 0.750000 0.015717
#
# Coordination Sequence:
#
# PCOD9464553 Si02
#       6
#     8   8   8   8   4   4
#     4  10  21  38  61  93 134 182 224 292 347 426
#     4  10  20  35  59  94 136 178 228 282 348 415
#     4  11  28  47  74 105 143 188 248 317 385 452
#     4  11  24  44  71 100 141 185 244 303 370 441
#     4  12  20  36  62 103 140 185 240 294 348 432
#     4  12  24  36  74 109 134 185 248 296 362 424
#
# _framework density 25.530888000000001
#
# number of rings (size 3 to 8) (size 9 to 14) (size 15 to 20)
#    0.000    1.200    5.000    0.000    7.000    0.800 
#    1.800    0.000    0.000    0.000    0.000    0.000 
#    0.000    0.000    0.000    0.000    0.000    0.000 
#
# Total GULP energy -222722.758660 kJ/mol
# GULP energy per Si atom -5568.068966 kJ/mol
# Density = 2.547278 g / cm^3
# Si number density = 25.530888 Si / 1000 Ang^3
#
#
#
# Elastic Constant Matrix: (Units=GPa)
#
#
# Indices 1 2 3 4 5 6 
#
# 1 94.1511 -1.3767 31.1196 0.0000 0.0000 0.0000
# 2 -1.3767 117.1409 41.5778 0.0000 0.0000 0.0000
# 3 31.1196 41.5778 216.9455 0.0000 0.0000 0.0000
# 4 0.0000 0.0000 0.0000 -13.9551 0.0000 0.0000
# 5 0.0000 0.0000 0.0000 0.0000 66.1222 0.0000
# 6 0.0000 0.0000 0.0000 0.0000 0.0000 7.0643
#
#
#
# Elastic Compliance Matrix: (Units=1/GPa)
#
#
# Indices 1 2 3 4 5 6 
#
# 1 0.011212 0.000754 -0.001753 0.000000 0.000000 0.000000
# 2 0.000754 0.009211 -0.001873 0.000000 0.000000 0.000000
# 3 -0.001753 -0.001873 0.005220 0.000000 0.000000 0.000000
# 4 0.000000 0.000000 0.000000 -0.071658 0.000000 0.000000
# 5 0.000000 0.000000 0.000000 0.000000 0.015124 0.000000
# 6 0.000000 0.000000 0.000000 0.000000 0.000000 0.141556
#
#
# Mechanical properties :
#
#
# Convention : Reuss Voigt Hill
#
# Bulk Modulus (GPa) = 50.25728 63.43098 56.84413
# Shear Modulus (GPa) = 40.63710 35.64073 38.13892
#
# Velocity S-wave (km/s) = 3.99392 3.74034 3.86921
# Velocity P-wave (km/s) = 6.40282 6.59941 6.50186
#
# Compressibility (1/GPa) = 0.01989761
#
# Stress axis : x y z
#
# Youngs Moduli (GPa) = 89.19353 108.57159 191.57456
#
# Poissons Ratio (x) = -0.08185 0.33578
# Poissons Ratio (y) = -0.06724 0.35888
# Poissons Ratio (z) = 0.15633 0.20339
#
# Static dielectric constant tensor:
#      x y z
#    x 2.030470 0.000000 0.000000 
#    y 0.000000 2.008440 0.000000 
#    z 0.000000 0.000000 2.164550 
# 
# From -- ./inp_files/3079.got.cif
#   From: 2010.05.17/outbox.cif.g08.bks.cpg/sg62_2_cif.got.tgz:3079.got - 2010.06.03 15:25:27.
