data_PCOD9464210
_publ_section_title
;
Structure prediction by ZEFSAII (Michael W. Deem and Ramdas Pophale) SiO2 
 PCOD9464210
Probable space group: P N M A
;
_chemical_formula_sum "Si O2"
_cell_formula_units_Z 40
_cell_length_a 24.917182
_cell_length_b 13.100969
_cell_length_c 5.533682
_cell_angle_alpha 90.000000
_cell_angle_beta 90.000000
_cell_angle_gamma 90.000000
_cell_volume 1806.410885
_symmetry_space_group_name_H-M "P N M A"
_symmetry_group_IT_number 62
_symmetry_cell_setting 'orthorhombic'
loop_
_space_group_symop_operation_xyz
x,y,z
1/2-x,-y,1/2+z
1/2+x,1/2-y,1/2-z
-x,1/2+y,-z
-x,-y,-z
1/2+x,y,1/2-z
1/2-x,1/2+y,1/2+z
x,1/2-y,z
loop_
_atom_site_type_symbol
_atom_site_label
_atom_site_fract_x
_atom_site_fract_y
_atom_site_fract_z
Si Si1 0.542473 0.951345 0.817754
Si Si2 0.682773 0.020572 0.416683
Si Si3 0.603410 0.863633 0.204275
Si Si4 0.211692 0.125790 0.583813
Si Si5 0.515409 0.144738 0.575056
O O1 0.549118 0.045347 0.634301
O O2 0.507532 0.863828 0.693559
O O3 0.500000 0.000000 0.000000
O O4 0.596164 0.909937 0.937052
O O5 0.685426 0.092270 0.174838
O O6 0.733494 0.941851 0.417543
O O7 0.683619 0.085295 0.666487
O O8 0.634196 0.942310 0.370256
O O9 0.626966 0.750000 0.204965
O O10 0.541377 0.855061 0.284380
O O11 0.218229 0.250000 0.591902
O O12 0.544699 0.250000 0.623095
#
# Coordination Sequence:
#
# PCOD9464210 Si02
#       5
#     8   8   8   8   8
#     4   9  18  33  53  76 110 144 181 234 288 351
#     4  10  22  37  63  91 117 154 201 241 286 350
#     4  10  20  34  56  85 111 142 190 247 293 335
#     4  10  21  41  61  85 122 161 193 237 294 349
#     4   9  18  33  54  79 108 146 183 234 294 348
#
# _framework density 22.143357000000002
#
# number of rings (size 3 to 8) (size 9 to 14) (size 15 to 20)
#    0.000    2.400    0.000    1.800    2.800    0.800 
#    0.000    4.000    0.000    3.600    0.000    0.000 
#    0.000    0.000    0.000    0.000    0.000    0.000 
#
# Total GULP energy -222683.808901 kJ/mol
# GULP energy per Si atom -5567.095223 kJ/mol
# Density = 2.209296 g / cm^3
# Si number density = 22.143357 Si / 1000 Ang^3
#
#
#
# Elastic Constant Matrix: (Units=GPa)
#
#
# Indices 1 2 3 4 5 6 
#
# 1 28.2423 27.7764 11.6817 0.0000 0.0000 0.0000
# 2 27.7764 193.1093 51.0017 0.0000 0.0000 0.0000
# 3 11.6817 51.0017 98.4239 0.0000 0.0000 0.0000
# 4 0.0000 0.0000 0.0000 10.7213 0.0000 0.0000
# 5 0.0000 0.0000 0.0000 0.0000 14.7736 0.0000
# 6 0.0000 0.0000 0.0000 0.0000 0.0000 18.7921
#
#
#
# Elastic Compliance Matrix: (Units=1/GPa)
#
#
# Indices 1 2 3 4 5 6 
#
# 1 0.041624 -0.005425 -0.002129 0.000000 0.000000 0.000000
# 2 -0.005425 0.006706 -0.002831 0.000000 0.000000 0.000000
# 3 -0.002129 -0.002831 0.011880 0.000000 0.000000 0.000000
# 4 0.000000 0.000000 0.000000 0.093272 0.000000 0.000000
# 5 0.000000 0.000000 0.000000 0.000000 0.067688 0.000000
# 6 0.000000 0.000000 0.000000 0.000000 0.000000 0.053214
#
#
# Mechanical properties :
#
#
# Convention : Reuss Voigt Hill
#
# Bulk Modulus (GPa) = 25.35516 55.63277 40.49397
# Shear Modulus (GPa) = 16.21786 24.14510 20.18148
#
# Velocity S-wave (km/s) = 2.70923 3.30570 3.02222
# Velocity P-wave (km/s) = 4.61106 6.30465 5.52316
#
# Compressibility (1/GPa) = 0.03943971
#
# Stress axis : x y z
#
# Youngs Moduli (GPa) = 24.02473 149.10965 84.17505
#
# Poissons Ratio (x) = 0.80888 0.17923
# Poissons Ratio (y) = 0.13033 0.23833
# Poissons Ratio (z) = 0.05115 0.42218
#
# Static dielectric constant tensor:
#      x y z
#    x 1.849830 0.000000 0.000000 
#    y 0.000000 1.850370 0.000000 
#    z 0.000000 0.000000 2.190200 
# 
# From -- ./inp_files/3039.got.cif
#   From: 2010.05.17/outbox.cif.g08.bks.cpg/sg62_2_cif.got.tgz:3039.got - 2010.06.03 15:25:27.
