data_PCOD9464809
_publ_section_title
;
Structure prediction by ZEFSAII (Michael W. Deem and Ramdas Pophale) SiO2 
 PCOD9464809
Probable space group: P N M A
;
_chemical_formula_sum "Si O2"
_cell_formula_units_Z 56
_cell_length_a 18.846549
_cell_length_b 9.142843
_cell_length_c 16.492107
_cell_angle_alpha 90.000000
_cell_angle_beta 90.000000
_cell_angle_gamma 90.000000
_cell_volume 2841.772086
_symmetry_space_group_name_H-M "P N M A"
_symmetry_group_IT_number 62
_symmetry_cell_setting 'orthorhombic'
loop_
_space_group_symop_operation_xyz
x,y,z
1/2-x,-y,1/2+z
1/2+x,1/2-y,1/2-z
-x,1/2+y,-z
-x,-y,-z
1/2+x,y,1/2-z
1/2-x,1/2+y,1/2+z
x,1/2-y,z
loop_
_atom_site_type_symbol
_atom_site_label
_atom_site_fract_x
_atom_site_fract_y
_atom_site_fract_z
Si Si1 0.491880 0.924876 0.268638
Si Si2 0.744996 0.421679 0.685851
Si Si3 0.903658 0.077768 0.622374
Si Si4 0.443610 0.425290 0.559294
Si Si5 0.701741 0.578857 0.525731
Si Si6 0.637692 0.420194 0.962693
Si Si7 0.358716 0.423413 0.205806
O O1 0.477502 0.750000 0.270373
O O2 0.535843 0.956724 0.187097
O O3 0.537449 0.962628 0.348109
O O4 0.419430 0.014074 0.264947
O O5 0.732234 0.250000 0.698565
O O6 0.828080 0.443884 0.667433
O O7 0.705609 0.479466 0.605332
O O8 0.715019 0.510952 0.761444
O O9 0.908086 0.250000 0.600951
O O10 0.902723 0.982671 0.541113
O O11 0.500000 0.500000 0.500000
O O12 0.450375 0.250000 0.552058
O O13 0.363863 0.462690 0.531449
O O14 0.693212 0.750000 0.549675
O O15 0.778181 0.567503 0.482674
O O16 0.620389 0.250000 0.949181
O O17 0.624353 0.512856 0.882585
O O18 0.357434 0.250000 0.205602
#
# Coordination Sequence:
#
# PCOD9464809 Si02
#       7
#     8   8   8   8   8   8   8
#     4  10  22  40  61  85 114 155 199 240 294 355
#     4  10  20  36  61  88 118 153 192 239 294 351
#     4   9  20  39  63  88 117 150 193 245 298 353
#     4  10  21  36  57  84 117 154 192 234 285 344
#     4   9  19  36  59  86 117 150 190 238 289 346
#     4  10  21  38  62  87 115 151 195 242 296 352
#     4  12  25  39  57  84 119 155 198 246 292 346
#
# _framework density 19.706015000000001
#
# number of rings (size 3 to 8) (size 9 to 14) (size 15 to 20)
#    0.000    2.000    0.000    3.000    2.000    5.714 
#    0.000    0.000    0.000    0.000    0.000    0.000 
#    0.000    0.000    0.000    0.000    0.000    0.000 
#
# Total GULP energy -312961.361477 kJ/mol
# GULP energy per Si atom -5588.595741 kJ/mol
# Density = 1.966116 g / cm^3
# Si number density = 19.706015 Si / 1000 Ang^3
#
#
#
# Elastic Constant Matrix: (Units=GPa)
#
#
# Indices 1 2 3 4 5 6 
#
# 1 36.2865 24.9216 6.1131 0.0000 0.0000 0.0000
# 2 24.9216 71.1901 33.7212 0.0000 0.0000 0.0000
# 3 6.1131 33.7212 61.4754 0.0000 0.0000 0.0000
# 4 0.0000 0.0000 0.0000 35.8294 0.0000 0.0000
# 5 0.0000 0.0000 0.0000 0.0000 30.2722 0.0000
# 6 0.0000 0.0000 0.0000 0.0000 0.0000 23.8185
#
#
#
# Elastic Compliance Matrix: (Units=1/GPa)
#
#
# Indices 1 2 3 4 5 6 
#
# 1 0.037244 -0.015245 0.004659 0.000000 0.000000 0.000000
# 2 -0.015245 0.025218 -0.012317 0.000000 0.000000 0.000000
# 3 0.004659 -0.012317 0.022560 0.000000 0.000000 0.000000
# 4 0.000000 0.000000 0.000000 0.027910 0.000000 0.000000
# 5 0.000000 0.000000 0.000000 0.000000 0.033034 0.000000
# 6 0.000000 0.000000 0.000000 0.000000 0.000000 0.041984
#
#
# Mechanical properties :
#
#
# Convention : Reuss Voigt Hill
#
# Bulk Modulus (GPa) = 25.50016 33.16263 29.33139
# Shear Modulus (GPa) = 20.25716 24.93044 22.59380
#
# Velocity S-wave (km/s) = 3.20967 3.56071 3.38974
# Velocity P-wave (km/s) = 5.16763 5.81120 5.49884
#
# Compressibility (1/GPa) = 0.03921544
#
# Stress axis : x y z
#
# Youngs Moduli (GPa) = 26.85022 39.65444 44.32699
#
# Poissons Ratio (x) = 0.60452 -0.20651
# Poissons Ratio (y) = 0.40932 0.54597
# Poissons Ratio (z) = -0.12509 0.48842
#
# Static dielectric constant tensor:
#      x y z
#    x 1.705050 0.000000 0.000000 
#    y 0.000000 1.654490 0.000000 
#    z 0.000000 0.000000 1.678020 
# 
# From -- ./inp_files/20199.got.cif
#   From: 2010.05.17/outbox.cif.g08.bks.cpg/sg62_11_cif.got.tgz:20199.got - 2010.06.03 15:25:27.
