data_PCOD9464361
_publ_section_title
;
Structure prediction by ZEFSAII (Michael W. Deem and Ramdas Pophale) SiO2 
 PCOD9464361
Probable space group: P N M A
;
_chemical_formula_sum "Si O2"
_cell_formula_units_Z 64
_cell_length_a 17.509614
_cell_length_b 7.494704
_cell_length_c 22.348813
_cell_angle_alpha 90.000000
_cell_angle_beta 90.000000
_cell_angle_gamma 90.000000
_cell_volume 2932.820742
_symmetry_space_group_name_H-M "P N M A"
_symmetry_group_IT_number 62
_symmetry_cell_setting 'orthorhombic'
loop_
_space_group_symop_operation_xyz
x,y,z
1/2-x,-y,1/2+z
1/2+x,1/2-y,1/2-z
-x,1/2+y,-z
-x,-y,-z
1/2+x,y,1/2-z
1/2-x,1/2+y,1/2+z
x,1/2-y,z
loop_
_atom_site_type_symbol
_atom_site_label
_atom_site_fract_x
_atom_site_fract_y
_atom_site_fract_z
Si Si1 0.468868 0.455615 0.634787
Si Si2 0.395038 0.464673 0.954770
Si Si3 0.822368 0.952154 0.420578
Si Si4 0.282609 0.465349 0.843958
Si Si5 0.527075 0.468040 0.869195
Si Si6 0.633514 0.030819 0.594760
Si Si7 0.915097 0.031442 0.737903
Si Si8 0.656102 0.454595 0.459723
O O1 0.486577 0.250000 0.649270
O O2 0.548954 0.531189 0.611685
O O3 0.435419 0.533215 0.696135
O O4 0.405119 0.457811 0.583691
O O5 0.396855 0.250000 0.962947
O O6 0.332858 0.502152 0.903179
O O7 0.475341 0.523612 0.926151
O O8 0.367127 0.547620 0.016162
O O9 0.805338 0.750000 0.401831
O O10 0.885873 0.029865 0.375686
O O11 0.740962 0.039264 0.432508
O O12 0.278774 0.250000 0.838632
O O13 0.197586 0.528698 0.857919
O O14 0.333524 0.529396 0.788449
O O15 0.528546 0.250000 0.870438
O O16 0.480649 0.519123 0.809934
O O17 0.635509 0.250000 0.594103
O O18 0.655470 0.973445 0.527436
O O19 0.912476 0.250000 0.737781
O O20 0.631403 0.250000 0.463714
#
# Coordination Sequence:
#
# PCOD9464361 Si02
#       8
#     8   8   8   8   8   8   8   8
#     4  10  20  35  55  82 105 125 166 226 271 301
#     4   9  15  28  50  72 103 141 175 205 250 319
#     4  11  20  30  47  77 112 135 169 224 266 298
#     4   8  13  26  50  77 102 134 172 204 241 306
#     4   8  16  29  48  76 106 138 171 210 258 314
#     4   9  17  31  53  79 102 130 174 214 250 307
#     4   8  15  30  51  77 107 134 165 208 260 308
#     4  11  22  37  54  72 101 145 179 208 262 322
#
# _framework density 21.821995999999999
#
# number of rings (size 3 to 8) (size 9 to 14) (size 15 to 20)
#    0.000    2.750    1.250    3.000    0.000    0.000 
#    2.250    1.250    0.000    4.500    0.000    0.000 
#    0.000    0.000    0.000    0.000    0.000    0.000 
#
# Total GULP energy -357148.834209 kJ/mol
# GULP energy per Si atom -5580.450535 kJ/mol
# Density = 2.177233 g / cm^3
# Si number density = 21.821996 Si / 1000 Ang^3
#
#
#
# Elastic Constant Matrix: (Units=GPa)
#
#
# Indices 1 2 3 4 5 6 
#
# 1 181.6121 -0.6014 70.9497 0.0000 0.0000 0.0000
# 2 -0.6014 52.9689 2.0480 0.0000 0.0000 0.0000
# 3 70.9497 2.0480 79.4374 0.0000 0.0000 0.0000
# 4 0.0000 0.0000 0.0000 0.7292 0.0000 0.0000
# 5 0.0000 0.0000 0.0000 0.0000 14.2245 0.0000
# 6 0.0000 0.0000 0.0000 0.0000 0.0000 1.0092
#
#
#
# Elastic Compliance Matrix: (Units=1/GPa)
#
#
# Indices 1 2 3 4 5 6 
#
# 1 0.008465 0.000389 -0.007571 0.000000 0.000000 0.000000
# 2 0.000389 0.018916 -0.000835 0.000000 0.000000 0.000000
# 3 -0.007571 -0.000835 0.019372 0.000000 0.000000 0.000000
# 4 0.000000 0.000000 0.000000 1.371448 0.000000 0.000000
# 5 0.000000 0.000000 0.000000 0.000000 0.070301 0.000000
# 6 0.000000 0.000000 0.000000 0.000000 0.000000 0.990930
#
#
# Mechanical properties :
#
#
# Convention : Reuss Voigt Hill
#
# Bulk Modulus (GPa) = 32.55308 50.97898 41.76603
# Shear Modulus (GPa) = 1.99545 19.30071 10.64808
#
# Velocity S-wave (km/s) = 0.95729 2.97722 2.21136
# Velocity P-wave (km/s) = 4.02142 5.93552 5.06963
#
# Compressibility (1/GPa) = 0.03071906
#
# Stress axis : x y z
#
# Youngs Moduli (GPa) = 118.13167 52.86611 51.62143
#
# Poissons Ratio (x) = -0.02056 0.39081
# Poissons Ratio (y) = -0.04593 0.04310
# Poissons Ratio (z) = 0.89434 0.04414
#
# Static dielectric constant tensor:
#      x y z
#    x 1.788450 0.000000 0.000000 
#    y 0.000000 1.843180 0.000000 
#    z 0.000000 0.000000 1.768060 
# 
# From -- ./inp_files/30063.got.cif
#   From: 2010.05.17/outbox.cif.g08.bks.cpg/sg62_16_cif.got.tgz:30063.got - 2010.06.03 15:25:27.
