data_PCOD9464592
_publ_section_title
;
Structure prediction by ZEFSAII (Michael W. Deem and Ramdas Pophale) SiO2 
 PCOD9464592
Probable space group: P N M A
;
_chemical_formula_sum "Si O2"
_cell_formula_units_Z 40
_cell_length_a 4.921533
_cell_length_b 12.729309
_cell_length_c 30.766226
_cell_angle_alpha 90.000000
_cell_angle_beta 90.000000
_cell_angle_gamma 90.000000
_cell_volume 1927.433737
_symmetry_space_group_name_H-M "P N M A"
_symmetry_group_IT_number 62
_symmetry_cell_setting 'orthorhombic'
loop_
_space_group_symop_operation_xyz
x,y,z
1/2-x,-y,1/2+z
1/2+x,1/2-y,1/2-z
-x,1/2+y,-z
-x,-y,-z
1/2+x,y,1/2-z
1/2-x,1/2+y,1/2+z
x,1/2-y,z
loop_
_atom_site_type_symbol
_atom_site_label
_atom_site_fract_x
_atom_site_fract_y
_atom_site_fract_z
Si Si1 0.332629 0.577510 0.530715
Si Si2 0.706261 0.750000 0.579405
Si Si3 0.728912 0.079593 0.150502
Si Si4 0.392264 0.750000 0.778244
Si Si5 0.748730 0.032463 0.880887
Si Si6 0.953557 0.250000 0.525253
Si Si7 0.949868 0.250000 0.913502
O O1 0.500000 0.500000 0.500000
O O2 0.538717 0.659165 0.552668
O O3 0.210365 0.508712 0.569723
O O4 0.116346 0.648649 0.504366
O O5 0.839185 0.840634 0.611229
O O6 0.680975 0.147194 0.193575
O O7 0.531969 0.980522 0.144419
O O8 0.036607 0.043116 0.143265
O O9 0.705485 0.750000 0.764568
O O10 0.875430 0.147004 0.886401
O O11 0.751586 0.250000 0.566613
O O12 0.254934 0.250000 0.543836
#
# Coordination Sequence:
#
# PCOD9464592 Si02
#       7
#     8   4   8   4   8   4   4
#     4  10  20  36  54  75 111 156 213 271 322 338
#     4   8  20  34  54  78 111 156 196 238 304 368
#     4  10  22  41  62  88 126 157 188 227 312 381
#     4  11  22  40  72 110 132 144 180 236 291 377
#     4  11  23  39  58  81 117 167 207 252 301 364
#     4  11  24  36  51  76 107 149 210 286 315 347
#     4  12  24  38  55  80 110 153 220 258 294 336
#
# _framework density 20.752983
#
# number of rings (size 3 to 8) (size 9 to 14) (size 15 to 20)
#    0.000    1.600    2.000    2.400    2.800   14.400 
#    0.000    0.000    0.000    0.000    0.000   14.000 
#    0.000    0.000    0.000    0.000    0.000    0.000 
#
# Total GULP energy -222795.331415 kJ/mol
# GULP energy per Si atom -5569.883285 kJ/mol
# Density = 2.070575 g / cm^3
# Si number density = 20.752983 Si / 1000 Ang^3
#
#
#
# Elastic Constant Matrix: (Units=GPa)
#
#
# Indices 1 2 3 4 5 6 
#
# 1 44.4132 -19.7978 0.1331 0.0000 0.0000 0.0000
# 2 -19.7978 88.9398 13.5036 0.0000 0.0000 0.0000
# 3 0.1331 13.5036 47.4102 0.0000 0.0000 0.0000
# 4 0.0000 0.0000 0.0000 15.7619 0.0000 0.0000
# 5 0.0000 0.0000 0.0000 0.0000 32.5748 0.0000
# 6 0.0000 0.0000 0.0000 0.0000 0.0000 22.5715
#
#
#
# Elastic Compliance Matrix: (Units=1/GPa)
#
#
# Indices 1 2 3 4 5 6 
#
# 1 0.025133 0.005859 -0.001739 0.000000 0.000000 0.000000
# 2 0.005859 0.013117 -0.003753 0.000000 0.000000 0.000000
# 3 -0.001739 -0.003753 0.022166 0.000000 0.000000 0.000000
# 4 0.000000 0.000000 0.000000 0.063444 0.000000 0.000000
# 5 0.000000 0.000000 0.000000 0.000000 0.030699 0.000000
# 6 0.000000 0.000000 0.000000 0.000000 0.000000 0.044304
#
#
# Mechanical properties :
#
#
# Convention : Reuss Voigt Hill
#
# Bulk Modulus (GPa) = 16.35336 18.71569 17.53452
# Shear Modulus (GPa) = 22.88200 26.64325 24.76263
#
# Velocity S-wave (km/s) = 3.32413 3.58694 3.45803
# Velocity P-wave (km/s) = 4.75712 5.11789 4.94080
#
# Compressibility (1/GPa) = 0.06114950
#
# Stress axis : x y z
#
# Youngs Moduli (GPa) = 39.78904 76.23459 45.11363
#
# Poissons Ratio (x) = -0.44662 0.07846
# Poissons Ratio (y) = -0.23310 0.16929
# Poissons Ratio (z) = 0.06920 0.28608
#
# Static dielectric constant tensor:
#      x y z
#    x 1.764550 0.000000 0.000000 
#    y 0.000000 1.875860 0.000000 
#    z 0.000000 0.000000 1.742410 
# 
# From -- ./inp_files/31535.got.cif
#   From: 2010.05.17/outbox.cif.g08.bks.cpg/sg62_16_cif.got.tgz:31535.got - 2010.06.03 15:25:27.
