data_PCOD9464641
_publ_section_title
;
Structure prediction by ZEFSAII (Michael W. Deem and Ramdas Pophale) SiO2 
 PCOD9464641
Probable space group: P N M A
;
_chemical_formula_sum "Si O2"
_cell_formula_units_Z 64
_cell_length_a 28.680211
_cell_length_b 13.079300
_cell_length_c 8.790132
_cell_angle_alpha 90.000000
_cell_angle_beta 90.000000
_cell_angle_gamma 90.000000
_cell_volume 3297.328681
_symmetry_space_group_name_H-M "P N M A"
_symmetry_group_IT_number 62
_symmetry_cell_setting 'orthorhombic'
loop_
_space_group_symop_operation_xyz
x,y,z
1/2-x,-y,1/2+z
1/2+x,1/2-y,1/2-z
-x,1/2+y,-z
-x,-y,-z
1/2+x,y,1/2-z
1/2-x,1/2+y,1/2+z
x,1/2-y,z
loop_
_atom_site_type_symbol
_atom_site_label
_atom_site_fract_x
_atom_site_fract_y
_atom_site_fract_z
Si Si1 0.930849 0.871414 0.580322
Si Si2 0.232003 0.454043 0.030615
Si Si3 0.170078 0.631595 0.520597
Si Si4 0.422673 0.494539 0.478845
Si Si5 0.120929 0.453557 0.681838
Si Si6 0.280975 0.631010 0.190591
Si Si7 0.354576 0.504414 0.732704
Si Si8 0.496764 0.871203 0.660449
O O1 0.927723 0.750000 0.569448
O O2 0.923475 0.920822 0.416415
O O3 0.887579 0.915552 0.678953
O O4 0.978294 0.896912 0.670211
O O5 0.250208 0.569072 0.067863
O O6 0.187111 0.443104 0.138464
O O7 0.276555 0.384566 0.072970
O O8 0.222720 0.426770 0.854219
O O9 0.158303 0.750000 0.511367
O O10 0.137338 0.566628 0.632796
O O11 0.164866 0.574876 0.357194
O O12 0.390540 0.551566 0.357786
O O13 0.389281 0.452206 0.610719
O O14 0.452986 0.412578 0.386633
O O15 0.459335 0.573025 0.552141
O O16 0.165039 0.382017 0.643345
O O17 0.268321 0.750000 0.205932
O O18 0.494278 0.750000 0.642038
#
# Coordination Sequence:
#
# PCOD9464641 Si02
#       8
#     8   8   8   8   8   8   8   8
#     4   9  19  36  55  80 110 144 182 230 287 342
#     4  11  21  37  57  82 115 151 199 238 284 341
#     4  10  22  39  57  79 116 160 194 235 287 337
#     4  10  20  37  59  84 114 143 183 241 288 331
#     4  10  21  37  59  86 117 146 195 239 283 346
#     4  11  23  39  59  84 119 156 193 243 289 334
#     4  10  20  36  57  78 111 147 189 236 278 343
#     4   9  20  37  57  82 113 147 184 228 290 354
#
# _framework density 19.409652000000001
#
# number of rings (size 3 to 8) (size 9 to 14) (size 15 to 20)
#    0.000    2.000    2.500    0.750    0.000    3.500 
#    0.000    3.125    0.000    0.000    0.000    0.000 
#    0.000    0.000    0.000    0.000    0.000    0.000 
#
# Total GULP energy -356927.359000 kJ/mol
# GULP energy per Si atom -5576.989984 kJ/mol
# Density = 1.936547 g / cm^3
# Si number density = 19.409652 Si / 1000 Ang^3
#
#
#
# Elastic Constant Matrix: (Units=GPa)
#
#
# Indices 1 2 3 4 5 6 
#
# 1 43.2782 -3.0685 -3.1548 0.0000 0.0000 0.0000
# 2 -3.0685 69.1568 7.7237 0.0000 0.0000 0.0000
# 3 -3.1548 7.7237 48.8396 0.0000 0.0000 0.0000
# 4 0.0000 0.0000 0.0000 9.4672 0.0000 0.0000
# 5 0.0000 0.0000 0.0000 0.0000 21.2111 0.0000
# 6 0.0000 0.0000 0.0000 0.0000 0.0000 9.0676
#
#
#
# Elastic Compliance Matrix: (Units=1/GPa)
#
#
# Indices 1 2 3 4 5 6 
#
# 1 0.023268 0.000880 0.001364 0.000000 0.000000 0.000000
# 2 0.000880 0.014753 -0.002276 0.000000 0.000000 0.000000
# 3 0.001364 -0.002276 0.020923 0.000000 0.000000 0.000000
# 4 0.000000 0.000000 0.000000 0.105628 0.000000 0.000000
# 5 0.000000 0.000000 0.000000 0.000000 0.047145 0.000000
# 6 0.000000 0.000000 0.000000 0.000000 0.000000 0.110283
#
#
# Mechanical properties :
#
#
# Convention : Reuss Voigt Hill
#
# Bulk Modulus (GPa) = 16.98373 18.25281 17.61827
# Shear Modulus (GPa) = 14.63304 18.60079 16.61692
#
# Velocity S-wave (km/s) = 2.74871 3.09904 2.92912
# Velocity P-wave (km/s) = 4.34086 4.71485 4.53171
#
# Compressibility (1/GPa) = 0.05887988
#
# Stress axis : x y z
#
# Youngs Moduli (GPa) = 42.97725 67.78211 47.79371
#
# Poissons Ratio (x) = -0.05966 -0.06518
# Poissons Ratio (y) = -0.03782 0.10879
# Poissons Ratio (z) = -0.05861 0.15429
#
# Static dielectric constant tensor:
#      x y z
#    x 1.714290 0.000000 0.000000 
#    y 0.000000 1.639920 0.000000 
#    z 0.000000 0.000000 1.704500 
# 
# From -- ./inp_files/10462.got.cif
#   From: 2010.05.17/outbox.cif.g08.bks.cpg/sg62_6_cif.got.tgz:10462.got - 2010.06.03 15:25:27.
