data_PCOD9464711
_publ_section_title
;
Structure prediction by ZEFSAII (Michael W. Deem and Ramdas Pophale) SiO2 
 PCOD9464711
Probable space group: P N M A
;
_chemical_formula_sum "Si O2"
_cell_formula_units_Z 48
_cell_length_a 15.279286
_cell_length_b 8.688047
_cell_length_c 20.272563
_cell_angle_alpha 90.000000
_cell_angle_beta 90.000000
_cell_angle_gamma 90.000000
_cell_volume 2691.125061
_symmetry_space_group_name_H-M "P N M A"
_symmetry_group_IT_number 62
_symmetry_cell_setting 'orthorhombic'
loop_
_space_group_symop_operation_xyz
x,y,z
1/2-x,-y,1/2+z
1/2+x,1/2-y,1/2-z
-x,1/2+y,-z
-x,-y,-z
1/2+x,y,1/2-z
1/2-x,1/2+y,1/2+z
x,1/2-y,z
loop_
_atom_site_type_symbol
_atom_site_label
_atom_site_fract_x
_atom_site_fract_y
_atom_site_fract_z
Si Si1 0.696988 0.934480 0.661264
Si Si2 0.562252 0.933599 0.442614
Si Si3 0.497161 0.065642 0.303676
Si Si4 0.918544 0.434587 0.539302
Si Si5 0.118185 0.934899 0.310843
Si Si6 0.722337 0.434808 0.515229
O O1 0.701866 0.750000 0.653441
O O2 0.606369 0.972055 0.697911
O O3 0.784500 0.995448 0.696214
O O4 0.694934 0.010914 0.588649
O O5 0.554904 0.750000 0.441188
O O6 0.500000 0.000000 0.500000
O O7 0.533604 0.003492 0.373045
O O8 0.659562 0.985309 0.462837
O O9 0.505826 0.250000 0.302019
O O10 0.552377 0.993058 0.244627
O O11 0.923364 0.250000 0.538400
O O12 0.914847 0.482506 0.616098
O O13 0.824412 0.477414 0.508492
O O14 0.000000 0.500000 0.500000
O O15 0.124584 0.750000 0.309510
O O16 0.713542 0.250000 0.511391
#
# Coordination Sequence:
#
# PCOD9464711 Si02
#       6
#     8   8   8   8   8   8
#     4  10  20  36  60  85 112 152 195 237 290 349
#     4  12  23  36  58  88 120 155 193 239 293 347
#     4  11  23  39  60  87 118 153 196 244 294 351
#     4   9  20  38  61  87 114 151 194 238 287 341
#     4  10  22  40  60  85 117 154 196 241 293 352
#     4  10  20  36  58  85 117 152 192 240 288 345
#
# _framework density 17.836407000000001
#
# number of rings (size 3 to 8) (size 9 to 14) (size 15 to 20)
#    0.000    1.667    1.667    4.500    0.000    6.000 
#    3.000    0.000    0.000    0.000    0.000    0.000 
#    0.000    0.000    0.000    0.000    0.000    0.000 
#
# Total GULP energy -268119.708504 kJ/mol
# GULP energy per Si atom -5585.827260 kJ/mol
# Density = 1.779581 g / cm^3
# Si number density = 17.836407 Si / 1000 Ang^3
#
#
#
# Elastic Constant Matrix: (Units=GPa)
#
#
# Indices 1 2 3 4 5 6 
#
# 1 160.5630 40.2683 81.7887 0.0000 0.0000 0.0000
# 2 40.2683 53.4289 23.4363 0.0000 0.0000 0.0000
# 3 81.7887 23.4363 85.3556 0.0000 0.0000 0.0000
# 4 0.0000 0.0000 0.0000 32.9312 0.0000 0.0000
# 5 0.0000 0.0000 0.0000 0.0000 35.5841 0.0000
# 6 0.0000 0.0000 0.0000 0.0000 0.0000 32.5845
#
#
#
# Elastic Compliance Matrix: (Units=1/GPa)
#
#
# Indices 1 2 3 4 5 6 
#
# 1 0.013255 -0.005024 -0.011322 0.000000 0.000000 0.000000
# 2 -0.005024 0.023184 -0.001552 0.000000 0.000000 0.000000
# 3 -0.011322 -0.001552 0.022991 0.000000 0.000000 0.000000
# 4 0.000000 0.000000 0.000000 0.030366 0.000000 0.000000
# 5 0.000000 0.000000 0.000000 0.000000 0.028102 0.000000
# 6 0.000000 0.000000 0.000000 0.000000 0.000000 0.030689
#
#
# Mechanical properties :
#
#
# Convention : Reuss Voigt Hill
#
# Bulk Modulus (GPa) = 42.31109 65.59265 53.95187
# Shear Modulus (GPa) = 26.00634 30.47689 28.24161
#
# Velocity S-wave (km/s) = 3.82258 4.13811 3.98347
# Velocity P-wave (km/s) = 6.57694 7.72570 7.17435
#
# Compressibility (1/GPa) = 0.02363447
#
# Stress axis : x y z
#
# Youngs Moduli (GPa) = 75.44129 43.13411 43.49610
#
# Poissons Ratio (x) = 0.21670 0.49246
# Poissons Ratio (y) = 0.37901 0.06749
# Poissons Ratio (z) = 0.85415 0.06692
#
# Static dielectric constant tensor:
#      x y z
#    x 1.618970 0.000000 0.000000 
#    y 0.000000 1.597510 0.000000 
#    z 0.000000 0.000000 1.577050 
# 
# From -- ./inp_files/23747.got.cif
#   From: 2010.05.17/outbox.cif.g08.bks.cpg/sg62_12_cif.got.tgz:23747.got - 2010.06.03 15:25:27.
