data_PCOD9464738
_publ_section_title
;
Structure prediction by ZEFSAII (Michael W. Deem and Ramdas Pophale) SiO2 
 PCOD9464738
Probable space group: P N M A
;
_chemical_formula_sum "Si O2"
_cell_formula_units_Z 56
_cell_length_a 21.912628
_cell_length_b 7.729146
_cell_length_c 14.351537
_cell_angle_alpha 90.000000
_cell_angle_beta 90.000000
_cell_angle_gamma 90.000000
_cell_volume 2430.660996
_symmetry_space_group_name_H-M "P N M A"
_symmetry_group_IT_number 62
_symmetry_cell_setting 'orthorhombic'
loop_
_space_group_symop_operation_xyz
x,y,z
1/2-x,-y,1/2+z
1/2+x,1/2-y,1/2-z
-x,1/2+y,-z
-x,-y,-z
1/2+x,y,1/2-z
1/2-x,1/2+y,1/2+z
x,1/2-y,z
loop_
_atom_site_type_symbol
_atom_site_label
_atom_site_fract_x
_atom_site_fract_y
_atom_site_fract_z
Si Si1 0.755390 0.950217 0.718702
Si Si2 0.518755 0.551904 0.792954
Si Si3 0.235088 0.548157 0.487591
Si Si4 0.148360 0.962760 0.644961
Si Si5 0.541206 0.052031 0.588197
Si Si6 0.861401 0.043818 0.952843
Si Si7 0.890362 0.956005 0.751569
O O1 0.760030 0.750000 0.748807
O O2 0.697360 0.020795 0.775937
O O3 0.823100 0.030556 0.731740
O O4 0.747653 0.955395 0.607685
O O5 0.514569 0.750000 0.826477
O O6 0.579682 0.473469 0.837890
O O7 0.532640 0.553736 0.682053
O O8 0.450620 0.473480 0.800007
O O9 0.227678 0.750000 0.466749
O O10 0.176430 0.486771 0.545113
O O11 0.292730 0.523191 0.555379
O O12 0.146638 0.750000 0.648708
O O13 0.528317 0.250000 0.611999
O O14 0.500000 0.000000 0.500000
O O15 0.608652 0.030785 0.546051
O O16 0.862716 0.250000 0.957108
O O17 0.897931 0.983029 0.862093
O O18 0.888763 0.750000 0.732767
#
# Coordination Sequence:
#
# PCOD9464738 Si02
#       7
#     8   8   8   8   8   8   8
#     4  10  20  38  60  85 118 158 201 248 300 356
#     4  10  20  36  59  85 115 158 200 241 293 356
#     4  11  22  39  61  87 117 153 200 253 299 354
#     4   9  19  37  60  84 117 155 195 242 301 359
#     4  12  23  35  53  83 119 155 191 238 295 358
#     4  12  23  36  57  84 116 153 194 243 299 359
#     4  10  20  36  59  84 116 154 197 243 292 352
#
# _framework density 23.039000999999999
#
# number of rings (size 3 to 8) (size 9 to 14) (size 15 to 20)
#    0.000    1.429    2.857    3.857    0.000    1.714 
#    0.000    2.143    0.000    0.000    0.000    0.000 
#    0.000    0.000    0.000    0.000    0.000    0.000 
#
# Total GULP energy -312739.845956 kJ/mol
# GULP energy per Si atom -5584.640106 kJ/mol
# Density = 2.298656 g / cm^3
# Si number density = 23.039001 Si / 1000 Ang^3
#
#
#
# Elastic Constant Matrix: (Units=GPa)
#
#
# Indices 1 2 3 4 5 6 
#
# 1 111.9031 2.5486 -6.1255 0.0000 0.0000 0.0000
# 2 2.5486 55.9597 -11.6629 0.0000 0.0000 0.0000
# 3 -6.1255 -11.6629 11.0732 0.0000 0.0000 0.0000
# 4 0.0000 0.0000 0.0000 17.2745 0.0000 0.0000
# 5 0.0000 0.0000 0.0000 0.0000 33.9155 0.0000
# 6 0.0000 0.0000 0.0000 0.0000 0.0000 5.5944
#
#
#
# Elastic Compliance Matrix: (Units=1/GPa)
#
#
# Indices 1 2 3 4 5 6 
#
# 1 0.009245 0.000826 0.005984 0.000000 0.000000 0.000000
# 2 0.000826 0.022970 0.024650 0.000000 0.000000 0.000000
# 3 0.005984 0.024650 0.119581 0.000000 0.000000 0.000000
# 4 0.000000 0.000000 0.000000 0.057889 0.000000 0.000000
# 5 0.000000 0.000000 0.000000 0.000000 0.029485 0.000000
# 6 0.000000 0.000000 0.000000 0.000000 0.000000 0.178751
#
#
# Mechanical properties :
#
#
# Convention : Reuss Voigt Hill
#
# Bulk Modulus (GPa) = 4.65727 16.49515 10.57621
# Shear Modulus (GPa) = 11.72134 24.30192 18.01163
#
# Velocity S-wave (km/s) = 2.25802 3.25132 2.79908
# Velocity P-wave (km/s) = 2.97053 4.61194 3.87905
#
# Compressibility (1/GPa) = 0.21471793
#
# Stress axis : x y z
#
# Youngs Moduli (GPa) = 108.16582 43.53523 8.36251
#
# Poissons Ratio (x) = -0.03597 -0.05004
# Poissons Ratio (y) = -0.08937 -0.20614
# Poissons Ratio (z) = -0.64731 -1.07315
#
# Static dielectric constant tensor:
#      x y z
#    x 2.012670 0.000000 0.000000 
#    y 0.000000 1.844940 0.000000 
#    z 0.000000 0.000000 1.899840 
# 
# From -- ./inp_files/20345.got.cif
#   From: 2010.05.17/outbox.cif.g08.bks.cpg/sg62_11_cif.got.tgz:20345.got - 2010.06.03 15:25:27.
