data_PCOD9464790
_publ_section_title
;
Structure prediction by ZEFSAII (Michael W. Deem and Ramdas Pophale) SiO2 
 PCOD9464790
Probable space group: P N M A
;
_chemical_formula_sum "Si O2"
_cell_formula_units_Z 48
_cell_length_a 19.567538
_cell_length_b 8.455109
_cell_length_c 15.577895
_cell_angle_alpha 90.000000
_cell_angle_beta 90.000000
_cell_angle_gamma 90.000000
_cell_volume 2577.295223
_symmetry_space_group_name_H-M "P N M A"
_symmetry_group_IT_number 62
_symmetry_cell_setting 'orthorhombic'
loop_
_space_group_symop_operation_xyz
x,y,z
1/2-x,-y,1/2+z
1/2+x,1/2-y,1/2-z
-x,1/2+y,-z
-x,-y,-z
1/2+x,y,1/2-z
1/2-x,1/2+y,1/2+z
x,1/2-y,z
loop_
_atom_site_type_symbol
_atom_site_label
_atom_site_fract_x
_atom_site_fract_y
_atom_site_fract_z
Si Si1 0.171048 0.939507 0.875312
Si Si2 0.172354 0.443053 0.375119
Si Si3 0.575795 0.439636 0.775900
Si Si4 0.074404 0.441175 0.528653
Si Si5 0.575062 0.439661 0.473925
Si Si6 0.426192 0.558614 0.721626
O O1 0.171082 0.750000 0.876525
O O2 0.249373 0.996312 0.874954
O O3 0.130437 0.995241 0.791282
O O4 0.129987 0.998487 0.958367
O O5 0.172873 0.250000 0.375112
O O6 0.130606 0.494112 0.459508
O O7 0.129994 0.493166 0.291015
O O8 0.577537 0.250000 0.773160
O O9 0.588697 0.492493 0.873852
O O10 0.500432 0.495759 0.748310
O O11 0.073285 0.250000 0.527658
O O12 0.000000 0.500000 0.500000
O O13 0.500000 0.500000 0.500000
O O14 0.574348 0.250000 0.476949
O O15 0.589548 0.490026 0.375946
O O16 0.429174 0.750000 0.723607
#
# Coordination Sequence:
#
# PCOD9464790 Si02
#       6
#     8   8   8   8   8   8
#     4  11  23  39  59  83 116 160 196 235 292 344
#     4   9  20  39  60  84 117 153 194 237 287 349
#     4  11  22  35  57  89 119 148 191 243 291 342
#     4  10  20  36  60  88 116 150 191 237 289 344
#     4  11  22  36  59  89 117 149 195 244 292 344
#     4  10  20  37  62  85 111 152 195 236 287 346
#
# _framework density 18.624175000000001
#
# number of rings (size 3 to 8) (size 9 to 14) (size 15 to 20)
#    0.000    1.667    3.333    1.500    0.000    2.667 
#    0.000    3.333    0.000    0.000    0.000    0.000 
#    0.000    0.000    0.000    0.000    0.000    0.000 
#
# Total GULP energy -268142.912807 kJ/mol
# GULP energy per Si atom -5586.310683 kJ/mol
# Density = 1.858179 g / cm^3
# Si number density = 18.624175 Si / 1000 Ang^3
#
#
#
# Elastic Constant Matrix: (Units=GPa)
#
#
# Indices 1 2 3 4 5 6 
#
# 1 200.5867 25.1820 126.9306 0.0000 0.0000 0.0000
# 2 25.1820 22.1121 36.8060 0.0000 0.0000 0.0000
# 3 126.9306 36.8060 232.2336 0.0000 0.0000 0.0000
# 4 0.0000 0.0000 0.0000 24.6009 0.0000 0.0000
# 5 0.0000 0.0000 0.0000 0.0000 33.4775 0.0000
# 6 0.0000 0.0000 0.0000 0.0000 0.0000 18.5650
#
#
#
# Elastic Compliance Matrix: (Units=1/GPa)
#
#
# Indices 1 2 3 4 5 6 
#
# 1 0.007714 -0.002400 -0.003836 0.000000 0.000000 0.000000
# 2 -0.002400 0.062176 -0.008542 0.000000 0.000000 0.000000
# 3 -0.003836 -0.008542 0.007756 0.000000 0.000000 0.000000
# 4 0.000000 0.000000 0.000000 0.040649 0.000000 0.000000
# 5 0.000000 0.000000 0.000000 0.000000 0.029871 0.000000
# 6 0.000000 0.000000 0.000000 0.000000 0.000000 0.053865
#
#
# Mechanical properties :
#
#
# Convention : Reuss Voigt Hill
#
# Bulk Modulus (GPa) = 20.79427 92.52997 56.66212
# Shear Modulus (GPa) = 20.19242 33.06295 26.62768
#
# Velocity S-wave (km/s) = 3.29630 4.21797 3.78529
# Velocity P-wave (km/s) = 5.06724 8.57393 7.04234
#
# Compressibility (1/GPa) = 0.04809018
#
# Stress axis : x y z
#
# Youngs Moduli (GPa) = 129.63492 16.08328 128.92667
#
# Poissons Ratio (x) = 0.03860 0.49453
# Poissons Ratio (y) = 0.31115 1.10133
# Poissons Ratio (z) = 0.49725 0.13739
#
# Static dielectric constant tensor:
#      x y z
#    x 1.601450 0.000000 0.000000 
#    y 0.000000 1.643630 0.000000 
#    z 0.000000 0.000000 1.538260 
# 
# From -- ./inp_files/19594.got.cif
#   From: 2010.05.17/outbox.cif.g08.bks.cpg/sg62_10_cif.got.tgz:19594.got - 2010.06.03 15:25:27.
