data_PCOD9464494
_publ_section_title
;
Structure prediction by ZEFSAII (Michael W. Deem and Ramdas Pophale) SiO2 
 PCOD9464494
Probable space group: P N M A
;
_chemical_formula_sum "Si O2"
_cell_formula_units_Z 64
_cell_length_a 25.225769
_cell_length_b 7.910325
_cell_length_c 14.339201
_cell_angle_alpha 90.000000
_cell_angle_beta 90.000000
_cell_angle_gamma 90.000000
_cell_volume 2861.301971
_symmetry_space_group_name_H-M "P N M A"
_symmetry_group_IT_number 62
_symmetry_cell_setting 'orthorhombic'
loop_
_space_group_symop_operation_xyz
x,y,z
1/2-x,-y,1/2+z
1/2+x,1/2-y,1/2-z
-x,1/2+y,-z
-x,-y,-z
1/2+x,y,1/2-z
1/2-x,1/2+y,1/2+z
x,1/2-y,z
loop_
_atom_site_type_symbol
_atom_site_label
_atom_site_fract_x
_atom_site_fract_y
_atom_site_fract_z
Si Si1 0.607174 0.452595 0.098773
Si Si2 0.109925 0.950069 0.614257
Si Si3 0.336923 0.546284 0.385560
Si Si4 0.058679 0.048368 0.216561
Si Si5 0.057112 0.445540 0.789939
Si Si6 0.339943 0.542671 0.603278
Si Si7 0.225494 0.448865 0.409087
Si Si8 0.226386 0.554924 0.620442
O O1 0.601635 0.250000 0.090001
O O2 0.567824 0.516719 0.178220
O O3 0.667757 0.485945 0.132589
O O4 0.601004 0.523367 0.995286
O O5 0.109817 0.750000 0.631851
O O6 0.168630 0.021761 0.640978
O O7 0.066320 0.032539 0.679711
O O8 0.336193 0.750000 0.379227
O O9 0.389309 0.479394 0.334691
O O10 0.341414 0.496964 0.494296
O O11 0.278980 0.485413 0.352358
O O12 0.065673 0.250000 0.220815
O O13 0.106859 0.983376 0.153425
O O14 0.999557 0.016975 0.181983
O O15 0.056128 0.250000 0.815501
O O16 0.338264 0.750000 0.607267
O O17 0.283829 0.481715 0.646125
O O18 0.225622 0.250000 0.432620
O O19 0.228007 0.550216 0.506560
O O20 0.225154 0.750000 0.651293
#
# Coordination Sequence:
#
# PCOD9464494 Si02
#       8
#     8   8   8   8   8   8   8   8
#     4   9  19  35  55  81 112 141 169 211 268 318
#     4  10  20  35  58  83 106 138 178 217 260 317
#     4   9  19  36  55  76 107 145 177 211 265 321
#     4  10  21  37  56  77 102 137 182 223 258 309
#     4  11  24  39  53  73 105 142 181 227 271 310
#     4   8  15  32  57  80 104 136 172 211 257 311
#     4   9  16  28  51  82 111 136 168 212 259 312
#     4   8  15  30  53  80 109 138 169 207 258 319
#
# _framework density 22.367439999999998
#
# number of rings (size 3 to 8) (size 9 to 14) (size 15 to 20)
#    0.000    2.750    0.000    1.875    0.000    4.500 
#    0.000    5.000    0.000    0.000    0.000    0.000 
#    0.000    0.000    0.000    0.000    0.000    0.000 
#
# Total GULP energy -357090.179004 kJ/mol
# GULP energy per Si atom -5579.534047 kJ/mol
# Density = 2.231653 g / cm^3
# Si number density = 22.367440 Si / 1000 Ang^3
#
#
#
# Elastic Constant Matrix: (Units=GPa)
#
#
# Indices 1 2 3 4 5 6 
#
# 1 101.5867 7.3664 14.7057 0.0000 0.0000 0.0000
# 2 7.3664 29.6408 1.5399 0.0000 0.0000 0.0000
# 3 14.7057 1.5399 35.2280 0.0000 0.0000 0.0000
# 4 0.0000 0.0000 0.0000 10.3206 0.0000 0.0000
# 5 0.0000 0.0000 0.0000 0.0000 28.4973 0.0000
# 6 0.0000 0.0000 0.0000 0.0000 0.0000 23.4881
#
#
#
# Elastic Compliance Matrix: (Units=1/GPa)
#
#
# Indices 1 2 3 4 5 6 
#
# 1 0.010647 -0.002421 -0.004339 0.000000 0.000000 0.000000
# 2 -0.002421 0.034364 -0.000492 0.000000 0.000000 0.000000
# 3 -0.004339 -0.000492 0.030219 0.000000 0.000000 0.000000
# 4 0.000000 0.000000 0.000000 0.096894 0.000000 0.000000
# 5 0.000000 0.000000 0.000000 0.000000 0.035091 0.000000
# 6 0.000000 0.000000 0.000000 0.000000 0.000000 0.042575
#
#
# Mechanical properties :
#
#
# Convention : Reuss Voigt Hill
#
# Bulk Modulus (GPa) = 16.46672 23.74219 20.10445
# Shear Modulus (GPa) = 17.57247 21.98409 19.77828
#
# Velocity S-wave (km/s) = 2.80594 3.13846 2.97685
# Velocity P-wave (km/s) = 4.22796 4.87554 4.56326
#
# Compressibility (1/GPa) = 0.06072854
#
# Stress axis : x y z
#
# Youngs Moduli (GPa) = 93.91929 29.09990 33.09149
#
# Poissons Ratio (x) = 0.07044 0.14358
# Poissons Ratio (y) = 0.22735 0.01627
# Poissons Ratio (z) = 0.40751 0.01431
#
# Static dielectric constant tensor:
#      x y z
#    x 1.855010 0.000000 0.000000 
#    y 0.000000 1.804190 0.000000 
#    z 0.000000 0.000000 1.842280 
# 
# From -- ./inp_files/20993.got.cif
#   From: 2010.05.17/outbox.cif.g08.bks.cpg/sg62_11_cif.got.tgz:20993.got - 2010.06.03 15:25:27.
