data_PCOD9464284
_publ_section_title
;
Structure prediction by ZEFSAII (Michael W. Deem and Ramdas Pophale) SiO2 
 PCOD9464284
Probable space group: P N M A
;
_chemical_formula_sum "Si O2"
_cell_formula_units_Z 40
_cell_length_a 6.962061
_cell_length_b 8.745960
_cell_length_c 27.313005
_cell_angle_alpha 90.000000
_cell_angle_beta 90.000000
_cell_angle_gamma 90.000000
_cell_volume 1663.086335
_symmetry_space_group_name_H-M "P N M A"
_symmetry_group_IT_number 62
_symmetry_cell_setting 'orthorhombic'
loop_
_space_group_symop_operation_xyz
x,y,z
1/2-x,-y,1/2+z
1/2+x,1/2-y,1/2-z
-x,1/2+y,-z
-x,-y,-z
1/2+x,y,1/2-z
1/2-x,1/2+y,1/2+z
x,1/2-y,z
loop_
_atom_site_type_symbol
_atom_site_label
_atom_site_fract_x
_atom_site_fract_y
_atom_site_fract_z
Si Si1 0.354957 0.069541 0.688977
Si Si2 0.142580 0.571774 0.382588
Si Si3 0.688426 0.924738 0.416165
Si Si4 0.790991 0.432018 0.512189
Si Si5 0.031122 0.425458 0.285920
O O1 0.297428 0.250000 0.690095
O O2 0.428083 0.044006 0.633799
O O3 0.469967 0.032555 0.738012
O O4 0.182713 0.949447 0.694552
O O5 0.187201 0.750000 0.373007
O O6 0.248656 0.516409 0.432011
O O7 0.159374 0.482333 0.331523
O O8 0.913867 0.567202 0.398490
O O9 0.650297 0.750000 0.430827
O O10 0.666922 0.022583 0.465017
O O11 0.803795 0.250000 0.514732
O O12 0.000000 0.500000 0.500000
O O13 0.073168 0.250000 0.274118
#
# Coordination Sequence:
#
# PCOD9464284 Si02
#       5
#     8   8   8   8   8
#     4  10  20  35  51  68  96 133 163 192 238 294
#     4   8  15  27  40  59  89 124 154 183 230 288
#     4   8  15  26  41  61  86 117 153 188 227 276
#     4   9  15  22  36  58  86 117 148 184 229 276
#     4  11  21  32  49  74  98 123 161 207 241 272
#
# _framework density 24.051666999999998
#
# number of rings (size 3 to 8) (size 9 to 14) (size 15 to 20)
#    0.000    2.800    0.000    5.400    0.000    8.800 
#    0.000    0.000    0.000    0.000    0.000    1.400 
#    0.000    0.000    0.000    0.000    0.000    0.000 
#
# Total GULP energy -223238.007312 kJ/mol
# GULP energy per Si atom -5580.950183 kJ/mol
# Density = 2.399692 g / cm^3
# Si number density = 24.051667 Si / 1000 Ang^3
#
#
#
# Elastic Constant Matrix: (Units=GPa)
#
#
# Indices 1 2 3 4 5 6 
#
# 1 49.5056 10.5565 32.2368 0.0000 0.0000 0.0000
# 2 10.5565 78.4678 75.9662 0.0000 0.0000 0.0000
# 3 32.2368 75.9662 215.0535 0.0000 0.0000 0.0000
# 4 0.0000 0.0000 0.0000 43.5226 0.0000 0.0000
# 5 0.0000 0.0000 0.0000 0.0000 47.1674 0.0000
# 6 0.0000 0.0000 0.0000 0.0000 0.0000 8.5231
#
#
#
# Elastic Compliance Matrix: (Units=1/GPa)
#
#
# Indices 1 2 3 4 5 6 
#
# 1 0.022391 0.000360 -0.003484 0.000000 0.000000 0.000000
# 2 0.000360 0.019373 -0.006897 0.000000 0.000000 0.000000
# 3 -0.003484 -0.006897 0.007609 0.000000 0.000000 0.000000
# 4 0.000000 0.000000 0.000000 0.022977 0.000000 0.000000
# 5 0.000000 0.000000 0.000000 0.000000 0.021201 0.000000
# 6 0.000000 0.000000 0.000000 0.000000 0.000000 0.117328
#
#
# Mechanical properties :
#
#
# Convention : Reuss Voigt Hill
#
# Bulk Modulus (GPa) = 34.09300 64.50508 49.29904
# Shear Modulus (GPa) = 20.77289 34.79379 27.78334
#
# Velocity S-wave (km/s) = 2.94203 3.80758 3.40244
# Velocity P-wave (km/s) = 5.07409 6.79763 5.99809
#
# Compressibility (1/GPa) = 0.02933153
#
# Stress axis : x y z
#
# Youngs Moduli (GPa) = 44.65989 51.61779 131.42825
#
# Poissons Ratio (x) = -0.01860 0.45787
# Poissons Ratio (y) = -0.01609 0.90652
# Poissons Ratio (z) = 0.15559 0.35603
#
# Static dielectric constant tensor:
#      x y z
#    x 2.142270 0.000000 0.000000 
#    y 0.000000 1.791140 0.000000 
#    z 0.000000 0.000000 2.020990 
# 
# From -- ./inp_files/30672.got.cif
#   From: 2010.05.17/outbox.cif.g08.bks.cpg/sg62_16_cif.got.tgz:30672.got - 2010.06.03 15:25:27.
