data_PCOD9464437
_publ_section_title
;
Structure prediction by ZEFSAII (Michael W. Deem and Ramdas Pophale) SiO2 
 PCOD9464437
Probable space group: P N M A
;
_chemical_formula_sum "Si O2"
_cell_formula_units_Z 64
_cell_length_a 15.019502
_cell_length_b 8.215969
_cell_length_c 25.359732
_cell_angle_alpha 90.000000
_cell_angle_beta 90.000000
_cell_angle_gamma 90.000000
_cell_volume 3129.384914
_symmetry_space_group_name_H-M "P N M A"
_symmetry_group_IT_number 62
_symmetry_cell_setting 'orthorhombic'
loop_
_space_group_symop_operation_xyz
x,y,z
1/2-x,-y,1/2+z
1/2+x,1/2-y,1/2-z
-x,1/2+y,-z
-x,-y,-z
1/2+x,y,1/2-z
1/2-x,1/2+y,1/2+z
x,1/2-y,z
loop_
_atom_site_type_symbol
_atom_site_label
_atom_site_fract_x
_atom_site_fract_y
_atom_site_fract_z
Si Si1 0.954242 0.558629 0.870756
Si Si2 0.123247 0.942808 0.238907
Si Si3 0.822848 0.436811 0.267516
Si Si4 0.097834 0.445521 0.017975
Si Si5 0.010269 0.446142 0.668196
Si Si6 0.049470 0.946810 0.447214
Si Si7 0.637032 0.060937 0.658489
Si Si8 0.748503 0.448940 0.561651
O O1 0.974950 0.750000 0.875965
O O2 0.911361 0.525625 0.814347
O O3 0.893238 0.510887 0.920362
O O4 0.045769 0.459001 0.873378
O O5 0.106723 0.750000 0.234176
O O6 0.066684 0.000017 0.290076
O O7 0.228802 0.973463 0.240567
O O8 0.803674 0.250000 0.279685
O O9 0.870204 0.456424 0.210941
O O10 0.893138 0.504076 0.309745
O O11 0.100639 0.250000 0.014136
O O12 0.176350 0.509044 0.980691
O O13 0.000000 0.500000 0.000000
O O14 0.006342 0.250000 0.667517
O O15 0.992147 0.503837 0.608554
O O16 0.049342 0.750000 0.445833
O O17 0.151880 0.002751 0.449271
O O18 0.000000 0.000000 0.500000
O O19 0.648941 0.250000 0.673217
O O20 0.716009 0.006798 0.620207
O O21 0.747332 0.250000 0.560779
#
# Coordination Sequence:
#
# PCOD9464437 Si02
#       8
#     8   8   8   8   8   8   8   8
#     4  11  22  35  55  89 129 161 197 254 313 359
#     4  11  23  41  65  90 122 166 211 251 302 376
#     4  12  25  39  61  92 128 161 200 260 319 370
#     4  10  20  35  56  85 123 161 199 245 302 369
#     4  10  22  42  66  90 121 163 211 255 302 374
#     4  10  22  42  65  90 119 155 205 261 307 361
#     4  11  20  36  62  87 116 160 211 251 300 373
#     4   9  19  37  62  87 116 161 209 250 301 365
#
# _framework density 20.451304
#
# number of rings (size 3 to 8) (size 9 to 14) (size 15 to 20)
#    0.000    1.500    2.500    3.000    0.000    4.500 
#    0.000    4.375    0.000    0.000    0.000    0.000 
#    0.000    0.000    0.000    0.000    0.000    0.000 
#
# Total GULP energy -357489.924465 kJ/mol
# GULP energy per Si atom -5585.780070 kJ/mol
# Density = 2.040476 g / cm^3
# Si number density = 20.451304 Si / 1000 Ang^3
#
#
#
# Elastic Constant Matrix: (Units=GPa)
#
#
# Indices 1 2 3 4 5 6 
#
# 1 92.1944 5.3893 50.4222 0.0000 0.0000 0.0000
# 2 5.3893 21.3138 16.9489 0.0000 0.0000 0.0000
# 3 50.4222 16.9489 149.2601 0.0000 0.0000 0.0000
# 4 0.0000 0.0000 0.0000 21.8591 0.0000 0.0000
# 5 0.0000 0.0000 0.0000 0.0000 35.7234 0.0000
# 6 0.0000 0.0000 0.0000 0.0000 0.0000 23.6282
#
#
#
# Elastic Compliance Matrix: (Units=1/GPa)
#
#
# Indices 1 2 3 4 5 6 
#
# 1 0.013306 0.000231 -0.004521 0.000000 0.000000 0.000000
# 2 0.000231 0.051579 -0.005935 0.000000 0.000000 0.000000
# 3 -0.004521 -0.005935 0.008901 0.000000 0.000000 0.000000
# 4 0.000000 0.000000 0.000000 0.045748 0.000000 0.000000
# 5 0.000000 0.000000 0.000000 0.000000 0.027993 0.000000
# 6 0.000000 0.000000 0.000000 0.000000 0.000000 0.042322
#
#
# Mechanical properties :
#
#
# Convention : Reuss Voigt Hill
#
# Bulk Modulus (GPa) = 18.74927 45.36548 32.05737
# Shear Modulus (GPa) = 21.92235 28.90931 25.41583
#
# Velocity S-wave (km/s) = 3.27759 3.76382 3.52909
# Velocity P-wave (km/s) = 4.84882 6.41240 5.68463
#
# Compressibility (1/GPa) = 0.05333541
#
# Stress axis : x y z
#
# Youngs Moduli (GPa) = 75.15521 19.38765 112.34769
#
# Poissons Ratio (x) = -0.00447 0.50793
# Poissons Ratio (y) = -0.01734 0.66678
# Poissons Ratio (z) = 0.33978 0.11506
#
# Static dielectric constant tensor:
#      x y z
#    x 1.746830 0.000000 0.000000 
#    y 0.000000 1.713150 0.000000 
#    z 0.000000 0.000000 1.745290 
# 
# From -- ./inp_files/29862.got.cif
#   From: 2010.05.17/outbox.cif.g08.bks.cpg/sg62_15_cif.got.tgz:29862.got - 2010.06.03 15:25:27.
