data_PCOD9464989
_publ_section_title
;
Structure prediction by ZEFSAII (Michael W. Deem and Ramdas Pophale) SiO2 
 PCOD9464989
Probable space group: P N M A
;
_chemical_formula_sum "Si O2"
_cell_formula_units_Z 64
_cell_length_a 14.781548
_cell_length_b 8.427712
_cell_length_c 25.565544
_cell_angle_alpha 90.000000
_cell_angle_beta 90.000000
_cell_angle_gamma 90.000000
_cell_volume 3184.818171
_symmetry_space_group_name_H-M "P N M A"
_symmetry_group_IT_number 62
_symmetry_cell_setting 'orthorhombic'
loop_
_space_group_symop_operation_xyz
x,y,z
1/2-x,-y,1/2+z
1/2+x,1/2-y,1/2-z
-x,1/2+y,-z
-x,-y,-z
1/2+x,y,1/2-z
1/2-x,1/2+y,1/2+z
x,1/2-y,z
loop_
_atom_site_type_symbol
_atom_site_label
_atom_site_fract_x
_atom_site_fract_y
_atom_site_fract_z
Si Si1 0.753247 0.058221 0.432610
Si Si2 0.041915 0.559604 0.753338
Si Si3 0.901639 0.439439 0.516812
Si Si4 0.306384 0.940196 0.181684
Si Si5 0.547281 0.441928 0.447458
Si Si6 0.303628 0.939392 0.882510
Si Si7 0.896218 0.056975 0.133293
Si Si8 0.656561 0.560403 0.233545
O O1 0.752212 0.250000 0.434090
O O2 0.824486 0.002050 0.476277
O O3 0.650670 0.002124 0.442999
O O4 0.783999 0.005084 0.375338
O O5 0.036261 0.750000 0.753078
O O6 0.098624 0.501748 0.703759
O O7 0.093102 0.508094 0.806446
O O8 0.942273 0.488336 0.753014
O O9 0.903286 0.250000 0.514434
O O10 0.870870 0.489910 0.574680
O O11 0.000000 0.500000 0.500000
O O12 0.306895 0.750000 0.180166
O O13 0.230553 0.992934 0.223816
O O14 0.500000 0.500000 0.500000
O O15 0.548541 0.250000 0.447142
O O16 0.483113 0.495046 0.399714
O O17 0.305817 0.750000 0.887685
O O18 0.199601 0.996083 0.890447
O O19 0.327891 0.984547 0.823214
O O20 0.895061 0.250000 0.132717
O O21 0.662993 0.750000 0.228426
#
# Coordination Sequence:
#
# PCOD9464989 Si02
#       8
#     8   8   8   8   8   8   8   8
#     4  10  23  42  64  89 124 166 212 257 312 380
#     4  11  22  39  64  90 121 164 211 259 310 374
#     4  11  25  44  64  90 122 165 215 267 319 374
#     4  11  24  41  63  93 130 166 206 259 318 373
#     4  10  20  37  61  91 123 156 198 250 305 368
#     4  11  22  40  65  92 123 163 209 259 312 376
#     4   9  19  36  61  92 123 157 200 248 304 369
#     4  11  24  41  61  92 130 168 208 259 318 377
#
# _framework density 20.095337000000001
#
# number of rings (size 3 to 8) (size 9 to 14) (size 15 to 20)
#    0.000    1.500    1.250    3.375    1.750    4.000 
#    0.000    1.875    0.000    0.000    0.000    0.000 
#    0.000    0.000    0.000    0.000    0.000    0.000 
#
# Total GULP energy -357816.259672 kJ/mol
# GULP energy per Si atom -5590.879057 kJ/mol
# Density = 2.004960 g / cm^3
# Si number density = 20.095337 Si / 1000 Ang^3
#
#
#
# Elastic Constant Matrix: (Units=GPa)
#
#
# Indices 1 2 3 4 5 6 
#
# 1 58.6318 9.0687 -11.7460 0.0000 0.0000 0.0000
# 2 9.0687 19.7449 2.5364 0.0000 0.0000 0.0000
# 3 -11.7460 2.5364 73.9443 0.0000 0.0000 0.0000
# 4 0.0000 0.0000 0.0000 29.5451 0.0000 0.0000
# 5 0.0000 0.0000 0.0000 0.0000 14.4952 0.0000
# 6 0.0000 0.0000 0.0000 0.0000 0.0000 22.5216
#
#
#
# Elastic Compliance Matrix: (Units=1/GPa)
#
#
# Indices 1 2 3 4 5 6 
#
# 1 0.019156 -0.009230 0.003360 0.000000 0.000000 0.000000
# 2 -0.009230 0.055317 -0.003364 0.000000 0.000000 0.000000
# 3 0.003360 -0.003364 0.014173 0.000000 0.000000 0.000000
# 4 0.000000 0.000000 0.000000 0.033847 0.000000 0.000000
# 5 0.000000 0.000000 0.000000 0.000000 0.068988 0.000000
# 6 0.000000 0.000000 0.000000 0.000000 0.000000 0.044402
#
#
# Mechanical properties :
#
#
# Convention : Reuss Voigt Hill
#
# Bulk Modulus (GPa) = 14.24941 16.89324 15.57132
# Shear Modulus (GPa) = 18.00222 23.47651 20.73937
#
# Velocity S-wave (km/s) = 2.99631 3.42168 3.21604
# Velocity P-wave (km/s) = 4.36770 4.90259 4.64285
#
# Compressibility (1/GPa) = 0.07017835
#
# Stress axis : x y z
#
# Youngs Moduli (GPa) = 52.20229 18.07754 70.55800
#
# Poissons Ratio (x) = 0.16685 -0.23704
# Poissons Ratio (y) = 0.48182 0.23733
# Poissons Ratio (z) = -0.17538 0.06081
#
# Static dielectric constant tensor:
#      x y z
#    x 1.718900 0.000000 0.000000 
#    y 0.000000 1.687430 0.000000 
#    z 0.000000 0.000000 1.680690 
# 
# From -- ./inp_files/29757.got.cif
#   From: 2010.05.17/outbox.cif.g08.bks.cpg/sg62_15_cif.got.tgz:29757.got - 2010.06.03 15:25:27.
