data_PCOD9464753
_publ_section_title
;
Structure prediction by ZEFSAII (Michael W. Deem and Ramdas Pophale) SiO2 
 PCOD9464753
Probable space group: P N M A
;
_chemical_formula_sum "Si O2"
_cell_formula_units_Z 48
_cell_length_a 10.061401
_cell_length_b 7.500875
_cell_length_c 27.998432
_cell_angle_alpha 90.000000
_cell_angle_beta 90.000000
_cell_angle_gamma 90.000000
_cell_volume 2113.022378
_symmetry_space_group_name_H-M "P N M A"
_symmetry_group_IT_number 62
_symmetry_cell_setting 'orthorhombic'
loop_
_space_group_symop_operation_xyz
x,y,z
1/2-x,-y,1/2+z
1/2+x,1/2-y,1/2-z
-x,1/2+y,-z
-x,-y,-z
1/2+x,y,1/2-z
1/2-x,1/2+y,1/2+z
x,1/2-y,z
loop_
_atom_site_type_symbol
_atom_site_label
_atom_site_fract_x
_atom_site_fract_y
_atom_site_fract_z
Si Si1 0.826294 0.042090 0.538247
Si Si2 0.686651 0.455975 0.444780
Si Si3 0.579113 0.966586 0.603231
Si Si4 0.631381 0.531909 0.710237
Si Si5 0.564852 0.036220 0.206836
Si Si6 0.443243 0.537853 0.103273
O O1 0.853529 0.250000 0.528185
O O2 0.759147 0.961671 0.490948
O O3 0.960921 0.966072 0.560965
O O4 0.714731 0.029028 0.579081
O O5 0.658461 0.250000 0.457264
O O6 0.547595 0.532345 0.426856
O O7 0.796140 0.462056 0.403092
O O8 0.579147 0.750000 0.602262
O O9 0.575413 0.020613 0.658445
O O10 0.632913 0.750000 0.711295
O O11 0.537738 0.470132 0.753177
O O12 0.784350 0.471343 0.713667
O O13 0.570424 0.250000 0.211586
O O14 0.510311 0.998782 0.154005
O O15 0.433425 0.750000 0.098165
#
# Coordination Sequence:
#
# PCOD9464753 Si02
#       6
#     8   8   8   8   8   8
#     4  10  21  38  57  82 116 154 191 233 288 342
#     4  10  22  37  58  85 115 152 194 238 281 335
#     4  10  20  36  59  87 113 144 190 237 286 340
#     4   9  19  34  58  87 109 139 183 232 281 333
#     4  10  20  37  60  83 111 144 185 234 284 334
#     4  11  23  38  56  82 117 152 192 234 282 341
#
# _framework density 22.716277999999999
#
# number of rings (size 3 to 8) (size 9 to 14) (size 15 to 20)
#    0.000    2.000    1.667    1.500    2.333    2.000 
#    0.000    1.667    0.000    0.000    0.000    0.000 
#    0.000    0.000    0.000    0.000    0.000    0.000 
#
# Total GULP energy -268332.282492 kJ/mol
# GULP energy per Si atom -5590.255885 kJ/mol
# Density = 2.266457 g / cm^3
# Si number density = 22.716278 Si / 1000 Ang^3
#
#
#
# Elastic Constant Matrix: (Units=GPa)
#
#
# Indices 1 2 3 4 5 6 
#
# 1 42.7838 -8.4400 -5.4214 0.0000 0.0000 0.0000
# 2 -8.4400 63.9417 -0.3072 0.0000 0.0000 0.0000
# 3 -5.4214 -0.3072 90.9395 0.0000 0.0000 0.0000
# 4 0.0000 0.0000 0.0000-1605.2403 0.0000 0.0000
# 5 0.0000 0.0000 0.0000 0.0000 46.4402 0.0000
# 6 0.0000 0.0000 0.0000 0.0000 0.0000 -16.6837
#
#
#
# Elastic Compliance Matrix: (Units=1/GPa)
#
#
# Indices 1 2 3 4 5 6 
#
# 1 0.024189 0.003200 0.001453 0.000000 0.000000 0.000000
# 2 0.003200 0.016063 0.000245 0.000000 0.000000 0.000000
# 3 0.001453 0.000245 0.011084 0.000000 0.000000 0.000000
# 4 0.000000 0.000000 0.000000 -0.000623 0.000000 0.000000
# 5 0.000000 0.000000 0.000000 0.000000 0.021533 0.000000
# 6 0.000000 0.000000 0.000000 0.000000 0.000000 -0.059939
#
#
# Mechanical properties :
#
#
# Convention : Reuss Voigt Hill
#
# Bulk Modulus (GPa) = 16.35848 18.81421 17.58634
# Shear Modulus (GPa) = 218.45378 -300.97452 -41.26037
#
# Velocity S-wave (km/s) = 9.81707 -11.52304 -4.26647
# Velocity P-wave (km/s) = 11.64975 12.99001 4.06348
#
# Compressibility (1/GPa) = 0.06113037
#
# Stress axis : x y z
#
# Youngs Moduli (GPa) = 41.34174 62.25573 90.22208
#
# Poissons Ratio (x) = -0.19920 -0.13108
# Poissons Ratio (y) = -0.13228 -0.02211
# Poissons Ratio (z) = -0.06006 -0.01525
#
# Static dielectric constant tensor:
#      x y z
#    x 1.810360 0.000000 0.000000 
#    y 0.000000 1.865770 0.000000 
#    z 0.000000 0.000000 1.823810 
# 
# From -- ./inp_files/31987.got.cif
#   From: 2010.05.17/outbox.cif.g08.bks.cpg/sg62_16_cif.got.tgz:31987.got - 2010.06.03 15:25:27.
