data_PCOD9464797
_publ_section_title
;
Structure prediction by ZEFSAII (Michael W. Deem and Ramdas Pophale) SiO2 
 PCOD9464797
Probable space group: P N M A
;
_chemical_formula_sum "Si O2"
_cell_formula_units_Z 64
_cell_length_a 23.697553
_cell_length_b 8.251011
_cell_length_c 15.849462
_cell_angle_alpha 90.000000
_cell_angle_beta 90.000000
_cell_angle_gamma 90.000000
_cell_volume 3099.025818
_symmetry_space_group_name_H-M "P N M A"
_symmetry_group_IT_number 62
_symmetry_cell_setting 'orthorhombic'
loop_
_space_group_symop_operation_xyz
x,y,z
1/2-x,-y,1/2+z
1/2+x,1/2-y,1/2-z
-x,1/2+y,-z
-x,-y,-z
1/2+x,y,1/2-z
1/2-x,1/2+y,1/2+z
x,1/2-y,z
loop_
_atom_site_type_symbol
_atom_site_label
_atom_site_fract_x
_atom_site_fract_y
_atom_site_fract_z
Si Si1 0.549713 0.054430 0.562408
Si Si2 0.616090 0.068554 0.136481
Si Si3 0.332555 0.553734 0.522617
Si Si4 0.206170 0.558701 0.493010
Si Si5 0.309326 0.554703 0.182876
Si Si6 0.070686 0.051766 0.750685
Si Si7 0.182988 0.559223 0.211807
Si Si8 0.000569 0.566314 0.405824
O O1 0.548709 0.250000 0.563589
O O2 0.611404 0.005551 0.527410
O O3 0.545705 0.996832 0.659606
O O4 0.500000 0.000000 0.500000
O O5 0.593618 0.250000 0.126526
O O6 0.664005 0.035215 0.067410
O O7 0.644165 0.042358 0.226699
O O8 0.564654 0.946817 0.124717
O O9 0.332693 0.750000 0.531491
O O10 0.271947 0.511378 0.481893
O O11 0.332163 0.475511 0.615045
O O12 0.201042 0.750000 0.475493
O O13 0.190057 0.524428 0.590280
O O14 0.310332 0.750000 0.170860
O O15 0.363566 0.509975 0.237940
O O16 0.248877 0.514983 0.223272
O O17 0.067162 0.250000 0.751611
O O18 0.037705 0.990105 0.667958
O O19 0.176463 0.750000 0.230421
O O20 0.980769 0.750000 0.412811
O O21 0.000000 0.500000 0.500000
#
# Coordination Sequence:
#
# PCOD9464797 Si02
#       8
#     8   8   8   8   8   8   8   8
#     4  10  22  40  61  86 116 157 202 251 301 357
#     4  12  25  39  58  85 122 160 203 252 300 358
#     4   9  20  38  61  86 120 156 193 242 305 366
#     4  10  20  36  60  90 121 154 193 243 303 368
#     4   9  18  36  62  89 119 155 193 238 301 367
#     4   9  20  38  63  89 118 156 201 246 297 359
#     4  10  21  36  60  89 119 154 196 243 299 366
#     4  11  23  41  64  93 124 162 206 252 308 369
#
# _framework density 20.65165
#
# number of rings (size 3 to 8) (size 9 to 14) (size 15 to 20)
#    0.000    2.000    0.000    3.000    3.500    2.500 
#    0.000    1.875    0.000    0.000    0.000    0.000 
#    0.000    0.000    0.000    0.000    0.000    0.000 
#
# Total GULP energy -357472.498382 kJ/mol
# GULP energy per Si atom -5585.507787 kJ/mol
# Density = 2.060465 g / cm^3
# Si number density = 20.651650 Si / 1000 Ang^3
#
#
#
# Elastic Constant Matrix: (Units=GPa)
#
#
# Indices 1 2 3 4 5 6 
#
# 1 86.9729 -1.1124 53.5299 0.0000 0.0000 0.0000
# 2 -1.1124 13.2761 7.4944 0.0000 0.0000 0.0000
# 3 53.5299 7.4944 98.1628 0.0000 0.0000 0.0000
# 4 0.0000 0.0000 0.0000 26.7005 0.0000 0.0000
# 5 0.0000 0.0000 0.0000 0.0000 32.2712 0.0000
# 6 0.0000 0.0000 0.0000 0.0000 0.0000 19.8757
#
#
#
# Elastic Compliance Matrix: (Units=1/GPa)
#
#
# Indices 1 2 3 4 5 6 
#
# 1 0.017968 0.007354 -0.010360 0.000000 0.000000 0.000000
# 2 0.007354 0.081725 -0.010249 0.000000 0.000000 0.000000
# 3 -0.010360 -0.010249 0.016619 0.000000 0.000000 0.000000
# 4 0.000000 0.000000 0.000000 0.037453 0.000000 0.000000
# 5 0.000000 0.000000 0.000000 0.000000 0.030987 0.000000
# 6 0.000000 0.000000 0.000000 0.000000 0.000000 0.050313
#
#
# Mechanical properties :
#
#
# Convention : Reuss Voigt Hill
#
# Bulk Modulus (GPa) = 11.13574 35.35951 23.24762
# Shear Modulus (GPa) = 17.15209 25.00279 21.07744
#
# Velocity S-wave (km/s) = 2.88504 3.48328 3.19818
# Velocity P-wave (km/s) = 4.06224 5.77379 4.99192
#
# Compressibility (1/GPa) = 0.08980098
#
# Stress axis : x y z
#
# Youngs Moduli (GPa) = 55.65426 12.23615 60.17201
#
# Poissons Ratio (x) = -0.08998 0.62337
# Poissons Ratio (y) = -0.40926 0.61673
# Poissons Ratio (z) = 0.57656 0.12541
#
# Static dielectric constant tensor:
#      x y z
#    x 1.725280 0.000000 0.000000 
#    y 0.000000 -0.365600 0.000000 
#    z 0.000000 0.000000 1.714460 
# 
# From -- ./inp_files/20864.got.cif
#   From: 2010.05.17/outbox.cif.g08.bks.cpg/sg62_11_cif.got.tgz:20864.got - 2010.06.03 15:25:27.
