data_PCOD9464225
_publ_section_title
;
Structure prediction by ZEFSAII (Michael W. Deem and Ramdas Pophale) SiO2 
 PCOD9464225
Probable space group: P N M A
;
_chemical_formula_sum "Si O2"
_cell_formula_units_Z 64
_cell_length_a 22.254833
_cell_length_b 21.117166
_cell_length_c 6.535996
_cell_angle_alpha 90.000000
_cell_angle_beta 90.000000
_cell_angle_gamma 90.000000
_cell_volume 3071.650162
_symmetry_space_group_name_H-M "P N M A"
_symmetry_group_IT_number 62
_symmetry_cell_setting 'orthorhombic'
loop_
_space_group_symop_operation_xyz
x,y,z
1/2-x,-y,1/2+z
1/2+x,1/2-y,1/2-z
-x,1/2+y,-z
-x,-y,-z
1/2+x,y,1/2-z
1/2-x,1/2+y,1/2+z
x,1/2-y,z
loop_
_atom_site_type_symbol
_atom_site_label
_atom_site_fract_x
_atom_site_fract_y
_atom_site_fract_z
Si Si1 0.230840 0.402114 0.631299
Si Si2 0.403528 0.021731 0.645698
Si Si3 0.614869 0.100922 0.105249
Si Si4 0.058291 0.821099 0.567013
Si Si5 0.328895 0.381887 0.919129
Si Si6 0.031879 0.176373 0.097150
Si Si7 0.818057 0.470115 0.192994
Si Si8 0.482714 0.914872 0.218772
O O1 0.175245 0.374742 0.502716
O O2 0.271066 0.361108 0.787717
O O3 0.204260 0.459316 0.766214
O O4 0.274596 0.435075 0.466588
O O5 0.369910 0.078910 0.760194
O O6 0.384082 0.027614 0.410121
O O7 0.473658 0.029484 0.701205
O O8 0.376302 0.956932 0.736669
O O9 0.578878 0.154706 0.228186
O O10 0.573305 0.070613 0.926520
O O11 0.040281 0.750000 0.509159
O O12 0.128628 0.830517 0.526586
O O13 0.023562 0.870553 0.426246
O O14 0.033975 0.830644 0.797304
O O15 0.314480 0.431776 0.097248
O O16 0.040066 0.250000 0.040598
O O17 0.036899 0.128107 0.910060
#
# Coordination Sequence:
#
# PCOD9464225 Si02
#       8
#     8   8   8   8   8   8   8   8
#     4  11  21  34  53  82 110 155 189 226 279 345
#     4  10  21  34  55  89 117 143 186 233 294 346
#     4  11  23  36  55  83 121 153 188 235 284 344
#     4   9  19  38  60  84 110 138 186 246 290 333
#     4  10  20  34  57  84 113 147 194 235 287 348
#     4  10  22  39  59  81 109 155 198 233 290 348
#     4  11  19  34  56  79 114 150 187 227 281 348
#     4  10  21  37  58  85 114 151 183 233 287 355
#
# _framework density 20.835705999999998
#
# number of rings (size 3 to 8) (size 9 to 14) (size 15 to 20)
#    0.000    1.750    2.500    2.250    1.750    1.000 
#    0.000    0.625    0.000    2.250    0.000    0.000 
#    0.000    0.000    0.000    0.000    0.000    0.000 
#
# Total GULP energy -357195.519515 kJ/mol
# GULP energy per Si atom -5581.179992 kJ/mol
# Density = 2.078828 g / cm^3
# Si number density = 20.835706 Si / 1000 Ang^3
#
#
#
# Elastic Constant Matrix: (Units=GPa)
#
#
# Indices 1 2 3 4 5 6 
#
# 1 61.4266 -9.9249 5.0716 0.0000 0.0000 0.0000
# 2 -9.9249 15.3934 -2.6027 0.0000 0.0000 0.0000
# 3 5.0716 -2.6027 67.7018 0.0000 0.0000 0.0000
# 4 0.0000 0.0000 0.0000 15.2129 0.0000 0.0000
# 5 0.0000 0.0000 0.0000 0.0000 24.2860 0.0000
# 6 0.0000 0.0000 0.0000 0.0000 0.0000 7.1097
#
#
#
# Elastic Compliance Matrix: (Units=1/GPa)
#
#
# Indices 1 2 3 4 5 6 
#
# 1 0.018229 0.011598 -0.000920 0.000000 0.000000 0.000000
# 2 0.011598 0.072767 0.001929 0.000000 0.000000 0.000000
# 3 -0.000920 0.001929 0.014914 0.000000 0.000000 0.000000
# 4 0.000000 0.000000 0.000000 0.065734 0.000000 0.000000
# 5 0.000000 0.000000 0.000000 0.000000 0.041176 0.000000
# 6 0.000000 0.000000 0.000000 0.000000 0.000000 0.140652
#
#
# Mechanical properties :
#
#
# Convention : Reuss Voigt Hill
#
# Bulk Modulus (GPa) = 7.62639 14.40109 11.01374
# Shear Modulus (GPa) = 13.44208 19.45357 16.44783
#
# Velocity S-wave (km/s) = 2.54273 3.05891 2.81268
# Velocity P-wave (km/s) = 3.50554 4.40484 3.98067
#
# Compressibility (1/GPa) = 0.13112368
#
# Stress axis : x y z
#
# Youngs Moduli (GPa) = 54.85632 13.74253 67.05251
#
# Poissons Ratio (x) = -0.15939 0.06167
# Poissons Ratio (y) = -0.63622 -0.12932
# Poissons Ratio (z) = 0.05045 -0.02650
#
# Static dielectric constant tensor:
#      x y z
#    x 1.824040 0.000000 0.000000 
#    y 0.000000 1.754290 0.000000 
#    z 0.000000 0.000000 1.755940 
# 
# From -- ./inp_files/2902.got.cif
#   From: 2010.05.17/outbox.cif.g08.bks.cpg/sg62_2_cif.got.tgz:2902.got - 2010.06.03 15:25:27.
