data_PCOD9464219
_publ_section_title
;
Structure prediction by ZEFSAII (Michael W. Deem and Ramdas Pophale) SiO2 
 PCOD9464219
Probable space group: P N M A
;
_chemical_formula_sum "Si O2"
_cell_formula_units_Z 64
_cell_length_a 9.453266
_cell_length_b 14.293910
_cell_length_c 22.128395
_cell_angle_alpha 90.000000
_cell_angle_beta 90.000000
_cell_angle_gamma 90.000000
_cell_volume 2990.080198
_symmetry_space_group_name_H-M "P N M A"
_symmetry_group_IT_number 62
_symmetry_cell_setting 'orthorhombic'
loop_
_space_group_symop_operation_xyz
x,y,z
1/2-x,-y,1/2+z
1/2+x,1/2-y,1/2-z
-x,1/2+y,-z
-x,-y,-z
1/2+x,y,1/2-z
1/2-x,1/2+y,1/2+z
x,1/2-y,z
loop_
_atom_site_type_symbol
_atom_site_label
_atom_site_fract_x
_atom_site_fract_y
_atom_site_fract_z
Si Si1 0.452696 0.139363 0.434392
Si Si2 0.034654 0.084368 0.826448
Si Si3 0.159924 0.145780 0.712456
Si Si4 0.786718 0.990114 0.620585
Si Si5 0.154483 0.638833 0.060904
Si Si6 0.753137 0.859371 0.865661
Si Si7 0.648183 0.466204 0.256101
Si Si8 0.578858 0.463850 0.905466
O O1 0.430124 0.250000 0.427593
O O2 0.320195 0.085245 0.406446
O O3 0.449847 0.116673 0.505590
O O4 0.601627 0.118853 0.402326
O O5 0.057148 0.151558 0.770044
O O6 0.917478 0.107920 0.876253
O O7 0.182109 0.074613 0.861597
O O8 0.999523 0.987345 0.790465
O O9 0.215265 0.250000 0.700224
O O10 0.082333 0.103169 0.654103
O O11 0.270794 0.064675 0.730843
O O12 0.852738 0.953860 0.684537
O O13 0.915475 0.022461 0.578441
O O14 0.177262 0.750000 0.061656
O O15 0.303654 0.585989 0.053241
O O16 0.718957 0.750000 0.873269
O O17 0.779866 0.885209 0.795332
O O18 0.639741 0.933836 0.889300
#
# Coordination Sequence:
#
# PCOD9464219 Si02
#       8
#     8   8   8   8   8   8   8   8
#     4  10  23  43  67  92 120 164 222 271 312 373
#     4  11  20  38  61  91 123 165 214 257 304 379
#     4  10  20  34  56  89 128 163 200 252 312 371
#     4  11  23  39  60  89 133 162 206 261 319 378
#     4  11  23  42  67  93 124 170 220 258 310 383
#     4  10  21  40  64  90 119 162 217 266 312 368
#     4  10  20  37  59  91 122 161 207 260 312 374
#     4  11  22  37  60  91 127 167 202 254 321 383
#
# _framework density 21.404108000000001
#
# number of rings (size 3 to 8) (size 9 to 14) (size 15 to 20)
#    0.000    1.500    5.000    0.750    0.000    4.000 
#    0.000    3.125    0.000    3.000    0.000    0.000 
#    0.000    0.000    0.000    0.000    0.000    0.000 
#
# Total GULP energy -357108.625621 kJ/mol
# GULP energy per Si atom -5579.822275 kJ/mol
# Density = 2.135539 g / cm^3
# Si number density = 21.404108 Si / 1000 Ang^3
#
#
#
# Elastic Constant Matrix: (Units=GPa)
#
#
# Indices 1 2 3 4 5 6 
#
# 1 87.9653 21.2127 4.6935 0.0000 0.0000 0.0000
# 2 21.2127 95.4690 16.9408 0.0000 0.0000 0.0000
# 3 4.6935 16.9408 76.2795 0.0000 0.0000 0.0000
# 4 0.0000 0.0000 0.0000 -156.7087 0.0000 0.0000
# 5 0.0000 0.0000 0.0000 0.0000 24.7171 0.0000
# 6 0.0000 0.0000 0.0000 0.0000 0.0000 21.1025
#
#
#
# Elastic Compliance Matrix: (Units=1/GPa)
#
#
# Indices 1 2 3 4 5 6 
#
# 1 0.012013 -0.002642 -0.000152 0.000000 0.000000 0.000000
# 2 -0.002642 0.011485 -0.002388 0.000000 0.000000 0.000000
# 3 -0.000152 -0.002388 0.013649 0.000000 0.000000 0.000000
# 4 0.000000 0.000000 0.000000 -0.006381 0.000000 0.000000
# 5 0.000000 0.000000 0.000000 0.000000 0.040458 0.000000
# 6 0.000000 0.000000 0.000000 0.000000 0.000000 0.047388
#
#
# Mechanical properties :
#
#
# Convention : Reuss Voigt Hill
#
# Bulk Modulus (GPa) = 37.33764 38.37867 37.85816
# Shear Modulus (GPa) = 36.25657 -7.72005 14.26826
#
# Velocity S-wave (km/s) = 4.12018 -1.90122 2.58469
# Velocity P-wave (km/s) = 6.33376 3.62628 5.16074
#
# Compressibility (1/GPa) = 0.02678262
#
# Stress axis : x y z
#
# Youngs Moduli (GPa) = 83.24016 87.06641 73.26304
#
# Poissons Ratio (x) = 0.23005 0.01116
# Poissons Ratio (y) = 0.21994 0.17497
# Poissons Ratio (z) = 0.01268 0.20793
#
# Static dielectric constant tensor:
#      x y z
#    x 1.872480 0.000000 0.000000 
#    y 0.000000 1.771470 0.000000 
#    z 0.000000 0.000000 1.809900 
# 
# From -- ./inp_files/24107.got.cif
#   From: 2010.05.17/outbox.cif.g08.bks.cpg/sg62_13_cif.got.tgz:24107.got - 2010.06.03 15:25:27.
