data_PCOD9464929
_publ_section_title
;
Structure prediction by ZEFSAII (Michael W. Deem and Ramdas Pophale) SiO2 
 PCOD9464929
Probable space group: P N M A
;
_chemical_formula_sum "Si O2"
_cell_formula_units_Z 64
_cell_length_a 25.764298
_cell_length_b 8.454989
_cell_length_c 14.913599
_cell_angle_alpha 90.000000
_cell_angle_beta 90.000000
_cell_angle_gamma 90.000000
_cell_volume 3248.731521
_symmetry_space_group_name_H-M "P N M A"
_symmetry_group_IT_number 62
_symmetry_cell_setting 'orthorhombic'
loop_
_space_group_symop_operation_xyz
x,y,z
1/2-x,-y,1/2+z
1/2+x,1/2-y,1/2-z
-x,1/2+y,-z
-x,-y,-z
1/2+x,y,1/2-z
1/2-x,1/2+y,1/2+z
x,1/2-y,z
loop_
_atom_site_type_symbol
_atom_site_label
_atom_site_fract_x
_atom_site_fract_y
_atom_site_fract_z
Si Si1 0.724026 0.559447 0.852890
Si Si2 0.449367 0.939311 0.550740
Si Si3 0.929056 0.061696 0.751823
Si Si4 0.185668 0.061902 0.282187
Si Si5 0.111854 0.059510 0.706931
Si Si6 0.366962 0.942725 0.405537
Si Si7 0.250554 0.440852 0.942535
Si Si8 0.489917 0.558376 0.100483
O O1 0.720786 0.750000 0.845715
O O2 0.769358 0.504933 0.785814
O O3 0.668187 0.490542 0.828154
O O4 0.739987 0.520062 0.954044
O O5 0.449130 0.750000 0.550492
O O6 0.399968 0.994329 0.491545
O O7 0.500000 0.000000 0.500000
O O8 0.447127 0.996545 0.652466
O O9 0.933675 0.250000 0.755016
O O10 0.965093 0.005831 0.669533
O O11 0.869634 0.014330 0.736577
O O12 0.180401 0.250000 0.271167
O O13 0.206580 0.019468 0.380161
O O14 0.109421 0.250000 0.708255
O O15 0.108283 0.005840 0.810896
O O16 0.064920 0.004292 0.643554
O O17 0.366884 0.750000 0.406037
O O18 0.307044 0.992443 0.412420
O O19 0.253558 0.250000 0.932741
O O20 0.489659 0.750000 0.098399
O O21 0.500000 0.500000 0.000000
#
# Coordination Sequence:
#
# PCOD9464929 Si02
#       8
#     8   8   8   8   8   8   8   8
#     4  10  22  38  58  88 125 160 197 246 305 364
#     4  11  22  39  64  94 126 162 204 254 310 369
#     4  11  24  43  64  89 124 165 208 255 310 373
#     4  11  23  40  61  90 126 160 200 253 305 361
#     4  10  20  38  63  87 114 154 203 251 300 360
#     4   9  18  36  62  87 119 159 198 245 303 364
#     4  10  20  37  60  84 115 159 201 241 303 368
#     4  10  24  43  63  88 120 160 208 259 310 363
#
# _framework density 19.699995999999999
#
# number of rings (size 3 to 8) (size 9 to 14) (size 15 to 20)
#    0.000    1.750    1.250    2.625    1.750    6.500 
#    0.000    5.000    0.000    0.000    0.000    0.000 
#    0.000    0.000    0.000    0.000    0.000    0.000 
#
# Total GULP energy -357637.486356 kJ/mol
# GULP energy per Si atom -5588.085724 kJ/mol
# Density = 1.965516 g / cm^3
# Si number density = 19.699996 Si / 1000 Ang^3
#
#
#
# Elastic Constant Matrix: (Units=GPa)
#
#
# Indices 1 2 3 4 5 6 
#
# 1 142.6231 21.5177 75.2441 0.0000 0.0000 0.0000
# 2 21.5177 19.7985 24.8377 0.0000 0.0000 0.0000
# 3 75.2441 24.8377 153.8447 0.0000 0.0000 0.0000
# 4 0.0000 0.0000 0.0000 31.2148 0.0000 0.0000
# 5 0.0000 0.0000 0.0000 0.0000 39.1047 0.0000
# 6 0.0000 0.0000 0.0000 0.0000 0.0000 27.1853
#
#
#
# Elastic Compliance Matrix: (Units=1/GPa)
#
#
# Indices 1 2 3 4 5 6 
#
# 1 0.009974 -0.005919 -0.003923 0.000000 0.000000 0.000000
# 2 -0.005919 0.066850 -0.007898 0.000000 0.000000 0.000000
# 3 -0.003923 -0.007898 0.009694 0.000000 0.000000 0.000000
# 4 0.000000 0.000000 0.000000 0.032036 0.000000 0.000000
# 5 0.000000 0.000000 0.000000 0.000000 0.025572 0.000000
# 6 0.000000 0.000000 0.000000 0.000000 0.000000 0.036785
#
#
# Mechanical properties :
#
#
# Convention : Reuss Voigt Hill
#
# Bulk Modulus (GPa) = 19.59301 62.16281 40.87791
# Shear Modulus (GPa) = 21.42230 32.47875 26.95052
#
# Velocity S-wave (km/s) = 3.30119 4.06478 3.70272
# Velocity P-wave (km/s) = 4.94952 7.32483 6.25104
#
# Compressibility (1/GPa) = 0.05103860
#
# Stress axis : x y z
#
# Youngs Moduli (GPa) = 100.26132 14.95894 103.16080
#
# Poissons Ratio (x) = 0.08854 0.40465
# Poissons Ratio (y) = 0.59345 0.81473
# Poissons Ratio (z) = 0.39328 0.11814
#
# Static dielectric constant tensor:
#      x y z
#    x 1.674810 0.000000 0.000000 
#    y 0.000000 1.695160 0.000000 
#    z 0.000000 0.000000 1.686800 
# 
# From -- ./inp_files/20879.got.cif
#   From: 2010.05.17/outbox.cif.g08.bks.cpg/sg62_11_cif.got.tgz:20879.got - 2010.06.03 15:25:27.
