data_PCOD9464334
_publ_section_title
;
Structure prediction by ZEFSAII (Michael W. Deem and Ramdas Pophale) SiO2 
 PCOD9464334
Probable space group: P N M A
;
_chemical_formula_sum "Si O2"
_cell_formula_units_Z 40
_cell_length_a 13.766081
_cell_length_b 17.850956
_cell_length_c 8.403679
_cell_angle_alpha 90.000000
_cell_angle_beta 90.000000
_cell_angle_gamma 90.000000
_cell_volume 2065.100801
_symmetry_space_group_name_H-M "P N M A"
_symmetry_group_IT_number 62
_symmetry_cell_setting 'orthorhombic'
loop_
_space_group_symop_operation_xyz
x,y,z
1/2-x,-y,1/2+z
1/2+x,1/2-y,1/2-z
-x,1/2+y,-z
-x,-y,-z
1/2+x,y,1/2-z
1/2-x,1/2+y,1/2+z
x,1/2-y,z
loop_
_atom_site_type_symbol
_atom_site_label
_atom_site_fract_x
_atom_site_fract_y
_atom_site_fract_z
Si Si1 0.653964 0.016969 0.725142
Si Si2 0.139648 0.334907 0.963607
Si Si3 0.868192 0.166499 0.496728
Si Si4 0.489837 0.102906 0.285071
Si Si5 0.868948 0.008772 0.600974
O O1 0.630543 0.100262 0.667039
O O2 0.586565 0.955438 0.637840
O O3 0.764829 0.000516 0.682104
O O4 0.639807 0.007814 0.913313
O O5 0.128397 0.250000 0.904537
O O6 0.251259 0.341249 0.028245
O O7 0.059223 0.352639 0.096516
O O8 0.886023 0.250000 0.559968
O O9 0.927073 0.154592 0.333418
O O10 0.897266 0.096784 0.608917
O O11 0.557748 0.048177 0.180827
#
# Coordination Sequence:
#
# PCOD9464334 Si02
#       5
#     8   8   8   8   8
#     4  10  20  35  55  78 107 139 179 220 260 314
#     4  10  21  36  54  77 108 142 175 219 270 313
#     4   9  18  32  50  74 105 137 169 209 259 311
#     4  11  19  34  57  81 103 137 179 220 262 315
#     4  10  20  35  56  80 106 141 179 216 261 315
#
# _framework density 19.369513999999999
#
# number of rings (size 3 to 8) (size 9 to 14) (size 15 to 20)
#    0.000    2.000    0.000    7.200    0.000    0.000 
#    0.000    5.000    0.000   13.200    0.000    0.000 
#    0.000    0.000    0.000    0.000    0.000    0.000 
#
# Total GULP energy -223229.027890 kJ/mol
# GULP energy per Si atom -5580.725697 kJ/mol
# Density = 1.932543 g / cm^3
# Si number density = 19.369514 Si / 1000 Ang^3
#
#
#
# Elastic Constant Matrix: (Units=GPa)
#
#
# Indices 1 2 3 4 5 6 
#
# 1 62.7082 23.2133 4.1696 0.0000 0.0000 0.0000
# 2 23.2133 107.8465 13.0847 0.0000 0.0000 0.0000
# 3 4.1696 13.0847 16.6594 0.0000 0.0000 0.0000
# 4 0.0000 0.0000 0.0000 20.2914 0.0000 0.0000
# 5 0.0000 0.0000 0.0000 0.0000 21.1337 0.0000
# 6 0.0000 0.0000 0.0000 0.0000 0.0000 24.1564
#
#
#
# Elastic Compliance Matrix: (Units=1/GPa)
#
#
# Indices 1 2 3 4 5 6 
#
# 1 0.017364 -0.003548 -0.001559 0.000000 0.000000 0.000000
# 2 -0.003548 0.010974 -0.007731 0.000000 0.000000 0.000000
# 3 -0.001559 -0.007731 0.066489 0.000000 0.000000 0.000000
# 4 0.000000 0.000000 0.000000 0.049282 0.000000 0.000000
# 5 0.000000 0.000000 0.000000 0.000000 0.047318 0.000000
# 6 0.000000 0.000000 0.000000 0.000000 0.000000 0.041397
#
#
# Mechanical properties :
#
#
# Convention : Reuss Voigt Hill
#
# Bulk Modulus (GPa) = 14.46142 29.79438 22.12790
# Shear Modulus (GPa) = 17.75880 22.89941 20.32910
#
# Velocity S-wave (km/s) = 3.03123 3.44210 3.24318
# Velocity P-wave (km/s) = 4.44223 5.58685 5.04709
#
# Compressibility (1/GPa) = 0.06914952
#
# Stress axis : x y z
#
# Youngs Moduli (GPa) = 57.59018 91.12262 15.04019
#
# Poissons Ratio (x) = 0.32334 0.02345
# Poissons Ratio (y) = 0.20435 0.11628
# Poissons Ratio (z) = 0.08978 0.70450
#
# Static dielectric constant tensor:
#      x y z
#    x 1.718230 0.000000 0.000000 
#    y 0.000000 1.698000 0.000000 
#    z 0.000000 0.000000 1.652910 
# 
# From -- ./inp_files/5040.got.cif
#   From: 2010.05.17/outbox.cif.g08.bks.cpg/sg62_3_cif.got.tgz:5040.got - 2010.06.03 15:25:27.
