data_PCOD9464261
_publ_section_title
;
Structure prediction by ZEFSAII (Michael W. Deem and Ramdas Pophale) SiO2 
 PCOD9464261
Probable space group: P N M A
;
_chemical_formula_sum "Si O2"
_cell_formula_units_Z 48
_cell_length_a 21.235105
_cell_length_b 14.410474
_cell_length_c 8.545649
_cell_angle_alpha 90.000000
_cell_angle_beta 90.000000
_cell_angle_gamma 90.000000
_cell_volume 2615.036348
_symmetry_space_group_name_H-M "P N M A"
_symmetry_group_IT_number 62
_symmetry_cell_setting 'orthorhombic'
loop_
_space_group_symop_operation_xyz
x,y,z
1/2-x,-y,1/2+z
1/2+x,1/2-y,1/2-z
-x,1/2+y,-z
-x,-y,-z
1/2+x,y,1/2-z
1/2-x,1/2+y,1/2+z
x,1/2-y,z
loop_
_atom_site_type_symbol
_atom_site_label
_atom_site_fract_x
_atom_site_fract_y
_atom_site_fract_z
Si Si1 0.700974 0.453479 0.898421
Si Si2 0.372921 0.750000 0.435179
Si Si3 0.504133 0.750000 0.613537
Si Si4 0.941319 0.548099 0.418058
Si Si5 0.557082 0.250000 0.039904
Si Si6 0.940828 0.047488 0.079718
Si Si7 0.680471 0.449437 0.527760
Si Si8 0.314770 0.750000 0.079877
O O1 0.631314 0.466424 0.975154
O O2 0.692459 0.459124 0.712818
O O3 0.721036 0.346792 0.930792
O O4 0.754480 0.524025 0.947838
O O5 0.446345 0.750000 0.487306
O O6 0.343202 0.655137 0.501078
O O7 0.353211 0.750000 0.248769
O O8 0.475189 0.750000 0.790269
O O9 0.544947 0.843584 0.595242
O O10 0.955951 0.656967 0.441319
O O11 0.938631 0.505331 0.245806
O O12 0.000000 0.500000 0.500000
O O13 0.632678 0.250000 0.055080
O O14 0.876712 0.019833 0.990800
O O15 0.000000 0.000000 0.000000
#
# Coordination Sequence:
#
# PCOD9464261 Si02
#       8
#     8   4   4   8   4   8   8   4
#     4   9  20  35  59  82 115 151 192 236 291 350
#     4  10  20  38  62  83 115 154 206 240 289 366
#     4  12  22  35  59  94 116 152 206 249 299 355
#     4  10  20  38  58  87 120 156 198 248 297 353
#     4  10  20  34  59  86 118 160 199 233 298 367
#     4  11  23  37  59  89 121 152 196 256 296 344
#     4  10  21  39  58  86 117 156 193 242 295 353
#     4   8  18  37  58  81 111 156 193 236 296 354
#
# _framework density 18.355385999999999
#
# number of rings (size 3 to 8) (size 9 to 14) (size 15 to 20)
#    0.000    2.000    3.333    1.000    0.000    4.667 
#    0.000    4.167    0.000    2.000    0.000    0.000 
#    0.000    0.000    0.000    0.000    0.000    0.000 
#
# Total GULP energy -267287.986016 kJ/mol
# GULP energy per Si atom -5568.499709 kJ/mol
# Density = 1.831361 g / cm^3
# Si number density = 18.355386 Si / 1000 Ang^3
#
#
#
# Elastic Constant Matrix: (Units=GPa)
#
#
# Indices 1 2 3 4 5 6 
#
# 1 114.4655 68.7522 21.2751 0.0000 0.0000 0.0000
# 2 68.7522 150.6255 25.4467 0.0000 0.0000 0.0000
# 3 21.2751 25.4467 14.9523 0.0000 0.0000 0.0000
# 4 0.0000 0.0000 0.0000 15.3763 0.0000 0.0000
# 5 0.0000 0.0000 0.0000 0.0000 29.2435 0.0000
# 6 0.0000 0.0000 0.0000 0.0000 0.0000 28.9567
#
#
#
# Elastic Compliance Matrix: (Units=1/GPa)
#
#
# Indices 1 2 3 4 5 6 
#
# 1 0.013455 -0.004080 -0.012200 0.000000 0.000000 0.000000
# 2 -0.004080 0.010555 -0.012158 0.000000 0.000000 0.000000
# 3 -0.012200 -0.012158 0.104930 0.000000 0.000000 0.000000
# 4 0.000000 0.000000 0.000000 0.065035 0.000000 0.000000
# 5 0.000000 0.000000 0.000000 0.000000 0.034196 0.000000
# 6 0.000000 0.000000 0.000000 0.000000 0.000000 0.034534
#
#
# Mechanical properties :
#
#
# Convention : Reuss Voigt Hill
#
# Bulk Modulus (GPa) = 13.87672 56.77681 35.32676
# Shear Modulus (GPa) = 14.55166 25.68660 20.11913
#
# Velocity S-wave (km/s) = 2.81868 3.74492 3.31431
# Velocity P-wave (km/s) = 4.26259 7.04970 5.82529
#
# Compressibility (1/GPa) = 0.07206314
#
# Stress axis : x y z
#
# Youngs Moduli (GPa) = 74.32447 94.73854 9.53013
#
# Poissons Ratio (x) = 0.38655 0.11627
# Poissons Ratio (y) = 0.30325 0.11587
# Poissons Ratio (z) = 0.90677 1.15186
#
# Static dielectric constant tensor:
#      x y z
#    x 1.654000 0.000000 0.000000 
#    y 0.000000 1.601550 0.000000 
#    z 0.000000 0.000000 1.657680 
# 
# From -- ./inp_files/8621.got.cif
#   From: 2010.05.17/outbox.cif.g08.bks.cpg/sg62_5_cif.got.tgz:8621.got - 2010.06.03 15:25:27.
