data_PCOD9464250
_publ_section_title
;
Structure prediction by ZEFSAII (Michael W. Deem and Ramdas Pophale) SiO2 
 PCOD9464250
Probable space group: P N M A
;
_chemical_formula_sum "Si O2"
_cell_formula_units_Z 40
_cell_length_a 17.391856
_cell_length_b 7.730850
_cell_length_c 12.623443
_cell_angle_alpha 90.000000
_cell_angle_beta 90.000000
_cell_angle_gamma 90.000000
_cell_volume 1697.270259
_symmetry_space_group_name_H-M "P N M A"
_symmetry_group_IT_number 62
_symmetry_cell_setting 'orthorhombic'
loop_
_space_group_symop_operation_xyz
x,y,z
1/2-x,-y,1/2+z
1/2+x,1/2-y,1/2-z
-x,1/2+y,-z
-x,-y,-z
1/2+x,y,1/2-z
1/2-x,1/2+y,1/2+z
x,1/2-y,z
loop_
_atom_site_type_symbol
_atom_site_label
_atom_site_fract_x
_atom_site_fract_y
_atom_site_fract_z
Si Si1 0.883063 0.445033 0.073578
Si Si2 0.585096 0.447112 0.959080
Si Si3 0.949682 0.458744 0.863992
Si Si4 0.347893 0.040265 0.823065
Si Si5 0.194483 0.053929 0.721927
O O1 0.852158 0.250000 0.079597
O O2 0.843147 0.558270 0.161741
O O3 0.972579 0.447388 0.105773
O O4 0.885220 0.503303 0.951891
O O5 0.573029 0.250000 0.925783
O O6 0.640872 0.465301 0.060663
O O7 0.500000 0.500000 0.000000
O O8 0.633128 0.527797 0.860225
O O9 0.960770 0.250000 0.872480
O O10 0.923075 0.498200 0.746333
O O11 0.341214 0.250000 0.832670
O O12 0.276853 0.974925 0.752024
O O13 0.210322 0.250000 0.683196
#
# Coordination Sequence:
#
# PCOD9464250 Si02
#       5
#     8   8   8   8   8
#     4  10  20  34  58  87 115 148 192 241 286 346
#     4  11  24  42  65  91 124 164 207 252 303 363
#     4   9  19  36  58  82 114 152 189 235 293 351
#     4  10  22  40  61  85 117 157 200 245 299 358
#     4  10  23  40  59  84 120 160 195 241 303 360
#
# _framework density 23.567254999999999
#
# number of rings (size 3 to 8) (size 9 to 14) (size 15 to 20)
#    0.000    2.000    0.000    2.400    2.800    8.800 
#    0.000    0.000    0.000    0.000    0.000    0.000 
#    0.000    0.000    0.000    0.000    0.000    0.000 
#
# Total GULP energy -223122.400527 kJ/mol
# GULP energy per Si atom -5578.060013 kJ/mol
# Density = 2.351361 g / cm^3
# Si number density = 23.567255 Si / 1000 Ang^3
#
#
#
# Elastic Constant Matrix: (Units=GPa)
#
#
# Indices 1 2 3 4 5 6 
#
# 1 68.9641 -1.1871 3.2471 0.0000 0.0000 0.0000
# 2 -1.1871 28.2935 -6.8297 0.0000 0.0000 0.0000
# 3 3.2471 -6.8297 73.2938 0.0000 0.0000 0.0000
# 4 0.0000 0.0000 0.0000 6.3926 0.0000 0.0000
# 5 0.0000 0.0000 0.0000 0.0000 44.1731 0.0000
# 6 0.0000 0.0000 0.0000 0.0000 0.0000 18.3096
#
#
#
# Elastic Compliance Matrix: (Units=1/GPa)
#
#
# Indices 1 2 3 4 5 6 
#
# 1 0.014537 0.000465 -0.000601 0.000000 0.000000 0.000000
# 2 0.000465 0.036172 0.003350 0.000000 0.000000 0.000000
# 3 -0.000601 0.003350 0.013982 0.000000 0.000000 0.000000
# 4 0.000000 0.000000 0.000000 0.156432 0.000000 0.000000
# 5 0.000000 0.000000 0.000000 0.000000 0.022638 0.000000
# 6 0.000000 0.000000 0.000000 0.000000 0.000000 0.054616
#
#
# Mechanical properties :
#
#
# Convention : Reuss Voigt Hill
#
# Bulk Modulus (GPa) = 14.06085 17.89022 15.97554
# Shear Modulus (GPa) = 15.84008 25.46312 20.65160
#
# Velocity S-wave (km/s) = 2.59534 3.29058 2.96342
# Velocity P-wave (km/s) = 3.86785 4.69519 4.30146
#
# Compressibility (1/GPa) = 0.07111947
#
# Stress axis : x y z
#
# Youngs Moduli (GPa) = 68.79195 27.64573 71.51798
#
# Poissons Ratio (x) = -0.01285 0.04296
# Poissons Ratio (y) = -0.03198 -0.23959
# Poissons Ratio (z) = 0.04132 -0.09261
#
# Static dielectric constant tensor:
#      x y z
#    x 1.963370 0.000000 0.000000 
#    y 0.000000 2.122850 0.000000 
#    z 0.000000 0.000000 1.901980 
# 
# From -- ./inp_files/13847.got.cif
#   From: 2010.05.17/outbox.cif.g08.bks.cpg/sg62_7_cif.got.tgz:13847.got - 2010.06.03 15:25:27.
