data_PCOD9464751
_publ_section_title
;
Structure prediction by ZEFSAII (Michael W. Deem and Ramdas Pophale) SiO2 
 PCOD9464751
Probable space group: P N M A
;
_chemical_formula_sum "Si O2"
_cell_formula_units_Z 64
_cell_length_a 29.347904
_cell_length_b 7.885803
_cell_length_c 12.823786
_cell_angle_alpha 90.000000
_cell_angle_beta 90.000000
_cell_angle_gamma 90.000000
_cell_volume 2967.831741
_symmetry_space_group_name_H-M "P N M A"
_symmetry_group_IT_number 62
_symmetry_cell_setting 'orthorhombic'
loop_
_space_group_symop_operation_xyz
x,y,z
1/2-x,-y,1/2+z
1/2+x,1/2-y,1/2-z
-x,1/2+y,-z
-x,-y,-z
1/2+x,y,1/2-z
1/2-x,1/2+y,1/2+z
x,1/2-y,z
loop_
_atom_site_type_symbol
_atom_site_label
_atom_site_fract_x
_atom_site_fract_y
_atom_site_fract_z
Si Si1 0.166097 0.051114 0.796880
Si Si2 0.066942 0.451022 0.755665
Si Si3 0.203742 0.947476 0.007336
Si Si4 0.018151 0.954619 0.114091
Si Si5 0.634809 0.956735 0.116112
Si Si6 0.198213 0.946384 0.571237
Si Si7 0.121504 0.542463 0.150726
Si Si8 0.448307 0.048043 0.021461
O O1 0.165060 0.250000 0.822253
O O2 0.114397 0.979739 0.800799
O O3 0.184200 0.032171 0.679361
O O4 0.197283 0.965786 0.883729
O O5 0.067401 0.250000 0.776574
O O6 0.067089 0.475551 0.632023
O O7 0.020223 0.519330 0.805094
O O8 0.209500 0.750000 0.034290
O O9 0.157519 0.010258 0.062985
O O10 0.248420 0.039658 0.048631
O O11 0.020103 0.750000 0.124168
O O12 0.069670 0.016745 0.132141
O O13 0.000000 0.000000 0.000000
O O14 0.637078 0.750000 0.118933
O O15 0.638904 0.012706 0.235198
O O16 0.671550 0.014693 0.030590
O O17 0.585619 0.006730 0.070194
O O18 0.184723 0.750000 0.582935
O O19 0.120174 0.750000 0.149526
O O20 0.444904 0.250000 0.028400
O O21 0.500000 0.000000 0.000000
#
# Coordination Sequence:
#
# PCOD9464751 Si02
#       8
#     8   8   8   8   8   8   8   8
#     4  11  23  41  64  90 126 164 203 257 314 373
#     4  10  21  37  59  87 120 158 204 258 310 363
#     4  11  24  40  63  93 124 160 207 258 312 379
#     4  10  20  36  59  86 120 161 205 250 299 359
#     4   9  19  37  60  85 117 156 199 248 308 371
#     4  11  23  41  65  92 120 158 206 259 317 378
#     4   9  19  37  60  87 121 162 202 246 302 367
#     4  11  21  35  57  86 120 159 202 250 305 370
#
# _framework density 21.564563
#
# number of rings (size 3 to 8) (size 9 to 14) (size 15 to 20)
#    0.000    1.750    1.250    3.000    1.750    3.000 
#    0.000    0.625    0.000    4.500    0.000    0.000 
#    0.000    0.000    0.000    0.000    0.000    0.000 
#
# Total GULP energy -357665.408597 kJ/mol
# GULP energy per Si atom -5588.522009 kJ/mol
# Density = 2.151548 g / cm^3
# Si number density = 21.564563 Si / 1000 Ang^3
#
#
#
# Elastic Constant Matrix: (Units=GPa)
#
#
# Indices 1 2 3 4 5 6 
#
# 1 112.8682 4.0854 31.3898 0.0000 0.0000 0.0000
# 2 4.0854 22.6472 -6.7790 0.0000 0.0000 0.0000
# 3 31.3898 -6.7790 106.6827 0.0000 0.0000 0.0000
# 4 0.0000 0.0000 0.0000 18.2393 0.0000 0.0000
# 5 0.0000 0.0000 0.0000 0.0000 36.5511 0.0000
# 6 0.0000 0.0000 0.0000 0.0000 0.0000 18.9991
#
#
#
# Elastic Compliance Matrix: (Units=1/GPa)
#
#
# Indices 1 2 3 4 5 6 
#
# 1 0.009807 -0.002684 -0.003056 0.000000 0.000000 0.000000
# 2 -0.002684 0.045746 0.003697 0.000000 0.000000 0.000000
# 3 -0.003056 0.003697 0.010508 0.000000 0.000000 0.000000
# 4 0.000000 0.000000 0.000000 0.054827 0.000000 0.000000
# 5 0.000000 0.000000 0.000000 0.000000 0.027359 0.000000
# 6 0.000000 0.000000 0.000000 0.000000 0.000000 0.052634
#
#
# Mechanical properties :
#
#
# Convention : Reuss Voigt Hill
#
# Bulk Modulus (GPa) = 16.13582 33.28784 24.71183
# Shear Modulus (GPa) = 22.16063 28.99136 25.57599
#
# Velocity S-wave (km/s) = 3.20916 3.67058 3.44760
# Velocity P-wave (km/s) = 4.60765 5.78222 5.22803
#
# Compressibility (1/GPa) = 0.06197392
#
# Stress axis : x y z
#
# Youngs Moduli (GPa) = 101.96828 21.85978 95.16834
#
# Poissons Ratio (x) = 0.05867 0.29084
# Poissons Ratio (y) = 0.27367 -0.35179
# Poissons Ratio (z) = 0.31163 -0.08081
#
# Static dielectric constant tensor:
#      x y z
#    x 1.780200 0.000000 0.000000 
#    y 0.000000 1.775660 0.000000 
#    z 0.000000 0.000000 1.749530 
# 
# From -- ./inp_files/15904.got.cif
#   From: 2010.05.17/outbox.cif.g08.bks.cpg/sg62_8_cif.got.tgz:15904.got - 2010.06.03 15:25:27.
