data_PCOD9464793
_publ_section_title
;
Structure prediction by ZEFSAII (Michael W. Deem and Ramdas Pophale) SiO2 
 PCOD9464793
Probable space group: P N M A
;
_chemical_formula_sum "Si O2"
_cell_formula_units_Z 48
_cell_length_a 7.766599
_cell_length_b 13.622145
_cell_length_c 17.415381
_cell_angle_alpha 90.000000
_cell_angle_beta 90.000000
_cell_angle_gamma 90.000000
_cell_volume 1842.507912
_symmetry_space_group_name_H-M "P N M A"
_symmetry_group_IT_number 62
_symmetry_cell_setting 'orthorhombic'
loop_
_space_group_symop_operation_xyz
x,y,z
1/2-x,-y,1/2+z
1/2+x,1/2-y,1/2-z
-x,1/2+y,-z
-x,-y,-z
1/2+x,y,1/2-z
1/2-x,1/2+y,1/2+z
x,1/2-y,z
loop_
_atom_site_type_symbol
_atom_site_label
_atom_site_fract_x
_atom_site_fract_y
_atom_site_fract_z
Si Si1 0.336352 0.480045 0.894405
Si Si2 0.519535 0.564887 0.761708
Si Si3 0.106736 0.140606 0.792451
Si Si4 0.175861 0.142015 0.135312
Si Si5 0.402527 0.132901 0.481601
Si Si6 0.330119 0.640249 0.112122
O O1 0.366030 0.552330 0.822022
O O2 0.243100 0.383886 0.859004
O O3 0.225744 0.550736 0.947731
O O4 0.524193 0.436730 0.916073
O O5 0.511531 0.462965 0.714938
O O6 0.481126 0.643355 0.696546
O O7 0.680329 0.582584 0.818145
O O8 0.034137 0.250000 0.802799
O O9 0.178873 0.141509 0.704302
O O10 0.249798 0.250000 0.123264
O O11 0.089655 0.110453 0.054882
O O12 0.374593 0.250000 0.461888
O O13 0.354899 0.125983 0.571582
O O14 0.387743 0.750000 0.088809
#
# Coordination Sequence:
#
# PCOD9464793 Si02
#       6
#     8   8   8   8   8   8
#     4  11  20  36  62  89 121 157 209 249 304 351
#     4  11  21  37  56  89 123 149 208 250 299 356
#     4  10  20  36  60  88 120 157 202 254 301 354
#     4  11  21  36  58  86 123 163 197 245 300 363
#     4  10  21  38  60  89 125 163 201 244 307 368
#     4   9  20  37  60  92 125 161 201 249 306 363
#
# _framework density 26.051449999999999
#
# number of rings (size 3 to 8) (size 9 to 14) (size 15 to 20)
#    0.000    1.667    3.333    1.500    0.000    3.333 
#    0.000    3.333    0.000    0.000    0.000   14.000 
#    0.000    0.000    0.000    0.000    0.000    0.000 
#
# Total GULP energy -267743.275112 kJ/mol
# GULP energy per Si atom -5577.984898 kJ/mol
# Density = 2.599216 g / cm^3
# Si number density = 26.051450 Si / 1000 Ang^3
#
#
#
# Elastic Constant Matrix: (Units=GPa)
#
#
# Indices 1 2 3 4 5 6 
#
# 1 74.4958 50.5744 7.1115 0.0000 0.0000 0.0000
# 2 50.5744 164.0048 48.8670 0.0000 0.0000 0.0000
# 3 7.1115 48.8670 74.1642 0.0000 0.0000 0.0000
# 4 0.0000 0.0000 0.0000 20.7991 0.0000 0.0000
# 5 0.0000 0.0000 0.0000 0.0000 44.0287 0.0000
# 6 0.0000 0.0000 0.0000 0.0000 0.0000 35.3588
#
#
#
# Elastic Compliance Matrix: (Units=1/GPa)
#
#
# Indices 1 2 3 4 5 6 
#
# 1 0.017290 -0.006019 0.002308 0.000000 0.000000 0.000000
# 2 -0.006019 0.009683 -0.005803 0.000000 0.000000 0.000000
# 3 0.002308 -0.005803 0.017086 0.000000 0.000000 0.000000
# 4 0.000000 0.000000 0.000000 0.048079 0.000000 0.000000
# 5 0.000000 0.000000 0.000000 0.000000 0.022712 0.000000
# 6 0.000000 0.000000 0.000000 0.000000 0.000000 0.028281
#
#
# Mechanical properties :
#
#
# Convention : Reuss Voigt Hill
#
# Bulk Modulus (GPa) = 39.95145 58.41896 49.18521
# Shear Modulus (GPa) = 29.32519 33.77814 31.55167
#
# Velocity S-wave (km/s) = 3.35873 3.60473 3.48390
# Velocity P-wave (km/s) = 5.51456 6.30861 5.92490
#
# Compressibility (1/GPa) = 0.02503038
#
# Stress axis : x y z
#
# Youngs Moduli (GPa) = 57.83774 103.27829 58.52869
#
# Poissons Ratio (x) = 0.62168 -0.13510
# Poissons Ratio (y) = 0.34815 0.33962
# Poissons Ratio (z) = -0.13351 0.59929
#
# Static dielectric constant tensor:
#      x y z
#    x 2.159540 0.000000 0.000000 
#    y 0.000000 1.998400 0.000000 
#    z 0.000000 0.000000 2.052910 
# 
# From -- ./inp_files/22217.got.cif
#   From: 2010.05.17/outbox.cif.g08.bks.cpg/sg62_12_cif.got.tgz:22217.got - 2010.06.03 15:25:27.
