data_PCOD9464244
_publ_section_title
;
Structure prediction by ZEFSAII (Michael W. Deem and Ramdas Pophale) SiO2 
 PCOD9464244
Probable space group: P N M A
;
_chemical_formula_sum "Si O2"
_cell_formula_units_Z 32
_cell_length_a 5.114234
_cell_length_b 7.442035
_cell_length_c 34.202932
_cell_angle_alpha 90.000000
_cell_angle_beta 90.000000
_cell_angle_gamma 90.000000
_cell_volume 1301.774141
_symmetry_space_group_name_H-M "P N M A"
_symmetry_group_IT_number 62
_symmetry_cell_setting 'orthorhombic'
loop_
_space_group_symop_operation_xyz
x,y,z
1/2-x,-y,1/2+z
1/2+x,1/2-y,1/2-z
-x,1/2+y,-z
-x,-y,-z
1/2+x,y,1/2-z
1/2-x,1/2+y,1/2+z
x,1/2-y,z
loop_
_atom_site_type_symbol
_atom_site_label
_atom_site_fract_x
_atom_site_fract_y
_atom_site_fract_z
Si Si1 0.393691 0.464334 0.456907
Si Si2 0.755903 0.250000 0.276703
Si Si3 0.894972 0.030246 0.413845
Si Si4 0.341345 0.750000 0.277733
Si Si5 0.900408 0.546741 0.669662
O O1 0.500000 0.500000 0.500000
O O2 0.382631 0.250000 0.452667
O O3 0.104283 0.528702 0.446537
O O4 0.607888 0.532045 0.425853
O O5 0.474543 0.250000 0.257660
O O6 0.842607 0.083957 0.303785
O O7 0.884480 0.250000 0.412670
O O8 0.005596 0.974727 0.371901
O O9 0.114266 0.750000 0.244683
O O10 0.285328 0.580664 0.305821
O O11 0.788110 0.750000 0.663442
#
# Coordination Sequence:
#
# PCOD9464244 Si02
#       5
#     8   4   8   4   8
#     4  10  20  36  58  85 115 150 190 236 288 348
#     4  10  20  34  58  84 109 148 193 232 290 348
#     4   9  19  37  58  83 114 151 193 236 287 349
#     4  12  26  42  62  92 125 158 205 254 298 362
#     4   9  22  42  63  90 120 164 199 252 304 356
#
# _framework density 24.581835000000002
#
# number of rings (size 3 to 8) (size 9 to 14) (size 15 to 20)
#    0.750    1.500    0.000    2.250    0.000    4.000 
#    4.500    0.000    0.000    0.000    0.000    0.000 
#    0.000    0.000    0.000    0.000    0.000    0.000 
#
# Total GULP energy -179007.259320 kJ/mol
# GULP energy per Si atom -5593.976854 kJ/mol
# Density = 2.452589 g / cm^3
# Si number density = 24.581835 Si / 1000 Ang^3
#
#
#
# Elastic Constant Matrix: (Units=GPa)
#
#
# Indices 1 2 3 4 5 6 
#
# 1 74.5208 3.4766 -17.9174 0.0000 0.0000 0.0000
# 2 3.4766 89.1146 -6.0085 0.0000 0.0000 0.0000
# 3 -17.9174 -6.0085 73.5578 0.0000 0.0000 0.0000
# 4 0.0000 0.0000 0.0000 27.7135 0.0000 0.0000
# 5 0.0000 0.0000 0.0000 0.0000 11.9909 0.0000
# 6 0.0000 0.0000 0.0000 0.0000 0.0000 3.9750
#
#
#
# Elastic Compliance Matrix: (Units=1/GPa)
#
#
# Indices 1 2 3 4 5 6 
#
# 1 0.014263 -0.000324 0.003448 0.000000 0.000000 0.000000
# 2 -0.000324 0.011291 0.000843 0.000000 0.000000 0.000000
# 3 0.003448 0.000843 0.014503 0.000000 0.000000 0.000000
# 4 0.000000 0.000000 0.000000 0.036083 0.000000 0.000000
# 5 0.000000 0.000000 0.000000 0.000000 0.083396 0.000000
# 6 0.000000 0.000000 0.000000 0.000000 0.000000 0.251575
#
#
# Mechanical properties :
#
#
# Convention : Reuss Voigt Hill
#
# Bulk Modulus (GPa) = 20.83680 21.81052 21.32366
# Shear Modulus (GPa) = 11.92817 25.91204 18.92010
#
# Velocity S-wave (km/s) = 2.20521 3.25023 2.77732
# Velocity P-wave (km/s) = 3.87025 4.79346 4.35638
#
# Compressibility (1/GPa) = 0.04799200
#
# Stress axis : x y z
#
# Youngs Moduli (GPa) = 70.11068 88.56603 68.94904
#
# Poissons Ratio (x) = 0.02869 -0.23772
# Poissons Ratio (y) = 0.02271 -0.05815
# Poissons Ratio (z) = -0.24173 -0.07470
#
# Static dielectric constant tensor:
#      x y z
#    x 1.924190 0.000000 0.000000 
#    y 0.000000 2.039320 0.000000 
#    z 0.000000 0.000000 1.927380 
# 
# From -- ./inp_files/31436.got.cif
#   From: 2010.05.17/outbox.cif.g08.bks.cpg/sg62_16_cif.got.tgz:31436.got - 2010.06.03 15:25:27.
