data_PCOD9464059
_publ_section_title
;
Structure prediction by ZEFSAII (Michael W. Deem and Ramdas Pophale) SiO2 
 PCOD9464059
Probable space group: P N M A
;
_chemical_formula_sum "Si O2"
_cell_formula_units_Z 64
_cell_length_a 20.162429
_cell_length_b 8.812787
_cell_length_c 20.928510
_cell_angle_alpha 90.000000
_cell_angle_beta 90.000000
_cell_angle_gamma 90.000000
_cell_volume 3718.728178
_symmetry_space_group_name_H-M "P N M A"
_symmetry_group_IT_number 62
_symmetry_cell_setting 'orthorhombic'
loop_
_space_group_symop_operation_xyz
x,y,z
1/2-x,-y,1/2+z
1/2+x,1/2-y,1/2-z
-x,1/2+y,-z
-x,-y,-z
1/2+x,y,1/2-z
1/2-x,1/2+y,1/2+z
x,1/2-y,z
loop_
_atom_site_type_symbol
_atom_site_label
_atom_site_fract_x
_atom_site_fract_y
_atom_site_fract_z
Si Si1 0.178195 0.933383 0.821710
Si Si2 0.327880 0.431980 0.175734
Si Si3 0.577124 0.068649 0.930711
Si Si4 0.076543 0.567126 0.931597
Si Si5 0.323509 0.067908 0.819931
Si Si6 0.076485 0.932901 0.431963
Si Si7 0.076703 0.432968 0.068446
Si Si8 0.673930 0.066928 0.318022
O O1 0.184719 0.750000 0.823244
O O2 0.156857 0.973795 0.749404
O O3 0.125021 0.980638 0.874660
O O4 0.250129 0.004526 0.833922
O O5 0.334019 0.250000 0.169750
O O6 0.375579 0.508587 0.124815
O O7 0.250339 0.471727 0.165805
O O8 0.419979 0.750000 0.066840
O O9 0.500147 0.023351 0.919219
O O10 0.596269 0.002123 0.999848
O O11 0.078400 0.750000 0.935185
O O12 0.999940 0.522277 0.919633
O O13 0.096690 0.500111 0.000017
O O14 0.321609 0.250000 0.818008
O O15 0.375130 0.020162 0.874726
O O16 0.342842 0.005221 0.750247
O O17 0.078936 0.750000 0.436924
O O18 0.079201 0.250000 0.064668
O O19 0.124533 0.481069 0.125820
O O20 0.670770 0.250000 0.311626
#
# Coordination Sequence:
#
# PCOD9464059 Si02
#       8
#     8   8   8   8   8   8   8   8
#     4   9  19  35  52  73 102 133 165 201 244 294
#     4   9  18  33  51  72 101 132 160 200 250 291
#     4  10  20  34  53  75  98 128 167 205 241 292
#     4   9  18  33  52  74 101 131 165 206 245 285
#     4  10  20  34  53  75  99 128 163 205 249 291
#     4   9  20  37  52  71 101 131 161 203 252 294
#     4   9  18  33  52  74 100 132 168 202 242 292
#     4   9  19  35  53  73 100 133 167 202 241 292
#
# _framework density 17.210184999999999
#
# number of rings (size 3 to 8) (size 9 to 14) (size 15 to 20)
#    0.000    2.750    0.000    1.500    0.000    6.500 
#    0.000    5.000    0.000    0.000    0.000    0.000 
#    0.000    0.000    0.000    0.000    0.000    0.000 
#
# Total GULP energy -356915.602848 kJ/mol
# GULP energy per Si atom -5576.806294 kJ/mol
# Density = 1.717101 g / cm^3
# Si number density = 17.210185 Si / 1000 Ang^3
#
#
#
# Elastic Constant Matrix: (Units=GPa)
#
#
# Indices 1 2 3 4 5 6 
#
# 1 103.0876 33.0226 128.2234 0.0000 0.0000 0.0000
# 2 33.0226 15.0867 43.5382 0.0000 0.0000 0.0000
# 3 128.2234 43.5382 192.6234 0.0000 0.0000 0.0000
# 4 0.0000 0.0000 0.0000 31.1885 0.0000 0.0000
# 5 0.0000 0.0000 0.0000 0.0000 43.2660 0.0000
# 6 0.0000 0.0000 0.0000 0.0000 0.0000 24.7103
#
#
#
# Elastic Compliance Matrix: (Units=1/GPa)
#
#
# Indices 1 2 3 4 5 6 
#
# 1 0.068395 -0.052681 -0.033621 0.000000 0.000000 0.000000
# 2 -0.052681 0.231205 -0.017191 0.000000 0.000000 0.000000
# 3 -0.033621 -0.017191 0.031457 0.000000 0.000000 0.000000
# 4 0.000000 0.000000 0.000000 0.032063 0.000000 0.000000
# 5 0.000000 0.000000 0.000000 0.000000 0.023113 0.000000
# 6 0.000000 0.000000 0.000000 0.000000 0.000000 0.040469
#
#
# Mechanical properties :
#
#
# Convention : Reuss Voigt Hill
#
# Bulk Modulus (GPa) = 8.05983 80.04068 44.05026
# Shear Modulus (GPa) = 7.40692 26.90051 17.15372
#
# Velocity S-wave (km/s) = 2.07681 3.95784 3.16051
# Velocity P-wave (km/s) = 3.23175 8.21552 6.24255
#
# Compressibility (1/GPa) = 0.12407205
#
# Stress axis : x y z
#
# Youngs Moduli (GPa) = 14.62098 4.32517 31.78895
#
# Poissons Ratio (x) = 0.22785 1.06878
# Poissons Ratio (y) = 0.77025 0.54647
# Poissons Ratio (z) = 0.49157 0.07435
#
# Static dielectric constant tensor:
#      x y z
#    x 1.574020 0.000000 0.000000 
#    y 0.000000 1.582060 0.000000 
#    z 0.000000 0.000000 1.557660 
# 
# From -- ./inp_files/27954.got.cif
#   From: 2010.05.17/outbox.cif.g08.bks.cpg/sg62_14_cif.got.tgz:27954.got - 2010.06.03 15:25:27.
