data_PCOD9464033
_publ_section_title
;
Structure prediction by ZEFSAII (Michael W. Deem and Ramdas Pophale) SiO2 
 PCOD9464033
Probable space group: P N M A
;
_chemical_formula_sum "Si O2"
_cell_formula_units_Z 40
_cell_length_a 13.856339
_cell_length_b 7.686223
_cell_length_c 18.869896
_cell_angle_alpha 90.000000
_cell_angle_beta 90.000000
_cell_angle_gamma 90.000000
_cell_volume 2009.698864
_symmetry_space_group_name_H-M "P N M A"
_symmetry_group_IT_number 62
_symmetry_cell_setting 'orthorhombic'
loop_
_space_group_symop_operation_xyz
x,y,z
1/2-x,-y,1/2+z
1/2+x,1/2-y,1/2-z
-x,1/2+y,-z
-x,-y,-z
1/2+x,y,1/2-z
1/2-x,1/2+y,1/2+z
x,1/2-y,z
loop_
_atom_site_type_symbol
_atom_site_label
_atom_site_fract_x
_atom_site_fract_y
_atom_site_fract_z
Si Si1 0.909139 0.535952 0.167488
Si Si2 0.299093 0.542171 0.471890
Si Si3 0.820392 0.544351 0.314448
Si Si4 0.379933 0.040010 0.621661
Si Si5 0.899839 0.042810 0.462747
O O1 0.909972 0.750000 0.167708
O O2 0.844271 0.477218 0.101108
O O3 0.865782 0.475163 0.242117
O O4 0.019197 0.479963 0.154021
O O5 0.290668 0.750000 0.464180
O O6 0.367433 0.507145 0.539226
O O7 0.193183 0.473835 0.493677
O O8 0.806829 0.750000 0.303164
O O9 0.715612 0.473052 0.337776
O O10 0.889347 0.522468 0.382384
O O11 0.378677 0.250000 0.625318
O O12 0.890740 0.250000 0.459482
O O13 0.000000 0.000000 0.500000
#
# Coordination Sequence:
#
# PCOD9464033 Si02
#       5
#     8   8   8   8   8
#     4   9  17  30  50  74  97 126 164 200 238 288
#     4   9  18  32  50  72  97 126 162 202 243 289
#     4   9  18  32  49  71  99 127 159 200 241 283
#     4   9  17  30  49  71  96 127 161 198 240 286
#     4  10  20  34  52  72  97 130 165 200 241 288
#
# _framework density 19.903479000000001
#
# number of rings (size 3 to 8) (size 9 to 14) (size 15 to 20)
#    0.000    2.800    0.000    1.200    0.000    2.400 
#    0.000    8.000    0.000    4.800    0.000    0.000 
#    0.000    0.000    0.000    0.000    0.000    0.000 
#
# Total GULP energy -223162.744166 kJ/mol
# GULP energy per Si atom -5579.068604 kJ/mol
# Density = 1.985818 g / cm^3
# Si number density = 19.903479 Si / 1000 Ang^3
#
#
#
# Elastic Constant Matrix: (Units=GPa)
#
#
# Indices 1 2 3 4 5 6 
#
# 1 127.5318 -2.3267 124.7452 0.0000 0.0000 0.0000
# 2 -2.3267 26.1187 -7.7692 0.0000 0.0000 0.0000
# 3 124.7452 -7.7692 205.4409 0.0000 0.0000 0.0000
# 4 0.0000 0.0000 0.0000 19.2694 0.0000 0.0000
# 5 0.0000 0.0000 0.0000 0.0000 25.3257 0.0000
# 6 0.0000 0.0000 0.0000 0.0000 0.0000 5.8396
#
#
#
# Elastic Compliance Matrix: (Units=1/GPa)
#
#
# Indices 1 2 3 4 5 6 
#
# 1 0.019393 -0.001795 -0.011844 0.000000 0.000000 0.000000
# 2 -0.001795 0.038889 0.002561 0.000000 0.000000 0.000000
# 3 -0.011844 0.002561 0.012156 0.000000 0.000000 0.000000
# 4 0.000000 0.000000 0.000000 0.051896 0.000000 0.000000
# 5 0.000000 0.000000 0.000000 0.000000 0.039486 0.000000
# 6 0.000000 0.000000 0.000000 0.000000 0.000000 0.171245
#
#
# Mechanical properties :
#
#
# Convention : Reuss Voigt Hill
#
# Bulk Modulus (GPa) = 20.71193 65.37668 43.04430
# Shear Modulus (GPa) = 13.46570 26.38308 19.92439
#
# Velocity S-wave (km/s) = 2.60388 3.64476 3.16737
# Velocity P-wave (km/s) = 4.41237 7.11551 5.92029
#
# Compressibility (1/GPa) = 0.04828136
#
# Stress axis : x y z
#
# Youngs Moduli (GPa) = 51.56433 25.71452 82.26424
#
# Poissons Ratio (x) = 0.04617 0.97431
# Poissons Ratio (y) = 0.09258 -0.21067
# Poissons Ratio (z) = 0.61071 -0.06585
#
# Static dielectric constant tensor:
#      x y z
#    x 1.688390 0.000000 0.000000 
#    y 0.000000 1.743000 0.000000 
#    z 0.000000 0.000000 1.659970 
# 
# From -- ./inp_files/18736.got.cif
#   From: 2010.05.17/outbox.cif.g08.bks.cpg/sg62_10_cif.got.tgz:18736.got - 2010.06.03 15:25:27.
