data_PCOD9464232
_publ_section_title
;
Structure prediction by ZEFSAII (Michael W. Deem and Ramdas Pophale) SiO2 
 PCOD9464232
Probable space group: P N M A
;
_chemical_formula_sum "Si O2"
_cell_formula_units_Z 64
_cell_length_a 19.921334
_cell_length_b 8.681733
_cell_length_c 20.388236
_cell_angle_alpha 90.000000
_cell_angle_beta 90.000000
_cell_angle_gamma 90.000000
_cell_volume 3526.180133
_symmetry_space_group_name_H-M "P N M A"
_symmetry_group_IT_number 62
_symmetry_cell_setting 'orthorhombic'
loop_
_space_group_symop_operation_xyz
x,y,z
1/2-x,-y,1/2+z
1/2+x,1/2-y,1/2-z
-x,1/2+y,-z
-x,-y,-z
1/2+x,y,1/2-z
1/2-x,1/2+y,1/2+z
x,1/2-y,z
loop_
_atom_site_type_symbol
_atom_site_label
_atom_site_fract_x
_atom_site_fract_y
_atom_site_fract_z
Si Si1 0.901173 0.564691 0.817168
Si Si2 0.926374 0.563549 0.671132
Si Si3 0.780740 0.065080 0.637367
Si Si4 0.321735 0.565067 0.092557
Si Si5 0.435518 0.564730 0.537657
Si Si6 0.243619 0.935180 0.215416
Si Si7 0.965958 0.433736 0.435360
Si Si8 0.294157 0.065278 0.489094
O O1 0.901125 0.750000 0.818084
O O2 0.933122 0.515972 0.747454
O O3 0.933495 0.512995 0.885689
O O4 0.824907 0.506616 0.812163
O O5 0.920295 0.750000 0.669170
O O6 0.857537 0.494472 0.641659
O O7 0.989398 0.516889 0.627123
O O8 0.780990 0.250000 0.630629
O O9 0.749636 0.022955 0.708463
O O10 0.738916 0.991421 0.578566
O O11 0.328912 0.750000 0.089283
O O12 0.303083 0.519652 0.166796
O O13 0.390159 0.490005 0.069770
O O14 0.259201 0.523203 0.046034
O O15 0.500000 0.500000 0.500000
O O16 0.437397 0.750000 0.536167
O O17 0.366211 0.508105 0.504707
O O18 0.236701 0.750000 0.212155
O O19 0.967409 0.250000 0.438195
O O20 0.000000 0.500000 0.500000
O O21 0.301023 0.250000 0.488430
#
# Coordination Sequence:
#
# PCOD9464232 Si02
#       8
#     8   8   8   8   8   8   8   8
#     4   9  18  35  60  83 108 143 187 232 275 331
#     4   9  19  37  57  81 114 151 191 233 281 335
#     4  10  20  34  57  87 117 147 186 233 280 334
#     4  10  21  37  58  81 111 148 187 231 279 335
#     4  11  23  39  60  85 114 147 187 236 288 344
#     4   9  18  35  57  81 111 144 182 228 278 332
#     4  11  23  37  55  80 114 151 190 234 281 335
#     4  11  22  38  60  84 113 150 188 231 284 338
#
# _framework density 18.149951999999999
#
# number of rings (size 3 to 8) (size 9 to 14) (size 15 to 20)
#    0.000    2.000    1.250    2.250    0.000    6.500 
#    2.250    0.000    0.000    0.000    0.000    0.000 
#    0.000    0.000    0.000    0.000    0.000    0.000 
#
# Total GULP energy -357237.754571 kJ/mol
# GULP energy per Si atom -5581.839915 kJ/mol
# Density = 1.810864 g / cm^3
# Si number density = 18.149952 Si / 1000 Ang^3
#
#
#
# Elastic Constant Matrix: (Units=GPa)
#
#
# Indices 1 2 3 4 5 6 
#
# 1 128.9456 39.3086 77.0016 0.0000 0.0000 0.0000
# 2 39.3086 27.7046 39.3306 0.0000 0.0000 0.0000
# 3 77.0016 39.3306 133.5619 0.0000 0.0000 0.0000
# 4 0.0000 0.0000 0.0000 25.3002 0.0000 0.0000
# 5 0.0000 0.0000 0.0000 0.0000 29.2950 0.0000
# 6 0.0000 0.0000 0.0000 0.0000 0.0000 33.5794
#
#
#
# Elastic Compliance Matrix: (Units=1/GPa)
#
#
# Indices 1 2 3 4 5 6 
#
# 1 0.014839 -0.015309 -0.004047 0.000000 0.000000 0.000000
# 2 -0.015309 0.077818 -0.014090 0.000000 0.000000 0.000000
# 3 -0.004047 -0.014090 0.013969 0.000000 0.000000 0.000000
# 4 0.000000 0.000000 0.000000 0.039525 0.000000 0.000000
# 5 0.000000 0.000000 0.000000 0.000000 0.034136 0.000000
# 6 0.000000 0.000000 0.000000 0.000000 0.000000 0.029780
#
#
# Mechanical properties :
#
#
# Convention : Reuss Voigt Hill
#
# Bulk Modulus (GPa) = 25.16627 66.83262 45.99945
# Shear Modulus (GPa) = 17.22934 26.60633 21.91783
#
# Velocity S-wave (km/s) = 3.08438 3.83288 3.47882
# Velocity P-wave (km/s) = 5.15561 7.51601 6.44480
#
# Compressibility (1/GPa) = 0.03973572
#
# Stress axis : x y z
#
# Youngs Moduli (GPa) = 67.39173 12.85048 71.58576
#
# Poissons Ratio (x) = 0.19672 0.28969
# Poissons Ratio (y) = 1.03168 1.00861
# Poissons Ratio (z) = 0.27272 0.18106
#
# Static dielectric constant tensor:
#      x y z
#    x 1.576020 0.000000 0.000000 
#    y 0.000000 1.613420 0.000000 
#    z 0.000000 0.000000 1.647980 
# 
# From -- ./inp_files/27679.got.cif
#   From: 2010.05.17/outbox.cif.g08.bks.cpg/sg62_14_cif.got.tgz:27679.got - 2010.06.03 15:25:27.
