data_PCOD9464446
_publ_section_title
;
Structure prediction by ZEFSAII (Michael W. Deem and Ramdas Pophale) SiO2 
 PCOD9464446
Probable space group: P N M A
;
_chemical_formula_sum "Si O2"
_cell_formula_units_Z 64
_cell_length_a 8.896511
_cell_length_b 14.216928
_cell_length_c 24.479183
_cell_angle_alpha 90.000000
_cell_angle_beta 90.000000
_cell_angle_gamma 90.000000
_cell_volume 3096.152924
_symmetry_space_group_name_H-M "P N M A"
_symmetry_group_IT_number 62
_symmetry_cell_setting 'orthorhombic'
loop_
_space_group_symop_operation_xyz
x,y,z
1/2-x,-y,1/2+z
1/2+x,1/2-y,1/2-z
-x,1/2+y,-z
-x,-y,-z
1/2+x,y,1/2-z
1/2-x,1/2+y,1/2+z
x,1/2-y,z
loop_
_atom_site_type_symbol
_atom_site_label
_atom_site_fract_x
_atom_site_fract_y
_atom_site_fract_z
Si Si1 0.518617 0.983085 0.193662
Si Si2 0.352065 0.640204 0.867070
Si Si3 0.785421 0.010412 0.863324
Si Si4 0.586518 0.942083 0.954446
Si Si5 0.013554 0.862741 0.907261
Si Si6 0.143019 0.358100 0.985804
Si Si7 0.980858 0.142546 0.800063
Si Si8 0.232194 0.859317 0.373126
O O1 0.535509 0.927285 0.249493
O O2 0.587727 0.916886 0.145695
O O3 0.612950 0.078059 0.186209
O O4 0.344754 0.004174 0.181426
O O5 0.370223 0.750000 0.856525
O O6 0.471941 0.607026 0.912735
O O7 0.184478 0.623270 0.889223
O O8 0.695571 0.010729 0.920128
O O9 0.903554 0.925145 0.869709
O O10 0.872066 0.104654 0.847443
O O11 0.699415 0.867767 0.981969
O O12 0.500000 0.000000 0.000000
O O13 0.980120 0.750000 0.903743
O O14 0.979754 0.892814 0.970287
O O15 0.102145 0.250000 0.974747
O O16 0.181902 0.400001 0.926464
O O17 0.946452 0.250000 0.784690
O O18 0.148846 0.138089 0.823810
O O19 0.193228 0.750000 0.383719
#
# Coordination Sequence:
#
# PCOD9464446 Si02
#       8
#     8   8   8   8   8   8   8   8
#     4  11  22  38  60  85 115 154 201 252 305 358
#     4  10  21  38  61  89 122 160 203 250 300 358
#     4  10  22  37  58  87 119 156 202 249 298 362
#     4  10  20  35  56  88 124 162 199 240 293 354
#     4   9  19  37  61  88 122 161 197 241 298 357
#     4   9  17  32  54  81 115 154 193 234 285 345
#     4  11  24  42  62  85 117 157 201 254 311 361
#     4  10  21  37  59  87 120 158 201 246 293 353
#
# _framework density 20.670814
#
# number of rings (size 3 to 8) (size 9 to 14) (size 15 to 20)
#    0.000    2.000    0.000    3.750    0.000    6.000 
#    0.000    6.250    0.000    5.250    0.000    0.000 
#    0.000    0.000    0.000    0.000    0.000    0.000 
#
# Total GULP energy -357289.043130 kJ/mol
# GULP energy per Si atom -5582.641299 kJ/mol
# Density = 2.062377 g / cm^3
# Si number density = 20.670814 Si / 1000 Ang^3
#
#
#
# Elastic Constant Matrix: (Units=GPa)
#
#
# Indices 1 2 3 4 5 6 
#
# 1 77.0114 29.8873 25.8430 0.0000 0.0000 0.0000
# 2 29.8873 106.9218 45.6455 0.0000 0.0000 0.0000
# 3 25.8430 45.6455 87.5842 0.0000 0.0000 0.0000
# 4 0.0000 0.0000 0.0000 29.5373 0.0000 0.0000
# 5 0.0000 0.0000 0.0000 0.0000 23.9538 0.0000
# 6 0.0000 0.0000 0.0000 0.0000 0.0000 27.1991
#
#
#
# Elastic Compliance Matrix: (Units=1/GPa)
#
#
# Indices 1 2 3 4 5 6 
#
# 1 0.015119 -0.002986 -0.002905 0.000000 0.000000 0.000000
# 2 -0.002986 0.012619 -0.005695 0.000000 0.000000 0.000000
# 3 -0.002905 -0.005695 0.015243 0.000000 0.000000 0.000000
# 4 0.000000 0.000000 0.000000 0.033856 0.000000 0.000000
# 5 0.000000 0.000000 0.000000 0.000000 0.041747 0.000000
# 6 0.000000 0.000000 0.000000 0.000000 0.000000 0.036766
#
#
# Mechanical properties :
#
#
# Convention : Reuss Voigt Hill
#
# Bulk Modulus (GPa) = 50.48457 52.69655 51.59056
# Shear Modulus (GPa) = 27.00898 27.48079 27.24488
#
# Velocity S-wave (km/s) = 3.61865 3.65012 3.63442
# Velocity P-wave (km/s) = 6.47577 6.58126 6.52873
#
# Compressibility (1/GPa) = 0.01980803
#
# Stress axis : x y z
#
# Youngs Moduli (GPa) = 66.14322 79.24786 65.60444
#
# Poissons Ratio (x) = 0.23663 0.19057
# Poissons Ratio (y) = 0.19750 0.37364
# Poissons Ratio (z) = 0.19214 0.45134
#
# Static dielectric constant tensor:
#      x y z
#    x 1.737290 0.000000 0.000000 
#    y 0.000000 1.751380 0.000000 
#    z 0.000000 0.000000 1.764930 
# 
# From -- ./inp_files/28996.got.cif
#   From: 2010.05.17/outbox.cif.g08.bks.cpg/sg62_15_cif.got.tgz:28996.got - 2010.06.03 15:25:27.
