data_PCOD9464962
_publ_section_title
;
Structure prediction by ZEFSAII (Michael W. Deem and Ramdas Pophale) SiO2 
 PCOD9464962
Probable space group: P N M A
;
_chemical_formula_sum "Si O2"
_cell_formula_units_Z 48
_cell_length_a 9.671178
_cell_length_b 7.489827
_cell_length_c 29.039376
_cell_angle_alpha 90.000000
_cell_angle_beta 90.000000
_cell_angle_gamma 90.000000
_cell_volume 2103.480271
_symmetry_space_group_name_H-M "P N M A"
_symmetry_group_IT_number 62
_symmetry_cell_setting 'orthorhombic'
loop_
_space_group_symop_operation_xyz
x,y,z
1/2-x,-y,1/2+z
1/2+x,1/2-y,1/2-z
-x,1/2+y,-z
-x,-y,-z
1/2+x,y,1/2-z
1/2-x,1/2+y,1/2+z
x,1/2-y,z
loop_
_atom_site_type_symbol
_atom_site_label
_atom_site_fract_x
_atom_site_fract_y
_atom_site_fract_z
Si Si1 0.023102 0.963674 0.140505
Si Si2 0.328631 0.462229 0.116135
Si Si3 0.677502 0.956062 0.723645
Si Si4 0.904226 0.963163 0.043860
Si Si5 0.156140 0.963507 0.512837
Si Si6 0.980899 0.969717 0.695275
O O1 0.011036 0.750000 0.142190
O O2 0.966764 0.033181 0.091297
O O3 0.928340 0.036921 0.181067
O O4 0.185166 0.007815 0.142911
O O5 0.347012 0.250000 0.111616
O O6 0.314372 0.535118 0.064233
O O7 0.458821 0.527866 0.145867
O O8 0.705165 0.750000 0.735885
O O9 0.592690 0.031209 0.766815
O O10 0.826778 0.031128 0.708776
O O11 0.896315 0.750000 0.050153
O O12 0.756290 0.033440 0.027169
O O13 0.000000 0.000000 0.000000
O O14 0.179003 0.750000 0.514465
O O15 0.000000 0.000000 0.500000
O O16 0.978506 0.750000 0.695146
#
# Coordination Sequence:
#
# PCOD9464962 Si02
#       6
#     8   8   8   8   8   8
#     4  11  23  37  56  84 116 149 188 231 281 337
#     4  10  20  38  61  85 113 149 193 237 281 333
#     4  10  20  37  61  85 111 144 183 230 280 334
#     4  10  21  38  57  81 112 150 193 233 274 328
#     4  10  22  37  56  83 116 151 190 234 281 335
#     4   9  19  36  61  89 111 140 187 236 280 328
#
# _framework density 22.819324999999999
#
# number of rings (size 3 to 8) (size 9 to 14) (size 15 to 20)
#    0.000    2.000    1.667    1.500    2.333    4.667 
#    0.000    4.167    0.000    0.000    0.000    0.000 
#    0.000    0.000    0.000    0.000    0.000    0.000 
#
# Total GULP energy -268198.186178 kJ/mol
# GULP energy per Si atom -5587.462212 kJ/mol
# Density = 2.276739 g / cm^3
# Si number density = 22.819325 Si / 1000 Ang^3
#
#
#
# Elastic Constant Matrix: (Units=GPa)
#
#
# Indices 1 2 3 4 5 6 
#
# 1 116.0730 -17.0991 4.8900 0.0000 0.0000 0.0000
# 2 -17.0991 60.6657 -3.7022 0.0000 0.0000 0.0000
# 3 4.8900 -3.7022 64.4002 0.0000 0.0000 0.0000
# 4 0.0000 0.0000 0.0000 1.8805 0.0000 0.0000
# 5 0.0000 0.0000 0.0000 0.0000 41.8992 0.0000
# 6 0.0000 0.0000 0.0000 0.0000 0.0000 10.9581
#
#
#
# Elastic Compliance Matrix: (Units=1/GPa)
#
#
# Indices 1 2 3 4 5 6 
#
# 1 0.009007 0.002506 -0.000540 0.000000 0.000000 0.000000
# 2 0.002506 0.017239 0.000801 0.000000 0.000000 0.000000
# 3 -0.000540 0.000801 0.015615 0.000000 0.000000 0.000000
# 4 0.000000 0.000000 0.000000 0.531764 0.000000 0.000000
# 5 0.000000 0.000000 0.000000 0.000000 0.023867 0.000000
# 6 0.000000 0.000000 0.000000 0.000000 0.000000 0.091257
#
#
# Mechanical properties :
#
#
# Convention : Reuss Voigt Hill
#
# Bulk Modulus (GPa) = 21.09959 23.25738 22.17849
# Shear Modulus (GPa) = 7.15294 28.08423 17.61859
#
# Velocity S-wave (km/s) = 1.77240 3.51197 2.78167
# Velocity P-wave (km/s) = 3.66810 5.16327 4.47852
#
# Compressibility (1/GPa) = 0.04739429
#
# Stress axis : x y z
#
# Youngs Moduli (GPa) = 111.02291 58.00831 64.04128
#
# Poissons Ratio (x) = -0.14536 0.03457
# Poissons Ratio (y) = -0.27820 -0.05128
# Poissons Ratio (z) = 0.05994 -0.04645
#
# Static dielectric constant tensor:
#      x y z
#    x 1.620890 0.000000 0.000000 
#    y 0.000000 1.858770 0.000000 
#    z 0.000000 0.000000 1.924180 
# 
# From -- ./inp_files/31953.got.cif
#   From: 2010.05.17/outbox.cif.g08.bks.cpg/sg62_16_cif.got.tgz:31953.got - 2010.06.03 15:25:27.
