data_PCOD9464497
_publ_section_title
;
Structure prediction by ZEFSAII (Michael W. Deem and Ramdas Pophale) SiO2 
 PCOD9464497
Probable space group: P N M A
;
_chemical_formula_sum "Si O2"
_cell_formula_units_Z 48
_cell_length_a 29.854618
_cell_length_b 9.080546
_cell_length_c 10.381877
_cell_angle_alpha 90.000000
_cell_angle_beta 90.000000
_cell_angle_gamma 90.000000
_cell_volume 2814.487736
_symmetry_space_group_name_H-M "P N M A"
_symmetry_group_IT_number 62
_symmetry_cell_setting 'orthorhombic'
loop_
_space_group_symop_operation_xyz
x,y,z
1/2-x,-y,1/2+z
1/2+x,1/2-y,1/2-z
-x,1/2+y,-z
-x,-y,-z
1/2+x,y,1/2-z
1/2-x,1/2+y,1/2+z
x,1/2-y,z
loop_
_atom_site_type_symbol
_atom_site_label
_atom_site_fract_x
_atom_site_fract_y
_atom_site_fract_z
Si Si1 0.977060 0.572836 0.121846
Si Si2 0.885304 0.576706 0.528726
Si Si3 0.712801 0.573544 0.730718
Si Si4 0.782570 0.572791 0.506320
Si Si5 0.972231 0.074253 0.614875
Si Si6 0.381850 0.924680 0.276551
O O1 0.977669 0.750000 0.109801
O O2 0.925252 0.528899 0.142938
O O3 0.004629 0.534419 0.250423
O O4 0.000000 0.500000 0.000000
O O5 0.891254 0.750000 0.557840
O O6 0.833394 0.536357 0.549620
O O7 0.921509 0.482733 0.604743
O O8 0.893190 0.557623 0.375238
O O9 0.711920 0.750000 0.742098
O O10 0.747406 0.533633 0.617318
O O11 0.663428 0.512899 0.697599
O O12 0.725645 0.504056 0.868985
O O13 0.781489 0.750000 0.486618
O O14 0.974098 0.250000 0.600485
O O15 0.000000 0.000000 0.500000
O O16 0.373722 0.750000 0.296159
#
# Coordination Sequence:
#
# PCOD9464497 Si02
#       6
#     8   8   8   8   8   8
#     4  10  22  39  55  77 111 146 180 221 269 322
#     4   9  17  34  57  79 106 140 179 222 268 318
#     4  10  20  35  58  85 108 139 184 225 264 321
#     4   9  20  38  56  78 113 145 175 222 273 320
#     4  11  21  35  56  82 109 138 178 224 265 314
#     4   9  18  36  57  77 109 147 178 217 272 324
#
# _framework density 17.054613
#
# number of rings (size 3 to 8) (size 9 to 14) (size 15 to 20)
#    0.000    2.333    1.667    2.000    0.000    6.000 
#    3.000    0.000    0.000    0.000    0.000    0.000 
#    0.000    0.000    0.000    0.000    0.000    0.000 
#
# Total GULP energy -267801.619125 kJ/mol
# GULP energy per Si atom -5579.200398 kJ/mol
# Density = 1.701580 g / cm^3
# Si number density = 17.054613 Si / 1000 Ang^3
#
#
#
# Elastic Constant Matrix: (Units=GPa)
#
#
# Indices 1 2 3 4 5 6 
#
# 1 148.1491 57.5003 100.0129 0.0000 0.0000 0.0000
# 2 57.5003 42.2271 57.2972 0.0000 0.0000 0.0000
# 3 100.0129 57.2972 124.8041 0.0000 0.0000 0.0000
# 4 0.0000 0.0000 0.0000 29.8045 0.0000 0.0000
# 5 0.0000 0.0000 0.0000 0.0000 35.5826 0.0000
# 6 0.0000 0.0000 0.0000 0.0000 0.0000 30.2616
#
#
#
# Elastic Compliance Matrix: (Units=1/GPa)
#
#
# Indices 1 2 3 4 5 6 
#
# 1 0.016786 -0.012213 -0.007845 0.000000 0.000000 0.000000
# 2 -0.012213 0.071691 -0.023126 0.000000 0.000000 0.000000
# 3 -0.007845 -0.023126 0.024916 0.000000 0.000000 0.000000
# 4 0.000000 0.000000 0.000000 0.033552 0.000000 0.000000
# 5 0.000000 0.000000 0.000000 0.000000 0.028104 0.000000
# 6 0.000000 0.000000 0.000000 0.000000 0.000000 0.033045
#
#
# Mechanical properties :
#
#
# Convention : Reuss Voigt Hill
#
# Bulk Modulus (GPa) = 37.00190 82.75568 59.87879
# Shear Modulus (GPa) = 16.47607 25.82106 21.14856
#
# Velocity S-wave (km/s) = 3.11155 3.89526 3.52525
# Velocity P-wave (km/s) = 5.88661 8.29820 7.19417
#
# Compressibility (1/GPa) = 0.02702564
#
# Stress axis : x y z
#
# Youngs Moduli (GPa) = 59.57393 13.94866 40.13479
#
# Poissons Ratio (x) = 0.17036 0.31484
# Poissons Ratio (y) = 0.72758 0.92817
# Poissons Ratio (z) = 0.46733 0.32258
#
# Static dielectric constant tensor:
#      x y z
#    x 1.582930 0.000000 0.000000 
#    y 0.000000 1.571880 0.000000 
#    z 0.000000 0.000000 1.547920 
# 
# From -- ./inp_files/10247.got.cif
#   From: 2010.05.17/outbox.cif.g08.bks.cpg/sg62_6_cif.got.tgz:10247.got - 2010.06.03 15:25:27.
