data_PCOD9464975
_publ_section_title
;
Structure prediction by ZEFSAII (Michael W. Deem and Ramdas Pophale) SiO2 
 PCOD9464975
Probable space group: P N M A
;
_chemical_formula_sum "Si O2"
_cell_formula_units_Z 64
_cell_length_a 13.616979
_cell_length_b 24.442194
_cell_length_c 9.709500
_cell_angle_alpha 90.000000
_cell_angle_beta 90.000000
_cell_angle_gamma 90.000000
_cell_volume 3231.601645
_symmetry_space_group_name_H-M "P N M A"
_symmetry_group_IT_number 62
_symmetry_cell_setting 'orthorhombic'
loop_
_space_group_symop_operation_xyz
x,y,z
1/2-x,-y,1/2+z
1/2+x,1/2-y,1/2-z
-x,1/2+y,-z
-x,-y,-z
1/2+x,y,1/2-z
1/2-x,1/2+y,1/2+z
x,1/2-y,z
loop_
_atom_site_type_symbol
_atom_site_label
_atom_site_fract_x
_atom_site_fract_y
_atom_site_fract_z
Si Si1 0.849046 0.500545 0.679189
Si Si2 0.085424 0.886118 0.293432
Si Si3 0.828166 0.621650 0.642890
Si Si4 0.907631 0.813182 0.394619
Si Si5 0.346165 0.984091 0.494530
Si Si6 0.901901 0.864304 0.942662
Si Si7 0.108553 0.896540 0.966358
Si Si8 0.262384 0.688469 0.350340
O O1 0.922382 0.449736 0.664508
O O2 0.876354 0.561052 0.628306
O O3 0.826101 0.506361 0.842550
O O4 0.752336 0.484575 0.594586
O O5 0.989680 0.851664 0.327851
O O6 0.177512 0.856314 0.366437
O O7 0.107811 0.885813 0.130179
O O8 0.841252 0.636382 0.801909
O O9 0.714140 0.616808 0.598849
O O10 0.881219 0.664251 0.544276
O O11 0.939088 0.750000 0.396283
O O12 0.810556 0.816816 0.300224
O O13 0.392119 0.924091 0.484898
O O14 0.405769 0.037721 0.445097
O O15 0.017429 0.861577 0.909789
O O16 0.852236 0.821798 0.045197
O O17 0.223410 0.750000 0.366774
#
# Coordination Sequence:
#
# PCOD9464975 Si02
#       8
#     8   8   8   8   8   8   8   8
#     4   9  19  34  60  90 125 163 198 247 308 370
#     4  11  20  39  65  91 121 160 209 255 306 356
#     4  10  23  41  59  93 130 160 199 251 317 371
#     4  11  24  42  64  87 119 164 211 254 300 365
#     4   9  18  34  56  88 123 161 201 243 305 366
#     4  11  21  38  61  90 121 162 204 251 305 368
#     4  10  20  37  61  88 124 164 200 249 306 371
#     4  11  23  39  62  89 118 158 211 261 297 355
#
# _framework density 19.804421000000001
#
# number of rings (size 3 to 8) (size 9 to 14) (size 15 to 20)
#    0.000    1.750    3.750    0.750    0.000    2.000 
#    2.250    0.625    0.000    0.000    0.000    0.000 
#    0.000    0.000    0.000    0.000    0.000    0.000 
#
# Total GULP energy -357134.842336 kJ/mol
# GULP energy per Si atom -5580.231911 kJ/mol
# Density = 1.975935 g / cm^3
# Si number density = 19.804421 Si / 1000 Ang^3
#
#
#
# Elastic Constant Matrix: (Units=GPa)
#
#
# Indices 1 2 3 4 5 6 
#
# 1 24.2340 2.6534 -3.0298 0.0000 0.0000 0.0000
# 2 2.6534 55.3678 6.0244 0.0000 0.0000 0.0000
# 3 -3.0298 6.0244 32.5171 0.0000 0.0000 0.0000
# 4 0.0000 0.0000 0.0000 22.4842 0.0000 0.0000
# 5 0.0000 0.0000 0.0000 0.0000 22.4591 0.0000
# 6 0.0000 0.0000 0.0000 0.0000 0.0000 26.3404
#
#
#
# Elastic Compliance Matrix: (Units=1/GPa)
#
#
# Indices 1 2 3 4 5 6 
#
# 1 0.042085 -0.002494 0.004383 0.000000 0.000000 0.000000
# 2 -0.002494 0.018580 -0.003675 0.000000 0.000000 0.000000
# 3 0.004383 -0.003675 0.031842 0.000000 0.000000 0.000000
# 4 0.000000 0.000000 0.000000 0.044476 0.000000 0.000000
# 5 0.000000 0.000000 0.000000 0.000000 0.044525 0.000000
# 6 0.000000 0.000000 0.000000 0.000000 0.000000 0.037965
#
#
# Mechanical properties :
#
#
# Convention : Reuss Voigt Hill
#
# Bulk Modulus (GPa) = 11.24382 13.71277 12.47829
# Shear Modulus (GPa) = 19.78709 21.35479 20.57094
#
# Velocity S-wave (km/s) = 3.16432 3.28729 3.22639
# Velocity P-wave (km/s) = 4.36352 4.62033 4.49376
#
# Compressibility (1/GPa) = 0.08893778
#
# Stress axis : x y z
#
# Youngs Moduli (GPa) = 23.76121 53.82015 31.40472
#
# Poissons Ratio (x) = 0.13422 -0.13766
# Poissons Ratio (y) = 0.05926 0.11540
# Poissons Ratio (z) = -0.10416 0.19778
#
# Static dielectric constant tensor:
#      x y z
#    x 1.699940 0.000000 0.000000 
#    y 0.000000 1.708390 0.000000 
#    z 0.000000 0.000000 1.670790 
# 
# From -- ./inp_files/6934.got.cif
#   From: 2010.05.17/outbox.cif.g08.bks.cpg/sg62_4_cif.got.tgz:6934.got - 2010.06.03 15:25:27.
