data_PCOD9464740
_publ_section_title
;
Structure prediction by ZEFSAII (Michael W. Deem and Ramdas Pophale) SiO2 
 PCOD9464740
Probable space group: P N M A
;
_chemical_formula_sum "Si O2"
_cell_formula_units_Z 64
_cell_length_a 17.129716
_cell_length_b 13.384118
_cell_length_c 16.073530
_cell_angle_alpha 90.000000
_cell_angle_beta 90.000000
_cell_angle_gamma 90.000000
_cell_volume 3685.116183
_symmetry_space_group_name_H-M "P N M A"
_symmetry_group_IT_number 62
_symmetry_cell_setting 'orthorhombic'
loop_
_space_group_symop_operation_xyz
x,y,z
1/2-x,-y,1/2+z
1/2+x,1/2-y,1/2-z
-x,1/2+y,-z
-x,-y,-z
1/2+x,y,1/2-z
1/2-x,1/2+y,1/2+z
x,1/2-y,z
loop_
_atom_site_type_symbol
_atom_site_label
_atom_site_fract_x
_atom_site_fract_y
_atom_site_fract_z
Si Si1 0.922336 0.021337 0.552386
Si Si2 0.833862 0.132156 0.926585
Si Si3 0.672309 0.019471 0.899947
Si Si4 0.124176 0.133125 0.309672
Si Si5 0.023360 0.367609 0.676695
Si Si6 0.079890 0.865095 0.898454
Si Si7 0.799762 0.135550 0.252446
Si Si8 0.958893 0.004788 0.824659
O O1 0.948672 0.105650 0.618033
O O2 0.855752 0.036909 0.483792
O O3 0.899207 0.925249 0.607083
O O4 0.000000 0.000000 0.500000
O O5 0.833237 0.250000 0.905940
O O6 0.747866 0.086098 0.918589
O O7 0.892249 0.071154 0.867095
O O8 0.867111 0.121785 0.020090
O O9 0.600374 0.087574 0.867534
O O10 0.690613 0.940894 0.827451
O O11 0.104945 0.250000 0.314993
O O12 0.216119 0.122321 0.291704
O O13 0.078870 0.079663 0.234529
O O14 0.030426 0.250000 0.688012
O O15 0.009283 0.424838 0.763435
O O16 0.050361 0.750000 0.899743
O O17 0.133095 0.877036 0.816354
O O18 0.011999 0.946453 0.890927
O O19 0.803392 0.250000 0.283048
#
# Coordination Sequence:
#
# PCOD9464740 Si02
#       8
#     8   8   8   8   8   8   8   8
#     4   9  21  35  55  86 116 146 183 237 289 335
#     4  11  23  37  59  85 115 153 194 236 283 343
#     4  11  20  39  58  85 115 151 194 237 287 341
#     4  10  20  36  59  85 113 150 191 237 289 344
#     4  10  21  37  58  82 116 155 193 229 282 347
#     4  10  21  37  58  85 111 146 192 241 291 338
#     4  10  20  36  59  85 113 147 192 243 287 335
#     4  11  20  37  57  84 118 152 187 239 284 339
#
# _framework density 17.367159000000001
#
# number of rings (size 3 to 8) (size 9 to 14) (size 15 to 20)
#    0.000    1.750    2.500    2.250    0.000    4.000 
#    0.000    0.000    0.000    0.750    0.000    0.000 
#    0.000    0.000    0.000    0.000    0.000    0.000 
#
# Total GULP energy -357137.925442 kJ/mol
# GULP energy per Si atom -5580.280085 kJ/mol
# Density = 1.732763 g / cm^3
# Si number density = 17.367159 Si / 1000 Ang^3
#
#
#
# Elastic Constant Matrix: (Units=GPa)
#
#
# Indices 1 2 3 4 5 6 
#
# 1 96.1374 52.6303 33.5600 0.0000 0.0000 0.0000
# 2 52.6303 94.1660 41.5656 0.0000 0.0000 0.0000
# 3 33.5600 41.5656 85.2597 0.0000 0.0000 0.0000
# 4 0.0000 0.0000 0.0000 15.9783 0.0000 0.0000
# 5 0.0000 0.0000 0.0000 0.0000 28.7394 0.0000
# 6 0.0000 0.0000 0.0000 0.0000 0.0000 26.7035
#
#
#
# Elastic Compliance Matrix: (Units=1/GPa)
#
#
# Indices 1 2 3 4 5 6 
#
# 1 0.015355 -0.007536 -0.002370 0.000000 0.000000 0.000000
# 2 -0.007536 0.017230 -0.005434 0.000000 0.000000 0.000000
# 3 -0.002370 -0.005434 0.015311 0.000000 0.000000 0.000000
# 4 0.000000 0.000000 0.000000 0.062585 0.000000 0.000000
# 5 0.000000 0.000000 0.000000 0.000000 0.034795 0.000000
# 6 0.000000 0.000000 0.000000 0.000000 0.000000 0.037448
#
#
# Mechanical properties :
#
#
# Convention : Reuss Voigt Hill
#
# Bulk Modulus (GPa) = 58.08439 59.00832 58.54635
# Shear Modulus (GPa) = 22.81637 24.13805 23.47721
#
# Velocity S-wave (km/s) = 3.62852 3.73214 3.68069
# Velocity P-wave (km/s) = 7.14650 7.25414 7.20052
#
# Compressibility (1/GPa) = 0.01721633
#
# Stress axis : x y z
#
# Youngs Moduli (GPa) = 65.12748 58.03931 65.31342
#
# Poissons Ratio (x) = 0.43736 0.15480
# Poissons Ratio (y) = 0.49077 0.35489
# Poissons Ratio (z) = 0.15436 0.31536
#
# Static dielectric constant tensor:
#      x y z
#    x 1.587060 0.000000 0.000000 
#    y 0.000000 1.562390 0.000000 
#    z 0.000000 0.000000 1.584280 
# 
# From -- ./inp_files/19869.got.cif
#   From: 2010.05.17/outbox.cif.g08.bks.cpg/sg62_10_cif.got.tgz:19869.got - 2010.06.03 15:25:27.
