data_PCOD9464377
_publ_section_title
;
Structure prediction by ZEFSAII (Michael W. Deem and Ramdas Pophale) SiO2 
 PCOD9464377
Probable space group: P N M A
;
_chemical_formula_sum "Si O2"
_cell_formula_units_Z 48
_cell_length_a 28.755105
_cell_length_b 9.242610
_cell_length_c 7.937022
_cell_angle_alpha 90.000000
_cell_angle_beta 90.000000
_cell_angle_gamma 90.000000
_cell_volume 2109.439965
_symmetry_space_group_name_H-M "P N M A"
_symmetry_group_IT_number 62
_symmetry_cell_setting 'orthorhombic'
loop_
_space_group_symop_operation_xyz
x,y,z
1/2-x,-y,1/2+z
1/2+x,1/2-y,1/2-z
-x,1/2+y,-z
-x,-y,-z
1/2+x,y,1/2-z
1/2-x,1/2+y,1/2+z
x,1/2-y,z
loop_
_atom_site_type_symbol
_atom_site_label
_atom_site_fract_x
_atom_site_fract_y
_atom_site_fract_z
Si Si1 0.763745 0.583584 0.070877
Si Si2 0.152683 0.921349 0.777880
Si Si3 0.934949 0.416539 0.399129
Si Si4 0.315693 0.585441 0.790857
Si Si5 0.983491 0.416510 0.763849
Si Si6 0.596963 0.421603 0.426873
O O1 0.761858 0.750000 0.119751
O O2 0.798906 0.500615 0.194720
O O3 0.712452 0.518459 0.086344
O O4 0.787392 0.574669 0.887210
O O5 0.160741 0.750000 0.789627
O O6 0.119494 0.951864 0.618599
O O7 0.120389 0.980809 0.929896
O O8 0.940578 0.250000 0.338685
O O9 0.955079 0.420433 0.586765
O O10 0.966269 0.522178 0.286119
O O11 0.311964 0.750000 0.852856
O O12 0.368612 0.559115 0.734113
O O13 0.985175 0.250000 0.821642
O O14 0.954087 0.520499 0.884628
O O15 0.597811 0.250000 0.468436
#
# Coordination Sequence:
#
# PCOD9464377 Si02
#       6
#     8   8   8   8   8   8
#     4  10  21  36  55  80 108 138 175 218 262 311
#     4  10  20  36  57  79 106 139 175 217 264 313
#     4   9  20  37  55  78 107 138 175 219 264 313
#     4   9  20  37  54  76 106 139 175 215 259 308
#     4  10  20  35  56  80 106 139 177 217 265 317
#     4  10  21  37  55  78 109 141 177 220 262 310
#
# _framework density 22.754854999999999
#
# number of rings (size 3 to 8) (size 9 to 14) (size 15 to 20)
#    0.000    2.333    0.000    3.000    0.000    8.000 
#    0.000    5.000    0.000    0.000    0.000    0.000 
#    0.000    0.000    0.000    0.000    0.000    0.000 
#
# Total GULP energy -268349.255688 kJ/mol
# GULP energy per Si atom -5590.609494 kJ/mol
# Density = 2.270306 g / cm^3
# Si number density = 22.754855 Si / 1000 Ang^3
#
#
#
# Elastic Constant Matrix: (Units=GPa)
#
#
# Indices 1 2 3 4 5 6 
#
# 1 121.8953 37.1913 0.4254 0.0000 0.0000 0.0000
# 2 37.1913 73.6606 14.6803 0.0000 0.0000 0.0000
# 3 0.4254 14.6803 30.9325 0.0000 0.0000 0.0000
# 4 0.0000 0.0000 0.0000 18.4904 0.0000 0.0000
# 5 0.0000 0.0000 0.0000 0.0000 41.1697 0.0000
# 6 0.0000 0.0000 0.0000 0.0000 0.0000 18.6640
#
#
#
# Elastic Compliance Matrix: (Units=1/GPa)
#
#
# Indices 1 2 3 4 5 6 
#
# 1 0.009864 -0.005471 0.002461 0.000000 0.000000 0.000000
# 2 -0.005471 0.018028 -0.008481 0.000000 0.000000 0.000000
# 3 0.002461 -0.008481 0.036320 0.000000 0.000000 0.000000
# 4 0.000000 0.000000 0.000000 0.054082 0.000000 0.000000
# 5 0.000000 0.000000 0.000000 0.000000 0.024290 0.000000
# 6 0.000000 0.000000 0.000000 0.000000 0.000000 0.053579
#
#
# Mechanical properties :
#
#
# Convention : Reuss Voigt Hill
#
# Bulk Modulus (GPa) = 24.25400 36.78693 30.52047
# Shear Modulus (GPa) = 21.46948 27.27757 24.37353
#
# Velocity S-wave (km/s) = 3.07500 3.46607 3.27637
# Velocity P-wave (km/s) = 4.82591 5.67625 5.26827
#
# Compressibility (1/GPa) = 0.04123031
#
# Stress axis : x y z
#
# Youngs Moduli (GPa) = 101.37446 55.46838 27.53333
#
# Poissons Ratio (x) = 0.30347 -0.06776
# Poissons Ratio (y) = 0.55462 0.23351
# Poissons Ratio (z) = -0.24947 0.47042
#
# Static dielectric constant tensor:
#      x y z
#    x 1.830560 0.000000 0.000000 
#    y 0.000000 1.773520 0.000000 
#    z 0.000000 0.000000 1.905840 
# 
# From -- ./inp_files/10195.got.cif
#   From: 2010.05.17/outbox.cif.g08.bks.cpg/sg62_6_cif.got.tgz:10195.got - 2010.06.03 15:25:27.
