data_PCOD9464584
_publ_section_title
;
Structure prediction by ZEFSAII (Michael W. Deem and Ramdas Pophale) SiO2 
 PCOD9464584
Probable space group: P N M A
;
_chemical_formula_sum "Si O2"
_cell_formula_units_Z 40
_cell_length_a 10.575560
_cell_length_b 8.423381
_cell_length_c 18.890675
_cell_angle_alpha 90.000000
_cell_angle_beta 90.000000
_cell_angle_gamma 90.000000
_cell_volume 1682.818566
_symmetry_space_group_name_H-M "P N M A"
_symmetry_group_IT_number 62
_symmetry_cell_setting 'orthorhombic'
loop_
_space_group_symop_operation_xyz
x,y,z
1/2-x,-y,1/2+z
1/2+x,1/2-y,1/2-z
-x,1/2+y,-z
-x,-y,-z
1/2+x,y,1/2-z
1/2-x,1/2+y,1/2+z
x,1/2-y,z
loop_
_atom_site_type_symbol
_atom_site_label
_atom_site_fract_x
_atom_site_fract_y
_atom_site_fract_z
Si Si1 0.607896 0.570334 0.598862
Si Si2 0.851078 0.429318 0.944426
Si Si3 0.119060 0.250000 0.809781
Si Si4 0.393509 0.250000 0.802506
Si Si5 0.233768 0.573092 0.681207
Si Si6 0.945925 0.925011 0.697058
O O1 0.626800 0.750000 0.628635
O O2 0.686900 0.554642 0.526077
O O3 0.462294 0.553162 0.573345
O O4 0.624778 0.413185 0.645508
O O5 0.902747 0.250000 0.937404
O O6 0.748468 0.454612 0.883847
O O7 0.253288 0.250000 0.769483
O O8 0.997385 0.250000 0.759786
O O9 0.413631 0.413955 0.844249
O O10 0.239227 0.750000 0.650215
O O11 0.350560 0.564560 0.736024
O O12 0.094575 0.563127 0.715450
O O13 0.925865 0.750000 0.665115
#
# Coordination Sequence:
#
# PCOD9464584 Si02
#       6
#     8   8   4   4   8   8
#     4  10  22  40  63  95 134 169 213 276 329 372
#     4  10  20  35  62  99 129 167 221 277 325 375
#     4  12  26  44  66 102 136 166 218 266 326 402
#     4  12  26  40  66  96 132 176 212 266 328 388
#     4  10  21  37  61  92 132 173 216 267 324 394
#     4  10  23  40  58  93 134 176 215 263 326 389
#
# _framework density 23.769646000000002
#
# number of rings (size 3 to 8) (size 9 to 14) (size 15 to 20)
#    0.000    1.600    1.000    3.000    5.600    3.200 
#    0.000    0.000    0.000    1.200    0.000    2.800 
#    0.000    0.000    0.000    0.000    0.000    0.000 
#
# Total GULP energy -223326.596387 kJ/mol
# GULP energy per Si atom -5583.164910 kJ/mol
# Density = 2.371554 g / cm^3
# Si number density = 23.769646 Si / 1000 Ang^3
#
#
#
# Elastic Constant Matrix: (Units=GPa)
#
#
# Indices 1 2 3 4 5 6 
#
# 1 149.2323 27.0312 27.9127 0.0000 0.0000 0.0000
# 2 27.0312 212.5598 52.7702 0.0000 0.0000 0.0000
# 3 27.9127 52.7702 50.0491 0.0000 0.0000 0.0000
# 4 0.0000 0.0000 0.0000 28.6279 0.0000 0.0000
# 5 0.0000 0.0000 0.0000 0.0000 18.0715 0.0000
# 6 0.0000 0.0000 0.0000 0.0000 0.0000 30.4741
#
#
#
# Elastic Compliance Matrix: (Units=1/GPa)
#
#
# Indices 1 2 3 4 5 6 
#
# 1 0.007483 0.000114 -0.004294 0.000000 0.000000 0.000000
# 2 0.000114 0.006374 -0.006785 0.000000 0.000000 0.000000
# 3 -0.004294 -0.006785 0.029529 0.000000 0.000000 0.000000
# 4 0.000000 0.000000 0.000000 0.034931 0.000000 0.000000
# 5 0.000000 0.000000 0.000000 0.000000 0.055336 0.000000
# 6 0.000000 0.000000 0.000000 0.000000 0.000000 0.032815
#
#
# Mechanical properties :
#
#
# Convention : Reuss Voigt Hill
#
# Bulk Modulus (GPa) = 46.60345 69.69662 58.15004
# Shear Modulus (GPa) = 25.56891 35.70983 30.63937
#
# Velocity S-wave (km/s) = 3.28334 3.88019 3.59418
# Velocity P-wave (km/s) = 5.83289 7.03277 6.46075
#
# Compressibility (1/GPa) = 0.02145764
#
# Stress axis : x y z
#
# Youngs Moduli (GPa) = 133.62854 156.87745 33.86511
#
# Poissons Ratio (x) = -0.01795 0.14542
# Poissons Ratio (y) = -0.01529 0.22977
# Poissons Ratio (z) = 0.57383 1.06438
#
# Static dielectric constant tensor:
#      x y z
#    x 1.940220 0.000000 0.000000 
#    y 0.000000 1.992650 0.000000 
#    z 0.000000 0.000000 1.924820 
# 
# From -- ./inp_files/26475.got.cif
#   From: 2010.05.17/outbox.cif.g08.bks.cpg/sg62_14_cif.got.tgz:26475.got - 2010.06.03 15:25:27.
