data_PCOD9464329
_publ_section_title
;
Structure prediction by ZEFSAII (Michael W. Deem and Ramdas Pophale) SiO2 
 PCOD9464329
Probable space group: P N M A
;
_chemical_formula_sum "Si O2"
_cell_formula_units_Z 64
_cell_length_a 14.627014
_cell_length_b 21.411641
_cell_length_c 9.314552
_cell_angle_alpha 90.000000
_cell_angle_beta 90.000000
_cell_angle_gamma 90.000000
_cell_volume 2917.209383
_symmetry_space_group_name_H-M "P N M A"
_symmetry_group_IT_number 62
_symmetry_cell_setting 'orthorhombic'
loop_
_space_group_symop_operation_xyz
x,y,z
1/2-x,-y,1/2+z
1/2+x,1/2-y,1/2-z
-x,1/2+y,-z
-x,-y,-z
1/2+x,y,1/2-z
1/2-x,1/2+y,1/2+z
x,1/2-y,z
loop_
_atom_site_type_symbol
_atom_site_label
_atom_site_fract_x
_atom_site_fract_y
_atom_site_fract_z
Si Si1 0.519557 0.060320 0.798818
Si Si2 0.742288 0.180481 0.904325
Si Si3 0.005097 0.680051 0.821130
Si Si4 0.517136 0.068168 0.124008
Si Si5 0.540495 0.681293 0.354502
Si Si6 0.788898 0.942689 0.223569
Si Si7 0.225700 0.820585 0.769855
Si Si8 0.795520 0.061491 0.413342
O O1 0.475164 0.124332 0.751013
O O2 0.603698 0.046379 0.693641
O O3 0.458803 0.998066 0.804431
O O4 0.554567 0.069494 0.962708
O O5 0.705182 0.250000 0.869782
O O6 0.851684 0.183808 0.884433
O O7 0.712886 0.124082 0.803249
O O8 0.729581 0.168544 0.074021
O O9 0.973951 0.750000 0.783887
O O10 0.962364 0.626715 0.723227
O O11 0.115186 0.678497 0.794865
O O12 0.992868 0.670200 0.991299
O O13 0.406051 0.065918 0.102642
O O14 0.512416 0.750000 0.300221
O O15 0.763031 0.999656 0.328874
O O16 0.732382 0.941722 0.078398
O O17 0.248220 0.750000 0.720909
O O18 0.244723 0.876153 0.660118
#
# Coordination Sequence:
#
# PCOD9464329 Si02
#       8
#     8   8   8   8   8   8   8   8
#     4  10  21  35  50  76 108 138 173 219 268 310
#     4   9  18  34  56  79 104 138 177 217 263 317
#     4   8  15  30  54  79  99 128 173 217 253 301
#     4   9  19  36  54  75 105 137 176 218 259 316
#     4   9  18  34  55  78 105 137 175 216 259 313
#     4  11  22  35  53  77 108 140 177 223 268 314
#     4   8  15  31  55  79 101 129 173 221 258 304
#     4  10  20  35  55  77 104 140 176 216 266 318
#
# _framework density 21.938775
#
# number of rings (size 3 to 8) (size 9 to 14) (size 15 to 20)
#    0.000    2.750    0.000    3.000    0.000    3.000 
#    0.000    7.500    0.000    3.000    0.000    0.000 
#    0.000    0.000    0.000    0.000    0.000    0.000 
#
# Total GULP energy -357361.686447 kJ/mol
# GULP energy per Si atom -5583.776351 kJ/mol
# Density = 2.188884 g / cm^3
# Si number density = 21.938775 Si / 1000 Ang^3
#
#
#
# Elastic Constant Matrix: (Units=GPa)
#
#
# Indices 1 2 3 4 5 6 
#
# 1 44.3281 11.7738 18.9578 0.0000 0.0000 0.0000
# 2 11.7738 202.3969 104.3477 0.0000 0.0000 0.0000
# 3 18.9578 104.3477 86.5496 0.0000 0.0000 0.0000
# 4 0.0000 0.0000 0.0000 45.0659 0.0000 0.0000
# 5 0.0000 0.0000 0.0000 0.0000 21.8297 0.0000
# 6 0.0000 0.0000 0.0000 0.0000 0.0000 9.5060
#
#
#
# Elastic Compliance Matrix: (Units=1/GPa)
#
#
# Indices 1 2 3 4 5 6 
#
# 1 0.025926 0.003751 -0.010201 0.000000 0.000000 0.000000
# 2 0.003751 0.013599 -0.017217 0.000000 0.000000 0.000000
# 3 -0.010201 -0.017217 0.034547 0.000000 0.000000 0.000000
# 4 0.000000 0.000000 0.000000 0.022190 0.000000 0.000000
# 5 0.000000 0.000000 0.000000 0.000000 0.045809 0.000000
# 6 0.000000 0.000000 0.000000 0.000000 0.000000 0.105196
#
#
# Mechanical properties :
#
#
# Convention : Reuss Voigt Hill
#
# Bulk Modulus (GPa) = 37.40246 67.04815 52.22530
# Shear Modulus (GPa) = 16.47373 28.49335 22.48354
#
# Velocity S-wave (km/s) = 2.74322 3.60775 3.20477
# Velocity P-wave (km/s) = 5.20761 6.92693 6.12787
#
# Compressibility (1/GPa) = 0.02673621
#
# Stress axis : x y z
#
# Youngs Moduli (GPa) = 38.57198 73.53398 28.94644
#
# Poissons Ratio (x) = -0.27585 0.29530
# Poissons Ratio (y) = -0.14470 0.49838
# Poissons Ratio (z) = 0.39349 1.26606
#
# Static dielectric constant tensor:
#      x y z
#    x 1.874500 0.000000 0.000000 
#    y 0.000000 1.821210 0.000000 
#    z 0.000000 0.000000 1.757700 
# 
# From -- ./inp_files/8130.got.cif
#   From: 2010.05.17/outbox.cif.g08.bks.cpg/sg62_5_cif.got.tgz:8130.got - 2010.06.03 15:25:27.
