data_PCOD9464964
_publ_section_title
;
Structure prediction by ZEFSAII (Michael W. Deem and Ramdas Pophale) SiO2 
 PCOD9464964
Probable space group: P N M A
;
_chemical_formula_sum "Si O2"
_cell_formula_units_Z 60
_cell_length_a 4.911737
_cell_length_b 22.973457
_cell_length_c 24.000691
_cell_angle_alpha 90.000000
_cell_angle_beta 90.000000
_cell_angle_gamma 90.000000
_cell_volume 2708.227863
_symmetry_space_group_name_H-M "P N M A"
_symmetry_group_IT_number 62
_symmetry_cell_setting 'orthorhombic'
loop_
_space_group_symop_operation_xyz
x,y,z
1/2-x,-y,1/2+z
1/2+x,1/2-y,1/2-z
-x,1/2+y,-z
-x,-y,-z
1/2+x,y,1/2-z
1/2-x,1/2+y,1/2+z
x,1/2-y,z
loop_
_atom_site_type_symbol
_atom_site_label
_atom_site_fract_x
_atom_site_fract_y
_atom_site_fract_z
Si Si1 0.632969 0.018324 0.114532
Si Si2 0.373620 0.051125 0.603451
Si Si3 0.227884 0.683130 0.544115
Si Si4 0.228061 0.815208 0.877561
Si Si5 0.145789 0.750000 0.214092
Si Si6 0.572290 0.429384 0.005829
Si Si7 0.275332 0.624017 0.210571
Si Si8 0.636201 0.586225 0.712749
O O1 0.310623 0.007541 0.110848
O O2 0.807506 0.961401 0.098568
O O3 0.702206 0.065878 0.067656
O O4 0.751096 0.034189 0.174381
O O5 0.267379 0.080035 0.546759
O O6 0.299140 0.083882 0.659590
O O7 0.197182 0.750000 0.519990
O O8 0.031425 0.681602 0.598083
O O9 0.136696 0.625274 0.509561
O O10 0.528711 0.677890 0.569128
O O11 0.177932 0.750000 0.856449
O O12 0.180960 0.858954 0.827230
O O13 0.327783 0.750000 0.271088
O O14 0.231270 0.689550 0.187976
O O15 0.500000 0.500000 0.000000
O O16 0.571090 0.616309 0.237174
O O17 0.326847 0.585187 0.732843
#
# Coordination Sequence:
#
# PCOD9464964 Si02
#       8
#     8   8   8   8   4   8   8   8
#     4  11  24  41  59  84 129 159 203 255 314 370
#     4  11  24  39  61  94 116 162 209 253 301 375
#     4  10  21  40  66  92 124 167 207 253 320 375
#     4  10  22  40  64  88 121 165 208 257 312 372
#     4   8  16  32  56  84 110 154 196 228 296 364
#     4  10  23  41  67  94 124 166 210 258 311 370
#     4  10  20  37  61  85 121 159 194 247 305 369
#     4  12  25  38  61  90 122 163 207 259 314 373
#
# _framework density 22.154709
#
# number of rings (size 3 to 8) (size 9 to 14) (size 15 to 20)
#    0.000    1.600    1.333    2.800    3.733    5.867 
#    1.200    0.000    0.000    0.000    1.733    0.000 
#    0.000    0.000    0.000    0.000    0.000    0.000 
#
# Total GULP energy -334622.775501 kJ/mol
# GULP energy per Si atom -5577.046258 kJ/mol
# Density = 2.210428 g / cm^3
# Si number density = 22.154709 Si / 1000 Ang^3
#
#
#
# Elastic Constant Matrix: (Units=GPa)
#
#
# Indices 1 2 3 4 5 6 
#
# 1 54.0888 0.1152 -10.4190 0.0000 0.0000 0.0000
# 2 0.1152 94.4506 30.3800 0.0000 0.0000 0.0000
# 3 -10.4190 30.3800 53.6370 0.0000 0.0000 0.0000
# 4 0.0000 0.0000 0.0000 33.2069 0.0000 0.0000
# 5 0.0000 0.0000 0.0000 0.0000 26.0993 0.0000
# 6 0.0000 0.0000 0.0000 0.0000 0.0000 30.8441
#
#
#
# Elastic Compliance Matrix: (Units=1/GPa)
#
#
# Indices 1 2 3 4 5 6 
#
# 1 0.019381 -0.001510 0.004620 0.000000 0.000000 0.000000
# 2 -0.001510 0.013064 -0.007693 0.000000 0.000000 0.000000
# 3 0.004620 -0.007693 0.023898 0.000000 0.000000 0.000000
# 4 0.000000 0.000000 0.000000 0.030114 0.000000 0.000000
# 5 0.000000 0.000000 0.000000 0.000000 0.038315 0.000000
# 6 0.000000 0.000000 0.000000 0.000000 0.000000 0.032421
#
#
# Mechanical properties :
#
#
# Convention : Reuss Voigt Hill
#
# Bulk Modulus (GPa) = 21.19604 26.92544 24.06074
# Shear Modulus (GPa) = 27.45979 30.17009 28.81494
#
# Velocity S-wave (km/s) = 3.52441 3.69425 3.61033
# Velocity P-wave (km/s) = 5.11371 5.51148 5.31631
#
# Compressibility (1/GPa) = 0.04717863
#
# Stress axis : x y z
#
# Youngs Moduli (GPa) = 51.59632 76.54810 41.84396
#
# Poissons Ratio (x) = 0.11556 -0.19331
# Poissons Ratio (y) = 0.07789 0.32189
# Poissons Ratio (z) = -0.23837 0.58885
#
# Static dielectric constant tensor:
#      x y z
#    x 1.793430 0.000000 0.000000 
#    y 0.000000 1.922730 0.000000 
#    z 0.000000 0.000000 1.805740 
# 
# From -- ./inp_files/28416.got.cif
#   From: 2010.05.17/outbox.cif.g08.bks.cpg/sg62_15_cif.got.tgz:28416.got - 2010.06.03 15:25:27.
