data_PCOD9464786
_publ_section_title
;
Structure prediction by ZEFSAII (Michael W. Deem and Ramdas Pophale) SiO2 
 PCOD9464786
Probable space group: P N M A
;
_chemical_formula_sum "Si O2"
_cell_formula_units_Z 48
_cell_length_a 29.710030
_cell_length_b 8.789280
_cell_length_c 10.370021
_cell_angle_alpha 90.000000
_cell_angle_beta 90.000000
_cell_angle_gamma 90.000000
_cell_volume 2707.921224
_symmetry_space_group_name_H-M "P N M A"
_symmetry_group_IT_number 62
_symmetry_cell_setting 'orthorhombic'
loop_
_space_group_symop_operation_xyz
x,y,z
1/2-x,-y,1/2+z
1/2+x,1/2-y,1/2-z
-x,1/2+y,-z
-x,-y,-z
1/2+x,y,1/2-z
1/2-x,1/2+y,1/2+z
x,1/2-y,z
loop_
_atom_site_type_symbol
_atom_site_label
_atom_site_fract_x
_atom_site_fract_y
_atom_site_fract_z
Si Si1 0.886804 0.569703 0.219315
Si Si2 0.525621 0.930690 0.123184
Si Si3 0.216917 0.433319 0.496902
Si Si4 0.613723 0.070000 0.025860
Si Si5 0.788697 0.067442 0.222178
Si Si6 0.977711 0.431487 0.127143
O O1 0.887709 0.750000 0.194641
O O2 0.895044 0.547715 0.372917
O O3 0.837456 0.503643 0.192302
O O4 0.926388 0.487257 0.143130
O O5 0.519237 0.750000 0.126202
O O6 0.577824 0.974392 0.105389
O O7 0.504726 0.004746 0.250076
O O8 0.500000 0.000000 0.000000
O O9 0.217790 0.250000 0.514367
O O10 0.165903 0.471783 0.453857
O O11 0.252783 0.475361 0.387762
O O12 0.225126 0.508556 0.635922
O O13 0.607864 0.250000 0.053194
O O14 0.792164 0.250000 0.225406
O O15 0.979441 0.250000 0.125157
O O16 0.000000 0.500000 0.000000
#
# Coordination Sequence:
#
# PCOD9464786 Si02
#       6
#     8   8   8   8   8   8
#     4  10  20  37  61  86 117 156 194 236 289 350
#     4  12  23  37  60  89 118 153 196 240 286 340
#     4   9  20  38  58  83 117 152 191 241 290 344
#     4   9  18  35  59  84 114 150 195 244 288 337
#     4  10  20  36  60  87 115 152 194 240 291 346
#     4  12  25  42  62  86 119 156 195 242 294 352
#
# _framework density 17.725774000000001
#
# number of rings (size 3 to 8) (size 9 to 14) (size 15 to 20)
#    0.000    1.667    1.667    5.000    0.000    4.000 
#    3.000    0.000    0.000    0.000    0.000    0.000 
#    0.000    0.000    0.000    0.000    0.000    0.000 
#
# Total GULP energy -268171.174181 kJ/mol
# GULP energy per Si atom -5586.899462 kJ/mol
# Density = 1.768543 g / cm^3
# Si number density = 17.725774 Si / 1000 Ang^3
#
#
#
# Elastic Constant Matrix: (Units=GPa)
#
#
# Indices 1 2 3 4 5 6 
#
# 1 144.0619 75.3423 94.9613 0.0000 0.0000 0.0000
# 2 75.3423 113.5696 69.5410 0.0000 0.0000 0.0000
# 3 94.9613 69.5410 128.5925 0.0000 0.0000 0.0000
# 4 0.0000 0.0000 0.0000 29.5412 0.0000 0.0000
# 5 0.0000 0.0000 0.0000 0.0000 35.8564 0.0000
# 6 0.0000 0.0000 0.0000 0.0000 0.0000 32.3442
#
#
#
# Elastic Compliance Matrix: (Units=1/GPa)
#
#
# Indices 1 2 3 4 5 6 
#
# 1 0.015069 -0.004759 -0.008555 0.000000 0.000000 0.000000
# 2 -0.004759 0.014667 -0.004418 0.000000 0.000000 0.000000
# 3 -0.008555 -0.004418 0.016483 0.000000 0.000000 0.000000
# 4 0.000000 0.000000 0.000000 0.033851 0.000000 0.000000
# 5 0.000000 0.000000 0.000000 0.000000 0.027889 0.000000
# 6 0.000000 0.000000 0.000000 0.000000 0.000000 0.030917
#
#
# Mechanical properties :
#
#
# Convention : Reuss Voigt Hill
#
# Bulk Modulus (GPa) = 92.96146 96.21259 94.58703
# Shear Modulus (GPa) = 28.10185 29.30699 28.70442
#
# Velocity S-wave (km/s) = 3.98599 4.07056 4.02849
# Velocity P-wave (km/s) = 8.58733 8.74579 8.66692
#
# Compressibility (1/GPa) = 0.01075715
#
# Stress axis : x y z
#
# Youngs Moduli (GPa) = 66.36064 68.17978 60.66939
#
# Poissons Ratio (x) = 0.32445 0.51900
# Poissons Ratio (y) = 0.31579 0.26801
# Poissons Ratio (z) = 0.56769 0.30119
#
# Static dielectric constant tensor:
#      x y z
#    x 1.608120 0.000000 0.000000 
#    y 0.000000 1.589680 0.000000 
#    z 0.000000 0.000000 1.567200 
# 
# From -- ./inp_files/10189.got.cif
#   From: 2010.05.17/outbox.cif.g08.bks.cpg/sg62_6_cif.got.tgz:10189.got - 2010.06.03 15:25:27.
