data_PCOD9464829
_publ_section_title
;
Structure prediction by ZEFSAII (Michael W. Deem and Ramdas Pophale) SiO2 
 PCOD9464829
Probable space group: P N M A
;
_chemical_formula_sum "Si O2"
_cell_formula_units_Z 32
_cell_length_a 4.886102
_cell_length_b 16.412713
_cell_length_c 16.195230
_cell_angle_alpha 90.000000
_cell_angle_beta 90.000000
_cell_angle_gamma 90.000000
_cell_volume 1298.763349
_symmetry_space_group_name_H-M "P N M A"
_symmetry_group_IT_number 62
_symmetry_cell_setting 'orthorhombic'
loop_
_space_group_symop_operation_xyz
x,y,z
1/2-x,-y,1/2+z
1/2+x,1/2-y,1/2-z
-x,1/2+y,-z
-x,-y,-z
1/2+x,y,1/2-z
1/2-x,1/2+y,1/2+z
x,1/2-y,z
loop_
_atom_site_type_symbol
_atom_site_label
_atom_site_fract_x
_atom_site_fract_y
_atom_site_fract_z
Si Si1 0.207420 0.750000 0.192471
Si Si2 0.839857 0.927437 0.307269
Si Si3 0.820717 0.557561 0.942556
Si Si4 0.900088 0.250000 0.301731
Si Si5 0.844663 0.659800 0.555460
O O1 0.396650 0.750000 0.275550
O O2 0.273230 0.661837 0.153533
O O3 0.648675 0.931046 0.225418
O O4 0.764727 0.002440 0.365179
O O5 0.550729 0.595436 0.985261
O O6 0.041352 0.629184 0.928346
O O7 0.000000 0.500000 0.000000
O O8 0.584517 0.250000 0.279886
O O9 0.001378 0.174362 0.356628
O O10 0.841993 0.750000 0.517157
#
# Coordination Sequence:
#
# PCOD9464829 Si02
#       5
#     4   8   8   4   8
#     4   8  16  34  54  80 116 148 198 248 300 370
#     4  10  21  38  63  91 123 162 205 261 320 372
#     4  12  24  42  65  95 132 164 216 267 319 386
#     4  10  20  36  62  92 126 170 216 254 314 374
#     4  10  24  42  61  87 132 168 211 261 308 387
#
# _framework density 24.638824
#
# number of rings (size 3 to 8) (size 9 to 14) (size 15 to 20)
#    0.750    1.000    0.000    4.500    0.000    6.000 
#    4.500    0.000    5.500    0.000    0.000    0.000 
#    0.000    0.000    0.000    0.000    0.000    0.000 
#
# Total GULP energy -178890.471548 kJ/mol
# GULP energy per Si atom -5590.327236 kJ/mol
# Density = 2.458274 g / cm^3
# Si number density = 24.638824 Si / 1000 Ang^3
#
#
#
# Elastic Constant Matrix: (Units=GPa)
#
#
# Indices 1 2 3 4 5 6 
#
# 1 132.6281 48.6720 5.4967 0.0000 0.0000 0.0000
# 2 48.6720 148.5971 19.4307 0.0000 0.0000 0.0000
# 3 5.4967 19.4307 28.0334 0.0000 0.0000 0.0000
# 4 0.0000 0.0000 0.0000 42.4408 0.0000 0.0000
# 5 0.0000 0.0000 0.0000 0.0000 32.7666 0.0000
# 6 0.0000 0.0000 0.0000 0.0000 0.0000 50.6923
#
#
#
# Elastic Compliance Matrix: (Units=1/GPa)
#
#
# Indices 1 2 3 4 5 6 
#
# 1 0.008572 -0.002846 0.000292 0.000000 0.000000 0.000000
# 2 -0.002846 0.008345 -0.005226 0.000000 0.000000 0.000000
# 3 0.000292 -0.005226 0.039237 0.000000 0.000000 0.000000
# 4 0.000000 0.000000 0.000000 0.023562 0.000000 0.000000
# 5 0.000000 0.000000 0.000000 0.000000 0.030519 0.000000
# 6 0.000000 0.000000 0.000000 0.000000 0.000000 0.019727
#
#
# Mechanical properties :
#
#
# Convention : Reuss Voigt Hill
#
# Bulk Modulus (GPa) = 24.63446 50.71749 37.67598
# Shear Modulus (GPa) = 31.43583 40.89056 36.16319
#
# Velocity S-wave (km/s) = 3.57580 4.07824 3.83526
# Velocity P-wave (km/s) = 5.20273 6.54256 5.91073
#
# Compressibility (1/GPa) = 0.04059354
#
# Stress axis : x y z
#
# Youngs Moduli (GPa) = 116.65642 119.83004 25.48618
#
# Poissons Ratio (x) = 0.34103 -0.00744
# Poissons Ratio (y) = 0.33199 0.13320
# Poissons Ratio (z) = -0.03404 0.62626
#
# Static dielectric constant tensor:
#      x y z
#    x 1.875680 0.000000 0.000000 
#    y 0.000000 2.116250 0.000000 
#    z 0.000000 0.000000 2.002580 
# 
# From -- ./inp_files/21435.got.cif
#   From: 2010.05.17/outbox.cif.g08.bks.cpg/sg62_11_cif.got.tgz:21435.got - 2010.06.03 15:25:27.
