data_PCOD9464255
_publ_section_title
;
Structure prediction by ZEFSAII (Michael W. Deem and Ramdas Pophale) SiO2 
 PCOD9464255
Probable space group: P N M A
;
_chemical_formula_sum "Si O2"
_cell_formula_units_Z 40
_cell_length_a 11.311706
_cell_length_b 7.907263
_cell_length_c 18.895387
_cell_angle_alpha 90.000000
_cell_angle_beta 90.000000
_cell_angle_gamma 90.000000
_cell_volume 1690.090981
_symmetry_space_group_name_H-M "P N M A"
_symmetry_group_IT_number 62
_symmetry_cell_setting 'orthorhombic'
loop_
_space_group_symop_operation_xyz
x,y,z
1/2-x,-y,1/2+z
1/2+x,1/2-y,1/2-z
-x,1/2+y,-z
-x,-y,-z
1/2+x,y,1/2-z
1/2-x,1/2+y,1/2+z
x,1/2-y,z
loop_
_atom_site_type_symbol
_atom_site_label
_atom_site_fract_x
_atom_site_fract_y
_atom_site_fract_z
Si Si1 0.093930 0.552720 0.698655
Si Si2 0.842816 0.949312 0.749652
Si Si3 0.891310 0.562177 0.455203
Si Si4 0.681879 0.440574 0.535122
Si Si5 0.545837 0.544755 0.397847
O O1 0.084462 0.750000 0.718844
O O2 0.206991 0.481041 0.743440
O O3 0.129326 0.543617 0.615813
O O4 0.958327 0.482793 0.705868
O O5 0.830635 0.750000 0.732356
O O6 0.893867 0.976655 0.828289
O O7 0.908235 0.750000 0.428085
O O8 0.787499 0.557665 0.512684
O O9 0.000000 0.500000 0.500000
O O10 0.725574 0.250000 0.546005
O O11 0.601877 0.450076 0.464544
O O12 0.594392 0.488478 0.598063
O O13 0.561974 0.750000 0.404173
#
# Coordination Sequence:
#
# PCOD9464255 Si02
#       5
#     8   8   8   8   8
#     4  10  22  41  62  89 122 164 208 254 307 372
#     4  10  21  38  62  88 124 166 208 255 310 371
#     4  12  25  41  63  90 122 162 203 255 314 373
#     4  10  20  36  58  87 122 157 198 249 302 364
#     4  10  20  34  58  90 120 155 200 250 305 359
#
# _framework density 23.667366000000001
#
# number of rings (size 3 to 8) (size 9 to 14) (size 15 to 20)
#    0.000    1.600    2.000    3.000    0.000    4.800 
#    0.000    2.000    0.000    0.000    0.000    0.000 
#    0.000    0.000    0.000    0.000    0.000    0.000 
#
# Total GULP energy -222986.892456 kJ/mol
# GULP energy per Si atom -5574.672311 kJ/mol
# Density = 2.361350 g / cm^3
# Si number density = 23.667366 Si / 1000 Ang^3
#
#
#
# Elastic Constant Matrix: (Units=GPa)
#
#
# Indices 1 2 3 4 5 6 
#
# 1 136.0830 22.5911 23.7729 0.0000 0.0000 0.0000
# 2 22.5911 43.1194 -9.4969 0.0000 0.0000 0.0000
# 3 23.7729 -9.4969 34.0923 0.0000 0.0000 0.0000
# 4 0.0000 0.0000 0.0000 13.4809 0.0000 0.0000
# 5 0.0000 0.0000 0.0000 0.0000 30.2874 0.0000
# 6 0.0000 0.0000 0.0000 0.0000 0.0000 13.5382
#
#
#
# Elastic Compliance Matrix: (Units=1/GPa)
#
#
# Indices 1 2 3 4 5 6 
#
# 1 0.010161 -0.007334 -0.009128 0.000000 0.000000 0.000000
# 2 -0.007334 0.030001 0.013471 0.000000 0.000000 0.000000
# 3 -0.009128 0.013471 0.039450 0.000000 0.000000 0.000000
# 4 0.000000 0.000000 0.000000 0.074179 0.000000 0.000000
# 5 0.000000 0.000000 0.000000 0.000000 0.033017 0.000000
# 6 0.000000 0.000000 0.000000 0.000000 0.000000 0.073865
#
#
# Mechanical properties :
#
#
# Convention : Reuss Voigt Hill
#
# Bulk Modulus (GPa) = 13.58156 31.89213 22.73684
# Shear Modulus (GPa) = 17.17055 23.22314 20.19684
#
# Velocity S-wave (km/s) = 2.69642 3.13586 2.92441
# Velocity P-wave (km/s) = 3.93004 5.15906 4.58591
#
# Compressibility (1/GPa) = 0.07362927
#
# Stress axis : x y z
#
# Youngs Moduli (GPa) = 98.42020 33.33271 25.34880
#
# Poissons Ratio (x) = 0.24445 0.23138
# Poissons Ratio (y) = 0.72178 -0.34147
# Poissons Ratio (z) = 0.89837 -0.44902
#
# Static dielectric constant tensor:
#      x y z
#    x 2.227760 0.000000 0.000000 
#    y 0.000000 1.855190 0.000000 
#    z 0.000000 0.000000 1.833390 
# 
# From -- ./inp_files/22802.got.cif
#   From: 2010.05.17/outbox.cif.g08.bks.cpg/sg62_12_cif.got.tgz:22802.got - 2010.06.03 15:25:27.
