data_PCOD9464954
_publ_section_title
;
Structure prediction by ZEFSAII (Michael W. Deem and Ramdas Pophale) SiO2 
 PCOD9464954
Probable space group: P N M A
;
_chemical_formula_sum "Si O2"
_cell_formula_units_Z 64
_cell_length_a 14.881561
_cell_length_b 9.078558
_cell_length_c 23.722610
_cell_angle_alpha 90.000000
_cell_angle_beta 90.000000
_cell_angle_gamma 90.000000
_cell_volume 3204.998499
_symmetry_space_group_name_H-M "P N M A"
_symmetry_group_IT_number 62
_symmetry_cell_setting 'orthorhombic'
loop_
_space_group_symop_operation_xyz
x,y,z
1/2-x,-y,1/2+z
1/2+x,1/2-y,1/2-z
-x,1/2+y,-z
-x,-y,-z
1/2+x,y,1/2-z
1/2-x,1/2+y,1/2+z
x,1/2-y,z
loop_
_atom_site_type_symbol
_atom_site_label
_atom_site_fract_x
_atom_site_fract_y
_atom_site_fract_z
Si Si1 0.932225 0.421066 0.251393
Si Si2 0.274785 0.927017 0.758182
Si Si3 0.250620 0.918529 0.019812
Si Si4 0.792340 0.922754 0.873139
Si Si5 0.500762 0.917590 0.628287
Si Si6 0.567857 0.926388 0.167779
Si Si7 0.437464 0.921016 0.954177
Si Si8 0.581742 0.422859 0.532611
O O1 0.930686 0.250000 0.270950
O O2 0.830864 0.457537 0.232005
O O3 0.992423 0.428970 0.195334
O O4 0.979022 0.520518 0.298276
O O5 0.289950 0.750000 0.764253
O O6 0.285959 0.965794 0.692135
O O7 0.345658 0.009435 0.798033
O O8 0.219482 0.750000 0.025025
O O9 0.264167 0.984218 0.082357
O O10 0.339069 0.922516 0.982184
O O11 0.174641 0.013758 0.989601
O O12 0.768724 0.750000 0.877328
O O13 0.897414 0.938946 0.888896
O O14 0.527602 0.750000 0.612927
O O15 0.564415 0.031391 0.597081
O O16 0.572306 0.750000 0.165528
O O17 0.564238 0.995516 0.105411
O O18 0.464264 0.750000 0.945849
O O19 0.500000 0.000000 0.000000
O O20 0.500000 0.500000 0.500000
O O21 0.577892 0.250000 0.524310
#
# Coordination Sequence:
#
# PCOD9464954 Si02
#       8
#     8   8   8   8   8   8   8   8
#     4  10  22  42  69  95 126 171 217 267 326 393
#     4  10  22  42  68  98 128 171 219 267 329 389
#     4  11  25  43  65  93 126 167 215 267 325 386
#     4  10  20  37  63  93 128 165 211 265 323 391
#     4  10  20  37  60  90 128 166 209 259 319 384
#     4  12  26  44  68 100 138 176 219 276 331 392
#     4  11  27  50  73  96 128 174 227 283 335 391
#     4  12  24  38  59  89 128 169 211 257 313 381
#
# _framework density 19.968807000000002
#
# number of rings (size 3 to 8) (size 9 to 14) (size 15 to 20)
#    0.000    1.250    2.500    3.000    3.500    3.500 
#    0.000    0.000    0.000    0.000    0.000    0.000 
#    0.000    0.000    0.000    0.000    0.000    0.000 
#
# Total GULP energy -357732.878151 kJ/mol
# GULP energy per Si atom -5589.576221 kJ/mol
# Density = 1.992336 g / cm^3
# Si number density = 19.968807 Si / 1000 Ang^3
#
#
#
# Elastic Constant Matrix: (Units=GPa)
#
#
# Indices 1 2 3 4 5 6 
#
# 1 52.9904 42.7780 19.2085 0.0000 0.0000 0.0000
# 2 42.7780 142.0405 68.1624 0.0000 0.0000 0.0000
# 3 19.2085 68.1624 117.4457 0.0000 0.0000 0.0000
# 4 0.0000 0.0000 0.0000 33.7286 0.0000 0.0000
# 5 0.0000 0.0000 0.0000 0.0000 28.8281 0.0000
# 6 0.0000 0.0000 0.0000 0.0000 0.0000 22.0790
#
#
#
# Elastic Compliance Matrix: (Units=1/GPa)
#
#
# Indices 1 2 3 4 5 6 
#
# 1 0.024946 -0.007699 0.000389 0.000000 0.000000 0.000000
# 2 -0.007699 0.012134 -0.005783 0.000000 0.000000 0.000000
# 3 0.000389 -0.005783 0.011807 0.000000 0.000000 0.000000
# 4 0.000000 0.000000 0.000000 0.029648 0.000000 0.000000
# 5 0.000000 0.000000 0.000000 0.000000 0.034688 0.000000
# 6 0.000000 0.000000 0.000000 0.000000 0.000000 0.045292
#
#
# Mechanical properties :
#
#
# Convention : Reuss Voigt Hill
#
# Bulk Modulus (GPa) = 44.05343 63.64161 53.84752
# Shear Modulus (GPa) = 26.00497 29.08233 27.54365
#
# Velocity S-wave (km/s) = 3.61263 3.82041 3.71797
# Velocity P-wave (km/s) = 6.28573 7.16940 6.74206
#
# Compressibility (1/GPa) = 0.02269971
#
# Stress axis : x y z
#
# Youngs Moduli (GPa) = 40.08653 82.41120 84.69247
#
# Poissons Ratio (x) = 0.63452 -0.03291
# Poissons Ratio (y) = 0.30864 0.48979
# Poissons Ratio (z) = -0.01557 0.47660
#
# Static dielectric constant tensor:
#      x y z
#    x 1.722700 0.000000 0.000000 
#    y 0.000000 1.683340 0.000000 
#    z 0.000000 0.000000 1.726300 
# 
# From -- ./inp_files/29916.got.cif
#   From: 2010.05.17/outbox.cif.g08.bks.cpg/sg62_15_cif.got.tgz:29916.got - 2010.06.03 15:25:27.
