data_PCOD9464283
_publ_section_title
;
Structure prediction by ZEFSAII (Michael W. Deem and Ramdas Pophale) SiO2 
 PCOD9464283
Probable space group: P N M A
;
_chemical_formula_sum "Si O2"
_cell_formula_units_Z 36
_cell_length_a 5.285426
_cell_length_b 11.881109
_cell_length_c 23.834062
_cell_angle_alpha 90.000000
_cell_angle_beta 90.000000
_cell_angle_gamma 90.000000
_cell_volume 1496.700975
_symmetry_space_group_name_H-M "P N M A"
_symmetry_group_IT_number 62
_symmetry_cell_setting 'orthorhombic'
loop_
_space_group_symop_operation_xyz
x,y,z
1/2-x,-y,1/2+z
1/2+x,1/2-y,1/2-z
-x,1/2+y,-z
-x,-y,-z
1/2+x,y,1/2-z
1/2-x,1/2+y,1/2+z
x,1/2-y,z
loop_
_atom_site_type_symbol
_atom_site_label
_atom_site_fract_x
_atom_site_fract_y
_atom_site_fract_z
Si Si1 0.183567 0.459321 0.451213
Si Si2 0.566019 0.750000 0.280049
Si Si3 0.785138 0.487999 0.833044
Si Si4 0.195163 0.122349 0.331228
Si Si5 0.588145 0.621085 0.440709
O O1 0.136760 0.380577 0.398331
O O2 0.310149 0.573664 0.427667
O O3 0.379828 0.393600 0.492544
O O4 0.000000 0.500000 0.500000
O O5 0.263059 0.750000 0.272377
O O6 0.644403 0.633450 0.308987
O O7 0.530041 0.542595 0.808382
O O8 0.749691 0.459529 0.899607
O O9 0.024329 0.570734 0.825321
O O10 0.181133 0.250000 0.310286
O O11 0.628272 0.750000 0.426439
#
# Coordination Sequence:
#
# PCOD9464283 Si02
#       5
#     8   4   8   8   8
#     4  10  20  35  50  85 125 180 227 260 309 363
#     4  12  26  48  78 106 132 162 212 288 356 422
#     4  11  23  43  67  97 129 170 216 269 347 397
#     4  11  23  40  65  95 137 182 226 267 315 391
#     4  10  20  35  54  81 124 170 219 271 316 379
#
# _framework density 24.052900999999999
#
# number of rings (size 3 to 8) (size 9 to 14) (size 15 to 20)
#    0.000    1.333    3.333    2.667    0.000    1.778 
#    2.000    0.000    0.000   13.333    0.000    0.000 
#    0.000    0.000    0.000    0.000    0.000    0.000 
#
# Total GULP energy -200823.731428 kJ/mol
# GULP energy per Si atom -5578.436984 kJ/mol
# Density = 2.399816 g / cm^3
# Si number density = 24.052901 Si / 1000 Ang^3
#
#
#
# Elastic Constant Matrix: (Units=GPa)
#
#
# Indices 1 2 3 4 5 6 
#
# 1 70.2652 17.5970 -20.2397 0.0000 0.0000 0.0000
# 2 17.5970 140.8007 0.4008 0.0000 0.0000 0.0000
# 3 -20.2397 0.4008 61.0768 0.0000 0.0000 0.0000
# 4 0.0000 0.0000 0.0000 22.3465 0.0000 0.0000
# 5 0.0000 0.0000 0.0000 0.0000 20.0979 0.0000
# 6 0.0000 0.0000 0.0000 0.0000 0.0000 25.2972
#
#
#
# Elastic Compliance Matrix: (Units=1/GPa)
#
#
# Indices 1 2 3 4 5 6 
#
# 1 0.016306 -0.002053 0.005417 0.000000 0.000000 0.000000
# 2 -0.002053 0.007361 -0.000729 0.000000 0.000000 0.000000
# 3 0.005417 -0.000729 0.018173 0.000000 0.000000 0.000000
# 4 0.000000 0.000000 0.000000 0.044750 0.000000 0.000000
# 5 0.000000 0.000000 0.000000 0.000000 0.049756 0.000000
# 6 0.000000 0.000000 0.000000 0.000000 0.000000 0.039530
#
#
# Mechanical properties :
#
#
# Convention : Reuss Voigt Hill
#
# Bulk Modulus (GPa) = 21.22689 29.73988 25.48338
# Shear Modulus (GPa) = 26.83704 31.84063 29.33884
#
# Velocity S-wave (km/s) = 3.34391 3.64232 3.49630
# Velocity P-wave (km/s) = 4.87373 5.48451 5.18811
#
# Compressibility (1/GPa) = 0.04711006
#
# Stress axis : x y z
#
# Youngs Moduli (GPa) = 61.32557 135.85225 55.02751
#
# Poissons Ratio (x) = 0.27895 -0.29809
# Poissons Ratio (y) = 0.12592 0.04010
# Poissons Ratio (z) = -0.33221 0.09900
#
# Static dielectric constant tensor:
#      x y z
#    x 2.100050 0.000000 0.000000 
#    y 0.000000 1.921880 0.000000 
#    z 0.000000 0.000000 2.079400 
# 
# From -- ./inp_files/28152.got.cif
#   From: 2010.05.17/outbox.cif.g08.bks.cpg/sg62_15_cif.got.tgz:28152.got - 2010.06.03 15:25:27.
