data_PCOD9464048
_publ_section_title
;
Structure prediction by ZEFSAII (Michael W. Deem and Ramdas Pophale) SiO2 
 PCOD9464048
Probable space group: P N M A
;
_chemical_formula_sum "Si O2"
_cell_formula_units_Z 40
_cell_length_a 8.035557
_cell_length_b 9.926752
_cell_length_c 23.726800
_cell_angle_alpha 90.000000
_cell_angle_beta 90.000000
_cell_angle_gamma 90.000000
_cell_volume 1892.615217
_symmetry_space_group_name_H-M "P N M A"
_symmetry_group_IT_number 62
_symmetry_cell_setting 'orthorhombic'
loop_
_space_group_symop_operation_xyz
x,y,z
1/2-x,-y,1/2+z
1/2+x,1/2-y,1/2-z
-x,1/2+y,-z
-x,-y,-z
1/2+x,y,1/2-z
1/2-x,1/2+y,1/2+z
x,1/2-y,z
loop_
_atom_site_type_symbol
_atom_site_label
_atom_site_fract_x
_atom_site_fract_y
_atom_site_fract_z
Si Si1 0.274956 0.036960 0.639401
Si Si2 0.065016 0.750000 0.060207
Si Si3 0.738687 0.750000 0.558420
Si Si4 0.121182 0.250000 0.117464
Si Si5 0.294825 0.250000 0.998906
Si Si6 0.915811 0.469372 0.579563
Si Si7 0.852472 0.750000 0.275860
Si Si8 0.295174 0.250000 0.836460
O O1 0.398962 0.120816 0.599077
O O2 0.236342 0.120910 0.695664
O O3 0.101707 0.031865 0.604228
O O4 0.342516 0.888054 0.649747
O O5 0.883955 0.750000 0.032568
O O6 0.191631 0.750000 0.007664
O O7 0.564417 0.750000 0.592274
O O8 0.840433 0.616321 0.573072
O O9 0.247742 0.250000 0.063985
O O10 0.393456 0.119045 0.977248
O O11 0.809297 0.381070 0.624577
O O12 0.849844 0.750000 0.208771
O O13 0.039047 0.750000 0.298590
#
# Coordination Sequence:
#
# PCOD9464048 Si02
#       8
#     8   4   4   4   4   8   4   4
#     4  10  21  36  54  79 108 139 178 218 259 311
#     4  10  20  34  52  77 110 145 181 216 252 305
#     4  11  22  34  51  79 112 144 177 215 260 307
#     4  11  22  34  51  79 112 144 177 215 260 307
#     4  10  20  34  52  77 110 145 181 216 252 305
#     4  10  21  36  54  79 108 139 178 218 259 311
#     4   9  20  38  59  80 100 129 172 219 265 316
#     4   9  20  38  59  80 100 129 172 219 265 316
#
# _framework density 21.134777
#
# number of rings (size 3 to 8) (size 9 to 14) (size 15 to 20)
#    0.000    2.000    0.000    4.800    0.000   12.800 
#    0.000    1.000    0.000    0.000    0.000    0.000 
#    0.000    0.000    0.000    0.000    0.000    0.000 
#
# Total GULP energy -223876.314761 kJ/mol
# GULP energy per Si atom -5596.907869 kJ/mol
# Density = 2.108667 g / cm^3
# Si number density = 21.134777 Si / 1000 Ang^3
#
#
#
# Elastic Constant Matrix: (Units=GPa)
#
#
# Indices 1 2 3 4 5 6 
#
# 1 72.0054 36.4829 16.4256 0.0000 0.0000 0.0000
# 2 36.4829 183.8987 20.9063 0.0000 0.0000 0.0000
# 3 16.4256 20.9063 56.6669 0.0000 0.0000 0.0000
# 4 0.0000 0.0000 0.0000 6.3878 0.0000 0.0000
# 5 0.0000 0.0000 0.0000 0.0000 37.4920 0.0000
# 6 0.0000 0.0000 0.0000 0.0000 0.0000 23.1337
#
#
#
# Elastic Compliance Matrix: (Units=1/GPa)
#
#
# Indices 1 2 3 4 5 6 
#
# 1 0.016131 -0.002785 -0.003648 0.000000 0.000000 0.000000
# 2 -0.002785 0.006157 -0.001464 0.000000 0.000000 0.000000
# 3 -0.003648 -0.001464 0.019245 0.000000 0.000000 0.000000
# 4 0.000000 0.000000 0.000000 0.156550 0.000000 0.000000
# 5 0.000000 0.000000 0.000000 0.000000 0.026672 0.000000
# 6 0.000000 0.000000 0.000000 0.000000 0.000000 0.043227
#
#
# Mechanical properties :
#
#
# Convention : Reuss Voigt Hill
#
# Bulk Modulus (GPa) = 38.85413 51.13341 44.99377
# Shear Modulus (GPa) = 17.10241 29.31976 23.21108
#
# Velocity S-wave (km/s) = 2.84774 3.72866 3.31757
# Velocity P-wave (km/s) = 5.40710 6.54092 6.00085
#
# Compressibility (1/GPa) = 0.02573729
#
# Stress axis : x y z
#
# Youngs Moduli (GPa) = 61.99093 162.42152 51.96260
#
# Poissons Ratio (x) = 0.45242 0.18957
# Poissons Ratio (y) = 0.17268 0.07608
# Poissons Ratio (z) = 0.22616 0.23779
#
# Static dielectric constant tensor:
#      x y z
#    x 1.793830 0.000000 0.000000 
#    y 0.000000 1.740420 0.000000 
#    z 0.000000 0.000000 1.751970 
# 
# From -- ./inp_files/28670.got.cif
#   From: 2010.05.17/outbox.cif.g08.bks.cpg/sg62_15_cif.got.tgz:28670.got - 2010.06.03 15:25:27.
