data_PCOD9464924
_publ_section_title
;
Structure prediction by ZEFSAII (Michael W. Deem and Ramdas Pophale) SiO2 
 PCOD9464924
Probable space group: P N M A
;
_chemical_formula_sum "Si O2"
_cell_formula_units_Z 56
_cell_length_a 13.979911
_cell_length_b 9.554411
_cell_length_c 21.059248
_cell_angle_alpha 90.000000
_cell_angle_beta 90.000000
_cell_angle_gamma 90.000000
_cell_volume 2812.879869
_symmetry_space_group_name_H-M "P N M A"
_symmetry_group_IT_number 62
_symmetry_cell_setting 'orthorhombic'
loop_
_space_group_symop_operation_xyz
x,y,z
1/2-x,-y,1/2+z
1/2+x,1/2-y,1/2-z
-x,1/2+y,-z
-x,-y,-z
1/2+x,y,1/2-z
1/2-x,1/2+y,1/2+z
x,1/2-y,z
loop_
_atom_site_type_symbol
_atom_site_label
_atom_site_fract_x
_atom_site_fract_y
_atom_site_fract_z
Si Si1 0.018617 0.406022 0.559112
Si Si2 0.651302 0.905912 0.158749
Si Si3 0.832358 0.919343 0.337500
Si Si4 0.498649 0.913248 0.607465
Si Si5 0.823335 0.419289 0.933610
Si Si6 0.719542 0.910717 0.571831
Si Si7 0.010470 0.080235 0.761824
O O1 0.049079 0.250000 0.539888
O O2 0.097391 0.465832 0.606253
O O3 0.000000 0.500000 0.500000
O O4 0.923794 0.395231 0.601106
O O5 0.689227 0.750000 0.174041
O O6 0.582624 0.949940 0.217236
O O7 0.732551 0.002454 0.128734
O O8 0.833723 0.750000 0.335673
O O9 0.729551 0.956619 0.366744
O O10 0.889642 0.960445 0.274001
O O11 0.471746 0.750000 0.614701
O O12 0.605310 0.916908 0.579588
O O13 0.421410 0.996002 0.565877
O O14 0.502114 0.994956 0.674077
O O15 0.837446 0.250000 0.934632
O O16 0.763744 0.454045 0.998012
O O17 0.751569 0.750000 0.578082
O O18 0.010980 0.250000 0.770913
#
# Coordination Sequence:
#
# PCOD9464924 Si02
#       7
#     8   8   8   8   8   8   8
#     4   9  16  28  47  75 109 141 172 213 263 319
#     4   9  19  34  55  82 110 141 183 228 269 322
#     4   8  16  32  55  79 104 135 177 222 262 314
#     4  11  24  39  54  78 111 146 185 232 277 322
#     4  10  20  37  60  83 107 144 188 226 270 328
#     4  10  22  38  57  82 113 147 183 225 281 335
#     4   9  19  38  59  81 109 144 183 222 269 328
#
# _framework density 19.908422999999999
#
# number of rings (size 3 to 8) (size 9 to 14) (size 15 to 20)
#    0.000    2.571    0.000    3.429    0.000    5.143 
#    0.000    7.857    0.000    0.000    0.000    0.000 
#    0.000    0.000    0.000    0.000    0.000    0.000 
#
# Total GULP energy -312018.863617 kJ/mol
# GULP energy per Si atom -5571.765422 kJ/mol
# Density = 1.986311 g / cm^3
# Si number density = 19.908423 Si / 1000 Ang^3
#
#
#
# Elastic Constant Matrix: (Units=GPa)
#
#
# Indices 1 2 3 4 5 6 
#
# 1 55.7232 21.7691 1.8310 0.0000 0.0000 0.0000
# 2 21.7691 43.3629 31.9001 0.0000 0.0000 0.0000
# 3 1.8310 31.9001 88.4686 0.0000 0.0000 0.0000
# 4 0.0000 0.0000 0.0000 25.1753 0.0000 0.0000
# 5 0.0000 0.0000 0.0000 0.0000 -5.7996 0.0000
# 6 0.0000 0.0000 0.0000 0.0000 0.0000 24.7598
#
#
#
# Elastic Compliance Matrix: (Units=1/GPa)
#
#
# Indices 1 2 3 4 5 6 
#
# 1 0.023981 -0.015888 0.005233 0.000000 0.000000 0.000000
# 2 -0.015888 0.041914 -0.014784 0.000000 0.000000 0.000000
# 3 0.005233 -0.014784 0.016526 0.000000 0.000000 0.000000
# 4 0.000000 0.000000 0.000000 0.039721 0.000000 0.000000
# 5 0.000000 0.000000 0.000000 0.000000 -0.172426 0.000000
# 6 0.000000 0.000000 0.000000 0.000000 0.000000 0.040388
#
#
# Mechanical properties :
#
#
# Convention : Reuss Voigt Hill
#
# Bulk Modulus (GPa) = 31.70522 33.17279 32.43901
# Shear Modulus (GPa) = 97.09093 17.63074 57.36083
#
# Velocity S-wave (km/s) = 6.99104 2.97912 5.37354
# Velocity P-wave (km/s) = 9.00701 5.34157 7.40468
#
# Compressibility (1/GPa) = 0.03154054
#
# Stress axis : x y z
#
# Youngs Moduli (GPa) = 41.69982 23.85858 60.51035
#
# Poissons Ratio (x) = 0.37907 -0.31663
# Poissons Ratio (y) = 0.66254 0.89461
# Poissons Ratio (z) = -0.21820 0.35273
#
# Static dielectric constant tensor:
#      x y z
#    x 1.773410 0.000000 0.000000 
#    y 0.000000 1.807780 0.000000 
#    z 0.000000 0.000000 1.695860 
# 
# From -- ./inp_files/27261.got.cif
#   From: 2010.05.17/outbox.cif.g08.bks.cpg/sg62_14_cif.got.tgz:27261.got - 2010.06.03 15:25:27.
