data_PCOD9464295
_publ_section_title
;
Structure prediction by ZEFSAII (Michael W. Deem and Ramdas Pophale) SiO2 
 PCOD9464295
Probable space group: P N M A
;
_chemical_formula_sum "Si O2"
_cell_formula_units_Z 64
_cell_length_a 26.835324
_cell_length_b 7.897024
_cell_length_c 15.177433
_cell_angle_alpha 90.000000
_cell_angle_beta 90.000000
_cell_angle_gamma 90.000000
_cell_volume 3216.389424
_symmetry_space_group_name_H-M "P N M A"
_symmetry_group_IT_number 62
_symmetry_cell_setting 'orthorhombic'
loop_
_space_group_symop_operation_xyz
x,y,z
1/2-x,-y,1/2+z
1/2+x,1/2-y,1/2-z
-x,1/2+y,-z
-x,-y,-z
1/2+x,y,1/2-z
1/2-x,1/2+y,1/2+z
x,1/2-y,z
loop_
_atom_site_type_symbol
_atom_site_label
_atom_site_fract_x
_atom_site_fract_y
_atom_site_fract_z
Si Si1 0.214250 0.542631 0.993106
Si Si2 0.499202 0.954344 0.103018
Si Si3 0.861224 0.053056 0.861872
Si Si4 0.104525 0.953708 0.325315
Si Si5 0.828210 0.955030 0.508384
Si Si6 0.369211 0.048552 0.357783
Si Si7 0.609106 0.454531 0.839272
Si Si8 0.557034 0.054693 0.495907
O O1 0.214516 0.750000 0.994996
O O2 0.184020 0.481661 0.079463
O O3 0.271091 0.485700 0.989515
O O4 0.180771 0.492355 0.909052
O O5 0.499375 0.750000 0.108678
O O6 0.549324 0.018382 0.150042
O O7 0.447578 0.015337 0.145673
O O8 0.500000 0.000000 0.000000
O O9 0.848691 0.250000 0.847332
O O10 0.874091 0.977739 0.766882
O O11 0.909787 0.043717 0.924359
O O12 0.100165 0.750000 0.316390
O O13 0.141132 0.990970 0.405981
O O14 0.827717 0.750000 0.506763
O O15 0.856905 0.013674 0.420587
O O16 0.373079 0.250000 0.368923
O O17 0.370526 0.006274 0.255492
O O18 0.415753 0.970053 0.410372
O O19 0.608313 0.250000 0.842252
O O20 0.559636 0.250000 0.470673
O O21 0.500000 0.000000 0.500000
#
# Coordination Sequence:
#
# PCOD9464295 Si02
#       8
#     8   8   8   8   8   8   8   8
#     4   8  17  36  58  78 107 144 186 234 284 331
#     4  10  20  35  53  78 111 147 183 228 280 328
#     4   9  19  37  57  79 109 146 184 229 283 332
#     4  10  21  35  55  83 113 145 184 230 279 331
#     4  10  20  36  57  79 108 149 191 233 279 332
#     4  10  21  38  58  82 112 148 186 230 284 333
#     4  10  21  35  54  83 114 147 187 231 278 333
#     4  11  22  37  57  83 113 146 186 229 274 329
#
# _framework density 19.898087
#
# number of rings (size 3 to 8) (size 9 to 14) (size 15 to 20)
#    0.000    2.250    1.250    2.250    1.750    2.500 
#    0.000    4.375    0.000    0.000    0.000    0.000 
#    0.000    0.000    0.000    0.000    0.000    0.000 
#
# Total GULP energy -357287.078354 kJ/mol
# GULP energy per Si atom -5582.610599 kJ/mol
# Density = 1.985280 g / cm^3
# Si number density = 19.898087 Si / 1000 Ang^3
#
#
#
# Elastic Constant Matrix: (Units=GPa)
#
#
# Indices 1 2 3 4 5 6 
#
# 1 180.8559 3.3505 82.6288 0.0000 0.0000 0.0000
# 2 3.3505 21.2023 -4.1048 0.0000 0.0000 0.0000
# 3 82.6288 -4.1048 169.1329 0.0000 0.0000 0.0000
# 4 0.0000 0.0000 0.0000 25.2645 0.0000 0.0000
# 5 0.0000 0.0000 0.0000 0.0000 4.1771 0.0000
# 6 0.0000 0.0000 0.0000 0.0000 0.0000 10.2402
#
#
#
# Elastic Compliance Matrix: (Units=1/GPa)
#
#
# Indices 1 2 3 4 5 6 
#
# 1 0.007188 -0.001824 -0.003556 0.000000 0.000000 0.000000
# 2 -0.001824 0.047850 0.002053 0.000000 0.000000 0.000000
# 3 -0.003556 0.002053 0.007699 0.000000 0.000000 0.000000
# 4 0.000000 0.000000 0.000000 0.039581 0.000000 0.000000
# 5 0.000000 0.000000 0.000000 0.000000 0.239401 0.000000
# 6 0.000000 0.000000 0.000000 0.000000 0.000000 0.097654
#
#
# Mechanical properties :
#
#
# Convention : Reuss Voigt Hill
#
# Bulk Modulus (GPa) = 17.83083 59.43778 38.63431
# Shear Modulus (GPa) = 10.75909 27.22412 18.99161
#
# Velocity S-wave (km/s) = 2.32784 3.70290 3.09276
# Velocity P-wave (km/s) = 4.02562 6.94391 5.67554
#
# Compressibility (1/GPa) = 0.05608263
#
# Stress axis : x y z
#
# Youngs Moduli (GPa) = 139.12875 20.89846 129.87936
#
# Poissons Ratio (x) = 0.03812 0.46182
# Poissons Ratio (y) = 0.25380 -0.26658
# Poissons Ratio (z) = 0.49470 -0.04289
#
# Static dielectric constant tensor:
#      x y z
#    x 1.698130 0.000000 0.000000 
#    y 0.000000 1.741170 0.000000 
#    z 0.000000 0.000000 1.686410 
# 
# From -- ./inp_files/20939.got.cif
#   From: 2010.05.17/outbox.cif.g08.bks.cpg/sg62_11_cif.got.tgz:20939.got - 2010.06.03 15:25:27.
