data_PCOD9464624
_publ_section_title
;
Structure prediction by ZEFSAII (Michael W. Deem and Ramdas Pophale) SiO2 
 PCOD9464624
Probable space group: P N M A
;
_chemical_formula_sum "Si O2"
_cell_formula_units_Z 64
_cell_length_a 25.416966
_cell_length_b 8.753147
_cell_length_c 15.038639
_cell_angle_alpha 90.000000
_cell_angle_beta 90.000000
_cell_angle_gamma 90.000000
_cell_volume 3345.772940
_symmetry_space_group_name_H-M "P N M A"
_symmetry_group_IT_number 62
_symmetry_cell_setting 'orthorhombic'
loop_
_space_group_symop_operation_xyz
x,y,z
1/2-x,-y,1/2+z
1/2+x,1/2-y,1/2-z
-x,1/2+y,-z
-x,-y,-z
1/2+x,y,1/2-z
1/2-x,1/2+y,1/2+z
x,1/2-y,z
loop_
_atom_site_type_symbol
_atom_site_label
_atom_site_fract_x
_atom_site_fract_y
_atom_site_fract_z
Si Si1 0.363657 0.564344 0.853360
Si Si2 0.254733 0.073410 0.140216
Si Si3 0.635281 0.432365 0.857390
Si Si4 0.747297 0.574401 0.643047
Si Si5 0.860469 0.936016 0.852595
Si Si6 0.441539 0.068009 0.997635
Si Si7 0.862060 0.933048 0.151653
Si Si8 0.058129 0.434887 0.998174
O O1 0.365018 0.750000 0.858337
O O2 0.304888 0.515687 0.884276
O O3 0.369127 0.519629 0.749823
O O4 0.408874 0.494878 0.913533
O O5 0.261247 0.250000 0.111934
O O6 0.251993 0.073344 0.248509
O O7 0.197176 0.013269 0.113492
O O8 0.305659 0.978151 0.113391
O O9 0.629115 0.250000 0.863587
O O10 0.591969 0.513072 0.917356
O O11 0.630709 0.481597 0.754047
O O12 0.742496 0.750000 0.614590
O O13 0.695024 0.485250 0.617299
O O14 0.857702 0.750000 0.853315
O O15 0.907402 0.983006 0.916631
O O16 0.444173 0.250000 0.994876
O O17 0.500000 0.000000 0.000000
O O18 0.862054 0.750000 0.151458
O O19 0.908812 0.985775 0.088114
O O20 0.055787 0.250000 0.997755
O O21 0.000000 0.500000 0.000000
#
# Coordination Sequence:
#
# PCOD9464624 Si02
#       8
#     8   8   8   8   8   8   8   8
#     4   9  18  36  59  84 112 142 175 218 268 322
#     4   8  14  29  53  82 111 142 178 215 259 319
#     4  10  20  36  56  81 113 146 177 219 270 320
#     4   8  15  29  53  82 112 141 174 215 263 319
#     4   8  16  33  58  82 110 146 180 215 264 322
#     4  12  26  42  58  78 104 140 185 232 277 329
#     4   9  19  34  54  80 114 148 179 219 267 314
#     4  10  21  37  53  75 105 141 184 225 261 307
#
# _framework density 19.128615
#
# number of rings (size 3 to 8) (size 9 to 14) (size 15 to 20)
#    0.000    2.750    0.000    3.000    0.000    3.500 
#    0.000    6.875    0.000    0.000    0.000    0.000 
#    0.000    0.000    0.000    0.000    0.000    0.000 
#
# Total GULP energy -357099.850659 kJ/mol
# GULP energy per Si atom -5579.685167 kJ/mol
# Density = 1.908508 g / cm^3
# Si number density = 19.128615 Si / 1000 Ang^3
#
#
#
# Elastic Constant Matrix: (Units=GPa)
#
#
# Indices 1 2 3 4 5 6 
#
# 1 212.5878 46.7242 88.5981 0.0000 0.0000 0.0000
# 2 46.7242 38.2869 30.0621 0.0000 0.0000 0.0000
# 3 88.5981 30.0621 101.3067 0.0000 0.0000 0.0000
# 4 0.0000 0.0000 0.0000 14.8168 0.0000 0.0000
# 5 0.0000 0.0000 0.0000 0.0000 33.7782 0.0000
# 6 0.0000 0.0000 0.0000 0.0000 0.0000 37.2319
#
#
#
# Elastic Compliance Matrix: (Units=1/GPa)
#
#
# Indices 1 2 3 4 5 6 
#
# 1 0.008272 -0.005756 -0.005526 0.000000 0.000000 0.000000
# 2 -0.005756 0.038058 -0.006260 0.000000 0.000000 0.000000
# 3 -0.005526 -0.006260 0.016562 0.000000 0.000000 0.000000
# 4 0.000000 0.000000 0.000000 0.067491 0.000000 0.000000
# 5 0.000000 0.000000 0.000000 0.000000 0.029605 0.000000
# 6 0.000000 0.000000 0.000000 0.000000 0.000000 0.026859
#
#
# Mechanical properties :
#
#
# Convention : Reuss Voigt Hill
#
# Bulk Modulus (GPa) = 35.96105 75.88336 55.92220
# Shear Modulus (GPa) = 21.62632 29.61850 25.62241
#
# Velocity S-wave (km/s) = 3.36605 3.93922 3.66386
# Velocity P-wave (km/s) = 5.82645 7.77471 6.86999
#
# Compressibility (1/GPa) = 0.02780787
#
# Stress axis : x y z
#
# Youngs Moduli (GPa) = 120.88632 26.27579 60.38026
#
# Poissons Ratio (x) = 0.15124 0.33369
# Poissons Ratio (y) = 0.69581 0.37795
# Poissons Ratio (z) = 0.66808 0.16447
#
# Static dielectric constant tensor:
#      x y z
#    x 1.646460 0.000000 0.000000 
#    y 0.000000 1.645290 0.000000 
#    z 0.000000 0.000000 1.697970 
# 
# From -- ./inp_files/20848.got.cif
#   From: 2010.05.17/outbox.cif.g08.bks.cpg/sg62_11_cif.got.tgz:20848.got - 2010.06.03 15:25:27.
