data_PCOD9464712
_publ_section_title
;
Structure prediction by ZEFSAII (Michael W. Deem and Ramdas Pophale) SiO2 
 PCOD9464712
Probable space group: P N M A
;
_chemical_formula_sum "Si O2"
_cell_formula_units_Z 64
_cell_length_a 17.385244
_cell_length_b 8.644420
_cell_length_c 21.905147
_cell_angle_alpha 90.000000
_cell_angle_beta 90.000000
_cell_angle_gamma 90.000000
_cell_volume 3292.022704
_symmetry_space_group_name_H-M "P N M A"
_symmetry_group_IT_number 62
_symmetry_cell_setting 'orthorhombic'
loop_
_space_group_symop_operation_xyz
x,y,z
1/2-x,-y,1/2+z
1/2+x,1/2-y,1/2-z
-x,1/2+y,-z
-x,-y,-z
1/2+x,y,1/2-z
1/2-x,1/2+y,1/2+z
x,1/2-y,z
loop_
_atom_site_type_symbol
_atom_site_label
_atom_site_fract_x
_atom_site_fract_y
_atom_site_fract_z
Si Si1 0.846646 0.432725 0.278435
Si Si2 0.724703 0.937268 0.370321
Si Si3 0.708299 0.431155 0.654975
Si Si4 0.029539 0.435178 0.631398
Si Si5 0.436901 0.434405 0.581434
Si Si6 0.651531 0.062661 0.969777
Si Si7 0.401756 0.430797 0.438910
Si Si8 0.863030 0.935472 0.609641
O O1 0.856012 0.250000 0.284530
O O2 0.770373 0.487588 0.314740
O O3 0.836129 0.481266 0.208783
O O4 0.917634 0.516773 0.311612
O O5 0.729323 0.750000 0.365141
O O6 0.635585 0.979564 0.377195
O O7 0.772527 0.981393 0.431520
O O8 0.707342 0.250000 0.667490
O O9 0.664325 0.470116 0.592316
O O10 0.794905 0.491833 0.648999
O O11 0.021527 0.250000 0.629874
O O12 0.078412 0.484850 0.571286
O O13 0.946853 0.513411 0.631483
O O14 0.451132 0.250000 0.588410
O O15 0.410820 0.459150 0.511146
O O16 0.515969 0.525005 0.590291
O O17 0.651117 0.250000 0.971469
O O18 0.647265 0.009310 0.039239
O O19 0.384170 0.250000 0.430321
O O20 0.856321 0.750000 0.610905
#
# Coordination Sequence:
#
# PCOD9464712 Si02
#       8
#     8   8   8   8   8   8   8   8
#     4  11  23  41  61  82 110 147 194 244 290 337
#     4   9  17  34  58  84 115 153 192 231 281 341
#     4  12  25  42  60  81 112 153 197 241 294 350
#     4  10  20  38  60  86 119 156 192 230 282 344
#     4   9  18  34  58  88 120 152 189 232 285 346
#     4   8  16  31  56  87 122 157 187 226 280 336
#     4  10  20  36  58  85 118 152 188 236 289 342
#     4  11  21  36  59  90 121 151 190 237 283 336
#
# _framework density 19.440935
#
# number of rings (size 3 to 8) (size 9 to 14) (size 15 to 20)
#    0.000    2.000    0.000    5.250    0.000    3.000 
#    2.250    8.125    0.000    0.000    0.000    0.000 
#    0.000    0.000    0.000    0.000    0.000    0.000 
#
# Total GULP energy -357546.744534 kJ/mol
# GULP energy per Si atom -5586.667883 kJ/mol
# Density = 1.939669 g / cm^3
# Si number density = 19.440935 Si / 1000 Ang^3
#
#
#
# Elastic Constant Matrix: (Units=GPa)
#
#
# Indices 1 2 3 4 5 6 
#
# 1 62.4639 0.0457 -8.5084 0.0000 0.0000 0.0000
# 2 0.0457 27.1511 -2.2171 0.0000 0.0000 0.0000
# 3 -8.5084 -2.2171 31.2561 0.0000 0.0000 0.0000
# 4 0.0000 0.0000 0.0000 22.8171 0.0000 0.0000
# 5 0.0000 0.0000 0.0000 0.0000 10.4109 0.0000
# 6 0.0000 0.0000 0.0000 0.0000 0.0000 31.1373
#
#
#
# Elastic Compliance Matrix: (Units=1/GPa)
#
#
# Indices 1 2 3 4 5 6 
#
# 1 0.016629 0.000344 0.004551 0.000000 0.000000 0.000000
# 2 0.000344 0.037053 0.002722 0.000000 0.000000 0.000000
# 3 0.004551 0.002722 0.033426 0.000000 0.000000 0.000000
# 4 0.000000 0.000000 0.000000 0.043827 0.000000 0.000000
# 5 0.000000 0.000000 0.000000 0.000000 0.096053 0.000000
# 6 0.000000 0.000000 0.000000 0.000000 0.000000 0.032116
#
#
# Mechanical properties :
#
#
# Convention : Reuss Voigt Hill
#
# Bulk Modulus (GPa) = 9.77132 11.05682 10.41407
# Shear Modulus (GPa) = 17.98669 21.64312 19.81490
#
# Velocity S-wave (km/s) = 3.04500 3.34020 3.19601
# Velocity P-wave (km/s) = 4.17131 4.53604 4.35749
#
# Compressibility (1/GPa) = 0.10234034
#
# Stress axis : x y z
#
# Youngs Moduli (GPa) = 60.13627 26.98863 29.91707
#
# Poissons Ratio (x) = -0.00927 -0.13615
# Poissons Ratio (y) = -0.02066 -0.08143
# Poissons Ratio (z) = -0.27368 -0.07346
#
# Static dielectric constant tensor:
#      x y z
#    x 1.666030 0.000000 0.000000 
#    y 0.000000 1.652050 0.000000 
#    z 0.000000 0.000000 1.678500 
# 
# From -- ./inp_files/27708.got.cif
#   From: 2010.05.17/outbox.cif.g08.bks.cpg/sg62_14_cif.got.tgz:27708.got - 2010.06.03 15:25:27.
