data_PCOD9464664
_publ_section_title
;
Structure prediction by ZEFSAII (Michael W. Deem and Ramdas Pophale) SiO2 
 PCOD9464664
Probable space group: P N M A
;
_chemical_formula_sum "Si O2"
_cell_formula_units_Z 60
_cell_length_a 5.825150
_cell_length_b 18.361062
_cell_length_c 29.163358
_cell_angle_alpha 90.000000
_cell_angle_beta 90.000000
_cell_angle_gamma 90.000000
_cell_volume 3119.194377
_symmetry_space_group_name_H-M "P N M A"
_symmetry_group_IT_number 62
_symmetry_cell_setting 'orthorhombic'
loop_
_space_group_symop_operation_xyz
x,y,z
1/2-x,-y,1/2+z
1/2+x,1/2-y,1/2-z
-x,1/2+y,-z
-x,-y,-z
1/2+x,y,1/2-z
1/2-x,1/2+y,1/2+z
x,1/2-y,z
loop_
_atom_site_type_symbol
_atom_site_label
_atom_site_fract_x
_atom_site_fract_y
_atom_site_fract_z
Si Si1 0.685388 0.334270 0.513358
Si Si2 0.649841 0.498434 0.759524
Si Si3 0.458101 0.331824 0.891063
Si Si4 0.125551 0.750000 0.223551
Si Si5 0.082904 0.947364 0.556609
Si Si6 0.102084 0.117369 0.819174
Si Si7 0.253607 0.967856 0.136843
Si Si8 0.191164 0.937619 0.998909
O O1 0.694481 0.250000 0.500989
O O2 0.807248 0.342484 0.562675
O O3 0.801215 0.383898 0.473763
O O4 0.425377 0.364184 0.515454
O O5 0.403172 0.534499 0.747378
O O6 0.665179 0.426671 0.726851
O O7 0.641331 0.478699 0.812861
O O8 0.555030 0.250000 0.892958
O O9 0.637132 0.396191 0.885410
O O10 0.297675 0.339851 0.846075
O O11 0.380703 0.750000 0.246669
O O12 0.091570 0.676527 0.194065
O O13 0.812828 0.932590 0.550326
O O14 0.190880 0.962083 0.605955
O O15 0.126847 0.026196 0.532888
O O16 0.008415 0.054832 0.853591
O O17 0.000000 0.000000 0.000000
#
# Coordination Sequence:
#
# PCOD9464664 Si02
#       8
#     8   8   8   4   8   8   8   8
#     4  10  22  38  57  83 116 150 194 251 304 361
#     4  10  20  37  52  77 111 152 194 250 296 340
#     4  11  22  34  50  77 110 151 203 247 292 345
#     4  12  26  38  60  78 112 166 218 260 314 354
#     4  10  20  36  57  82 108 151 194 242 303 361
#     4  11  23  35  52  75 110 156 202 252 298 351
#     4  11  22  35  54  76 109 149 199 248 295 360
#     4   9  17  33  55  77 110 145 188 234 290 353
#
# _framework density 19.235734999999998
#
# number of rings (size 3 to 8) (size 9 to 14) (size 15 to 20)
#    0.000    1.600    2.000    4.800    2.800    1.600 
#    0.000    3.333    0.000    0.000    0.000    0.000 
#    0.000    4.267    0.000    0.000    0.000    0.000 
#
# Total GULP energy -334348.984720 kJ/mol
# GULP energy per Si atom -5572.483079 kJ/mol
# Density = 1.919195 g / cm^3
# Si number density = 19.235735 Si / 1000 Ang^3
#
#
#
# Elastic Constant Matrix: (Units=GPa)
#
#
# Indices 1 2 3 4 5 6 
#
# 1 60.3174 15.7476 11.2760 0.0000 0.0000 0.0000
# 2 15.7476 66.1952 38.5956 0.0000 0.0000 0.0000
# 3 11.2760 38.5956 94.8353 0.0000 0.0000 0.0000
# 4 0.0000 0.0000 0.0000 26.3833 0.0000 0.0000
# 5 0.0000 0.0000 0.0000 0.0000 26.9871 0.0000
# 6 0.0000 0.0000 0.0000 0.0000 0.0000 21.4655
#
#
#
# Elastic Compliance Matrix: (Units=1/GPa)
#
#
# Indices 1 2 3 4 5 6 
#
# 1 0.017696 -0.003911 -0.000512 0.000000 0.000000 0.000000
# 2 -0.003911 0.020671 -0.007948 0.000000 0.000000 0.000000
# 3 -0.000512 -0.007948 0.013840 0.000000 0.000000 0.000000
# 4 0.000000 0.000000 0.000000 0.037903 0.000000 0.000000
# 5 0.000000 0.000000 0.000000 0.000000 0.037055 0.000000
# 6 0.000000 0.000000 0.000000 0.000000 0.000000 0.046586
#
#
# Mechanical properties :
#
#
# Convention : Reuss Voigt Hill
#
# Bulk Modulus (GPa) = 36.41000 39.17623 37.79312
# Shear Modulus (GPa) = 24.07922 25.34909 24.71415
#
# Velocity S-wave (km/s) = 3.54191 3.63411 3.58831
# Velocity P-wave (km/s) = 5.97463 6.16600 6.07107
#
# Compressibility (1/GPa) = 0.02746498
#
# Stress axis : x y z
#
# Youngs Moduli (GPa) = 56.51046 48.37654 72.25430
#
# Poissons Ratio (x) = 0.18920 0.03702
# Poissons Ratio (y) = 0.22102 0.57425
# Poissons Ratio (z) = 0.02895 0.38448
#
# Static dielectric constant tensor:
#      x y z
#    x 1.857520 0.000000 0.000000 
#    y 0.000000 1.628620 0.000000 
#    z 0.000000 0.000000 1.775080 
# 
# From -- ./inp_files/30506.got.cif
#   From: 2010.05.17/outbox.cif.g08.bks.cpg/sg62_16_cif.got.tgz:30506.got - 2010.06.03 15:25:27.
