data_PCOD9464053
_publ_section_title
;
Structure prediction by ZEFSAII (Michael W. Deem and Ramdas Pophale) SiO2 
 PCOD9464053
Probable space group: P N M A
;
_chemical_formula_sum "Si O2"
_cell_formula_units_Z 56
_cell_length_a 14.491599
_cell_length_b 9.166788
_cell_length_c 20.441364
_cell_angle_alpha 90.000000
_cell_angle_beta 90.000000
_cell_angle_gamma 90.000000
_cell_volume 2715.459735
_symmetry_space_group_name_H-M "P N M A"
_symmetry_group_IT_number 62
_symmetry_cell_setting 'orthorhombic'
loop_
_space_group_symop_operation_xyz
x,y,z
1/2-x,-y,1/2+z
1/2+x,1/2-y,1/2-z
-x,1/2+y,-z
-x,-y,-z
1/2+x,y,1/2-z
1/2-x,1/2+y,1/2+z
x,1/2-y,z
loop_
_atom_site_type_symbol
_atom_site_label
_atom_site_fract_x
_atom_site_fract_y
_atom_site_fract_z
Si Si1 0.618748 0.420031 0.287841
Si Si2 0.398686 0.423814 0.282778
Si Si3 0.544050 0.413462 0.058854
Si Si4 0.182376 0.412187 0.907955
Si Si5 0.733956 0.087163 0.983963
Si Si6 0.209923 0.075483 0.661910
Si Si7 0.124244 0.911626 0.336789
O O1 0.635084 0.250000 0.301588
O O2 0.509316 0.447249 0.285383
O O3 0.683906 0.521309 0.331388
O O4 0.650589 0.467753 0.215844
O O5 0.381309 0.250000 0.279511
O O6 0.363191 0.490542 0.351328
O O7 0.350342 0.498700 0.219216
O O8 0.507331 0.250000 0.070237
O O9 0.542431 0.517932 0.121441
O O10 0.500000 0.500000 0.000000
O O11 0.649602 0.398208 0.034764
O O12 0.140511 0.250000 0.911035
O O13 0.286941 0.393712 0.882043
O O14 0.192411 0.485374 0.979299
O O15 0.772457 0.250000 0.973040
O O16 0.690773 0.038453 0.914349
O O17 0.202043 0.250000 0.671339
O O18 0.101734 0.750000 0.309877
#
# Coordination Sequence:
#
# PCOD9464053 Si02
#       7
#     8   8   8   8   8   8   8
#     4  11  24  40  60  90 122 160 203 250 308 363
#     4  11  24  40  62  90 123 162 204 250 305 365
#     4  10  20  34  52  80 116 155 196 242 297 361
#     4  10  20  37  62  90 116 154 202 245 299 360
#     4   9  21  39  59  83 117 158 199 249 308 361
#     4  11  23  41  64  92 123 161 204 253 309 361
#     4  10  20  35  56  82 114 154 194 242 294 352
#
# _framework density 20.622658000000001
#
# number of rings (size 3 to 8) (size 9 to 14) (size 15 to 20)
#    0.000    1.714    1.429    2.571    2.000    5.143 
#    0.000    0.714    0.000    0.000    0.000    0.000 
#    0.000    0.000    0.000    0.000    0.000    0.000 
#
# Total GULP energy -312039.368587 kJ/mol
# GULP energy per Si atom -5572.131582 kJ/mol
# Density = 2.057572 g / cm^3
# Si number density = 20.622658 Si / 1000 Ang^3
#
#
#
# Elastic Constant Matrix: (Units=GPa)
#
#
# Indices 1 2 3 4 5 6 
#
# 1 42.8139 36.3652 8.8484 0.0000 0.0000 0.0000
# 2 36.3652 83.6958 9.5309 0.0000 0.0000 0.0000
# 3 8.8484 9.5309 44.5455 0.0000 0.0000 0.0000
# 4 0.0000 0.0000 0.0000 6.2428 0.0000 0.0000
# 5 0.0000 0.0000 0.0000 0.0000 28.8937 0.0000
# 6 0.0000 0.0000 0.0000 0.0000 0.0000 23.2180
#
#
#
# Elastic Compliance Matrix: (Units=1/GPa)
#
#
# Indices 1 2 3 4 5 6 
#
# 1 0.037731 -0.015928 -0.004087 0.000000 0.000000 0.000000
# 2 -0.015928 0.018971 -0.000895 0.000000 0.000000 0.000000
# 3 -0.004087 -0.000895 0.023452 0.000000 0.000000 0.000000
# 4 0.000000 0.000000 0.000000 0.160183 0.000000 0.000000
# 5 0.000000 0.000000 0.000000 0.000000 0.034610 0.000000
# 6 0.000000 0.000000 0.000000 0.000000 0.000000 0.043070
#
#
# Mechanical properties :
#
#
# Convention : Reuss Voigt Hill
#
# Bulk Modulus (GPa) = 26.08683 31.17157 28.62920
# Shear Modulus (GPa) = 13.41870 19.42497 16.42183
#
# Velocity S-wave (km/s) = 2.55361 3.07241 2.82494
# Velocity P-wave (km/s) = 4.62294 5.26633 4.95509
#
# Compressibility (1/GPa) = 0.03833351
#
# Stress axis : x y z
#
# Youngs Moduli (GPa) = 26.50365 52.71293 42.63991
#
# Poissons Ratio (x) = 0.83963 0.17426
# Poissons Ratio (y) = 0.42216 0.03816
# Poissons Ratio (z) = 0.10831 0.04718
#
# Static dielectric constant tensor:
#      x y z
#    x 1.570110 0.000000 0.000000 
#    y 0.000000 1.777630 0.000000 
#    z 0.000000 0.000000 2.050590 
# 
# From -- ./inp_files/27065.got.cif
#   From: 2010.05.17/outbox.cif.g08.bks.cpg/sg62_14_cif.got.tgz:27065.got - 2010.06.03 15:25:27.
