data_PCOD9464217
_publ_section_title
;
Structure prediction by ZEFSAII (Michael W. Deem and Ramdas Pophale) SiO2 
 PCOD9464217
Probable space group: P N M A
;
_chemical_formula_sum "Si O2"
_cell_formula_units_Z 64
_cell_length_a 25.461858
_cell_length_b 9.116587
_cell_length_c 14.459971
_cell_angle_alpha 90.000000
_cell_angle_beta 90.000000
_cell_angle_gamma 90.000000
_cell_volume 3356.524291
_symmetry_space_group_name_H-M "P N M A"
_symmetry_group_IT_number 62
_symmetry_cell_setting 'orthorhombic'
loop_
_space_group_symop_operation_xyz
x,y,z
1/2-x,-y,1/2+z
1/2+x,1/2-y,1/2-z
-x,1/2+y,-z
-x,-y,-z
1/2+x,y,1/2-z
1/2-x,1/2+y,1/2+z
x,1/2-y,z
loop_
_atom_site_type_symbol
_atom_site_label
_atom_site_fract_x
_atom_site_fract_y
_atom_site_fract_z
Si Si1 0.870250 0.074800 0.364042
Si Si2 0.825642 0.578255 0.528481
Si Si3 0.454422 0.074073 0.287241
Si Si4 0.335324 0.577284 0.750713
Si Si5 0.562901 0.576330 0.333924
Si Si6 0.890707 0.423576 0.028686
Si Si7 0.717854 0.080518 0.540362
Si Si8 0.272764 0.920610 0.236232
O O1 0.864467 0.250000 0.366373
O O2 0.922401 0.039541 0.305794
O O3 0.867275 0.007688 0.466073
O O4 0.821076 0.003992 0.310168
O O5 0.826508 0.750000 0.506426
O O6 0.835329 0.561442 0.637743
O O7 0.768215 0.510926 0.507684
O O8 0.462616 0.250000 0.291372
O O9 0.417496 0.034117 0.374612
O O10 0.509402 0.993095 0.297106
O O11 0.334295 0.750000 0.728718
O O12 0.386728 0.500764 0.710952
O O13 0.282380 0.499294 0.715473
O O14 0.564339 0.750000 0.316115
O O15 0.569299 0.553995 0.444275
O O16 0.877763 0.250000 0.033276
O O17 0.837412 0.512034 0.011111
O O18 0.722551 0.250000 0.511922
O O19 0.719473 0.074179 0.652575
O O20 0.271324 0.750000 0.208657
#
# Coordination Sequence:
#
# PCOD9464217 Si02
#       8
#     8   8   8   8   8   8   8   8
#     4  11  22  37  61  89 118 157 199 243 298 356
#     4  10  22  39  60  85 119 158 196 248 302 353
#     4  10  22  41  62  85 119 158 199 245 295 359
#     4  10  22  41  62  84 117 159 200 246 301 355
#     4  11  24  39  61  88 117 156 201 252 300 351
#     4  10  21  38  58  85 121 159 196 240 295 351
#     4  10  20  34  56  87 120 156 196 238 287 351
#     4  10  20  35  57  86 120 155 193 242 293 348
#
# _framework density 19.067343999999999
#
# number of rings (size 3 to 8) (size 9 to 14) (size 15 to 20)
#    0.000    1.750    1.250    2.625    1.750    5.000 
#    0.000    0.625    0.000    0.000    0.000    0.000 
#    0.000    0.000    0.000    0.000    0.000    0.000 
#
# Total GULP energy -357816.454581 kJ/mol
# GULP energy per Si atom -5590.882103 kJ/mol
# Density = 1.902395 g / cm^3
# Si number density = 19.067344 Si / 1000 Ang^3
#
#
#
# Elastic Constant Matrix: (Units=GPa)
#
#
# Indices 1 2 3 4 5 6 
#
# 1 77.1732 30.2351 3.5706 0.0000 0.0000 0.0000
# 2 30.2351 69.2087 14.3649 0.0000 0.0000 0.0000
# 3 3.5706 14.3649 30.1284 0.0000 0.0000 0.0000
# 4 0.0000 0.0000 0.0000 29.4529 0.0000 0.0000
# 5 0.0000 0.0000 0.0000 0.0000 23.6831 0.0000
# 6 0.0000 0.0000 0.0000 0.0000 0.0000 37.1793
#
#
#
# Elastic Compliance Matrix: (Units=1/GPa)
#
#
# Indices 1 2 3 4 5 6 
#
# 1 0.015700 -0.007183 0.001564 0.000000 0.000000 0.000000
# 2 -0.007183 0.019323 -0.008362 0.000000 0.000000 0.000000
# 3 0.001564 -0.008362 0.036993 0.000000 0.000000 0.000000
# 4 0.000000 0.000000 0.000000 0.033953 0.000000 0.000000
# 5 0.000000 0.000000 0.000000 0.000000 0.042224 0.000000
# 6 0.000000 0.000000 0.000000 0.000000 0.000000 0.026897
#
#
# Mechanical properties :
#
#
# Convention : Reuss Voigt Hill
#
# Bulk Modulus (GPa) = 22.69948 30.31684 26.50816
# Shear Modulus (GPa) = 22.96373 26.61903 24.79138
#
# Velocity S-wave (km/s) = 3.47414 3.74043 3.60974
# Velocity P-wave (km/s) = 5.29373 5.88123 5.59520
#
# Compressibility (1/GPa) = 0.04405388
#
# Stress axis : x y z
#
# Youngs Moduli (GPa) = 63.69495 51.75236 27.03243
#
# Poissons Ratio (x) = 0.37176 -0.04229
# Poissons Ratio (y) = 0.45755 0.22603
# Poissons Ratio (z) = -0.09964 0.43273
#
# Static dielectric constant tensor:
#      x y z
#    x 1.610260 0.000000 0.000000 
#    y 0.000000 1.627030 0.000000 
#    z 0.000000 0.000000 1.700370 
# 
# From -- ./inp_files/20773.got.cif
#   From: 2010.05.17/outbox.cif.g08.bks.cpg/sg62_11_cif.got.tgz:20773.got - 2010.06.03 15:25:27.
