data_PCOD9464822
_publ_section_title
;
Structure prediction by ZEFSAII (Michael W. Deem and Ramdas Pophale) SiO2 
 PCOD9464822
Probable space group: P N M A
;
_chemical_formula_sum "Si O2"
_cell_formula_units_Z 48
_cell_length_a 14.170697
_cell_length_b 16.990902
_cell_length_c 9.773386
_cell_angle_alpha 90.000000
_cell_angle_beta 90.000000
_cell_angle_gamma 90.000000
_cell_volume 2353.166725
_symmetry_space_group_name_H-M "P N M A"
_symmetry_group_IT_number 62
_symmetry_cell_setting 'orthorhombic'
loop_
_space_group_symop_operation_xyz
x,y,z
1/2-x,-y,1/2+z
1/2+x,1/2-y,1/2-z
-x,1/2+y,-z
-x,-y,-z
1/2+x,y,1/2-z
1/2-x,1/2+y,1/2+z
x,1/2-y,z
loop_
_atom_site_type_symbol
_atom_site_label
_atom_site_fract_x
_atom_site_fract_y
_atom_site_fract_z
Si Si1 0.727545 0.026700 0.267280
Si Si2 0.719989 0.099743 0.560528
Si Si3 0.027909 0.966162 0.288255
Si Si4 0.007161 0.340830 0.942919
Si Si5 0.596050 0.889187 0.719532
Si Si6 0.076807 0.665245 0.485439
O O1 0.620181 0.021314 0.216591
O O2 0.727911 0.039250 0.431173
O O3 0.791479 0.097727 0.208588
O O4 0.769842 0.946987 0.202608
O O5 0.619375 0.141740 0.547416
O O6 0.812324 0.154127 0.550230
O O7 0.025879 0.911042 0.421533
O O8 0.942618 0.024227 0.259037
O O9 0.033676 0.902565 0.166207
O O10 0.992141 0.250000 0.905940
O O11 0.955411 0.359208 0.085432
O O12 0.571997 0.838125 0.851428
O O13 0.042174 0.750000 0.435035
#
# Coordination Sequence:
#
# PCOD9464822 Si02
#       6
#     8   8   8   8   8   8
#     4  10  20  36  62  88 114 150 202 254 284 346
#     4  10  20  37  59  87 118 155 201 242 298 351
#     4  11  21  38  63  87 115 157 203 244 291 355
#     4  12  23  38  62  91 124 157 196 253 305 352
#     4  11  21  38  63  87 115 157 203 244 291 355
#     4  10  22  38  56  85 123 157 191 241 304 359
#
# _framework density 20.398043999999999
#
# number of rings (size 3 to 8) (size 9 to 14) (size 15 to 20)
#    0.000    1.333    3.333    3.500    0.000    0.000 
#    0.000    0.000    0.000    2.000    0.000    0.000 
#    0.000    0.000    0.000    0.000    0.000    0.000 
#
# Total GULP energy -267864.638761 kJ/mol
# GULP energy per Si atom -5580.513308 kJ/mol
# Density = 2.035162 g / cm^3
# Si number density = 20.398044 Si / 1000 Ang^3
#
#
#
# Elastic Constant Matrix: (Units=GPa)
#
#
# Indices 1 2 3 4 5 6 
#
# 1 61.5857 2.1901 -0.4482 0.0000 0.0000 0.0000
# 2 2.1901 83.9727 25.5415 0.0000 0.0000 0.0000
# 3 -0.4482 25.5415 66.7460 0.0000 0.0000 0.0000
# 4 0.0000 0.0000 0.0000 8.6135 0.0000 0.0000
# 5 0.0000 0.0000 0.0000 0.0000 22.3200 0.0000
# 6 0.0000 0.0000 0.0000 0.0000 0.0000 2.5936
#
#
#
# Elastic Compliance Matrix: (Units=1/GPa)
#
#
# Indices 1 2 3 4 5 6 
#
# 1 0.016258 -0.000517 0.000307 0.000000 0.000000 0.000000
# 2 -0.000517 0.013494 -0.005167 0.000000 0.000000 0.000000
# 3 0.000307 -0.005167 0.016962 0.000000 0.000000 0.000000
# 4 0.000000 0.000000 0.000000 0.116097 0.000000 0.000000
# 5 0.000000 0.000000 0.000000 0.000000 0.044803 0.000000
# 6 0.000000 0.000000 0.000000 0.000000 0.000000 0.385559
#
#
# Mechanical properties :
#
#
# Convention : Reuss Voigt Hill
#
# Bulk Modulus (GPa) = 27.80968 29.65237 28.73103
# Shear Modulus (GPa) = 8.11803 19.04015 13.57909
#
# Velocity S-wave (km/s) = 1.99711 3.05852 2.58293
# Velocity P-wave (km/s) = 4.35672 5.20011 4.79699
#
# Compressibility (1/GPa) = 0.03595870
#
# Stress axis : x y z
#
# Youngs Moduli (GPa) = 61.50749 74.10817 58.95700
#
# Poissons Ratio (x) = 0.03835 -0.01811
# Poissons Ratio (y) = 0.03183 0.30464
# Poissons Ratio (z) = -0.01889 0.38293
#
# Static dielectric constant tensor:
#      x y z
#    x 1.756640 0.000000 0.000000 
#    y 0.000000 1.702650 0.000000 
#    z 0.000000 0.000000 1.746610 
# 
# From -- ./inp_files/6460.got.cif
#   From: 2010.05.17/outbox.cif.g08.bks.cpg/sg62_4_cif.got.tgz:6460.got - 2010.06.03 15:25:27.
