data_PCOD9464194
_publ_section_title
;
Structure prediction by ZEFSAII (Michael W. Deem and Ramdas Pophale) SiO2 
 PCOD9464194
Probable space group: P N M A
;
_chemical_formula_sum "Si O2"
_cell_formula_units_Z 40
_cell_length_a 23.921592
_cell_length_b 9.455381
_cell_length_c 8.237874
_cell_angle_alpha 90.000000
_cell_angle_beta 90.000000
_cell_angle_gamma 90.000000
_cell_volume 1863.306321
_symmetry_space_group_name_H-M "P N M A"
_symmetry_group_IT_number 62
_symmetry_cell_setting 'orthorhombic'
loop_
_space_group_symop_operation_xyz
x,y,z
1/2-x,-y,1/2+z
1/2+x,1/2-y,1/2-z
-x,1/2+y,-z
-x,-y,-z
1/2+x,y,1/2-z
1/2-x,1/2+y,1/2+z
x,1/2-y,z
loop_
_atom_site_type_symbol
_atom_site_label
_atom_site_fract_x
_atom_site_fract_y
_atom_site_fract_z
Si Si1 0.729285 0.917743 0.010732
Si Si2 0.573442 0.910733 0.172814
Si Si3 0.877591 0.413558 0.311868
Si Si4 0.533976 0.085795 0.635324
Si Si5 0.329521 0.581566 0.698642
O O1 0.725635 0.750000 0.051317
O O2 0.686920 0.939272 0.858413
O O3 0.792141 0.952176 0.958268
O O4 0.704632 0.011913 0.152987
O O5 0.590311 0.750000 0.216269
O O6 0.508169 0.922027 0.210134
O O7 0.609256 0.016001 0.284131
O O8 0.590873 0.930777 0.986182
O O9 0.884037 0.250000 0.260910
O O10 0.907930 0.515284 0.186093
O O11 0.540914 0.250000 0.590345
O O12 0.500000 0.000000 0.500000
O O13 0.331653 0.750000 0.714882
#
# Coordination Sequence:
#
# PCOD9464194 Si02
#       5
#     8   8   8   8   8
#     4   9  20  37  54  78 112 143 173 216 268 313
#     4   9  20  38  57  77 106 142 175 215 269 317
#     4   9  18  36  58  77 103 139 177 218 264 315
#     4  11  23  37  54  79 109 140 175 217 266 315
#     4  10  20  34  56  83 107 138 181 220 256 310
#
# _framework density 21.467216000000001
#
# number of rings (size 3 to 8) (size 9 to 14) (size 15 to 20)
#    0.000    2.400    0.000    3.000    0.000    8.000 
#    0.000    6.000    0.000    0.000    0.000    0.000 
#    0.000    0.000    0.000    0.000    0.000    0.000 
#
# Total GULP energy -223438.769043 kJ/mol
# GULP energy per Si atom -5585.969226 kJ/mol
# Density = 2.141836 g / cm^3
# Si number density = 21.467216 Si / 1000 Ang^3
#
#
#
# Elastic Constant Matrix: (Units=GPa)
#
#
# Indices 1 2 3 4 5 6 
#
# 1 76.2147 31.0336 6.4210 0.0000 0.0000 0.0000
# 2 31.0336 58.7580 22.0166 0.0000 0.0000 0.0000
# 3 6.4210 22.0166 28.3518 0.0000 0.0000 0.0000
# 4 0.0000 0.0000 0.0000 20.4838 0.0000 0.0000
# 5 0.0000 0.0000 0.0000 0.0000 38.3447 0.0000
# 6 0.0000 0.0000 0.0000 0.0000 0.0000 33.8657
#
#
#
# Elastic Compliance Matrix: (Units=1/GPa)
#
#
# Indices 1 2 3 4 5 6 
#
# 1 0.017101 -0.010692 0.004430 0.000000 0.000000 0.000000
# 2 -0.010692 0.030688 -0.021409 0.000000 0.000000 0.000000
# 3 0.004430 -0.021409 0.050893 0.000000 0.000000 0.000000
# 4 0.000000 0.000000 0.000000 0.048819 0.000000 0.000000
# 5 0.000000 0.000000 0.000000 0.000000 0.026079 0.000000
# 6 0.000000 0.000000 0.000000 0.000000 0.000000 0.029528
#
#
# Mechanical properties :
#
#
# Convention : Reuss Voigt Hill
#
# Bulk Modulus (GPa) = 23.07358 31.36299 27.21829
# Shear Modulus (GPa) = 18.32179 25.46239 21.89209
#
# Velocity S-wave (km/s) = 2.92460 3.44773 3.19688
# Velocity P-wave (km/s) = 4.70914 5.52182 5.13160
#
# Compressibility (1/GPa) = 0.04333961
#
# Stress axis : x y z
#
# Youngs Moduli (GPa) = 58.47506 32.58583 19.64899
#
# Poissons Ratio (x) = 0.34841 -0.08704
# Poissons Ratio (y) = 0.62522 0.42067
# Poissons Ratio (z) = -0.25904 0.69764
#
# Static dielectric constant tensor:
#      x y z
#    x 1.789590 0.000000 0.000000 
#    y 0.000000 1.726580 0.000000 
#    z 0.000000 0.000000 1.791310 
# 
# From -- ./inp_files/9097.got.cif
#   From: 2010.05.17/outbox.cif.g08.bks.cpg/sg62_5_cif.got.tgz:9097.got - 2010.06.03 15:25:27.
