data_PCOD9464910
_publ_section_title
;
Structure prediction by ZEFSAII (Michael W. Deem and Ramdas Pophale) SiO2 
 PCOD9464910
Probable space group: P N M A
;
_chemical_formula_sum "Si O2"
_cell_formula_units_Z 64
_cell_length_a 28.457154
_cell_length_b 8.589466
_cell_length_c 12.950565
_cell_angle_alpha 90.000000
_cell_angle_beta 90.000000
_cell_angle_gamma 90.000000
_cell_volume 3165.529354
_symmetry_space_group_name_H-M "P N M A"
_symmetry_group_IT_number 62
_symmetry_cell_setting 'orthorhombic'
loop_
_space_group_symop_operation_xyz
x,y,z
1/2-x,-y,1/2+z
1/2+x,1/2-y,1/2-z
-x,1/2+y,-z
-x,-y,-z
1/2+x,y,1/2-z
1/2-x,1/2+y,1/2+z
x,1/2-y,z
loop_
_atom_site_type_symbol
_atom_site_label
_atom_site_fract_x
_atom_site_fract_y
_atom_site_fract_z
Si Si1 0.593090 0.936618 0.113130
Si Si2 0.805563 0.933514 0.556963
Si Si3 0.880601 0.560601 0.031359
Si Si4 0.435473 0.068844 0.106319
Si Si5 0.937213 0.935462 0.832098
Si Si6 0.464409 0.565237 0.318262
Si Si7 0.712493 0.433063 0.637435
Si Si8 0.675746 0.571408 0.842717
O O1 0.596509 0.750000 0.105378
O O2 0.645213 0.007181 0.103082
O O3 0.572599 0.986204 0.222318
O O4 0.562722 0.987523 0.012460
O O5 0.808810 0.750000 0.539936
O O6 0.760970 0.976314 0.625825
O O7 0.799307 0.020602 0.447951
O O8 0.879814 0.750000 0.032435
O O9 0.917456 0.513874 0.120936
O O10 0.828013 0.509582 0.058554
O O11 0.901351 0.511443 0.921307
O O12 0.450445 0.250000 0.112151
O O13 0.379839 0.061983 0.133691
O O14 0.460280 0.974027 0.196808
O O15 0.933021 0.750000 0.821302
O O16 0.990146 0.979461 0.862732
O O17 0.469649 0.750000 0.331685
O O18 0.720983 0.250000 0.620697
O O19 0.690462 0.461353 0.749740
O O20 0.686824 0.750000 0.816239
#
# Coordination Sequence:
#
# PCOD9464910 Si02
#       8
#     8   8   8   8   8   8   8   8
#     4  10  22  42  62  86 120 158 202 254 307 362
#     4  11  23  39  60  89 121 159 201 245 304 370
#     4   9  21  39  60  87 120 156 200 252 301 355
#     4   9  19  36  60  86 115 150 194 248 301 355
#     4  11  23  40  60  86 123 165 203 246 306 368
#     4  11  21  37  61  90 119 155 202 251 304 362
#     4  11  21  38  62  89 119 156 201 253 305 360
#     4  10  20  37  59  86 118 153 195 248 302 358
#
# _framework density 20.217789
#
# number of rings (size 3 to 8) (size 9 to 14) (size 15 to 20)
#    0.000    1.750    1.250    4.125    0.000    4.000 
#    0.000    8.125    0.000    0.000    0.000    0.000 
#    0.000    0.000    0.000    0.000    0.000    0.000 
#
# Total GULP energy -357609.852796 kJ/mol
# GULP energy per Si atom -5587.653950 kJ/mol
# Density = 2.017177 g / cm^3
# Si number density = 20.217789 Si / 1000 Ang^3
#
#
#
# Elastic Constant Matrix: (Units=GPa)
#
#
# Indices 1 2 3 4 5 6 
#
# 1 48.3742 5.5146 2.9306 0.0000 0.0000 0.0000
# 2 5.5146 37.7689 -1.8908 0.0000 0.0000 0.0000
# 3 2.9306 -1.8908 73.9932 0.0000 0.0000 0.0000
# 4 0.0000 0.0000 0.0000 27.6666 0.0000 0.0000
# 5 0.0000 0.0000 0.0000 0.0000 15.2551 0.0000
# 6 0.0000 0.0000 0.0000 0.0000 0.0000 26.3686
#
#
#
# Elastic Compliance Matrix: (Units=1/GPa)
#
#
# Indices 1 2 3 4 5 6 
#
# 1 0.021084 -0.003124 -0.000915 0.000000 0.000000 0.000000
# 2 -0.003124 0.026974 0.000813 0.000000 0.000000 0.000000
# 3 -0.000915 0.000813 0.013572 0.000000 0.000000 0.000000
# 4 0.000000 0.000000 0.000000 0.036145 0.000000 0.000000
# 5 0.000000 0.000000 0.000000 0.000000 0.065552 0.000000
# 6 0.000000 0.000000 0.000000 0.000000 0.000000 0.037924
#
#
# Mechanical properties :
#
#
# Convention : Reuss Voigt Hill
#
# Bulk Modulus (GPa) = 18.12347 19.24944 18.68645
# Shear Modulus (GPa) = 22.11467 24.09684 23.10576
#
# Velocity S-wave (km/s) = 3.31089 3.45608 3.38426
# Velocity P-wave (km/s) = 4.85794 5.04656 4.95314
#
# Compressibility (1/GPa) = 0.05517708
#
# Stress axis : x y z
#
# Youngs Moduli (GPa) = 47.42985 37.07314 73.68242
#
# Poissons Ratio (x) = 0.11582 0.06741
# Poissons Ratio (y) = 0.14818 -0.05991
# Poissons Ratio (z) = 0.04339 -0.03014
#
# Static dielectric constant tensor:
#      x y z
#    x 1.715090 0.000000 0.000000 
#    y 0.000000 1.677230 0.000000 
#    z 0.000000 0.000000 1.721560 
# 
# From -- ./inp_files/15795.got.cif
#   From: 2010.05.17/outbox.cif.g08.bks.cpg/sg62_8_cif.got.tgz:15795.got - 2010.06.03 15:25:27.
