data_PCOD9464168
_publ_section_title
;
Structure prediction by ZEFSAII (Michael W. Deem and Ramdas Pophale) SiO2 
 PCOD9464168
Probable space group: P N M A
;
_chemical_formula_sum "Si O2"
_cell_formula_units_Z 32
_cell_length_a 11.179645
_cell_length_b 13.947272
_cell_length_c 9.213317
_cell_angle_alpha 90.000000
_cell_angle_beta 90.000000
_cell_angle_gamma 90.000000
_cell_volume 1436.591518
_symmetry_space_group_name_H-M "P N M A"
_symmetry_group_IT_number 62
_symmetry_cell_setting 'orthorhombic'
loop_
_space_group_symop_operation_xyz
x,y,z
1/2-x,-y,1/2+z
1/2+x,1/2-y,1/2-z
-x,1/2+y,-z
-x,-y,-z
1/2+x,y,1/2-z
1/2-x,1/2+y,1/2+z
x,1/2-y,z
loop_
_atom_site_type_symbol
_atom_site_label
_atom_site_fract_x
_atom_site_fract_y
_atom_site_fract_z
Si Si1 0.570691 0.507746 0.849292
Si Si2 0.414124 0.364046 0.717835
Si Si3 0.755985 0.361222 0.507819
Si Si4 0.982672 0.359745 0.081803
O O1 0.538821 0.404750 0.781689
O O2 0.518727 0.577412 0.725226
O O3 0.500000 0.500000 0.000000
O O4 0.691584 0.560989 0.895508
O O5 0.421516 0.250000 0.709009
O O6 0.309270 0.387409 0.832995
O O7 0.399736 0.397122 0.550697
O O8 0.797368 0.250000 0.479858
O O9 0.614910 0.359827 0.486052
O O10 0.949620 0.250000 0.117562
#
# Coordination Sequence:
#
# PCOD9464168 Si02
#       4
#     8   8   8   8
#     4  10  20  34  55  83 114 151 191 235 281 341
#     4   9  19  36  57  82 112 147 191 240 286 335
#     4   9  19  36  56  81 114 150 190 237 287 338
#     4  10  20  36  58  82 113 152 192 238 290 342
#
# _framework density 22.274944999999999
#
# number of rings (size 3 to 8) (size 9 to 14) (size 15 to 20)
#    0.000    2.500    0.000    1.500    0.000    5.000 
#    0.000    5.000    0.000   15.000    0.000    0.000 
#    0.000    0.000    0.000    0.000    0.000    0.000 
#
# Total GULP energy -178320.797747 kJ/mol
# GULP energy per Si atom -5572.524930 kJ/mol
# Density = 2.222425 g / cm^3
# Si number density = 22.274945 Si / 1000 Ang^3
#
#
#
# Elastic Constant Matrix: (Units=GPa)
#
#
# Indices 1 2 3 4 5 6 
#
# 1 54.0599 15.0073 32.5540 0.0000 0.0000 0.0000
# 2 15.0073 48.3315 47.2521 0.0000 0.0000 0.0000
# 3 32.5540 47.2521 164.3652 0.0000 0.0000 0.0000
# 4 0.0000 0.0000 0.0000 43.2239 0.0000 0.0000
# 5 0.0000 0.0000 0.0000 0.0000 27.4357 0.0000
# 6 0.0000 0.0000 0.0000 0.0000 0.0000 22.4483
#
#
#
# Elastic Compliance Matrix: (Units=1/GPa)
#
#
# Indices 1 2 3 4 5 6 
#
# 1 0.021416 -0.003481 -0.003241 0.000000 0.000000 0.000000
# 2 -0.003481 0.029345 -0.007747 0.000000 0.000000 0.000000
# 3 -0.003241 -0.007747 0.008953 0.000000 0.000000 0.000000
# 4 0.000000 0.000000 0.000000 0.023135 0.000000 0.000000
# 5 0.000000 0.000000 0.000000 0.000000 0.036449 0.000000
# 6 0.000000 0.000000 0.000000 0.000000 0.000000 0.044547
#
#
# Mechanical properties :
#
#
# Convention : Reuss Voigt Hill
#
# Bulk Modulus (GPa) = 32.49258 50.70927 41.60092
# Shear Modulus (GPa) = 24.62549 30.08445 27.35497
#
# Velocity S-wave (km/s) = 3.32855 3.67903 3.50817
# Velocity P-wave (km/s) = 5.42135 6.39231 5.92675
#
# Compressibility (1/GPa) = 0.03077626
#
# Stress axis : x y z
#
# Youngs Moduli (GPa) = 46.69400 34.07724 111.69556
#
# Poissons Ratio (x) = 0.11864 0.36198
# Poissons Ratio (y) = 0.16256 0.86527
# Poissons Ratio (z) = 0.15133 0.26398
#
# Static dielectric constant tensor:
#      x y z
#    x 1.828450 0.000000 0.000000 
#    y 0.000000 1.847270 0.000000 
#    z 0.000000 0.000000 1.855710 
# 
# From -- ./inp_files/4830.got.cif
#   From: 2010.05.17/outbox.cif.g08.bks.cpg/sg62_3_cif.got.tgz:4830.got - 2010.06.03 15:25:27.
