data_PCOD9464357
_publ_section_title
;
Structure prediction by ZEFSAII (Michael W. Deem and Ramdas Pophale) SiO2 
 PCOD9464357
Probable space group: P N M A
;
_chemical_formula_sum "Si O2"
_cell_formula_units_Z 56
_cell_length_a 22.060745
_cell_length_b 7.653424
_cell_length_c 15.316755
_cell_angle_alpha 90.000000
_cell_angle_beta 90.000000
_cell_angle_gamma 90.000000
_cell_volume 2586.084517
_symmetry_space_group_name_H-M "P N M A"
_symmetry_group_IT_number 62
_symmetry_cell_setting 'orthorhombic'
loop_
_space_group_symop_operation_xyz
x,y,z
1/2-x,-y,1/2+z
1/2+x,1/2-y,1/2-z
-x,1/2+y,-z
-x,-y,-z
1/2+x,y,1/2-z
1/2-x,1/2+y,1/2+z
x,1/2-y,z
loop_
_atom_site_type_symbol
_atom_site_label
_atom_site_fract_x
_atom_site_fract_y
_atom_site_fract_z
Si Si1 0.229823 0.454219 0.721183
Si Si2 0.275001 0.962756 0.908839
Si Si3 0.310655 0.459092 0.561999
Si Si4 0.569445 0.456144 0.519500
Si Si5 0.096198 0.045314 0.473095
Si Si6 0.984164 0.961581 0.365694
Si Si7 0.399615 0.535684 0.287884
O O1 0.219804 0.250000 0.699805
O O2 0.265567 0.469615 0.811791
O O3 0.271044 0.528318 0.643148
O O4 0.162849 0.526577 0.742696
O O5 0.275284 0.750000 0.904841
O O6 0.338050 0.025244 0.950473
O O7 0.220917 0.020467 0.972433
O O8 0.305127 0.250000 0.564169
O O9 0.381920 0.495421 0.554741
O O10 0.500000 0.500000 0.500000
O O11 0.572658 0.250000 0.527977
O O12 0.590869 0.529595 0.613636
O O13 0.105176 0.250000 0.491681
O O14 0.061075 0.973490 0.557469
O O15 0.050508 0.025526 0.391998
O O16 0.985964 0.750000 0.369249
O O17 0.955978 0.012914 0.273581
O O18 0.396865 0.750000 0.289530
#
# Coordination Sequence:
#
# PCOD9464357 Si02
#       7
#     8   8   8   8   8   8   8
#     4  10  20  36  59  84 109 145 192 238 284 343
#     4  10  20  35  55  81 113 145 179 229 287 340
#     4  10  21  38  60  85 115 150 192 241 296 351
#     4  11  23  40  61  84 115 152 195 242 292 349
#     4   9  18  32  50  77 111 141 172 220 280 331
#     4   9  17  32  54  76 102 140 184 223 265 326
#     4   9  18  35  58  81 105 143 192 235 277 332
#
# _framework density 21.65436
#
# number of rings (size 3 to 8) (size 9 to 14) (size 15 to 20)
#    0.000    2.286    1.429    1.286    0.000    5.714 
#    0.000    6.429    0.000    3.429    0.000    0.000 
#    0.000    0.000    0.000    0.000    0.000    0.000 
#
# Total GULP energy -312626.300005 kJ/mol
# GULP energy per Si atom -5582.612500 kJ/mol
# Density = 2.160507 g / cm^3
# Si number density = 21.654360 Si / 1000 Ang^3
#
#
#
# Elastic Constant Matrix: (Units=GPa)
#
#
# Indices 1 2 3 4 5 6 
#
# 1 130.4086 -6.8693 41.0672 0.0000 0.0000 0.0000
# 2 -6.8693 38.4993 -0.4591 0.0000 0.0000 0.0000
# 3 41.0672 -0.4591 98.6629 0.0000 0.0000 0.0000
# 4 0.0000 0.0000 0.0000 24.4622 0.0000 0.0000
# 5 0.0000 0.0000 0.0000 0.0000 31.1619 0.0000
# 6 0.0000 0.0000 0.0000 0.0000 0.0000 28.3705
#
#
#
# Elastic Compliance Matrix: (Units=1/GPa)
#
#
# Indices 1 2 3 4 5 6 
#
# 1 0.008916 0.001547 -0.003704 0.000000 0.000000 0.000000
# 2 0.001547 0.026244 -0.000522 0.000000 0.000000 0.000000
# 3 -0.003704 -0.000522 0.011675 0.000000 0.000000 0.000000
# 4 0.000000 0.000000 0.000000 0.040879 0.000000 0.000000
# 5 0.000000 0.000000 0.000000 0.000000 0.032090 0.000000
# 6 0.000000 0.000000 0.000000 0.000000 0.000000 0.035248
#
#
# Mechanical properties :
#
#
# Convention : Reuss Voigt Hill
#
# Bulk Modulus (GPa) = 24.10963 37.22762 30.66863
# Shear Modulus (GPa) = 28.69658 32.38771 30.54214
#
# Velocity S-wave (km/s) = 3.64429 3.87158 3.75965
# Velocity P-wave (km/s) = 5.37269 6.10038 5.74806
#
# Compressibility (1/GPa) = 0.04147720
#
# Stress axis : x y z
#
# Youngs Moduli (GPa) = 112.15643 38.10358 85.65418
#
# Poissons Ratio (x) = -0.05894 0.31727
# Poissons Ratio (y) = -0.17347 0.04468
# Poissons Ratio (z) = 0.41543 0.01988
#
# Static dielectric constant tensor:
#      x y z
#    x 1.765550 0.000000 0.000000 
#    y 0.000000 1.819780 0.000000 
#    z 0.000000 0.000000 1.781140 
# 
# From -- ./inp_files/20291.got.cif
#   From: 2010.05.17/outbox.cif.g08.bks.cpg/sg62_11_cif.got.tgz:20291.got - 2010.06.03 15:25:27.
