data_PCOD9464606
_publ_section_title
;
Structure prediction by ZEFSAII (Michael W. Deem and Ramdas Pophale) SiO2 
 PCOD9464606
Probable space group: P N M A
;
_chemical_formula_sum "Si O2"
_cell_formula_units_Z 48
_cell_length_a 8.089960
_cell_length_b 15.398747
_cell_length_c 17.562067
_cell_angle_alpha 90.000000
_cell_angle_beta 90.000000
_cell_angle_gamma 90.000000
_cell_volume 2187.798839
_symmetry_space_group_name_H-M "P N M A"
_symmetry_group_IT_number 62
_symmetry_cell_setting 'orthorhombic'
loop_
_space_group_symop_operation_xyz
x,y,z
1/2-x,-y,1/2+z
1/2+x,1/2-y,1/2-z
-x,1/2+y,-z
-x,-y,-z
1/2+x,y,1/2-z
1/2-x,1/2+y,1/2+z
x,1/2-y,z
loop_
_atom_site_type_symbol
_atom_site_label
_atom_site_fract_x
_atom_site_fract_y
_atom_site_fract_z
Si Si1 0.595225 0.750000 0.518973
Si Si2 0.612634 0.250000 0.320039
Si Si3 0.275112 0.955195 0.200750
Si Si4 0.302014 0.599743 0.919557
Si Si5 0.057425 0.750000 0.604236
Si Si6 0.399407 0.414965 0.863294
Si Si7 0.247582 0.250000 0.945956
Si Si8 0.013712 0.928780 0.799700
O O1 0.493963 0.750000 0.600514
O O2 0.705565 0.838750 0.517851
O O3 0.450372 0.750000 0.456853
O O4 0.571172 0.160833 0.279918
O O5 0.806969 0.250000 0.331215
O O6 0.403724 0.898009 0.152356
O O7 0.196621 0.921350 0.280767
O O8 0.406331 0.028103 0.226563
O O9 0.120074 0.004778 0.163777
O O10 0.446179 0.664903 0.896364
O O11 0.373293 0.500751 0.917405
O O12 0.160927 0.589226 0.856569
O O13 0.165837 0.750000 0.527811
O O14 0.312549 0.335066 0.904040
#
# Coordination Sequence:
#
# PCOD9464606 Si02
#       8
#     4   4   8   8   4   8   4   8
#     4   8  18  36  54  81 114 143 186 228 270 337
#     4   9  16  28  49  75 111 145 172 224 282 325
#     4   9  19  36  55  80 111 143 189 231 270 334
#     4   9  18  36  59  81 111 145 180 232 285 326
#     4  10  20  36  55  81 112 143 187 230 273 343
#     4  10  21  38  59  83 113 148 187 233 282 327
#     4  11  24  38  56  83 111 151 199 230 271 333
#     4   9  17  31  53  79 107 145 181 219 278 341
#
# _framework density 21.939858999999998
#
# number of rings (size 3 to 8) (size 9 to 14) (size 15 to 20)
#    0.000    2.667    0.000    1.500    0.000    2.667 
#    0.000   20.000    0.000    0.000    0.000    0.000 
#    0.000    0.000    0.000    0.000    0.000    0.000 
#
# Total GULP energy -267387.989107 kJ/mol
# GULP energy per Si atom -5570.583106 kJ/mol
# Density = 2.188992 g / cm^3
# Si number density = 21.939859 Si / 1000 Ang^3
#
#
#
# Elastic Constant Matrix: (Units=GPa)
#
#
# Indices 1 2 3 4 5 6 
#
# 1 110.9846 5.0484 17.0825 0.0000 0.0000 0.0000
# 2 5.0484 77.4133 11.3627 0.0000 0.0000 0.0000
# 3 17.0825 11.3627 31.2663 0.0000 0.0000 0.0000
# 4 0.0000 0.0000 0.0000 0.5738 0.0000 0.0000
# 5 0.0000 0.0000 0.0000 0.0000 38.7835 0.0000
# 6 0.0000 0.0000 0.0000 0.0000 0.0000 23.8532
#
#
#
# Elastic Compliance Matrix: (Units=1/GPa)
#
#
# Indices 1 2 3 4 5 6 
#
# 1 0.009839 0.000156 -0.005432 0.000000 0.000000 0.000000
# 2 0.000156 0.013648 -0.005045 0.000000 0.000000 0.000000
# 3 -0.005432 -0.005045 0.036785 0.000000 0.000000 0.000000
# 4 0.000000 0.000000 0.000000 1.742688 0.000000 0.000000
# 5 0.000000 0.000000 0.000000 0.000000 0.025784 0.000000
# 6 0.000000 0.000000 0.000000 0.000000 0.000000 0.041923
#
#
# Mechanical properties :
#
#
# Convention : Reuss Voigt Hill
#
# Bulk Modulus (GPa) = 25.23418 31.85017 28.54217
# Shear Modulus (GPa) = 2.62533 25.05346 13.83940
#
# Velocity S-wave (km/s) = 1.09508 3.38289 2.51427
# Velocity P-wave (km/s) = 3.62290 5.45959 4.63317
#
# Compressibility (1/GPa) = 0.03962879
#
# Stress axis : x y z
#
# Youngs Moduli (GPa) = 101.63311 73.27063 27.18521
#
# Poissons Ratio (x) = -0.01141 0.14768
# Poissons Ratio (y) = -0.01582 0.13715
# Poissons Ratio (z) = 0.55211 0.36965
#
# Static dielectric constant tensor:
#      x y z
#    x 1.830740 0.000000 0.000000 
#    y 0.000000 1.843350 0.000000 
#    z 0.000000 0.000000 1.855710 
# 
# From -- ./inp_files/25908.got.cif
#   From: 2010.05.17/outbox.cif.g08.bks.cpg/sg62_13_cif.got.tgz:25908.got - 2010.06.03 15:25:27.
