data_PCOD9464331
_publ_section_title
;
Structure prediction by ZEFSAII (Michael W. Deem and Ramdas Pophale) SiO2 
 PCOD9464331
Probable space group: P N M A
;
_chemical_formula_sum "Si O2"
_cell_formula_units_Z 48
_cell_length_a 16.039258
_cell_length_b 8.834667
_cell_length_c 19.174646
_cell_angle_alpha 90.000000
_cell_angle_beta 90.000000
_cell_angle_gamma 90.000000
_cell_volume 2717.076165
_symmetry_space_group_name_H-M "P N M A"
_symmetry_group_IT_number 62
_symmetry_cell_setting 'orthorhombic'
loop_
_space_group_symop_operation_xyz
x,y,z
1/2-x,-y,1/2+z
1/2+x,1/2-y,1/2-z
-x,1/2+y,-z
-x,-y,-z
1/2+x,y,1/2-z
1/2-x,1/2+y,1/2+z
x,1/2-y,z
loop_
_atom_site_type_symbol
_atom_site_label
_atom_site_fract_x
_atom_site_fract_y
_atom_site_fract_z
Si Si1 0.574552 0.570036 0.298180
Si Si2 0.573082 0.067252 0.453273
Si Si3 0.929030 0.929733 0.451627
Si Si4 0.930399 0.067515 0.296757
Si Si5 0.742186 0.575838 0.959613
Si Si6 0.745882 0.424289 0.290303
O O1 0.566129 0.750000 0.300764
O O2 0.566843 0.500556 0.375682
O O3 0.503717 0.497095 0.250332
O O4 0.666771 0.524614 0.270998
O O5 0.568999 0.250000 0.449551
O O6 0.665396 0.027984 0.482887
O O7 0.500000 0.000000 0.500000
O O8 0.936860 0.750000 0.448382
O O9 0.937073 0.999810 0.374301
O O10 0.836894 0.975513 0.478912
O O11 0.000000 0.000000 0.500000
O O12 0.933609 0.250000 0.300782
O O13 0.838218 0.027237 0.267093
O O14 0.726844 0.750000 0.980509
O O15 0.748172 0.574239 0.874959
O O16 0.730685 0.250000 0.269387
#
# Coordination Sequence:
#
# PCOD9464331 Si02
#       6
#     8   8   8   8   8   8
#     4  11  21  33  53  80 108 137 171 212 257 308
#     4  10  20  35  55  78 106 138 173 214 257 304
#     4  11  21  34  54  79 106 136 172 213 257 307
#     4  10  20  36  56  77 104 137 174 215 257 303
#     4   8  16  32  52  74 101 135 173 210 251 303
#     4   8  16  32  53  74  99 135 174 210 251 303
#
# _framework density 17.666049000000001
#
# number of rings (size 3 to 8) (size 9 to 14) (size 15 to 20)
#    0.000    2.333    0.000    6.000    0.000    7.333 
#    0.000    1.667    0.000    8.000    0.000    0.000 
#    0.000    0.000    0.000    0.000    0.000    0.000 
#
# Total GULP energy -267693.585963 kJ/mol
# GULP energy per Si atom -5576.949708 kJ/mol
# Density = 1.762584 g / cm^3
# Si number density = 17.666049 Si / 1000 Ang^3
#
#
#
# Elastic Constant Matrix: (Units=GPa)
#
#
# Indices 1 2 3 4 5 6 
#
# 1 192.2978 93.4271 62.8370 0.0000 0.0000 0.0000
# 2 93.4271 118.6899 39.5016 0.0000 0.0000 0.0000
# 3 62.8370 39.5016 43.9044 0.0000 0.0000 0.0000
# 4 0.0000 0.0000 0.0000 24.7204 0.0000 0.0000
# 5 0.0000 0.0000 0.0000 0.0000 32.2815 0.0000
# 6 0.0000 0.0000 0.0000 0.0000 0.0000 31.5984
#
#
#
# Elastic Compliance Matrix: (Units=1/GPa)
#
#
# Indices 1 2 3 4 5 6 
#
# 1 0.011628 -0.005159 -0.012001 0.000000 0.000000 0.000000
# 2 -0.005159 0.014316 -0.005496 0.000000 0.000000 0.000000
# 3 -0.012001 -0.005496 0.044898 0.000000 0.000000 0.000000
# 4 0.000000 0.000000 0.000000 0.040452 0.000000 0.000000
# 5 0.000000 0.000000 0.000000 0.000000 0.030977 0.000000
# 6 0.000000 0.000000 0.000000 0.000000 0.000000 0.031647
#
#
# Mechanical properties :
#
#
# Convention : Reuss Voigt Hill
#
# Bulk Modulus (GPa) = 39.17067 82.93596 61.05331
# Shear Modulus (GPa) = 21.95477 28.32848 25.14163
#
# Velocity S-wave (km/s) = 3.52911 4.00879 3.77657
# Velocity P-wave (km/s) = 6.23115 8.27500 7.32471
#
# Compressibility (1/GPa) = 0.02552930
#
# Stress axis : x y z
#
# Youngs Moduli (GPa) = 85.99611 69.85405 22.27285
#
# Poissons Ratio (x) = 0.36040 0.26730
# Poissons Ratio (y) = 0.44368 0.12241
# Poissons Ratio (z) = 1.03204 0.38391
#
# Static dielectric constant tensor:
#      x y z
#    x 1.634560 0.000000 0.000000 
#    y 0.000000 1.597170 0.000000 
#    z 0.000000 0.000000 1.582420 
# 
# From -- ./inp_files/26886.got.cif
#   From: 2010.05.17/outbox.cif.g08.bks.cpg/sg62_14_cif.got.tgz:26886.got - 2010.06.03 15:25:27.
