data_PCOD9464897
_publ_section_title
;
Structure prediction by ZEFSAII (Michael W. Deem and Ramdas Pophale) SiO2 
 PCOD9464897
Probable space group: P N M A
;
_chemical_formula_sum "Si O2"
_cell_formula_units_Z 48
_cell_length_a 9.387670
_cell_length_b 16.488273
_cell_length_c 15.753064
_cell_angle_alpha 90.000000
_cell_angle_beta 90.000000
_cell_angle_gamma 90.000000
_cell_volume 2438.361102
_symmetry_space_group_name_H-M "P N M A"
_symmetry_group_IT_number 62
_symmetry_cell_setting 'orthorhombic'
loop_
_space_group_symop_operation_xyz
x,y,z
1/2-x,-y,1/2+z
1/2+x,1/2-y,1/2-z
-x,1/2+y,-z
-x,-y,-z
1/2+x,y,1/2-z
1/2-x,1/2+y,1/2+z
x,1/2-y,z
loop_
_atom_site_type_symbol
_atom_site_label
_atom_site_fract_x
_atom_site_fract_y
_atom_site_fract_z
Si Si1 0.666446 0.848006 0.522255
Si Si2 0.387407 0.344443 0.667353
Si Si3 0.848194 0.405946 0.336357
Si Si4 0.923862 0.595482 0.316267
Si Si5 0.012326 0.403074 0.499122
Si Si6 0.469837 0.846304 0.679023
O O1 0.674603 0.750000 0.522327
O O2 0.603961 0.872719 0.430564
O O3 0.827514 0.880072 0.528873
O O4 0.567331 0.873732 0.599865
O O5 0.428367 0.250000 0.671829
O O6 0.480814 0.393733 0.733751
O O7 0.221643 0.354414 0.690878
O O8 0.879700 0.501869 0.329003
O O9 0.682675 0.389077 0.321637
O O10 0.900063 0.374843 0.428700
O O11 0.943153 0.363684 0.264445
O O12 0.002414 0.624001 0.403025
O O13 0.000000 0.500000 0.500000
O O14 0.445816 0.750000 0.671038
#
# Coordination Sequence:
#
# PCOD9464897 Si02
#       6
#     8   8   8   8   8   8
#     4   9  20  38  59  82 114 151 189 234 285 334
#     4  10  20  37  59  84 113 147 185 229 279 335
#     4  11  22  38  58  84 115 150 190 235 284 341
#     4  10  21  38  57  83 114 149 186 229 282 335
#     4   9  20  38  58  82 114 150 188 228 281 340
#     4  11  23  39  59  85 114 151 193 237 286 339
#
# _framework density 19.685352999999999
#
# number of rings (size 3 to 8) (size 9 to 14) (size 15 to 20)
#    0.000    2.000    0.000    3.000    0.000    6.000 
#    0.000   15.000    0.000    0.000    0.000    0.000 
#    0.000    0.000    0.000    0.000    0.000    0.000 
#
# Total GULP energy -268070.404784 kJ/mol
# GULP energy per Si atom -5584.800100 kJ/mol
# Density = 1.964055 g / cm^3
# Si number density = 19.685353 Si / 1000 Ang^3
#
#
#
# Elastic Constant Matrix: (Units=GPa)
#
#
# Indices 1 2 3 4 5 6 
#
# 1 63.8445 15.5227 38.5263 0.0000 0.0000 0.0000
# 2 15.5227 33.9714 13.7921 0.0000 0.0000 0.0000
# 3 38.5263 13.7921 78.2164 0.0000 0.0000 0.0000
# 4 0.0000 0.0000 0.0000 21.5612 0.0000 0.0000
# 5 0.0000 0.0000 0.0000 0.0000 37.8732 0.0000
# 6 0.0000 0.0000 0.0000 0.0000 0.0000 37.1787
#
#
#
# Elastic Compliance Matrix: (Units=1/GPa)
#
#
# Indices 1 2 3 4 5 6 
#
# 1 0.023556 -0.006520 -0.010453 0.000000 0.000000 0.000000
# 2 -0.006520 0.033511 -0.002698 0.000000 0.000000 0.000000
# 3 -0.010453 -0.002698 0.018410 0.000000 0.000000 0.000000
# 4 0.000000 0.000000 0.000000 0.046380 0.000000 0.000000
# 5 0.000000 0.000000 0.000000 0.000000 0.026404 0.000000
# 6 0.000000 0.000000 0.000000 0.000000 0.000000 0.026897
#
#
# Mechanical properties :
#
#
# Convention : Reuss Voigt Hill
#
# Bulk Modulus (GPa) = 27.67373 34.63496 31.15435
# Shear Modulus (GPa) = 22.07083 26.53536 24.30309
#
# Velocity S-wave (km/s) = 3.35204 3.67546 3.51747
# Velocity P-wave (km/s) = 5.39167 5.97030 5.68835
#
# Compressibility (1/GPa) = 0.03613535
#
# Stress axis : x y z
#
# Youngs Moduli (GPa) = 42.45189 29.84107 54.31959
#
# Poissons Ratio (x) = 0.19455 0.56781
# Poissons Ratio (y) = 0.27677 0.14654
# Poissons Ratio (z) = 0.44376 0.08050
#
# Static dielectric constant tensor:
#      x y z
#    x 1.649670 0.000000 0.000000 
#    y 0.000000 1.725400 0.000000 
#    z 0.000000 0.000000 1.697340 
# 
# From -- ./inp_files/16919.got.cif
#   From: 2010.05.17/outbox.cif.g08.bks.cpg/sg62_9_cif.got.tgz:16919.got - 2010.06.03 15:25:27.
