data_PCOD9464525
_publ_section_title
;
Structure prediction by ZEFSAII (Michael W. Deem and Ramdas Pophale) SiO2 
 PCOD9464525
Probable space group: P N M A
;
_chemical_formula_sum "Si O2"
_cell_formula_units_Z 64
_cell_length_a 24.735413
_cell_length_b 7.379196
_cell_length_c 15.041453
_cell_angle_alpha 90.000000
_cell_angle_beta 90.000000
_cell_angle_gamma 90.000000
_cell_volume 2745.478221
_symmetry_space_group_name_H-M "P N M A"
_symmetry_group_IT_number 62
_symmetry_cell_setting 'orthorhombic'
loop_
_space_group_symop_operation_xyz
x,y,z
1/2-x,-y,1/2+z
1/2+x,1/2-y,1/2-z
-x,1/2+y,-z
-x,-y,-z
1/2+x,y,1/2-z
1/2-x,1/2+y,1/2+z
x,1/2-y,z
loop_
_atom_site_type_symbol
_atom_site_label
_atom_site_fract_x
_atom_site_fract_y
_atom_site_fract_z
Si Si1 0.245920 0.038928 0.704827
Si Si2 0.667858 0.471812 0.954381
Si Si3 0.132673 0.970234 0.991765
Si Si4 0.045700 0.466246 0.573365
Si Si5 0.368100 0.472226 0.690419
Si Si6 0.527629 0.964552 0.594632
Si Si7 0.972039 0.045259 0.725952
Si Si8 0.756394 0.468354 0.090893
O O1 0.251731 0.250000 0.680459
O O2 0.202516 0.969651 0.633035
O O3 0.306841 0.963615 0.701490
O O4 0.231559 0.026302 0.808541
O O5 0.667306 0.250000 0.955263
O O6 0.605776 0.535030 0.949049
O O7 0.701229 0.528750 0.042522
O O8 0.132054 0.750000 0.992139
O O9 0.089225 0.028149 0.918895
O O10 0.193190 0.026835 0.969654
O O11 0.115809 0.026476 0.090481
O O12 0.053167 0.250000 0.583258
O O13 0.000000 0.500000 0.500000
O O14 0.017295 0.538576 0.662796
O O15 0.368858 0.250000 0.694592
O O16 0.412501 0.537347 0.761057
O O17 0.527290 0.750000 0.611272
O O18 0.500000 0.000000 0.500000
O O19 0.496760 0.052742 0.675722
O O20 0.963294 0.250000 0.692204
O O21 0.755402 0.250000 0.091896
#
# Coordination Sequence:
#
# PCOD9464525 Si02
#       8
#     8   8   8   8   8   8   8   8
#     4  10  20  35  59  85 108 141 186 231 279 333
#     4   9  19  38  59  81 113 150 185 229 285 340
#     4   9  17  32  54  77 105 143 182 216 265 336
#     4  10  23  41  60  82 112 152 196 240 287 334
#     4   9  16  32  56  78 104 141 184 224 269 335
#     4  11  21  34  54  82 115 147 183 225 275 335
#     4  10  21  37  57  80 111 150 190 230 278 335
#     4  10  20  36  58  80 107 146 184 224 279 335
#
# _framework density 23.311057000000002
#
# number of rings (size 3 to 8) (size 9 to 14) (size 15 to 20)
#    0.000    2.250    2.500    0.375    3.500    0.500 
#    0.000    2.500    0.000    0.000    0.000    0.000 
#    0.000    0.000    0.000    0.000    0.000    0.000 
#
# Total GULP energy -357349.517662 kJ/mol
# GULP energy per Si atom -5583.586213 kJ/mol
# Density = 2.325800 g / cm^3
# Si number density = 23.311057 Si / 1000 Ang^3
#
#
#
# Elastic Constant Matrix: (Units=GPa)
#
#
# Indices 1 2 3 4 5 6 
#
# 1 154.2229 0.6007 13.9030 0.0000 0.0000 0.0000
# 2 0.6007 86.3254 -15.9172 0.0000 0.0000 0.0000
# 3 13.9030 -15.9172 59.3682 0.0000 0.0000 0.0000
# 4 0.0000 0.0000 0.0000 13.6279 0.0000 0.0000
# 5 0.0000 0.0000 0.0000 0.0000 35.6623 0.0000
# 6 0.0000 0.0000 0.0000 0.0000 0.0000 8.1438
#
#
#
# Elastic Compliance Matrix: (Units=1/GPa)
#
#
# Indices 1 2 3 4 5 6 
#
# 1 0.006634 -0.000350 -0.001647 0.000000 0.000000 0.000000
# 2 -0.000350 0.012205 0.003354 0.000000 0.000000 0.000000
# 3 -0.001647 0.003354 0.018129 0.000000 0.000000 0.000000
# 4 0.000000 0.000000 0.000000 0.073379 0.000000 0.000000
# 5 0.000000 0.000000 0.000000 0.000000 0.028041 0.000000
# 6 0.000000 0.000000 0.000000 0.000000 0.000000 0.122793
#
#
# Mechanical properties :
#
#
# Convention : Reuss Voigt Hill
#
# Bulk Modulus (GPa) = 25.20038 33.00994 29.10516
# Shear Modulus (GPa) = 18.40305 31.57547 24.98926
#
# Velocity S-wave (km/s) = 2.81277 3.68438 3.27768
# Velocity P-wave (km/s) = 4.62416 5.68251 5.18044
#
# Compressibility (1/GPa) = 0.03968194
#
# Stress axis : x y z
#
# Youngs Moduli (GPa) = 150.73874 81.93380 55.15983
#
# Poissons Ratio (x) = 0.02867 0.09087
# Poissons Ratio (y) = 0.05275 -0.18502
# Poissons Ratio (z) = 0.24832 -0.27482
#
# Static dielectric constant tensor:
#      x y z
#    x 1.905830 0.000000 0.000000 
#    y 0.000000 1.908890 0.000000 
#    z 0.000000 0.000000 1.911690 
# 
# From -- ./inp_files/20791.got.cif
#   From: 2010.05.17/outbox.cif.g08.bks.cpg/sg62_11_cif.got.tgz:20791.got - 2010.06.03 15:25:27.
