data_PCOD9464096
_publ_section_title
;
Structure prediction by ZEFSAII (Michael W. Deem and Ramdas Pophale) SiO2 
 PCOD9464096
Probable space group: P N M A
;
_chemical_formula_sum "Si O2"
_cell_formula_units_Z 48
_cell_length_a 17.226600
_cell_length_b 9.449464
_cell_length_c 16.573600
_cell_angle_alpha 90.000000
_cell_angle_beta 90.000000
_cell_angle_gamma 90.000000
_cell_volume 2697.886018
_symmetry_space_group_name_H-M "P N M A"
_symmetry_group_IT_number 62
_symmetry_cell_setting 'orthorhombic'
loop_
_space_group_symop_operation_xyz
x,y,z
1/2-x,-y,1/2+z
1/2+x,1/2-y,1/2-z
-x,1/2+y,-z
-x,-y,-z
1/2+x,y,1/2-z
1/2-x,1/2+y,1/2+z
x,1/2-y,z
loop_
_atom_site_type_symbol
_atom_site_label
_atom_site_fract_x
_atom_site_fract_y
_atom_site_fract_z
Si Si1 0.089011 0.415653 0.917395
Si Si2 0.434019 0.584921 0.607033
Si Si3 0.119616 0.915464 0.250371
Si Si4 0.737133 0.919090 0.103951
Si Si5 0.995019 0.083335 0.613644
Si Si6 0.876133 0.582555 0.499793
O O1 0.073120 0.250000 0.899514
O O2 0.173106 0.454945 0.883378
O O3 0.017835 0.510045 0.888738
O O4 0.093551 0.430079 0.014647
O O5 0.440475 0.750000 0.625370
O O6 0.378979 0.509072 0.671189
O O7 0.127615 0.750000 0.230213
O O8 0.184541 0.950595 0.317572
O O9 0.036585 0.934791 0.296162
O O10 0.732024 0.750000 0.089879
O O11 0.700197 0.999779 0.027501
O O12 0.978224 0.250000 0.592935
O O13 0.084156 0.059232 0.587968
O O14 0.941797 0.979761 0.560222
O O15 0.865629 0.750000 0.510897
#
# Coordination Sequence:
#
# PCOD9464096 Si02
#       6
#     8   8   8   8   8   8
#     4   9  19  37  57  73  95 131 170 204 242 293
#     4  10  20  34  54  78 100 125 163 209 251 289
#     4   9  17  31  51  73 100 133 166 200 242 297
#     4   9  18  33  52  73  99 133 167 200 246 301
#     4   8  15  27  42  63  94 133 170 197 232 290
#     4   9  15  24  42  68  96 126 162 204 243 282
#
# _framework density 17.791709000000001
#
# number of rings (size 3 to 8) (size 9 to 14) (size 15 to 20)
#    0.000    3.000    0.000    2.000    0.000    4.667 
#    0.000    1.667    0.000    6.000    0.000    0.000 
#    0.000    0.000    0.000    0.000    0.000    0.000 
#
# Total GULP energy -267237.194997 kJ/mol
# GULP energy per Si atom -5567.441562 kJ/mol
# Density = 1.775121 g / cm^3
# Si number density = 17.791709 Si / 1000 Ang^3
#
#
#
# Elastic Constant Matrix: (Units=GPa)
#
#
# Indices 1 2 3 4 5 6 
#
# 1 61.7980 28.0666 18.9051 0.0000 0.0000 0.0000
# 2 28.0666 47.8259 31.7906 0.0000 0.0000 0.0000
# 3 18.9051 31.7906 41.4577 0.0000 0.0000 0.0000
# 4 0.0000 0.0000 0.0000 26.0759 0.0000 0.0000
# 5 0.0000 0.0000 0.0000 0.0000 7.4161 0.0000
# 6 0.0000 0.0000 0.0000 0.0000 0.0000 22.2403
#
#
#
# Elastic Compliance Matrix: (Units=1/GPa)
#
#
# Indices 1 2 3 4 5 6 
#
# 1 0.022063 -0.012768 -0.000270 0.000000 0.000000 0.000000
# 2 -0.012768 0.050036 -0.032546 0.000000 0.000000 0.000000
# 3 -0.000270 -0.032546 0.049201 0.000000 0.000000 0.000000
# 4 0.000000 0.000000 0.000000 0.038350 0.000000 0.000000
# 5 0.000000 0.000000 0.000000 0.000000 0.134841 0.000000
# 6 0.000000 0.000000 0.000000 0.000000 0.000000 0.044963
#
#
# Mechanical properties :
#
#
# Convention : Reuss Voigt Hill
#
# Bulk Modulus (GPa) = 33.18791 34.28956 33.73873
# Shear Modulus (GPa) = 11.34638 15.96775 13.65707
#
# Velocity S-wave (km/s) = 2.52808 2.99905 2.77358
# Velocity P-wave (km/s) = 5.21686 5.59527 5.40938
#
# Compressibility (1/GPa) = 0.03013145
#
# Stress axis : x y z
#
# Youngs Moduli (GPa) = 45.32405 19.98544 20.32463
#
# Poissons Ratio (x) = 0.25518 0.00549
# Poissons Ratio (y) = 0.57871 0.66149
# Poissons Ratio (z) = 0.01224 0.65046
#
# Static dielectric constant tensor:
#      x y z
#    x 1.630240 0.000000 0.000000 
#    y 0.000000 1.591540 0.000000 
#    z 0.000000 0.000000 1.628240 
# 
# From -- ./inp_files/24225.got.cif
#   From: 2010.05.17/outbox.cif.g08.bks.cpg/sg62_13_cif.got.tgz:24225.got - 2010.06.03 15:25:27.
