data_PCOD9464052
_publ_section_title
;
Structure prediction by ZEFSAII (Michael W. Deem and Ramdas Pophale) SiO2 
 PCOD9464052
Probable space group: P N M A
;
_chemical_formula_sum "Si O2"
_cell_formula_units_Z 56
_cell_length_a 17.035464
_cell_length_b 7.604600
_cell_length_c 20.517054
_cell_angle_alpha 90.000000
_cell_angle_beta 90.000000
_cell_angle_gamma 90.000000
_cell_volume 2657.941045
_symmetry_space_group_name_H-M "P N M A"
_symmetry_group_IT_number 62
_symmetry_cell_setting 'orthorhombic'
loop_
_space_group_symop_operation_xyz
x,y,z
1/2-x,-y,1/2+z
1/2+x,1/2-y,1/2-z
-x,1/2+y,-z
-x,-y,-z
1/2+x,y,1/2-z
1/2-x,1/2+y,1/2+z
x,1/2-y,z
loop_
_atom_site_type_symbol
_atom_site_label
_atom_site_fract_x
_atom_site_fract_y
_atom_site_fract_z
Si Si1 0.738207 0.542599 0.521402
Si Si2 0.997056 0.956560 0.810228
Si Si3 0.182664 0.033720 0.610722
Si Si4 0.434338 0.461830 0.446105
Si Si5 0.517669 0.045035 0.838183
Si Si6 0.318131 0.462468 0.708809
Si Si7 0.656951 0.963185 0.145227
O O1 0.727959 0.750000 0.508542
O O2 0.785819 0.473379 0.459296
O O3 0.650771 0.469575 0.531969
O O4 0.788809 0.520985 0.586420
O O5 0.013696 0.750000 0.805144
O O6 0.039646 0.027899 0.874647
O O7 0.903303 0.980854 0.817221
O O8 0.021068 0.035693 0.740533
O O9 0.180511 0.250000 0.611529
O O10 0.095947 0.970162 0.629596
O O11 0.246456 0.978689 0.664432
O O12 0.500000 0.500000 0.500000
O O13 0.429250 0.250000 0.440550
O O14 0.515467 0.250000 0.856312
O O15 0.433056 0.971115 0.859201
O O16 0.318747 0.250000 0.708376
O O17 0.311882 0.520197 0.783888
O O18 0.655422 0.750000 0.145513
#
# Coordination Sequence:
#
# PCOD9464052 Si02
#       7
#     8   8   8   8   8   8   8
#     4  10  21  36  54  78 109 144 179 219 271 326
#     4  10  20  34  52  79 111 139 175 221 272 325
#     4   9  18  34  57  80 102 137 186 226 262 316
#     4  10  22  37  54  79 111 145 181 220 268 327
#     4   9  19  36  57  79 103 137 184 228 264 313
#     4   9  18  35  58  80 105 140 183 225 266 318
#     4   9  19  34  52  79 109 136 177 227 268 316
#
# _framework density 21.068940999999999
#
# number of rings (size 3 to 8) (size 9 to 14) (size 15 to 20)
#    0.000    2.571    0.000    2.143    2.000    5.714 
#    0.000    2.143    0.000    0.000    0.000    0.000 
#    0.000    0.000    0.000    0.000    0.000    0.000 
#
# Total GULP energy -312679.057081 kJ/mol
# GULP energy per Si atom -5583.554591 kJ/mol
# Density = 2.102099 g / cm^3
# Si number density = 21.068941 Si / 1000 Ang^3
#
#
#
# Elastic Constant Matrix: (Units=GPa)
#
#
# Indices 1 2 3 4 5 6 
#
# 1 121.6653 -2.0163 94.9349 0.0000 0.0000 0.0000
# 2 -2.0163 39.7410 -9.8167 0.0000 0.0000 0.0000
# 3 94.9349 -9.8167 111.4563 0.0000 0.0000 0.0000
# 4 0.0000 0.0000 0.0000 15.7991 0.0000 0.0000
# 5 0.0000 0.0000 0.0000 0.0000 32.9921 0.0000
# 6 0.0000 0.0000 0.0000 0.0000 0.0000 -40.3064
#
#
#
# Elastic Compliance Matrix: (Units=1/GPa)
#
#
# Indices 1 2 3 4 5 6 
#
# 1 0.025146 -0.004104 -0.021780 0.000000 0.000000 0.000000
# 2 -0.004104 0.026392 0.005820 0.000000 0.000000 0.000000
# 3 -0.021780 0.005820 0.028037 0.000000 0.000000 0.000000
# 4 0.000000 0.000000 0.000000 0.063295 0.000000 0.000000
# 5 0.000000 0.000000 0.000000 0.000000 0.030310 0.000000
# 6 0.000000 0.000000 0.000000 0.000000 0.000000 -0.024810
#
#
# Mechanical properties :
#
#
# Convention : Reuss Voigt Hill
#
# Bulk Modulus (GPa) = 25.35045 48.78517 37.06781
# Shear Modulus (GPa) = 24.79566 14.34765 19.57166
#
# Velocity S-wave (km/s) = 3.43429 2.61240 3.05115
# Velocity P-wave (km/s) = 5.27106 5.68373 5.48128
#
# Compressibility (1/GPa) = 0.03944704
#
# Stress axis : x y z
#
# Youngs Moduli (GPa) = 39.76712 37.88958 35.66764
#
# Poissons Ratio (x) = 0.15551 0.77686
# Poissons Ratio (y) = 0.16322 -0.20760
# Poissons Ratio (z) = 0.86614 -0.22054
#
# Static dielectric constant tensor:
#      x y z
#    x 1.739600 0.000000 0.000000 
#    y 0.000000 1.785180 0.000000 
#    z 0.000000 0.000000 1.725030 
# 
# From -- ./inp_files/27182.got.cif
#   From: 2010.05.17/outbox.cif.g08.bks.cpg/sg62_14_cif.got.tgz:27182.got - 2010.06.03 15:25:27.
