data_PCOD9464886
_publ_section_title
;
Structure prediction by ZEFSAII (Michael W. Deem and Ramdas Pophale) SiO2 
 PCOD9464886
Probable space group: P N M A
;
_chemical_formula_sum "Si O2"
_cell_formula_units_Z 64
_cell_length_a 19.046940
_cell_length_b 8.667215
_cell_length_c 20.909595
_cell_angle_alpha 90.000000
_cell_angle_beta 90.000000
_cell_angle_gamma 90.000000
_cell_volume 3451.837993
_symmetry_space_group_name_H-M "P N M A"
_symmetry_group_IT_number 62
_symmetry_cell_setting 'orthorhombic'
loop_
_space_group_symop_operation_xyz
x,y,z
1/2-x,-y,1/2+z
1/2+x,1/2-y,1/2-z
-x,1/2+y,-z
-x,-y,-z
1/2+x,y,1/2-z
1/2-x,1/2+y,1/2+z
x,1/2-y,z
loop_
_atom_site_type_symbol
_atom_site_label
_atom_site_fract_x
_atom_site_fract_y
_atom_site_fract_z
Si Si1 0.706231 0.436011 0.937494
Si Si2 0.543139 0.435816 0.323856
Si Si3 0.544042 0.433419 0.559301
Si Si4 0.541403 0.063791 0.175750
Si Si5 0.206122 0.063978 0.178654
Si Si6 0.299243 0.062883 0.440899
Si Si7 0.455078 0.565164 0.058737
Si Si8 0.297118 0.937690 0.823739
O O1 0.705901 0.250000 0.936744
O O2 0.741527 0.495054 0.872755
O O3 0.625842 0.487888 0.944852
O O4 0.754053 0.484824 0.997363
O O5 0.537481 0.250000 0.329835
O O6 0.493351 0.513920 0.375274
O O7 0.526594 0.475190 0.249949
O O8 0.624874 0.477391 0.335737
O O9 0.500000 0.500000 0.500000
O O10 0.544723 0.250000 0.555005
O O11 0.622933 0.497014 0.556905
O O12 0.537551 0.250000 0.170035
O O13 0.622336 0.017336 0.162113
O O14 0.489863 0.988910 0.124921
O O15 0.210287 0.250000 0.176724
O O16 0.221030 0.013680 0.251576
O O17 0.303063 0.250000 0.440326
O O18 0.257176 0.011991 0.377554
O O19 0.455853 0.750000 0.055161
O O20 0.500000 0.500000 0.000000
O O21 0.297187 0.750000 0.823652
#
# Coordination Sequence:
#
# PCOD9464886 Si02
#       8
#     8   8   8   8   8   8   8   8
#     4  10  22  37  54  78 109 143 177 223 278 326
#     4   9  19  37  60  85 113 145 182 223 269 324
#     4  12  25  39  56  80 111 144 183 230 277 326
#     4   9  18  36  61  86 113 146 183 223 269 322
#     4   9  18  34  58  84 108 139 180 222 262 316
#     4  10  20  37  59  79 104 141 183 224 272 326
#     4  11  23  38  56  81 113 147 186 229 274 325
#     4   8  16  34  59  83 108 141 180 220 265 319
#
# _framework density 18.540848
#
# number of rings (size 3 to 8) (size 9 to 14) (size 15 to 20)
#    0.000    2.250    0.000    4.500    0.000    7.500 
#    0.000    8.125    0.000    0.000    0.000    0.000 
#    0.000    0.000    0.000    0.000    0.000    0.000 
#
# Total GULP energy -357391.648006 kJ/mol
# GULP energy per Si atom -5584.244500 kJ/mol
# Density = 1.849865 g / cm^3
# Si number density = 18.540848 Si / 1000 Ang^3
#
#
#
# Elastic Constant Matrix: (Units=GPa)
#
#
# Indices 1 2 3 4 5 6 
#
# 1 161.7992 41.1780 112.1516 0.0000 0.0000 0.0000
# 2 41.1780 30.1782 38.2140 0.0000 0.0000 0.0000
# 3 112.1516 38.2140 131.0919 0.0000 0.0000 0.0000
# 4 0.0000 0.0000 0.0000 31.9117 0.0000 0.0000
# 5 0.0000 0.0000 0.0000 0.0000 41.2862 0.0000
# 6 0.0000 0.0000 0.0000 0.0000 0.0000 27.7449
#
#
#
# Elastic Compliance Matrix: (Units=1/GPa)
#
#
# Indices 1 2 3 4 5 6 
#
# 1 0.016111 -0.007180 -0.011690 0.000000 0.000000 0.000000
# 2 -0.007180 0.055725 -0.010101 0.000000 0.000000 0.000000
# 3 -0.011690 -0.010101 0.020574 0.000000 0.000000 0.000000
# 4 0.000000 0.000000 0.000000 0.031336 0.000000 0.000000
# 5 0.000000 0.000000 0.000000 0.000000 0.024221 0.000000
# 6 0.000000 0.000000 0.000000 0.000000 0.000000 0.036043
#
#
# Mechanical properties :
#
#
# Convention : Reuss Voigt Hill
#
# Bulk Modulus (GPa) = 29.01371 78.46183 53.73777
# Shear Modulus (GPa) = 19.72838 28.95695 24.34267
#
# Velocity S-wave (km/s) = 3.26552 3.95624 3.62736
# Velocity P-wave (km/s) = 5.46815 7.95483 6.82569
#
# Compressibility (1/GPa) = 0.03446647
#
# Stress axis : x y z
#
# Youngs Moduli (GPa) = 62.06964 17.94530 48.60539
#
# Poissons Ratio (x) = 0.12885 0.56820
# Poissons Ratio (y) = 0.44569 0.49097
# Poissons Ratio (z) = 0.72560 0.18127
#
# Static dielectric constant tensor:
#      x y z
#    x 1.615610 0.000000 0.000000 
#    y 0.000000 1.630430 0.000000 
#    z 0.000000 0.000000 1.624020 
# 
# From -- ./inp_files/27760.got.cif
#   From: 2010.05.17/outbox.cif.g08.bks.cpg/sg62_14_cif.got.tgz:27760.got - 2010.06.03 15:25:27.
