data_PCOD9464487
_publ_section_title
;
Structure prediction by ZEFSAII (Michael W. Deem and Ramdas Pophale) SiO2 
 PCOD9464487
Probable space group: P N M A
;
_chemical_formula_sum "Si O2"
_cell_formula_units_Z 48
_cell_length_a 28.734136
_cell_length_b 8.894035
_cell_length_c 10.518932
_cell_angle_alpha 90.000000
_cell_angle_beta 90.000000
_cell_angle_gamma 90.000000
_cell_volume 2688.243626
_symmetry_space_group_name_H-M "P N M A"
_symmetry_group_IT_number 62
_symmetry_cell_setting 'orthorhombic'
loop_
_space_group_symop_operation_xyz
x,y,z
1/2-x,-y,1/2+z
1/2+x,1/2-y,1/2-z
-x,1/2+y,-z
-x,-y,-z
1/2+x,y,1/2-z
1/2-x,1/2+y,1/2+z
x,1/2-y,z
loop_
_atom_site_type_symbol
_atom_site_label
_atom_site_fract_x
_atom_site_fract_y
_atom_site_fract_z
Si Si1 0.053357 0.070717 0.640634
Si Si2 0.142681 0.070040 0.248614
Si Si3 0.946313 0.070578 0.639341
Si Si4 0.642974 0.930013 0.756077
Si Si5 0.197624 0.430777 0.506875
Si Si6 0.693477 0.931020 0.493347
O O1 0.059750 0.250000 0.633258
O O2 0.999820 0.039496 0.677257
O O3 0.060625 0.001700 0.500091
O O4 0.091623 0.999365 0.731988
O O5 0.139335 0.250000 0.242939
O O6 0.172457 0.029675 0.374633
O O7 0.091866 0.998893 0.267973
O O8 0.168284 0.007717 0.124976
O O9 0.940441 0.250000 0.630145
O O10 0.640320 0.750000 0.763097
O O11 0.668546 0.972227 0.625413
O O12 0.672208 0.991075 0.875585
O O13 0.193923 0.250000 0.522104
O O14 0.251999 0.471419 0.502575
O O15 0.690543 0.750000 0.479797
#
# Coordination Sequence:
#
# PCOD9464487 Si02
#       6
#     8   8   8   8   8   8
#     4  10  20  35  57  86 116 146 186 234 283 338
#     4  11  22  37  59  87 117 150 190 236 286 339
#     4  10  20  35  58  86 114 147 187 232 283 338
#     4  11  22  37  59  86 115 151 193 236 285 339
#     4  10  21  38  59  83 113 149 192 241 284 332
#     4  10  23  40  56  80 117 155 192 235 283 338
#
# _framework density 17.855523999999999
#
# number of rings (size 3 to 8) (size 9 to 14) (size 15 to 20)
#    0.000    1.667    1.667    3.000    0.000    6.000 
#    0.000    0.833    0.000    0.000    0.000    0.000 
#    0.000    0.000    0.000    0.000    0.000    0.000 
#
# Total GULP energy -268205.610473 kJ/mol
# GULP energy per Si atom -5587.616885 kJ/mol
# Density = 1.781488 g / cm^3
# Si number density = 17.855524 Si / 1000 Ang^3
#
#
#
# Elastic Constant Matrix: (Units=GPa)
#
#
# Indices 1 2 3 4 5 6 
#
# 1 160.6379 63.7115 82.1742 0.0000 0.0000 0.0000
# 2 63.7115 51.6540 56.5741 0.0000 0.0000 0.0000
# 3 82.1742 56.5741 130.1147 0.0000 0.0000 0.0000
# 4 0.0000 0.0000 0.0000 29.5805 0.0000 0.0000
# 5 0.0000 0.0000 0.0000 0.0000 -0.3520 0.0000
# 6 0.0000 0.0000 0.0000 0.0000 0.0000 31.7436
#
#
#
# Elastic Compliance Matrix: (Units=1/GPa)
#
#
# Indices 1 2 3 4 5 6 
#
# 1 0.012531 -0.012960 -0.002279 0.000000 0.000000 0.000000
# 2 -0.012960 0.050365 -0.013714 0.000000 0.000000 0.000000
# 3 -0.002279 -0.013714 0.015088 0.000000 0.000000 0.000000
# 4 0.000000 0.000000 0.000000 0.033806 0.000000 0.000000
# 5 0.000000 0.000000 0.000000 0.000000 -2.840527 0.000000
# 6 0.000000 0.000000 0.000000 0.000000 0.000000 0.031502
#
#
# Mechanical properties :
#
#
# Convention : Reuss Voigt Hill
#
# Bulk Modulus (GPa) = 49.80583 83.03625 66.42104
# Shear Modulus (GPa) = -1.89924 21.52418 9.81247
#
# Velocity S-wave (km/s) = -1.03246 3.47575 2.34679
# Velocity P-wave (km/s) = 5.15102 7.91917 6.68005
#
# Compressibility (1/GPa) = 0.02007797
#
# Stress axis : x y z
#
# Youngs Moduli (GPa) = 79.80029 19.85487 66.27969
#
# Poissons Ratio (x) = 0.25733 0.15105
# Poissons Ratio (y) = 1.03425 0.90895
# Poissons Ratio (z) = 0.18186 0.27229
#
# Static dielectric constant tensor:
#      x y z
#    x 1.613260 0.000000 0.000000 
#    y 0.000000 1.594530 0.000000 
#    z 0.000000 0.000000 1.568240 
# 
# From -- ./inp_files/10156.got.cif
#   From: 2010.05.17/outbox.cif.g08.bks.cpg/sg62_6_cif.got.tgz:10156.got - 2010.06.03 15:25:27.
