data_PCOD9464488
_publ_section_title
;
Structure prediction by ZEFSAII (Michael W. Deem and Ramdas Pophale) SiO2 
 PCOD9464488
Probable space group: P N M A
;
_chemical_formula_sum "Si O2"
_cell_formula_units_Z 48
_cell_length_a 9.237240
_cell_length_b 13.568322
_cell_length_c 16.568064
_cell_angle_alpha 90.000000
_cell_angle_beta 90.000000
_cell_angle_gamma 90.000000
_cell_volume 2076.539194
_symmetry_space_group_name_H-M "P N M A"
_symmetry_group_IT_number 62
_symmetry_cell_setting 'orthorhombic'
loop_
_space_group_symop_operation_xyz
x,y,z
1/2-x,-y,1/2+z
1/2+x,1/2-y,1/2-z
-x,1/2+y,-z
-x,-y,-z
1/2+x,y,1/2-z
1/2-x,1/2+y,1/2+z
x,1/2-y,z
loop_
_atom_site_type_symbol
_atom_site_label
_atom_site_fract_x
_atom_site_fract_y
_atom_site_fract_z
Si Si1 0.408118 0.635749 0.236494
Si Si2 0.397171 0.859407 0.642896
Si Si3 0.684684 0.573348 0.150412
Si Si4 0.229782 0.859595 0.809779
Si Si5 0.699657 0.489896 0.910152
Si Si6 0.497540 0.135593 0.006300
O O1 0.391156 0.750000 0.214908
O O2 0.573558 0.606005 0.221259
O O3 0.339583 0.616956 0.323845
O O4 0.323820 0.566176 0.173538
O O5 0.386590 0.750000 0.604543
O O6 0.284891 0.861430 0.717651
O O7 0.557120 0.869040 0.679789
O O8 0.349398 0.950858 0.587420
O O9 0.702713 0.456025 0.150165
O O10 0.611435 0.615573 0.069896
O O11 0.270005 0.750000 0.841086
O O12 0.650144 0.410321 0.976977
O O13 0.578739 0.574880 0.922916
O O14 0.505659 0.250000 0.021688
#
# Coordination Sequence:
#
# PCOD9464488 Si02
#       6
#     8   8   8   8   8   8
#     4  11  22  37  61  91 123 158 202 252 301 354
#     4  10  20  35  57  86 121 156 196 246 302 356
#     4  11  21  38  61  89 120 159 199 250 302 358
#     4  10  21  36  56  88 122 155 197 249 303 358
#     4  10  20  36  61  84 114 159 199 246 296 355
#     4  10  22  40  59  87 122 159 202 247 301 361
#
# _framework density 23.115383000000001
#
# number of rings (size 3 to 8) (size 9 to 14) (size 15 to 20)
#    0.000    1.667    1.667    4.500    2.333    0.000 
#    0.000    9.167    0.000    0.000    0.000    0.000 
#    0.000    0.000    0.000    0.000    0.000    0.000 
#
# Total GULP energy -268176.080156 kJ/mol
# GULP energy per Si atom -5587.001670 kJ/mol
# Density = 2.306277 g / cm^3
# Si number density = 23.115383 Si / 1000 Ang^3
#
#
#
# Elastic Constant Matrix: (Units=GPa)
#
#
# Indices 1 2 3 4 5 6 
#
# 1 87.7579 44.2357 35.9965 0.0000 0.0000 0.0000
# 2 44.2357 205.9145 26.3363 0.0000 0.0000 0.0000
# 3 35.9965 26.3363 61.9246 0.0000 0.0000 0.0000
# 4 0.0000 0.0000 0.0000 22.6577 0.0000 0.0000
# 5 0.0000 0.0000 0.0000 0.0000 31.9204 0.0000
# 6 0.0000 0.0000 0.0000 0.0000 0.0000 37.4348
#
#
#
# Elastic Compliance Matrix: (Units=1/GPa)
#
#
# Indices 1 2 3 4 5 6 
#
# 1 0.015991 -0.002376 -0.008285 0.000000 0.000000 0.000000
# 2 -0.002376 0.005489 -0.000953 0.000000 0.000000 0.000000
# 3 -0.008285 -0.000953 0.021370 0.000000 0.000000 0.000000
# 4 0.000000 0.000000 0.000000 0.044135 0.000000 0.000000
# 5 0.000000 0.000000 0.000000 0.000000 0.031328 0.000000
# 6 0.000000 0.000000 0.000000 0.000000 0.000000 0.026713
#
#
# Mechanical properties :
#
#
# Convention : Reuss Voigt Hill
#
# Bulk Modulus (GPa) = 50.96421 63.19266 57.07843
# Shear Modulus (GPa) = 28.60504 35.00448 31.80476
#
# Velocity S-wave (km/s) = 3.52161 3.89567 3.71335
# Velocity P-wave (km/s) = 6.21541 6.90161 6.56748
#
# Compressibility (1/GPa) = 0.01962161
#
# Stress axis : x y z
#
# Youngs Moduli (GPa) = 62.53605 182.19392 46.79415
#
# Poissons Ratio (x) = 0.43282 0.38769
# Poissons Ratio (y) = 0.14856 0.04461
# Poissons Ratio (z) = 0.51811 0.17370
#
# Static dielectric constant tensor:
#      x y z
#    x 1.874080 0.000000 0.000000 
#    y 0.000000 1.890090 0.000000 
#    z 0.000000 0.000000 1.902740 
# 
# From -- ./inp_files/22200.got.cif
#   From: 2010.05.17/outbox.cif.g08.bks.cpg/sg62_12_cif.got.tgz:22200.got - 2010.06.03 15:25:27.
