data_PCOD9464652
_publ_section_title
;
Structure prediction by ZEFSAII (Michael W. Deem and Ramdas Pophale) SiO2 
 PCOD9464652
Probable space group: P N M A
;
_chemical_formula_sum "Si O2"
_cell_formula_units_Z 40
_cell_length_a 13.852804
_cell_length_b 20.556687
_cell_length_c 5.521626
_cell_angle_alpha 90.000000
_cell_angle_beta 90.000000
_cell_angle_gamma 90.000000
_cell_volume 1572.381045
_symmetry_space_group_name_H-M "P N M A"
_symmetry_group_IT_number 62
_symmetry_cell_setting 'orthorhombic'
loop_
_space_group_symop_operation_xyz
x,y,z
1/2-x,-y,1/2+z
1/2+x,1/2-y,1/2-z
-x,1/2+y,-z
-x,-y,-z
1/2+x,y,1/2-z
1/2-x,1/2+y,1/2+z
x,1/2-y,z
loop_
_atom_site_type_symbol
_atom_site_label
_atom_site_fract_x
_atom_site_fract_y
_atom_site_fract_z
Si Si1 0.629898 0.823540 0.913982
Si Si2 0.845573 0.118171 0.916869
Si Si3 0.141541 0.342685 0.135336
Si Si4 0.108160 0.478284 0.946051
Si Si5 0.877906 0.860474 0.365083
O O1 0.599957 0.750000 0.963357
O O2 0.601505 0.850151 0.648122
O O3 0.747668 0.821479 0.882851
O O4 0.608716 0.869066 0.149880
O O5 0.833846 0.043351 0.998849
O O6 0.738163 0.146464 0.887150
O O7 0.144451 0.421493 0.122651
O O8 0.088141 0.329848 0.385483
O O9 0.092186 0.325446 0.882041
O O10 0.106968 0.437500 0.693983
O O11 0.000000 0.500000 0.000000
#
# Coordination Sequence:
#
# PCOD9464652 Si02
#       5
#     8   8   8   8   8
#     4  10  20  36  57  81 104 144 197 240 268 317
#     4  10  21  33  57  84 110 142 187 233 282 331
#     4   8  18  32  52  77 108 137 176 222 276 327
#     4  10  22  34  55  88 119 147 174 228 294 355
#     4   8  18  31  50  76 110 135 174 215 272 328
#
# _framework density 25.439124
#
# number of rings (size 3 to 8) (size 9 to 14) (size 15 to 20)
#    1.200    1.600    0.000    0.600    8.400    0.800 
#    0.000    0.000    0.000    2.400    0.000    0.000 
#    0.000    0.000    0.000    0.000    0.000    0.000 
#
# Total GULP energy -222877.474191 kJ/mol
# GULP energy per Si atom -5571.936855 kJ/mol
# Density = 2.538122 g / cm^3
# Si number density = 25.439124 Si / 1000 Ang^3
#
#
#
# Elastic Constant Matrix: (Units=GPa)
#
#
# Indices 1 2 3 4 5 6 
#
# 1 70.8913 -0.4932 33.1848 0.0000 0.0000 0.0000
# 2 -0.4932 123.7530 62.9321 0.0000 0.0000 0.0000
# 3 33.1848 62.9321 242.3549 0.0000 0.0000 0.0000
# 4 0.0000 0.0000 0.0000 133.0641 0.0000 0.0000
# 5 0.0000 0.0000 0.0000 0.0000 33.7628 0.0000
# 6 0.0000 0.0000 0.0000 0.0000 0.0000 26.2583
#
#
#
# Elastic Compliance Matrix: (Units=1/GPa)
#
#
# Indices 1 2 3 4 5 6 
#
# 1 0.015250 0.001293 -0.002424 0.000000 0.000000 0.000000
# 2 0.001293 0.009420 -0.002623 0.000000 0.000000 0.000000
# 3 -0.002424 -0.002623 0.005139 0.000000 0.000000 0.000000
# 4 0.000000 0.000000 0.000000 0.007515 0.000000 0.000000
# 5 0.000000 0.000000 0.000000 0.000000 0.029618 0.000000
# 6 0.000000 0.000000 0.000000 0.000000 0.000000 0.038083
#
#
# Mechanical properties :
#
#
# Convention : Reuss Voigt Hill
#
# Bulk Modulus (GPa) = 44.84018 69.80517 57.32268
# Shear Modulus (GPa) = 41.67827 61.37541 51.52684
#
# Velocity S-wave (km/s) = 4.05205 4.91719 4.50543
# Velocity P-wave (km/s) = 6.28942 7.72904 7.04609
#
# Compressibility (1/GPa) = 0.02230143
#
# Stress axis : x y z
#
# Youngs Moduli (GPa) = 65.57471 106.16055 194.58184
#
# Poissons Ratio (x) = -0.13731 0.47166
# Poissons Ratio (y) = -0.08482 0.51041
# Poissons Ratio (z) = 0.15895 0.27847
#
# Static dielectric constant tensor:
#      x y z
#    x 2.010400 0.000000 0.000000 
#    y 0.000000 1.970770 0.000000 
#    z 0.000000 0.000000 2.134230 
# 
# From -- ./inp_files/1638.got.cif
#   From: 2010.05.17/outbox.cif.g08.bks.cpg/sg62_1_cif.got.tgz:1638.got - 2010.06.03 15:25:27.
