data_PCOD9464569
_publ_section_title
;
Structure prediction by ZEFSAII (Michael W. Deem and Ramdas Pophale) SiO2 
 PCOD9464569
Probable space group: P N M A
;
_chemical_formula_sum "Si O2"
_cell_formula_units_Z 60
_cell_length_a 8.713936
_cell_length_b 11.567014
_cell_length_c 28.656412
_cell_angle_alpha 90.000000
_cell_angle_beta 90.000000
_cell_angle_gamma 90.000000
_cell_volume 2888.400687
_symmetry_space_group_name_H-M "P N M A"
_symmetry_group_IT_number 62
_symmetry_cell_setting 'orthorhombic'
loop_
_space_group_symop_operation_xyz
x,y,z
1/2-x,-y,1/2+z
1/2+x,1/2-y,1/2-z
-x,1/2+y,-z
-x,-y,-z
1/2+x,y,1/2-z
1/2-x,1/2+y,1/2+z
x,1/2-y,z
loop_
_atom_site_type_symbol
_atom_site_label
_atom_site_fract_x
_atom_site_fract_y
_atom_site_fract_z
Si Si1 0.834246 0.062345 0.685219
Si Si2 0.005458 0.613066 0.220196
Si Si3 0.954930 0.980738 0.432165
Si Si4 0.296349 0.615946 0.882467
Si Si5 0.535404 0.472376 0.573735
Si Si6 0.707344 0.385373 0.486361
Si Si7 0.586658 0.750000 0.102686
Si Si8 0.782375 0.117015 0.862242
O O1 0.661878 0.071064 0.705280
O O2 0.858693 0.148929 0.641351
O O3 0.951326 0.091160 0.726457
O O4 0.858536 0.933979 0.665985
O O5 0.001218 0.750000 0.212569
O O6 0.145591 0.575156 0.186318
O O7 0.847858 0.029864 0.473291
O O8 0.082079 0.075916 0.421148
O O9 0.842152 0.963849 0.386794
O O10 0.028146 0.853339 0.433678
O O11 0.270479 0.750000 0.883056
O O12 0.141044 0.546144 0.892262
O O13 0.643515 0.402188 0.538535
O O14 0.431046 0.563124 0.545299
O O15 0.425797 0.387048 0.602247
O O16 0.736101 0.250000 0.476913
O O17 0.718739 0.250000 0.859304
#
# Coordination Sequence:
#
# PCOD9464569 Si02
#       8
#     8   8   8   8   8   8   4   8
#     4  11  23  37  63  91 128 162 210 262 325 377
#     4  11  21  35  61  95 127 158 202 261 323 389
#     4  10  22  37  62  87 127 169 210 261 322 383
#     4  11  24  44  63  86 126 171 216 261 317 387
#     4  10  21  40  66  91 125 173 213 267 326 389
#     4  10  21  40  63  97 128 163 218 273 326 391
#     4  10  20  38  56  92 128 166 208 260 328 380
#     4  10  20  35  60  94 127 161 206 260 325 390
#
# _framework density 20.772739999999999
#
# number of rings (size 3 to 8) (size 9 to 14) (size 15 to 20)
#    0.000    1.600    3.333    1.200    3.733    0.533 
#    7.200    0.667    0.000    0.000    0.000    0.000 
#    0.000    0.000    0.000    0.000    0.000    0.000 
#
# Total GULP energy -334233.681134 kJ/mol
# GULP energy per Si atom -5570.561352 kJ/mol
# Density = 2.072546 g / cm^3
# Si number density = 20.772740 Si / 1000 Ang^3
#
#
#
# Elastic Constant Matrix: (Units=GPa)
#
#
# Indices 1 2 3 4 5 6 
#
# 1 70.4765 18.9387 11.7019 0.0000 0.0000 0.0000
# 2 18.9387 102.7053 21.3771 0.0000 0.0000 0.0000
# 3 11.7019 21.3771 54.0410 0.0000 0.0000 0.0000
# 4 0.0000 0.0000 0.0000 20.6751 0.0000 0.0000
# 5 0.0000 0.0000 0.0000 0.0000 26.3260 0.0000
# 6 0.0000 0.0000 0.0000 0.0000 0.0000 93.8661
#
#
#
# Elastic Compliance Matrix: (Units=1/GPa)
#
#
# Indices 1 2 3 4 5 6 
#
# 1 0.015205 -0.002308 -0.002379 0.000000 0.000000 0.000000
# 2 -0.002308 0.010961 -0.003836 0.000000 0.000000 0.000000
# 3 -0.002379 -0.003836 0.020537 0.000000 0.000000 0.000000
# 4 0.000000 0.000000 0.000000 0.048367 0.000000 0.000000
# 5 0.000000 0.000000 0.000000 0.000000 0.037985 0.000000
# 6 0.000000 0.000000 0.000000 0.000000 0.000000 0.010653
#
#
# Mechanical properties :
#
#
# Convention : Reuss Voigt Hill
#
# Bulk Modulus (GPa) = 33.72093 36.80644 35.26369
# Shear Modulus (GPa) = 29.30138 39.85378 34.57758
#
# Velocity S-wave (km/s) = 3.75983 4.38489 4.08433
# Velocity P-wave (km/s) = 5.92595 6.58737 6.26540
#
# Compressibility (1/GPa) = 0.02965517
#
# Stress axis : x y z
#
# Youngs Moduli (GPa) = 65.76994 91.23525 48.69257
#
# Poissons Ratio (x) = 0.21062 0.11585
# Poissons Ratio (y) = 0.15183 0.18678
# Poissons Ratio (z) = 0.15648 0.34997
#
# Static dielectric constant tensor:
#      x y z
#    x 1.847970 0.000000 0.000000 
#    y 0.000000 1.676820 0.000000 
#    z 0.000000 0.000000 1.811290 
# 
# From -- ./inp_files/32186.got.cif
#   From: 2010.05.17/outbox.cif.g08.bks.cpg/sg62_17_cif.got.tgz:32186.got - 2010.06.03 15:25:27.
