data_PCOD9464774
_publ_section_title
;
Structure prediction by ZEFSAII (Michael W. Deem and Ramdas Pophale) SiO2 
 PCOD9464774
Probable space group: P N M A
;
_chemical_formula_sum "Si O2"
_cell_formula_units_Z 48
_cell_length_a 12.376204
_cell_length_b 20.398333
_cell_length_c 9.181615
_cell_angle_alpha 90.000000
_cell_angle_beta 90.000000
_cell_angle_gamma 90.000000
_cell_volume 2317.934795
_symmetry_space_group_name_H-M "P N M A"
_symmetry_group_IT_number 62
_symmetry_cell_setting 'orthorhombic'
loop_
_space_group_symop_operation_xyz
x,y,z
1/2-x,-y,1/2+z
1/2+x,1/2-y,1/2-z
-x,1/2+y,-z
-x,-y,-z
1/2+x,y,1/2-z
1/2-x,1/2+y,1/2+z
x,1/2-y,z
loop_
_atom_site_type_symbol
_atom_site_label
_atom_site_fract_x
_atom_site_fract_y
_atom_site_fract_z
Si Si1 0.162404 0.896703 0.677994
Si Si2 0.417871 0.968606 0.112667
Si Si3 0.752786 0.628294 0.505671
Si Si4 0.955784 0.823884 0.637883
Si Si5 0.941320 0.421082 0.848707
Si Si6 0.608718 0.072380 0.387772
O O1 0.195446 0.869004 0.836363
O O2 0.268117 0.907613 0.579842
O O3 0.074119 0.851598 0.599084
O O4 0.119268 0.970156 0.710404
O O5 0.483759 0.915747 0.206696
O O6 0.316497 0.939303 0.027311
O O7 0.500000 0.000000 0.000000
O O8 0.857774 0.674701 0.521434
O O9 0.657604 0.627821 0.385395
O O10 0.965235 0.750000 0.694082
O O11 0.923248 0.877510 0.759532
O O12 0.895948 0.496024 0.841767
O O13 0.024843 0.418449 0.982569
#
# Coordination Sequence:
#
# PCOD9464774 Si02
#       6
#     8   8   8   8   8   8
#     4  11  20  36  60  92 129 161 209 267 336 392
#     4  12  22  34  59  96 130 165 214 270 338 403
#     4  11  23  38  60  96 125 170 211 273 344 387
#     4  11  23  41  63  92 129 172 223 270 319 399
#     4  11  20  37  61  91 138 165 210 274 341 403
#     4  10  20  36  59  94 126 169 206 267 337 394
#
# _framework density 20.708088
#
# number of rings (size 3 to 8) (size 9 to 14) (size 15 to 20)
#    0.000    1.000    6.667    2.000    0.000    2.667 
#    0.000    0.000    0.000    2.000    0.000    0.000 
#    0.000    0.000    0.000    0.000    0.000    0.000 
#
# Total GULP energy -267438.061428 kJ/mol
# GULP energy per Si atom -5571.626280 kJ/mol
# Density = 2.066096 g / cm^3
# Si number density = 20.708088 Si / 1000 Ang^3
#
#
#
# Elastic Constant Matrix: (Units=GPa)
#
#
# Indices 1 2 3 4 5 6 
#
# 1 137.2945 29.3575 16.8773 0.0000 0.0000 0.0000
# 2 29.3575 72.3960 10.8697 0.0000 0.0000 0.0000
# 3 16.8773 10.8697 35.5213 0.0000 0.0000 0.0000
# 4 0.0000 0.0000 0.0000 11.5233 0.0000 0.0000
# 5 0.0000 0.0000 0.0000 0.0000 23.2650 0.0000
# 6 0.0000 0.0000 0.0000 0.0000 0.0000 3.8280
#
#
#
# Elastic Compliance Matrix: (Units=1/GPa)
#
#
# Indices 1 2 3 4 5 6 
#
# 1 0.008278 -0.002900 -0.003046 0.000000 0.000000 0.000000
# 2 -0.002900 0.015494 -0.003363 0.000000 0.000000 0.000000
# 3 -0.003046 -0.003363 0.030629 0.000000 0.000000 0.000000
# 4 0.000000 0.000000 0.000000 0.086781 0.000000 0.000000
# 5 0.000000 0.000000 0.000000 0.000000 0.042983 0.000000
# 6 0.000000 0.000000 0.000000 0.000000 0.000000 0.261231
#
#
# Mechanical properties :
#
#
# Convention : Reuss Voigt Hill
#
# Bulk Modulus (GPa) = 27.94660 39.93564 33.94112
# Shear Modulus (GPa) = 10.50552 20.26375 15.38464
#
# Velocity S-wave (km/s) = 2.25481 3.13156 2.72863
# Velocity P-wave (km/s) = 4.50596 5.69232 5.13352
#
# Compressibility (1/GPa) = 0.03578252
#
# Stress axis : x y z
#
# Youngs Moduli (GPa) = 120.80153 64.54227 32.64923
#
# Poissons Ratio (x) = 0.18714 0.09945
# Poissons Ratio (y) = 0.35027 0.10982
# Poissons Ratio (z) = 0.36795 0.21709
#
# Static dielectric constant tensor:
#      x y z
#    x 1.854390 0.000000 0.000000 
#    y 0.000000 1.728120 0.000000 
#    z 0.000000 0.000000 1.767110 
# 
# From -- ./inp_files/12379.got.cif
#   From: 2010.05.17/outbox.cif.g08.bks.cpg/sg62_7_cif.got.tgz:12379.got - 2010.06.03 15:25:27.
