data_PCOD9464931
_publ_section_title
;
Structure prediction by ZEFSAII (Michael W. Deem and Ramdas Pophale) SiO2 
 PCOD9464931
Probable space group: P N M A
;
_chemical_formula_sum "Si O2"
_cell_formula_units_Z 56
_cell_length_a 22.128267
_cell_length_b 7.646750
_cell_length_c 14.993758
_cell_angle_alpha 90.000000
_cell_angle_beta 90.000000
_cell_angle_gamma 90.000000
_cell_volume 2537.083681
_symmetry_space_group_name_H-M "P N M A"
_symmetry_group_IT_number 62
_symmetry_cell_setting 'orthorhombic'
loop_
_space_group_symop_operation_xyz
x,y,z
1/2-x,-y,1/2+z
1/2+x,1/2-y,1/2-z
-x,1/2+y,-z
-x,-y,-z
1/2+x,y,1/2-z
1/2-x,1/2+y,1/2+z
x,1/2-y,z
loop_
_atom_site_type_symbol
_atom_site_label
_atom_site_fract_x
_atom_site_fract_y
_atom_site_fract_z
Si Si1 0.766120 0.049010 0.383659
Si Si2 0.962943 0.459738 0.588622
Si Si3 0.405896 0.537042 0.407742
Si Si4 0.016257 0.535873 0.216096
Si Si5 0.716581 0.046622 0.683800
Si Si6 0.371585 0.045965 0.604736
Si Si7 0.325999 0.035100 0.933584
O O1 0.784360 0.250000 0.375248
O O2 0.799636 0.977951 0.470870
O O3 0.782389 0.964034 0.289890
O O4 0.694015 0.040313 0.398179
O O5 0.959949 0.250000 0.595142
O O6 0.991852 0.521225 0.681818
O O7 0.894141 0.524951 0.581364
O O8 0.000000 0.500000 0.500000
O O9 0.406688 0.750000 0.409429
O O10 0.463406 0.478539 0.350399
O O11 0.344344 0.473924 0.359837
O O12 0.403841 0.474100 0.509243
O O13 0.015994 0.750000 0.213756
O O14 0.081620 0.480143 0.178888
O O15 0.715964 0.250000 0.658167
O O16 0.778318 0.975018 0.641274
O O17 0.359953 0.250000 0.623123
O O18 0.327379 0.250000 0.932682
#
# Coordination Sequence:
#
# PCOD9464931 Si02
#       7
#     8   8   8   8   8   8   8
#     4  11  22  37  58  85 116 152 193 239 289 341
#     4  10  21  39  60  81 111 149 194 237 282 343
#     4  10  20  37  60  86 118 153 190 239 295 348
#     4   9  20  37  59  84 115 156 195 234 289 350
#     4  10  20  37  60  85 114 152 192 233 289 348
#     4  11  21  37  60  88 118 154 195 236 287 349
#     4   9  19  38  59  79 112 155 186 224 287 348
#
# _framework density 22.072586999999999
#
# number of rings (size 3 to 8) (size 9 to 14) (size 15 to 20)
#    0.000    2.000    1.429    2.143    2.000    2.857 
#    0.000    5.714    0.000    0.000    0.000    0.000 
#    0.000    0.000    0.000    0.000    0.000    0.000 
#
# Total GULP energy -312977.226539 kJ/mol
# GULP energy per Si atom -5588.879045 kJ/mol
# Density = 2.202235 g / cm^3
# Si number density = 22.072587 Si / 1000 Ang^3
#
#
#
# Elastic Constant Matrix: (Units=GPa)
#
#
# Indices 1 2 3 4 5 6 
#
# 1 36.7046 -0.1794 -14.1281 0.0000 0.0000 0.0000
# 2 -0.1794 37.8580 -12.2701 0.0000 0.0000 0.0000
# 3 -14.1281 -12.2701 85.3224 0.0000 0.0000 0.0000
# 4 0.0000 0.0000 0.0000 25.2907 0.0000 0.0000
# 5 0.0000 0.0000 0.0000 0.0000 34.4905 0.0000
# 6 0.0000 0.0000 0.0000 0.0000 0.0000 -19.0115
#
#
#
# Elastic Compliance Matrix: (Units=1/GPa)
#
#
# Indices 1 2 3 4 5 6 
#
# 1 0.029214 0.001790 0.005095 0.000000 0.000000 0.000000
# 2 0.001790 0.027816 0.004296 0.000000 0.000000 0.000000
# 3 0.005095 0.004296 0.013182 0.000000 0.000000 0.000000
# 4 0.000000 0.000000 0.000000 0.039540 0.000000 0.000000
# 5 0.000000 0.000000 0.000000 0.000000 0.028993 0.000000
# 6 0.000000 0.000000 0.000000 0.000000 0.000000 -0.052600
#
#
# Mechanical properties :
#
#
# Convention : Reuss Voigt Hill
#
# Bulk Modulus (GPa) = 10.80220 11.85885 11.33052
# Shear Modulus (GPa) = 52.83089 20.58477 36.70783
#
# Velocity S-wave (km/s) = 4.89766 3.05715 4.08248
# Velocity P-wave (km/s) = 6.07349 4.22444 5.23131
#
# Compressibility (1/GPa) = 0.09257378
#
# Stress axis : x y z
#
# Youngs Moduli (GPa) = 34.22970 35.95116 75.86248
#
# Poissons Ratio (x) = -0.06434 -0.38651
# Poissons Ratio (y) = -0.06126 -0.32594
# Poissons Ratio (z) = -0.17439 -0.15446
#
# Static dielectric constant tensor:
#      x y z
#    x 1.784090 0.000000 0.000000 
#    y 0.000000 1.836620 0.000000 
#    z 0.000000 0.000000 1.781540 
# 
# From -- ./inp_files/20308.got.cif
#   From: 2010.05.17/outbox.cif.g08.bks.cpg/sg62_11_cif.got.tgz:20308.got - 2010.06.03 15:25:27.
