data_PCOD9464960
_publ_section_title
;
Structure prediction by ZEFSAII (Michael W. Deem and Ramdas Pophale) SiO2 
 PCOD9464960
Probable space group: P N M A
;
_chemical_formula_sum "Si O2"
_cell_formula_units_Z 64
_cell_length_a 14.628118
_cell_length_b 7.380918
_cell_length_c 22.888581
_cell_angle_alpha 90.000000
_cell_angle_beta 90.000000
_cell_angle_gamma 90.000000
_cell_volume 2471.255816
_symmetry_space_group_name_H-M "P N M A"
_symmetry_group_IT_number 62
_symmetry_cell_setting 'orthorhombic'
loop_
_space_group_symop_operation_xyz
x,y,z
1/2-x,-y,1/2+z
1/2+x,1/2-y,1/2-z
-x,1/2+y,-z
-x,-y,-z
1/2+x,y,1/2-z
1/2-x,1/2+y,1/2+z
x,1/2-y,z
loop_
_atom_site_type_symbol
_atom_site_label
_atom_site_fract_x
_atom_site_fract_y
_atom_site_fract_z
Si Si1 0.377092 0.538450 0.746996
Si Si2 0.049219 0.470613 0.590816
Si Si3 0.921828 0.471537 0.211414
Si Si4 0.377206 0.031106 0.541358
Si Si5 0.312188 0.529334 0.999342
Si Si6 0.063155 0.542496 0.914755
Si Si7 0.297528 0.954193 0.180571
Si Si8 0.843643 0.543841 0.626175
O O1 0.392128 0.750000 0.759341
O O2 0.476450 0.466865 0.729670
O O3 0.302358 0.527049 0.695923
O O4 0.340778 0.461339 0.809008
O O5 0.042186 0.250000 0.593193
O O6 0.092744 0.525535 0.528773
O O7 0.126755 0.532293 0.636947
O O8 0.951176 0.545266 0.608520
O O9 0.919603 0.250000 0.211343
O O10 0.849743 0.539278 0.257771
O O11 0.901754 0.534158 0.145702
O O12 0.382919 0.250000 0.544280
O O13 0.271421 0.978807 0.541935
O O14 0.408948 0.963858 0.476977
O O15 0.452433 0.960568 0.586043
O O16 0.312404 0.750000 0.996786
O O17 0.299329 0.464414 0.932882
O O18 0.094196 0.750000 0.917548
O O19 0.281909 0.750000 0.159637
O O20 0.808038 0.750000 0.631006
#
# Coordination Sequence:
#
# PCOD9464960 Si02
#       8
#     8   8   8   8   8   8   8   8
#     4  10  22  38  59  85 113 148 188 234 283 335
#     4  10  21  38  56  79 114 147 180 226 279 333
#     4  10  21  39  61  85 114 149 190 236 284 336
#     4   9  18  34  55  78 107 145 182 222 271 329
#     4   9  19  34  56  83 108 142 185 224 274 333
#     4   9  19  34  55  80 109 142 180 226 276 323
#     4  11  24  38  57  85 116 152 190 232 283 340
#     4  10  20  37  61  84 107 142 188 230 275 330
#
# _framework density 25.897763999999999
#
# number of rings (size 3 to 8) (size 9 to 14) (size 15 to 20)
#    0.000    2.250    1.250    0.750    3.500    2.000 
#    0.000    1.250    0.000    0.000    0.000    0.000 
#    0.000    0.000    0.000    0.000    0.000    0.000 
#
# Total GULP energy -357848.952690 kJ/mol
# GULP energy per Si atom -5591.389886 kJ/mol
# Density = 2.583882 g / cm^3
# Si number density = 25.897764 Si / 1000 Ang^3
#
#
#
# Elastic Constant Matrix: (Units=GPa)
#
#
# Indices 1 2 3 4 5 6 
#
# 1 107.3505 -11.6769 -9.0977 0.0000 0.0000 0.0000
# 2 -11.6769 95.0934 -4.6479 0.0000 0.0000 0.0000
# 3 -9.0977 -4.6479 70.9200 0.0000 0.0000 0.0000
# 4 0.0000 0.0000 0.0000 -14.5736 0.0000 0.0000
# 5 0.0000 0.0000 0.0000 0.0000 46.8263 0.0000
# 6 0.0000 0.0000 0.0000 0.0000 0.0000 15.8216
#
#
#
# Elastic Compliance Matrix: (Units=1/GPa)
#
#
# Indices 1 2 3 4 5 6 
#
# 1 0.009561 0.001238 0.001308 0.000000 0.000000 0.000000
# 2 0.001238 0.010710 0.000861 0.000000 0.000000 0.000000
# 3 0.001308 0.000861 0.014325 0.000000 0.000000 0.000000
# 4 0.000000 0.000000 0.000000 -0.068617 0.000000 0.000000
# 5 0.000000 0.000000 0.000000 0.000000 0.021356 0.000000
# 6 0.000000 0.000000 0.000000 0.000000 0.000000 0.063205
#
#
# Mechanical properties :
#
#
# Convention : Reuss Voigt Hill
#
# Bulk Modulus (GPa) = 24.15006 24.72433 24.43719
# Shear Modulus (GPa) = 86.91335 29.53395 58.22365
#
# Velocity S-wave (km/s) = 5.79940 3.38065 4.74667
# Velocity P-wave (km/s) = 7.36135 4.98057 6.28472
#
# Compressibility (1/GPa) = 0.04140777
#
# Stress axis : x y z
#
# Youngs Moduli (GPa) = 104.59435 93.37021 69.81023
#
# Poissons Ratio (x) = -0.11558 -0.09128
# Poissons Ratio (y) = -0.12948 -0.06009
# Poissons Ratio (z) = -0.13677 -0.08036
#
# Static dielectric constant tensor:
#      x y z
#    x 2.016300 0.000000 0.000000 
#    y 0.000000 2.000230 0.000000 
#    z 0.000000 0.000000 2.037000 
# 
# From -- ./inp_files/29805.got.cif
#   From: 2010.05.17/outbox.cif.g08.bks.cpg/sg62_15_cif.got.tgz:29805.got - 2010.06.03 15:25:27.
