data_PCOD9464969
_publ_section_title
;
Structure prediction by ZEFSAII (Michael W. Deem and Ramdas Pophale) SiO2 
 PCOD9464969
Probable space group: P N M A
;
_chemical_formula_sum "Si O2"
_cell_formula_units_Z 48
_cell_length_a 15.202260
_cell_length_b 8.842722
_cell_length_c 18.920265
_cell_angle_alpha 90.000000
_cell_angle_beta 90.000000
_cell_angle_gamma 90.000000
_cell_volume 2543.439095
_symmetry_space_group_name_H-M "P N M A"
_symmetry_group_IT_number 62
_symmetry_cell_setting 'orthorhombic'
loop_
_space_group_symop_operation_xyz
x,y,z
1/2-x,-y,1/2+z
1/2+x,1/2-y,1/2-z
-x,1/2+y,-z
-x,-y,-z
1/2+x,y,1/2-z
1/2-x,1/2+y,1/2+z
x,1/2-y,z
loop_
_atom_site_type_symbol
_atom_site_label
_atom_site_fract_x
_atom_site_fract_y
_atom_site_fract_z
Si Si1 0.888004 0.569905 0.561717
Si Si2 0.579771 0.069195 0.592220
Si Si3 0.761238 0.068869 0.175962
Si Si4 0.256856 0.929526 0.171814
Si Si5 0.390137 0.930635 0.571535
Si Si6 0.409407 0.428579 0.089087
O O1 0.882481 0.750000 0.545935
O O2 0.814411 0.531732 0.618933
O O3 0.878500 0.478956 0.489048
O O4 0.986176 0.540937 0.591120
O O5 0.573278 0.250000 0.599882
O O6 0.614002 0.036241 0.512425
O O7 0.648051 0.000501 0.647369
O O8 0.483679 0.995206 0.597519
O O9 0.768119 0.250000 0.180501
O O10 0.738752 0.001523 0.252034
O O11 0.250778 0.750000 0.175131
O O12 0.188088 0.993494 0.114698
O O13 0.353156 0.980697 0.145799
O O14 0.387398 0.750000 0.580559
O O15 0.394837 0.250000 0.098635
#
# Coordination Sequence:
#
# PCOD9464969 Si02
#       6
#     8   8   8   8   8   8
#     4   9  20  38  61  87 113 146 189 236 283 335
#     4  10  21  38  61  89 117 148 190 238 288 342
#     4  11  23  39  58  82 116 155 194 236 287 345
#     4  12  25  39  56  82 118 155 194 240 289 342
#     4  10  21  39  63  88 115 150 192 237 286 342
#     4  10  20  37  61  87 115 148 189 235 285 342
#
# _framework density 18.872084999999998
#
# number of rings (size 3 to 8) (size 9 to 14) (size 15 to 20)
#    0.000    1.667    0.000    4.500    0.000    8.000 
#    0.000    5.000    0.000    0.000    0.000    0.000 
#    0.000    0.000    0.000    0.000    0.000    0.000 
#
# Total GULP energy -268378.622732 kJ/mol
# GULP energy per Si atom -5591.221307 kJ/mol
# Density = 1.882913 g / cm^3
# Si number density = 18.872085 Si / 1000 Ang^3
#
#
#
# Elastic Constant Matrix: (Units=GPa)
#
#
# Indices 1 2 3 4 5 6 
#
# 1 38.4723 13.9583 8.4939 0.0000 0.0000 0.0000
# 2 13.9583 55.0901 14.5653 0.0000 0.0000 0.0000
# 3 8.4939 14.5653 21.1837 0.0000 0.0000 0.0000
# 4 0.0000 0.0000 0.0000 34.5513 0.0000 0.0000
# 5 0.0000 0.0000 0.0000 0.0000 4.1355 0.0000
# 6 0.0000 0.0000 0.0000 0.0000 0.0000 31.7040
#
#
#
# Elastic Compliance Matrix: (Units=1/GPa)
#
#
# Indices 1 2 3 4 5 6 
#
# 1 0.029758 -0.005359 -0.008247 0.000000 0.000000 0.000000
# 2 -0.005359 0.023150 -0.013768 0.000000 0.000000 0.000000
# 3 -0.008247 -0.013768 0.059980 0.000000 0.000000 0.000000
# 4 0.000000 0.000000 0.000000 0.028942 0.000000 0.000000
# 5 0.000000 0.000000 0.000000 0.000000 0.241809 0.000000
# 6 0.000000 0.000000 0.000000 0.000000 0.000000 0.031542
#
#
# Mechanical properties :
#
#
# Convention : Reuss Voigt Hill
#
# Bulk Modulus (GPa) = 17.20042 20.97570 19.08806
# Shear Modulus (GPa) = 10.21847 19.26008 14.73927
#
# Velocity S-wave (km/s) = 2.32945 3.19808 2.79769
# Velocity P-wave (km/s) = 4.04588 4.97753 4.53569
#
# Compressibility (1/GPa) = 0.05813810
#
# Stress axis : x y z
#
# Youngs Moduli (GPa) = 33.60447 43.19601 16.67234
#
# Poissons Ratio (x) = 0.23151 0.13750
# Poissons Ratio (y) = 0.18010 0.22955
# Poissons Ratio (z) = 0.27713 0.59474
#
# Static dielectric constant tensor:
#      x y z
#    x 1.639360 0.000000 0.000000 
#    y 0.000000 1.623880 0.000000 
#    z 0.000000 0.000000 1.627990 
# 
# From -- ./inp_files/23705.got.cif
#   From: 2010.05.17/outbox.cif.g08.bks.cpg/sg62_12_cif.got.tgz:23705.got - 2010.06.03 15:25:27.
