data_PCOD9464222
_publ_section_title
;
Structure prediction by ZEFSAII (Michael W. Deem and Ramdas Pophale) SiO2 
 PCOD9464222
Probable space group: P N M A
;
_chemical_formula_sum "Si O2"
_cell_formula_units_Z 64
_cell_length_a 9.649974
_cell_length_b 22.179303
_cell_length_c 18.164490
_cell_angle_alpha 90.000000
_cell_angle_beta 90.000000
_cell_angle_gamma 90.000000
_cell_volume 3887.740296
_symmetry_space_group_name_H-M "P N M A"
_symmetry_group_IT_number 62
_symmetry_cell_setting 'orthorhombic'
loop_
_space_group_symop_operation_xyz
x,y,z
1/2-x,-y,1/2+z
1/2+x,1/2-y,1/2-z
-x,1/2+y,-z
-x,-y,-z
1/2+x,y,1/2-z
1/2-x,1/2+y,1/2+z
x,1/2-y,z
loop_
_atom_site_type_symbol
_atom_site_label
_atom_site_fract_x
_atom_site_fract_y
_atom_site_fract_z
Si Si1 0.697627 0.539749 0.324379
Si Si2 0.915514 0.320032 0.307448
Si Si3 0.370302 0.920573 0.041692
Si Si4 0.679715 0.955445 0.042217
Si Si5 0.787834 0.906395 0.891134
Si Si6 0.870508 0.528440 0.179350
Si Si7 0.165730 0.320110 0.423902
Si Si8 0.585107 0.612566 0.656170
O O1 0.764184 0.578127 0.390581
O O2 0.723515 0.470136 0.348580
O O3 0.781528 0.549454 0.249315
O O4 0.532026 0.547174 0.316727
O O5 0.882981 0.250000 0.293409
O O6 0.789123 0.355291 0.344984
O O7 0.951960 0.353393 0.231737
O O8 0.041152 0.323850 0.365084
O O9 0.525888 0.936888 0.067807
O O10 0.369178 0.859356 0.995613
O O11 0.328676 0.975301 0.986289
O O12 0.793554 0.950042 0.105481
O O13 0.720216 0.916526 0.970671
O O14 0.950001 0.892388 0.894700
O O15 0.868842 0.455322 0.175914
O O16 0.190165 0.250000 0.440555
O O17 0.296531 0.350734 0.384815
#
# Coordination Sequence:
#
# PCOD9464222 Si02
#       8
#     8   8   8   8   8   8   8   8
#     4  10  22  33  56  84 112 141 179 222 284 332
#     4  11  22  37  53  75 109 155 200 224 260 319
#     4  10  20  36  56  78 108 148 183 231 280 327
#     4  10  20  34  57  78 110 146 185 227 281 328
#     4  10  21  35  53  78 109 152 187 227 273 317
#     4  11  21  34  55  86 114 144 178 224 279 339
#     4  11  23  37  55  79 108 151 195 230 272 321
#     4  11  22  32  53  77 118 147 187 226 266 318
#
# _framework density 16.462005000000001
#
# number of rings (size 3 to 8) (size 9 to 14) (size 15 to 20)
#    0.000    1.500    3.750    1.875    3.500    3.500 
#    0.000    0.000    0.000    0.000    0.000    4.375 
#    0.000    0.000    0.000    0.000    0.000    0.000 
#
# Total GULP energy -357339.069019 kJ/mol
# GULP energy per Si atom -5583.422953 kJ/mol
# Density = 1.642454 g / cm^3
# Si number density = 16.462005 Si / 1000 Ang^3
#
#
#
# Elastic Constant Matrix: (Units=GPa)
#
#
# Indices 1 2 3 4 5 6 
#
# 1 90.6776 10.3815 44.4076 0.0000 0.0000 0.0000
# 2 10.3815 48.7340 17.0920 0.0000 0.0000 0.0000
# 3 44.4076 17.0920 70.9693 0.0000 0.0000 0.0000
# 4 0.0000 0.0000 0.0000 19.6796 0.0000 0.0000
# 5 0.0000 0.0000 0.0000 0.0000 31.2727 0.0000
# 6 0.0000 0.0000 0.0000 0.0000 0.0000 17.4764
#
#
#
# Elastic Compliance Matrix: (Units=1/GPa)
#
#
# Indices 1 2 3 4 5 6 
#
# 1 0.015901 0.000112 -0.009977 0.000000 0.000000 0.000000
# 2 0.000112 0.022413 -0.005468 0.000000 0.000000 0.000000
# 3 -0.009977 -0.005468 0.021650 0.000000 0.000000 0.000000
# 4 0.000000 0.000000 0.000000 0.050814 0.000000 0.000000
# 5 0.000000 0.000000 0.000000 0.000000 0.031977 0.000000
# 6 0.000000 0.000000 0.000000 0.000000 0.000000 0.057220
#
#
# Mechanical properties :
#
#
# Convention : Reuss Voigt Hill
#
# Bulk Modulus (GPa) = 34.13083 39.34924 36.74003
# Shear Modulus (GPa) = 20.79799 22.91907 21.85853
#
# Velocity S-wave (km/s) = 3.55828 3.73532 3.64788
# Velocity P-wave (km/s) = 6.13677 6.52369 6.33318
#
# Compressibility (1/GPa) = 0.02929903
#
# Stress axis : x y z
#
# Youngs Moduli (GPa) = 62.88820 44.61607 46.18885
#
# Poissons Ratio (x) = -0.00498 0.46082
# Poissons Ratio (y) = -0.00703 0.25255
# Poissons Ratio (z) = 0.62742 0.24395
#
# Static dielectric constant tensor:
#      x y z
#    x 1.563500 0.000000 0.000000 
#    y 0.000000 1.528750 0.000000 
#    z 0.000000 0.000000 1.538170 
# 
# From -- ./inp_files/22545.got.cif
#   From: 2010.05.17/outbox.cif.g08.bks.cpg/sg62_12_cif.got.tgz:22545.got - 2010.06.03 15:25:27.
