data_PCOD9464007
_publ_section_title
;
Structure prediction by ZEFSAII (Michael W. Deem and Ramdas Pophale) SiO2 
 PCOD9464007
Probable space group: P N M A
;
_chemical_formula_sum "Si O2"
_cell_formula_units_Z 48
_cell_length_a 17.074829
_cell_length_b 12.976235
_cell_length_c 8.978801
_cell_angle_alpha 90.000000
_cell_angle_beta 90.000000
_cell_angle_gamma 90.000000
_cell_volume 1989.405945
_symmetry_space_group_name_H-M "P N M A"
_symmetry_group_IT_number 62
_symmetry_cell_setting 'orthorhombic'
loop_
_space_group_symop_operation_xyz
x,y,z
1/2-x,-y,1/2+z
1/2+x,1/2-y,1/2-z
-x,1/2+y,-z
-x,-y,-z
1/2+x,y,1/2-z
1/2-x,1/2+y,1/2+z
x,1/2-y,z
loop_
_atom_site_type_symbol
_atom_site_label
_atom_site_fract_x
_atom_site_fract_y
_atom_site_fract_z
Si Si1 0.294011 0.132898 0.146081
Si Si2 0.290560 0.021476 0.867535
Si Si3 0.081852 0.365844 0.918947
Si Si4 0.981467 0.366380 0.356292
Si Si5 0.114589 0.366227 0.576201
Si Si6 0.071756 0.967028 0.156884
O O1 0.274303 0.250000 0.189599
O O2 0.262807 0.050660 0.264804
O O3 0.388482 0.124752 0.134752
O O4 0.260985 0.108502 0.980689
O O5 0.356457 0.068032 0.758007
O O6 0.333009 0.942997 0.982106
O O7 0.098161 0.250000 0.974080
O O8 0.115747 0.377535 0.752787
O O9 0.987296 0.380229 0.899204
O O10 0.103074 0.462336 0.022329
O O11 0.999447 0.250000 0.303044
O O12 0.025640 0.377587 0.514576
O O13 0.019606 0.450878 0.250237
O O14 0.139456 0.250000 0.541008
#
# Coordination Sequence:
#
# PCOD9464007 Si02
#       6
#     8   8   8   8   8   8
#     4  11  25  44  65  91 125 165 209 259 315 372
#     4  11  24  42  63  88 124 166 210 256 309 368
#     4  10  20  33  56  91 124 154 197 253 308 363
#     4   9  18  36  62  90 120 155 198 250 308 368
#     4   9  18  36  64  94 123 159 203 250 304 369
#     4  10  21  37  60  89 120 157 201 251 306 365
#
# _framework density 24.127807000000001
#
# number of rings (size 3 to 8) (size 9 to 14) (size 15 to 20)
#    0.000    2.000    0.000    3.000    0.000   10.667 
#    0.000    3.333    0.000    0.000    0.000    0.000 
#    0.000    0.000    0.000    0.000    0.000    0.000 
#
# Total GULP energy -268732.313799 kJ/mol
# GULP energy per Si atom -5598.589871 kJ/mol
# Density = 2.407289 g / cm^3
# Si number density = 24.127807 Si / 1000 Ang^3
#
#
#
# Elastic Constant Matrix: (Units=GPa)
#
#
# Indices 1 2 3 4 5 6 
#
# 1 63.5151 9.1755 13.5639 0.0000 0.0000 0.0000
# 2 9.1755 77.8543 -2.0569 0.0000 0.0000 0.0000
# 3 13.5639 -2.0569 89.2633 0.0000 0.0000 0.0000
# 4 0.0000 0.0000 0.0000 25.3607 0.0000 0.0000
# 5 0.0000 0.0000 0.0000 0.0000 32.4313 0.0000
# 6 0.0000 0.0000 0.0000 0.0000 0.0000 29.4694
#
#
#
# Elastic Compliance Matrix: (Units=1/GPa)
#
#
# Indices 1 2 3 4 5 6 
#
# 1 0.016585 -0.002022 -0.002567 0.000000 0.000000 0.000000
# 2 -0.002022 0.013099 0.000609 0.000000 0.000000 0.000000
# 3 -0.002567 0.000609 0.011607 0.000000 0.000000 0.000000
# 4 0.000000 0.000000 0.000000 0.039431 0.000000 0.000000
# 5 0.000000 0.000000 0.000000 0.000000 0.030834 0.000000
# 6 0.000000 0.000000 0.000000 0.000000 0.000000 0.033934
#
#
# Mechanical properties :
#
#
# Convention : Reuss Voigt Hill
#
# Bulk Modulus (GPa) = 30.00251 30.22196 30.11223
# Shear Modulus (GPa) = 30.38416 31.44896 30.91656
#
# Velocity S-wave (km/s) = 3.55251 3.61422 3.58350
# Velocity P-wave (km/s) = 5.41193 5.47447 5.44329
#
# Compressibility (1/GPa) = 0.03333055
#
# Stress axis : x y z
#
# Youngs Moduli (GPa) = 60.29704 76.34207 86.15593
#
# Poissons Ratio (x) = 0.15439 0.22113
# Poissons Ratio (y) = 0.12194 -0.05248
# Poissons Ratio (z) = 0.15476 -0.04650
#
# Static dielectric constant tensor:
#      x y z
#    x 1.978030 0.000000 0.000000 
#    y 0.000000 1.916150 0.000000 
#    z 0.000000 0.000000 1.928340 
# 
# From -- ./inp_files/7611.got.cif
#   From: 2010.05.17/outbox.cif.g08.bks.cpg/sg62_4_cif.got.tgz:7611.got - 2010.06.03 15:25:27.
