data_PCOD9464943
_publ_section_title
;
Structure prediction by ZEFSAII (Michael W. Deem and Ramdas Pophale) SiO2 
 PCOD9464943
Probable space group: P N M A
;
_chemical_formula_sum "Si O2"
_cell_formula_units_Z 40
_cell_length_a 9.503372
_cell_length_b 15.459379
_cell_length_c 13.815576
_cell_angle_alpha 90.000000
_cell_angle_beta 90.000000
_cell_angle_gamma 90.000000
_cell_volume 2029.732335
_symmetry_space_group_name_H-M "P N M A"
_symmetry_group_IT_number 62
_symmetry_cell_setting 'orthorhombic'
loop_
_space_group_symop_operation_xyz
x,y,z
1/2-x,-y,1/2+z
1/2+x,1/2-y,1/2-z
-x,1/2+y,-z
-x,-y,-z
1/2+x,y,1/2-z
1/2-x,1/2+y,1/2+z
x,1/2-y,z
loop_
_atom_site_type_symbol
_atom_site_label
_atom_site_fract_x
_atom_site_fract_y
_atom_site_fract_z
Si Si1 0.374506 0.655002 0.373916
Si Si2 0.951259 0.150336 0.069589
Si Si3 0.559240 0.500218 0.297661
Si Si4 0.091889 0.926417 0.401291
Si Si5 0.709217 0.441742 0.947873
O O1 0.416684 0.750000 0.338283
O O2 0.431450 0.647323 0.484228
O O3 0.448022 0.576891 0.318288
O O4 0.207547 0.642945 0.370444
O O5 0.932507 0.250000 0.098577
O O6 0.812207 0.111937 0.017880
O O7 0.999508 0.087138 0.155336
O O8 0.584765 0.501758 0.183770
O O9 0.698552 0.528305 0.356531
O O10 0.934303 0.893589 0.418963
O O11 0.154170 0.973946 0.495219
#
# Coordination Sequence:
#
# PCOD9464943 Si02
#       5
#     8   8   8   8   8
#     4  10  20  37  60  87 119 157 198 246 301 357
#     4  10  20  39  64  85 116 163 206 243 295 361
#     4  11  20  39  62  87 121 160 201 241 296 363
#     4  11  21  35  61  89 121 154 195 251 300 348
#     4  10  21  37  59  88 117 156 198 245 301 349
#
# _framework density 19.707032000000002
#
# number of rings (size 3 to 8) (size 9 to 14) (size 15 to 20)
#    0.000    1.600    4.000    2.400    0.000    1.600 
#    0.000    5.000    0.000    1.200    0.000    0.000 
#    0.000    0.000    0.000    0.000    0.000    0.000 
#
# Total GULP energy -223304.198864 kJ/mol
# GULP energy per Si atom -5582.604972 kJ/mol
# Density = 1.966218 g / cm^3
# Si number density = 19.707032 Si / 1000 Ang^3
#
#
#
# Elastic Constant Matrix: (Units=GPa)
#
#
# Indices 1 2 3 4 5 6 
#
# 1 145.5861 28.0503 18.6747 0.0000 0.0000 0.0000
# 2 28.0503 68.4747 -2.1187 0.0000 0.0000 0.0000
# 3 18.6747 -2.1187 49.5361 0.0000 0.0000 0.0000
# 4 0.0000 0.0000 0.0000 4.0474 0.0000 0.0000
# 5 0.0000 0.0000 0.0000 0.0000 18.5474 0.0000
# 6 0.0000 0.0000 0.0000 0.0000 0.0000 11.3494
#
#
#
# Elastic Compliance Matrix: (Units=1/GPa)
#
#
# Indices 1 2 3 4 5 6 
#
# 1 0.007913 -0.003338 -0.003126 0.000000 0.000000 0.000000
# 2 -0.003338 0.016032 0.001944 0.000000 0.000000 0.000000
# 3 -0.003126 0.001944 0.021449 0.000000 0.000000 0.000000
# 4 0.000000 0.000000 0.000000 0.247071 0.000000 0.000000
# 5 0.000000 0.000000 0.000000 0.000000 0.053916 0.000000
# 6 0.000000 0.000000 0.000000 0.000000 0.000000 0.088110
#
#
# Mechanical properties :
#
#
# Convention : Reuss Voigt Hill
#
# Bulk Modulus (GPa) = 27.50766 39.20105 33.35436
# Shear Modulus (GPa) = 10.97337 21.38820 16.18078
#
# Velocity S-wave (km/s) = 2.36227 3.29798 2.86853
# Velocity P-wave (km/s) = 4.62915 5.86833 5.28518
#
# Compressibility (1/GPa) = 0.03635351
#
# Stress axis : x y z
#
# Youngs Moduli (GPa) = 126.37539 62.37692 46.62244
#
# Poissons Ratio (x) = 0.20823 0.14574
# Poissons Ratio (y) = 0.42187 -0.09064
# Poissons Ratio (z) = 0.39504 -0.12127
#
# Static dielectric constant tensor:
#      x y z
#    x 1.728750 0.000000 0.000000 
#    y 0.000000 1.670860 0.000000 
#    z 0.000000 0.000000 1.695010 
# 
# From -- ./inp_files/16644.got.cif
#   From: 2010.05.17/outbox.cif.g08.bks.cpg/sg62_9_cif.got.tgz:16644.got - 2010.06.03 15:25:27.
