data_PCOD9464913
_publ_section_title
;
Structure prediction by ZEFSAII (Michael W. Deem and Ramdas Pophale) SiO2 
 PCOD9464913
Probable space group: P N M A
;
_chemical_formula_sum "Si O2"
_cell_formula_units_Z 64
_cell_length_a 15.613215
_cell_length_b 12.626937
_cell_length_c 17.771377
_cell_angle_alpha 90.000000
_cell_angle_beta 90.000000
_cell_angle_gamma 90.000000
_cell_volume 3503.575122
_symmetry_space_group_name_H-M "P N M A"
_symmetry_group_IT_number 62
_symmetry_cell_setting 'orthorhombic'
loop_
_space_group_symop_operation_xyz
x,y,z
1/2-x,-y,1/2+z
1/2+x,1/2-y,1/2-z
-x,1/2+y,-z
-x,-y,-z
1/2+x,y,1/2-z
1/2-x,1/2+y,1/2+z
x,1/2-y,z
loop_
_atom_site_type_symbol
_atom_site_label
_atom_site_fract_x
_atom_site_fract_y
_atom_site_fract_z
Si Si1 0.389346 0.874419 0.302731
Si Si2 0.287087 0.469258 0.047139
Si Si3 0.698968 0.631268 0.565372
Si Si4 0.898537 0.373975 0.584850
Si Si5 0.911291 0.872257 0.370386
Si Si6 0.480450 0.466657 0.414480
Si Si7 0.714933 0.009324 0.194335
Si Si8 0.653333 0.126269 0.343496
O O1 0.380567 0.750000 0.320565
O O2 0.427833 0.884397 0.218793
O O3 0.446253 0.934829 0.364485
O O4 0.296774 0.931323 0.298899
O O5 0.341083 0.545250 0.101820
O O6 0.226490 0.391920 0.093837
O O7 0.227908 0.544854 0.995662
O O8 0.351752 0.408871 0.991559
O O9 0.715865 0.750000 0.539469
O O10 0.599278 0.614026 0.583151
O O11 0.752701 0.603488 0.639979
O O12 0.882441 0.250000 0.599212
O O13 0.857838 0.444462 0.650693
O O14 0.000509 0.389422 0.584838
O O15 0.883429 0.750000 0.382058
O O16 0.500000 0.500000 0.500000
O O17 0.564031 0.416476 0.376703
O O18 0.681567 0.056765 0.271899
O O19 0.646464 0.250000 0.324359
#
# Coordination Sequence:
#
# PCOD9464913 Si02
#       8
#     8   8   8   8   8   8   8   8
#     4  10  21  38  63  89 121 159 200 251 309 363
#     4  11  21  38  59  88 120 155 201 251 300 366
#     4  10  21  39  60  84 118 160 202 251 309 361
#     4  10  21  37  60  87 117 155 196 246 304 359
#     4  10  20  37  59  87 120 154 195 249 306 361
#     4  11  23  41  58  91 123 162 205 256 305 365
#     4  10  21  39  61  86 122 154 205 249 301 364
#     4  12  24  40  61  86 121 162 205 252 306 368
#
# _framework density 18.267056
#
# number of rings (size 3 to 8) (size 9 to 14) (size 15 to 20)
#    0.000    1.500    2.500    3.000    0.000    1.000 
#    0.000    0.625    0.000    3.000    0.000    0.000 
#    0.000    0.000    0.000    0.000    0.000    0.000 
#
# Total GULP energy -357440.745363 kJ/mol
# GULP energy per Si atom -5585.011646 kJ/mol
# Density = 1.822548 g / cm^3
# Si number density = 18.267056 Si / 1000 Ang^3
#
#
#
# Elastic Constant Matrix: (Units=GPa)
#
#
# Indices 1 2 3 4 5 6 
#
# 1 86.1118 39.9817 29.2616 0.0000 0.0000 0.0000
# 2 39.9817 91.2089 29.5335 0.0000 0.0000 0.0000
# 3 29.2616 29.5335 90.4347 0.0000 0.0000 0.0000
# 4 0.0000 0.0000 0.0000 18.5437 0.0000 0.0000
# 5 0.0000 0.0000 0.0000 0.0000 27.0241 0.0000
# 6 0.0000 0.0000 0.0000 0.0000 0.0000 17.3453
#
#
#
# Elastic Compliance Matrix: (Units=1/GPa)
#
#
# Indices 1 2 3 4 5 6 
#
# 1 0.015315 -0.005713 -0.003090 0.000000 0.000000 0.000000
# 2 -0.005713 0.014391 -0.002851 0.000000 0.000000 0.000000
# 3 -0.003090 -0.002851 0.012989 0.000000 0.000000 0.000000
# 4 0.000000 0.000000 0.000000 0.053927 0.000000 0.000000
# 5 0.000000 0.000000 0.000000 0.000000 0.037004 0.000000
# 6 0.000000 0.000000 0.000000 0.000000 0.000000 0.057653
#
#
# Mechanical properties :
#
#
# Convention : Reuss Voigt Hill
#
# Bulk Modulus (GPa) = 51.58074 51.70101 51.64087
# Shear Modulus (GPa) = 22.61940 23.84786 23.23363
#
# Velocity S-wave (km/s) = 3.52271 3.61711 3.57022
# Velocity P-wave (km/s) = 6.69659 6.76823 6.73251
#
# Compressibility (1/GPa) = 0.01938708
#
# Stress axis : x y z
#
# Youngs Moduli (GPa) = 65.29414 69.48584 76.99047
#
# Poissons Ratio (x) = 0.39697 0.23788
# Poissons Ratio (y) = 0.37303 0.21952
# Poissons Ratio (z) = 0.20175 0.19813
#
# Static dielectric constant tensor:
#      x y z
#    x 1.614750 0.000000 0.000000 
#    y 0.000000 1.601040 0.000000 
#    z 0.000000 0.000000 1.619140 
# 
# From -- ./inp_files/24010.got.cif
#   From: 2010.05.17/outbox.cif.g08.bks.cpg/sg62_13_cif.got.tgz:24010.got - 2010.06.03 15:25:27.
