data_PCOD9464926
_publ_section_title
;
Structure prediction by ZEFSAII (Michael W. Deem and Ramdas Pophale) SiO2 
 PCOD9464926
Probable space group: P N M A
;
_chemical_formula_sum "Si O2"
_cell_formula_units_Z 48
_cell_length_a 15.252059
_cell_length_b 8.516468
_cell_length_c 19.093379
_cell_angle_alpha 90.000000
_cell_angle_beta 90.000000
_cell_angle_gamma 90.000000
_cell_volume 2480.109117
_symmetry_space_group_name_H-M "P N M A"
_symmetry_group_IT_number 62
_symmetry_cell_setting 'orthorhombic'
loop_
_space_group_symop_operation_xyz
x,y,z
1/2-x,-y,1/2+z
1/2+x,1/2-y,1/2-z
-x,1/2+y,-z
-x,-y,-z
1/2+x,y,1/2-z
1/2-x,1/2+y,1/2+z
x,1/2-y,z
loop_
_atom_site_type_symbol
_atom_site_label
_atom_site_fract_x
_atom_site_fract_y
_atom_site_fract_z
Si Si1 0.400896 0.937773 0.146861
Si Si2 0.233656 0.440225 0.924119
Si Si3 0.595066 0.435765 0.146027
Si Si4 0.730325 0.063478 0.418183
Si Si5 0.603433 0.562737 0.299566
Si Si6 0.096939 0.059681 0.807183
O O1 0.391256 0.750000 0.142403
O O2 0.381378 0.987699 0.227533
O O3 0.501271 0.983520 0.132519
O O4 0.330947 0.019617 0.097222
O O5 0.236869 0.250000 0.921554
O O6 0.329022 0.504371 0.904766
O O7 0.164387 0.496513 0.865700
O O8 0.207443 0.485848 0.002751
O O9 0.584751 0.250000 0.140658
O O10 0.622625 0.482034 0.225290
O O11 0.718551 0.250000 0.412275
O O12 0.671019 0.981554 0.359709
O O13 0.604749 0.750000 0.287743
O O14 0.504166 0.515694 0.320556
O O15 0.100161 0.250000 0.807954
#
# Coordination Sequence:
#
# PCOD9464926 Si02
#       6
#     8   8   8   8   8   8
#     4  10  20  37  61  83 108 147 191 233 283 343
#     4  10  21  38  57  80 115 153 188 229 282 342
#     4  11  22  37  59  86 113 141 185 241 288 335
#     4  11  23  36  54  84 118 150 186 233 284 333
#     4  10  20  37  60  83 111 149 191 231 278 338
#     4   8  17  35  59  82 103 140 189 229 269 325
#
# _framework density 19.353987
#
# number of rings (size 3 to 8) (size 9 to 14) (size 15 to 20)
#    0.000    2.000    0.000    5.000    0.000    4.000 
#    0.000    4.167    0.000    0.000    0.000    0.000 
#    0.000    0.000    0.000    0.000    0.000    0.000 
#
# Total GULP energy -268159.866993 kJ/mol
# GULP energy per Si atom -5586.663896 kJ/mol
# Density = 1.930994 g / cm^3
# Si number density = 19.353987 Si / 1000 Ang^3
#
#
#
# Elastic Constant Matrix: (Units=GPa)
#
#
# Indices 1 2 3 4 5 6 
#
# 1 30.7341 -5.2557 6.5354 0.0000 0.0000 0.0000
# 2 -5.2557 23.5716 2.8919 0.0000 0.0000 0.0000
# 3 6.5354 2.8919 18.9193 0.0000 0.0000 0.0000
# 4 0.0000 0.0000 0.0000 17.4860 0.0000 0.0000
# 5 0.0000 0.0000 0.0000 0.0000 -0.2360 0.0000
# 6 0.0000 0.0000 0.0000 0.0000 0.0000 25.7398
#
#
#
# Elastic Compliance Matrix: (Units=1/GPa)
#
#
# Indices 1 2 3 4 5 6 
#
# 1 0.037334 0.010096 -0.014440 0.000000 0.000000 0.000000
# 2 0.010096 0.045965 -0.010513 0.000000 0.000000 0.000000
# 3 -0.014440 -0.010513 0.059451 0.000000 0.000000 0.000000
# 4 0.000000 0.000000 0.000000 0.057189 0.000000 0.000000
# 5 0.000000 0.000000 0.000000 0.000000 -4.236920 0.000000
# 6 0.000000 0.000000 0.000000 0.000000 0.000000 0.038850
#
#
# Mechanical properties :
#
#
# Convention : Reuss Voigt Hill
#
# Bulk Modulus (GPa) = 8.84679 9.06314 8.95496
# Shear Modulus (GPa) = -1.27203 13.20152 5.96475
#
# Velocity S-wave (km/s) = -0.81158 2.61455 1.75744
# Velocity P-wave (km/s) = 1.92425 3.71585 2.95891
#
# Compressibility (1/GPa) = 0.11303540
#
# Stress axis : x y z
#
# Youngs Moduli (GPa) = 26.78518 21.75574 16.82054
#
# Poissons Ratio (x) = -0.21964 0.24288
# Poissons Ratio (y) = -0.27042 0.17684
# Poissons Ratio (z) = 0.38677 0.22873
#
# Static dielectric constant tensor:
#      x y z
#    x 1.661510 0.000000 0.000000 
#    y 0.000000 1.653930 0.000000 
#    z 0.000000 0.000000 1.668060 
# 
# From -- ./inp_files/23644.got.cif
#   From: 2010.05.17/outbox.cif.g08.bks.cpg/sg62_12_cif.got.tgz:23644.got - 2010.06.03 15:25:27.
