data_PCOD9464600
_publ_section_title
;
Structure prediction by ZEFSAII (Michael W. Deem and Ramdas Pophale) SiO2 
 PCOD9464600
Probable space group: P N M A
;
_chemical_formula_sum "Si O2"
_cell_formula_units_Z 56
_cell_length_a 20.154905
_cell_length_b 7.356741
_cell_length_c 14.189671
_cell_angle_alpha 90.000000
_cell_angle_beta 90.000000
_cell_angle_gamma 90.000000
_cell_volume 2103.965180
_symmetry_space_group_name_H-M "P N M A"
_symmetry_group_IT_number 62
_symmetry_cell_setting 'orthorhombic'
loop_
_space_group_symop_operation_xyz
x,y,z
1/2-x,-y,1/2+z
1/2+x,1/2-y,1/2-z
-x,1/2+y,-z
-x,-y,-z
1/2+x,y,1/2-z
1/2-x,1/2+y,1/2+z
x,1/2-y,z
loop_
_atom_site_type_symbol
_atom_site_label
_atom_site_fract_x
_atom_site_fract_y
_atom_site_fract_z
Si Si1 0.708945 0.029114 0.723777
Si Si2 0.921245 0.971465 0.105462
Si Si3 0.353392 0.528315 0.574500
Si Si4 0.208818 0.541255 0.553863
Si Si5 0.646443 0.956487 0.205341
Si Si6 0.991540 0.462482 0.734214
Si Si7 0.932346 0.034795 0.444606
O O1 0.711442 0.250000 0.726936
O O2 0.645717 0.977500 0.662212
O O3 0.780784 0.967271 0.683896
O O4 0.703694 0.964009 0.831678
O O5 0.923776 0.750000 0.106014
O O6 0.910284 0.028869 0.998142
O O7 0.982995 0.039505 0.167020
O O8 0.352936 0.750000 0.580336
O O9 0.281778 0.466482 0.534067
O O10 0.356891 0.456492 0.680034
O O11 0.212722 0.750000 0.522373
O O12 0.138598 0.461854 0.519457
O O13 0.645717 0.750000 0.168271
O O14 0.574529 0.042602 0.186364
O O15 0.977145 0.250000 0.748331
O O16 0.051621 0.470822 0.660762
O O17 0.923899 0.250000 0.441328
O O18 0.000000 0.000000 0.500000
#
# Coordination Sequence:
#
# PCOD9464600 Si02
#       7
#     8   8   8   8   8   8   8
#     4   9  16  30  53  74  96 134 178 216 259 318
#     4   9  17  30  52  77 100 136 181 215 256 316
#     4   9  18  33  53  77 105 139 179 220 264 314
#     4   9  18  33  52  74 101 132 171 219 265 309
#     4   9  19  33  51  77 108 139 175 219 268 314
#     4  10  20  36  55  77 107 142 178 221 267 317
#     4  11  23  37  55  80 108 141 178 220 273 325
#
# _framework density 26.616409999999998
#
# number of rings (size 3 to 8) (size 9 to 14) (size 15 to 20)
#    0.000    2.571    1.429    0.429    0.000    2.857 
#    0.000    5.714    0.000    0.000    0.000    0.000 
#    0.000    0.000    0.000    0.000    0.000    0.000 
#
# Total GULP energy -313057.730618 kJ/mol
# GULP energy per Si atom -5590.316618 kJ/mol
# Density = 2.655583 g / cm^3
# Si number density = 26.616410 Si / 1000 Ang^3
#
#
#
# Elastic Constant Matrix: (Units=GPa)
#
#
# Indices 1 2 3 4 5 6 
#
# 1 118.8303 7.0215 8.0153 0.0000 0.0000 0.0000
# 2 7.0215 114.2302 -4.9387 0.0000 0.0000 0.0000
# 3 8.0153 -4.9387 87.1945 0.0000 0.0000 0.0000
# 4 0.0000 0.0000 0.0000 5.1526 0.0000 0.0000
# 5 0.0000 0.0000 0.0000 0.0000 55.8027 0.0000
# 6 0.0000 0.0000 0.0000 0.0000 0.0000 0.2440
#
#
#
# Elastic Compliance Matrix: (Units=1/GPa)
#
#
# Indices 1 2 3 4 5 6 
#
# 1 0.008503 -0.000558 -0.000813 0.000000 0.000000 0.000000
# 2 -0.000558 0.008812 0.000550 0.000000 0.000000 0.000000
# 3 -0.000813 0.000550 0.011575 0.000000 0.000000 0.000000
# 4 0.000000 0.000000 0.000000 0.194076 0.000000 0.000000
# 5 0.000000 0.000000 0.000000 0.000000 0.017920 0.000000
# 6 0.000000 0.000000 0.000000 0.000000 0.000000 4.097563
#
#
# Mechanical properties :
#
#
# Convention : Reuss Voigt Hill
#
# Bulk Modulus (GPa) = 36.69895 37.82789 37.26342
# Shear Modulus (GPa) = 1.14964 32.91700 17.03332
#
# Velocity S-wave (km/s) = 0.65793 3.52052 2.53248
# Velocity P-wave (km/s) = 3.79410 5.54693 4.75203
#
# Compressibility (1/GPa) = 0.02724874
#
# Stress axis : x y z
#
# Youngs Moduli (GPa) = 117.60309 113.47726 86.39653
#
# Poissons Ratio (x) = 0.06330 0.07026
# Poissons Ratio (y) = 0.06560 -0.04755
# Poissons Ratio (z) = 0.09564 -0.06246
#
# Static dielectric constant tensor:
#      x y z
#    x 2.133590 0.000000 0.000000 
#    y 0.000000 1.991710 0.000000 
#    z 0.000000 0.000000 2.069960 
# 
# From -- ./inp_files/20380.got.cif
#   From: 2010.05.17/outbox.cif.g08.bks.cpg/sg62_11_cif.got.tgz:20380.got - 2010.06.03 15:25:27.
