data_PCOD9464998
_publ_section_title
;
Structure prediction by ZEFSAII (Michael W. Deem and Ramdas Pophale) SiO2 
 PCOD9464998
Probable space group: P N M A
;
_chemical_formula_sum "Si O2"
_cell_formula_units_Z 40
_cell_length_a 15.815542
_cell_length_b 18.462672
_cell_length_c 6.477569
_cell_angle_alpha 90.000000
_cell_angle_beta 90.000000
_cell_angle_gamma 90.000000
_cell_volume 1891.431781
_symmetry_space_group_name_H-M "P N M A"
_symmetry_group_IT_number 62
_symmetry_cell_setting 'orthorhombic'
loop_
_space_group_symop_operation_xyz
x,y,z
1/2-x,-y,1/2+z
1/2+x,1/2-y,1/2-z
-x,1/2+y,-z
-x,-y,-z
1/2+x,y,1/2-z
1/2-x,1/2+y,1/2+z
x,1/2-y,z
loop_
_atom_site_type_symbol
_atom_site_label
_atom_site_fract_x
_atom_site_fract_y
_atom_site_fract_z
Si Si1 0.374549 0.537511 0.394111
Si Si2 0.868076 0.329865 0.982770
Si Si3 0.567703 0.911883 0.863651
Si Si4 0.963612 0.833453 0.303375
Si Si5 0.314395 0.462306 0.763037
O O1 0.397706 0.617500 0.321928
O O2 0.365322 0.523373 0.637244
O O3 0.280681 0.517344 0.316033
O O4 0.440213 0.481304 0.288234
O O5 0.830744 0.250000 0.971047
O O6 0.893673 0.350710 0.214633
O O7 0.811322 0.392704 0.887621
O O8 0.952899 0.331460 0.842458
O O9 0.490128 0.877056 0.989332
O O10 0.633511 0.938328 0.037194
O O11 0.939130 0.750000 0.343180
#
# Coordination Sequence:
#
# PCOD9464998 Si02
#       5
#     8   8   8   8   8
#     4  11  21  37  59  86 118 152 197 243 285 340
#     4   9  20  38  57  84 117 152 191 235 290 352
#     4  10  20  37  62  85 114 154 190 241 289 346
#     4  10  22  38  58  86 117 149 192 240 293 349
#     4  10  21  36  59  84 116 152 196 238 284 343
#
# _framework density 21.147998000000001
#
# number of rings (size 3 to 8) (size 9 to 14) (size 15 to 20)
#    0.000    2.000    2.000    1.200    0.000   10.400 
#    0.000    0.000    0.000    0.000    0.000    0.000 
#    0.000    0.000    0.000    0.000    0.000    0.000 
#
# Total GULP energy -223326.205283 kJ/mol
# GULP energy per Si atom -5583.155132 kJ/mol
# Density = 2.109986 g / cm^3
# Si number density = 21.147998 Si / 1000 Ang^3
#
#
#
# Elastic Constant Matrix: (Units=GPa)
#
#
# Indices 1 2 3 4 5 6 
#
# 1 52.6843 19.2502 13.3855 0.0000 0.0000 0.0000
# 2 19.2502 81.4231 9.5141 0.0000 0.0000 0.0000
# 3 13.3855 9.5141 88.5336 0.0000 0.0000 0.0000
# 4 0.0000 0.0000 0.0000 22.2383 0.0000 0.0000
# 5 0.0000 0.0000 0.0000 0.0000 27.7996 0.0000
# 6 0.0000 0.0000 0.0000 0.0000 0.0000 22.5534
#
#
#
# Elastic Compliance Matrix: (Units=1/GPa)
#
#
# Indices 1 2 3 4 5 6 
#
# 1 0.021407 -0.004742 -0.002727 0.000000 0.000000 0.000000
# 2 -0.004742 0.013488 -0.000733 0.000000 0.000000 0.000000
# 3 -0.002727 -0.000733 0.011786 0.000000 0.000000 0.000000
# 4 0.000000 0.000000 0.000000 0.044968 0.000000 0.000000
# 5 0.000000 0.000000 0.000000 0.000000 0.035972 0.000000
# 6 0.000000 0.000000 0.000000 0.000000 0.000000 0.044339
#
#
# Mechanical properties :
#
#
# Convention : Reuss Voigt Hill
#
# Bulk Modulus (GPa) = 33.02769 34.10452 33.56610
# Shear Modulus (GPa) = 25.19457 26.55101 25.87279
#
# Velocity S-wave (km/s) = 3.45533 3.54713 3.50153
# Velocity P-wave (km/s) = 5.61875 5.73914 5.67927
#
# Compressibility (1/GPa) = 0.03027762
#
# Stress axis : x y z
#
# Youngs Moduli (GPa) = 46.71454 74.13824 84.84542
#
# Poissons Ratio (x) = 0.35159 0.23136
# Poissons Ratio (y) = 0.22154 0.06215
# Poissons Ratio (z) = 0.12738 0.05431
#
# Static dielectric constant tensor:
#      x y z
#    x 1.735130 0.000000 0.000000 
#    y 0.000000 1.767470 0.000000 
#    z 0.000000 0.000000 1.818830 
# 
# From -- ./inp_files/1553.got.cif
#   From: 2010.05.17/outbox.cif.g08.bks.cpg/sg62_1_cif.got.tgz:1553.got - 2010.06.03 15:25:27.
