data_PCOD9464312
_publ_section_title
;
Structure prediction by ZEFSAII (Michael W. Deem and Ramdas Pophale) SiO2 
 PCOD9464312
Probable space group: P N M A
;
_chemical_formula_sum "Si O2"
_cell_formula_units_Z 48
_cell_length_a 31.859934
_cell_length_b 8.295557
_cell_length_c 9.630133
_cell_angle_alpha 90.000000
_cell_angle_beta 90.000000
_cell_angle_gamma 90.000000
_cell_volume 2545.204654
_symmetry_space_group_name_H-M "P N M A"
_symmetry_group_IT_number 62
_symmetry_cell_setting 'orthorhombic'
loop_
_space_group_symop_operation_xyz
x,y,z
1/2-x,-y,1/2+z
1/2+x,1/2-y,1/2-z
-x,1/2+y,-z
-x,-y,-z
1/2+x,y,1/2-z
1/2-x,1/2+y,1/2+z
x,1/2-y,z
loop_
_atom_site_type_symbol
_atom_site_label
_atom_site_fract_x
_atom_site_fract_y
_atom_site_fract_z
Si Si1 0.383032 0.056845 0.411955
Si Si2 0.539098 0.442329 0.408214
Si Si3 0.288708 0.444788 0.410564
Si Si4 0.960317 0.945239 0.589841
Si Si5 0.211829 0.444627 0.596321
Si Si6 0.617670 0.444949 0.904571
O O1 0.384235 0.250000 0.414397
O O2 0.335787 0.002281 0.451831
O O3 0.418286 0.992336 0.514701
O O4 0.390708 0.002160 0.252891
O O5 0.500000 0.500000 0.500000
O O6 0.537356 0.250000 0.402458
O O7 0.537289 0.503161 0.249169
O O8 0.288614 0.250000 0.414378
O O9 0.250404 0.504664 0.504110
O O10 0.282128 0.500719 0.253716
O O11 0.959869 0.750000 0.592217
O O12 0.918102 0.999959 0.510727
O O13 0.000000 0.000000 0.500000
O O14 0.212037 0.250000 0.590947
O O15 0.164809 0.498100 0.554441
O O16 0.617258 0.250000 0.902607
#
# Coordination Sequence:
#
# PCOD9464312 Si02
#       6
#     8   8   8   8   8   8
#     4  10  20  35  54  78 108 140 174 214 261 312
#     4  11  23  38  56  80 107 137 174 214 259 311
#     4   9  19  34  52  77 108 139 174 218 264 310
#     4  10  22  37  54  77 103 132 169 212 257 307
#     4   9  18  33  53  76 103 137 175 214 259 310
#     4   9  18  35  56  76 101 135 175 218 261 306
#
# _framework density 18.858993999999999
#
# number of rings (size 3 to 8) (size 9 to 14) (size 15 to 20)
#    0.000    2.333    0.000    2.000    0.000    7.333 
#    0.000    1.667    0.000    0.000    0.000    0.000 
#    0.000    0.000    0.000    0.000    0.000    0.000 
#
# Total GULP energy -267875.554107 kJ/mol
# GULP energy per Si atom -5580.740711 kJ/mol
# Density = 1.881607 g / cm^3
# Si number density = 18.858994 Si / 1000 Ang^3
#
#
#
# Elastic Constant Matrix: (Units=GPa)
#
#
# Indices 1 2 3 4 5 6 
#
# 1 209.9238 23.0487 140.6817 0.0000 0.0000 0.0000
# 2 23.0487 12.1706 18.2543 0.0000 0.0000 0.0000
# 3 140.6817 18.2543 148.8265 0.0000 0.0000 0.0000
# 4 0.0000 0.0000 0.0000 26.2523 0.0000 0.0000
# 5 0.0000 0.0000 0.0000 0.0000 42.3881 0.0000
# 6 0.0000 0.0000 0.0000 0.0000 0.0000 23.1744
#
#
#
# Elastic Compliance Matrix: (Units=1/GPa)
#
#
# Indices 1 2 3 4 5 6 
#
# 1 0.013594 -0.007930 -0.011877 0.000000 0.000000 0.000000
# 2 -0.007930 0.105315 -0.005422 0.000000 0.000000 0.000000
# 3 -0.011877 -0.005422 0.018612 0.000000 0.000000 0.000000
# 4 0.000000 0.000000 0.000000 0.038092 0.000000 0.000000
# 5 0.000000 0.000000 0.000000 0.000000 0.023592 0.000000
# 6 0.000000 0.000000 0.000000 0.000000 0.000000 0.043151
#
#
# Mechanical properties :
#
#
# Convention : Reuss Voigt Hill
#
# Bulk Modulus (GPa) = 11.48597 81.65448 46.57022
# Shear Modulus (GPa) = 15.53600 30.95871 23.24735
#
# Velocity S-wave (km/s) = 2.87330 4.05605 3.51478
# Velocity P-wave (km/s) = 4.13660 8.08250 6.42021
#
# Compressibility (1/GPa) = 0.08706276
#
# Stress axis : x y z
#
# Youngs Moduli (GPa) = 73.56171 9.49535 53.72980
#
# Poissons Ratio (x) = 0.07530 0.63817
# Poissons Ratio (y) = 0.58333 0.29130
# Poissons Ratio (z) = 0.87372 0.05148
#
# Static dielectric constant tensor:
#      x y z
#    x 1.682310 0.000000 0.000000 
#    y 0.000000 1.661460 0.000000 
#    z 0.000000 0.000000 1.618760 
# 
# From -- ./inp_files/10132.got.cif
#   From: 2010.05.17/outbox.cif.g08.bks.cpg/sg62_6_cif.got.tgz:10132.got - 2010.06.03 15:25:27.
