data_PCOD9464130
_publ_section_title
;
Structure prediction by ZEFSAII (Michael W. Deem and Ramdas Pophale) SiO2 
 PCOD9464130
Probable space group: P N M A
;
_chemical_formula_sum "Si O2"
_cell_formula_units_Z 56
_cell_length_a 13.041895
_cell_length_b 21.817929
_cell_length_c 8.447078
_cell_angle_alpha 90.000000
_cell_angle_beta 90.000000
_cell_angle_gamma 90.000000
_cell_volume 2403.591879
_symmetry_space_group_name_H-M "P N M A"
_symmetry_group_IT_number 62
_symmetry_cell_setting 'orthorhombic'
loop_
_space_group_symop_operation_xyz
x,y,z
1/2-x,-y,1/2+z
1/2+x,1/2-y,1/2-z
-x,1/2+y,-z
-x,-y,-z
1/2+x,y,1/2-z
1/2-x,1/2+y,1/2+z
x,1/2-y,z
loop_
_atom_site_type_symbol
_atom_site_label
_atom_site_fract_x
_atom_site_fract_y
_atom_site_fract_z
Si Si1 0.821488 0.093259 0.848307
Si Si2 0.970726 0.178957 0.998572
Si Si3 0.381082 0.385249 0.205888
Si Si4 0.118917 0.385249 0.794113
Si Si5 0.678512 0.093259 0.151693
Si Si6 0.519293 1.000000 0.250000
Si Si7 0.529274 0.178957 0.001428
O O1 0.890570 0.153832 0.866819
O O2 0.739007 0.099121 0.708027
O O3 0.897784 0.035438 0.858246
O O4 0.750000 0.089719 1.000000
O O5 0.994239 0.250000 0.983025
O O6 0.070210 0.136987 0.959793
O O7 0.913610 0.166074 0.164723
O O8 0.260993 0.400880 0.208028
O O9 0.441859 0.444016 0.275186
O O10 0.429789 0.363013 0.040207
O O11 0.086390 0.333926 0.664723
O O12 0.058141 0.444016 0.724814
O O13 0.609430 0.153832 0.133181
O O14 0.602216 0.035438 0.141754
O O15 0.505760 0.250000 0.016975
#
# Coordination Sequence:
#
# PCOD9464130 Si02
#       7
#     8   8   8   8   8   8   8
#     4   9  20  34  53  78 106 144 179 216 268 324
#     4  10  21  37  56  80 108 142 183 220 263 318
#     4  10  21  36  57  81 108 143 178 222 269 315
#     4  10  21  36  57  81 108 143 178 222 269 315
#     4   9  20  34  53  78 106 144 179 216 268 324
#     4  10  20  34  54  82 110 136 180 226 268 316
#     4  10  21  37  56  80 108 142 183 220 263 318
#
# _framework density 23.298466000000001
#
# number of rings (size 3 to 8) (size 9 to 14) (size 15 to 20)
#    0.000    2.286    0.000    1.714    0.000   18.857 
#    0.000    4.286    0.000    8.571    0.000    0.000 
#    0.000    0.000    0.000    0.000    0.000    0.000 
#
# Total GULP energy -311933.806265 kJ/mol
# GULP energy per Si atom -5570.246540 kJ/mol
# Density = 2.324544 g / cm^3
# Si number density = 23.298466 Si / 1000 Ang^3
#
#
#
# Elastic Constant Matrix: (Units=GPa)
#
#
# Indices 1 2 3 4 5 6 
#
# 1 115.9004 16.6139 -2.8044 0.0000 0.0000 0.0000
# 2 16.6139 125.0622 -5.0961 0.0000 0.0000 0.0000
# 3 -2.8044 -5.0961 28.4006 0.0000 0.0000 0.0000
# 4 0.0000 0.0000 0.0000 15.5809 0.0000 0.0000
# 5 0.0000 0.0000 0.0000 0.0000 41.8066 0.0000
# 6 0.0000 0.0000 0.0000 0.0000 0.0000 12.1681
#
#
#
# Elastic Compliance Matrix: (Units=1/GPa)
#
#
# Indices 1 2 3 4 5 6 
#
# 1 0.008808 -0.001143 0.000665 0.000000 0.000000 0.000000
# 2 -0.001143 0.008203 0.001359 0.000000 0.000000 0.000000
# 3 0.000665 0.001359 0.035520 0.000000 0.000000 0.000000
# 4 0.000000 0.000000 0.000000 0.064181 0.000000 0.000000
# 5 0.000000 0.000000 0.000000 0.000000 0.023920 0.000000
# 6 0.000000 0.000000 0.000000 0.000000 0.000000 0.082182
#
#
# Mechanical properties :
#
#
# Convention : Reuss Voigt Hill
#
# Bulk Modulus (GPa) = 18.41865 31.86555 25.14210
# Shear Modulus (GPa) = 20.90734 31.28775 26.09755
#
# Velocity S-wave (km/s) = 2.99886 3.66855 3.35048
# Velocity P-wave (km/s) = 4.46246 5.62593 5.07763
#
# Compressibility (1/GPa) = 0.05429279
#
# Stress axis : x y z
#
# Youngs Moduli (GPa) = 113.53275 121.90292 28.15310
#
# Poissons Ratio (x) = 0.13934 -0.01871
# Poissons Ratio (y) = 0.12977 -0.03826
# Poissons Ratio (z) = -0.07546 -0.16568
#
# Static dielectric constant tensor:
#      x y z
#    x 1.918580 0.000000 0.000000 
#    y 0.000000 1.827940 0.000000 
#    z 0.000000 0.000000 2.019300 
# 
# From -- ./inp_files/6795.got.cif
#   From: 2010.05.17/outbox.cif.g08.bks.cpg/sg62_4_cif.got.tgz:6795.got - 2010.06.03 15:25:27.
