data_PCOD9464024
_publ_section_title
;
Structure prediction by ZEFSAII (Michael W. Deem and Ramdas Pophale) SiO2 
 PCOD9464024
Probable space group: P N M A
;
_chemical_formula_sum "Si O2"
_cell_formula_units_Z 40
_cell_length_a 10.864283
_cell_length_b 10.740253
_cell_length_c 18.816727
_cell_angle_alpha 90.000000
_cell_angle_beta 90.000000
_cell_angle_gamma 90.000000
_cell_volume 2195.632576
_symmetry_space_group_name_H-M "P N M A"
_symmetry_group_IT_number 62
_symmetry_cell_setting 'orthorhombic'
loop_
_space_group_symop_operation_xyz
x,y,z
1/2-x,-y,1/2+z
1/2+x,1/2-y,1/2-z
-x,1/2+y,-z
-x,-y,-z
1/2+x,y,1/2-z
1/2-x,1/2+y,1/2+z
x,1/2-y,z
loop_
_atom_site_type_symbol
_atom_site_label
_atom_site_fract_x
_atom_site_fract_y
_atom_site_fract_z
Si Si1 0.146965 0.112758 0.951366
Si Si2 0.091438 0.607323 0.523321
Si Si3 0.496115 0.387156 0.400450
Si Si4 0.651636 0.104017 0.257074
Si Si5 0.405690 0.399647 0.189299
O O1 0.127662 0.250000 0.919124
O O2 0.099248 0.999662 0.904109
O O3 0.287346 0.099578 0.975197
O O4 0.070698 0.110694 0.025530
O O5 0.043073 0.750000 0.518014
O O6 0.122514 0.585832 0.606209
O O7 0.000000 0.500000 0.500000
O O8 0.437109 0.250000 0.393664
O O9 0.590480 0.400105 0.335521
O O10 0.666144 0.250000 0.237448
O O11 0.789814 0.051421 0.264694
O O12 0.542046 0.050582 0.208030
O O13 0.410579 0.250000 0.202475
#
# Coordination Sequence:
#
# PCOD9464024 Si02
#       5
#     8   8   8   8   8
#     4   9  17  30  47  69 100 132 160 196 246 294
#     4  10  20  34  51  72 103 136 165 204 254 302
#     4   9  16  28  49  74  97 124 162 203 243 290
#     4   9  16  28  48  73 102 132 165 208 255 301
#     4   9  17  30  48  72 102 133 164 205 256 301
#
# _framework density 18.217986
#
# number of rings (size 3 to 8) (size 9 to 14) (size 15 to 20)
#    0.000    2.800    2.000    0.000    0.000    2.400 
#    0.000    4.000    0.000    1.200    0.000    0.000 
#    0.000    0.000    0.000    0.000    0.000    0.000 
#
# Total GULP energy -222693.258372 kJ/mol
# GULP energy per Si atom -5567.331459 kJ/mol
# Density = 1.817652 g / cm^3
# Si number density = 18.217986 Si / 1000 Ang^3
#
#
#
# Elastic Constant Matrix: (Units=GPa)
#
#
# Indices 1 2 3 4 5 6 
#
# 1 92.3882 46.3429 6.0824 0.0000 0.0000 0.0000
# 2 46.3429 92.5774 10.8610 0.0000 0.0000 0.0000
# 3 6.0824 10.8610 19.1594 0.0000 0.0000 0.0000
# 4 0.0000 0.0000 0.0000 12.3782 0.0000 0.0000
# 5 0.0000 0.0000 0.0000 0.0000 14.9436 0.0000
# 6 0.0000 0.0000 0.0000 0.0000 0.0000 23.9024
#
#
#
# Elastic Compliance Matrix: (Units=1/GPa)
#
#
# Indices 1 2 3 4 5 6 
#
# 1 0.014458 -0.007176 -0.000522 0.000000 0.000000 0.000000
# 2 -0.007176 0.015133 -0.006300 0.000000 0.000000 0.000000
# 3 -0.000522 -0.006300 0.055931 0.000000 0.000000 0.000000
# 4 0.000000 0.000000 0.000000 0.080787 0.000000 0.000000
# 5 0.000000 0.000000 0.000000 0.000000 0.066918 0.000000
# 6 0.000000 0.000000 0.000000 0.000000 0.000000 0.041837
#
#
# Mechanical properties :
#
#
# Convention : Reuss Voigt Hill
#
# Bulk Modulus (GPa) = 17.38376 36.74418 27.06397
# Shear Modulus (GPa) = 15.51655 19.63408 17.57531
#
# Velocity S-wave (km/s) = 2.92158 3.28644 3.10937
# Velocity P-wave (km/s) = 4.57643 5.88336 5.27056
#
# Compressibility (1/GPa) = 0.05752495
#
# Stress axis : x y z
#
# Youngs Moduli (GPa) = 69.16625 66.07969 17.87922
#
# Poissons Ratio (x) = 0.47420 0.00933
# Poissons Ratio (y) = 0.49635 0.11265
# Poissons Ratio (z) = 0.03609 0.41633
#
# Static dielectric constant tensor:
#      x y z
#    x 1.664030 0.000000 0.000000 
#    y 0.000000 1.612580 0.000000 
#    z 0.000000 0.000000 1.638460 
# 
# From -- ./inp_files/21888.got.cif
#   From: 2010.05.17/outbox.cif.g08.bks.cpg/sg62_11_cif.got.tgz:21888.got - 2010.06.03 15:25:27.
