data_PCOD9464783
_publ_section_title
;
Structure prediction by ZEFSAII (Michael W. Deem and Ramdas Pophale) SiO2 
 PCOD9464783
Probable space group: P N M A
;
_chemical_formula_sum "Si O2"
_cell_formula_units_Z 56
_cell_length_a 20.333056
_cell_length_b 25.230351
_cell_length_c 5.314075
_cell_angle_alpha 90.000000
_cell_angle_beta 90.000000
_cell_angle_gamma 90.000000
_cell_volume 2726.174359
_symmetry_space_group_name_H-M "P N M A"
_symmetry_group_IT_number 62
_symmetry_cell_setting 'orthorhombic'
loop_
_space_group_symop_operation_xyz
x,y,z
1/2-x,-y,1/2+z
1/2+x,1/2-y,1/2-z
-x,1/2+y,-z
-x,-y,-z
1/2+x,y,1/2-z
1/2-x,1/2+y,1/2+z
x,1/2-y,z
loop_
_atom_site_type_symbol
_atom_site_label
_atom_site_fract_x
_atom_site_fract_y
_atom_site_fract_z
Si Si1 0.767813 0.250000 0.105601
Si Si2 0.433708 0.546616 0.219681
Si Si3 0.613867 0.638763 0.946644
Si Si4 0.187142 0.447830 0.020459
Si Si5 0.510536 0.929777 0.724324
Si Si6 0.682469 0.943742 0.244210
Si Si7 0.251215 0.633281 0.856337
Si Si8 0.644586 0.750000 0.110210
O O1 0.800311 0.250000 0.385546
O O2 0.731311 0.193590 0.070935
O O3 0.822757 0.250000 0.885201
O O4 0.358348 0.560640 0.279192
O O5 0.446612 0.483372 0.233975
O O6 0.475334 0.568675 0.456107
O O7 0.458947 0.568109 0.954453
O O8 0.557954 0.620302 0.757818
O O9 0.685327 0.639155 0.814315
O O10 0.604811 0.695890 0.069071
O O11 0.622639 0.591512 0.147380
O O12 0.158787 0.501340 0.141314
O O13 0.193161 0.397071 0.198882
O O14 0.263595 0.460511 0.963202
O O15 0.724710 0.904866 0.423373
#
# Coordination Sequence:
#
# PCOD9464783 Si02
#       8
#     4   8   8   8   8   8   8   4
#     4  10  20  38  56  86 119 153 198 234 303 366
#     4  10  24  39  56  82 119 157 199 237 290 365
#     4  10  22  36  59  87 117 150 199 245 306 359
#     4  11  23  34  54  87 120 160 196 240 304 361
#     4  10  23  38  59  83 113 160 196 244 291 348
#     4  11  21  33  55  87 121 153 190 244 304 361
#     4  10  21  36  57  84 120 156 189 250 300 366
#     4  10  20  36  60  86 117 149 188 252 301 352
#
# _framework density 20.541605000000001
#
# number of rings (size 3 to 8) (size 9 to 14) (size 15 to 20)
#    0.000    1.714    2.857    0.857   12.000    0.000 
#    0.000    0.000    0.000    1.714    0.000    0.000 
#    0.000    0.000    0.000    0.000    0.000    0.000 
#
# Total GULP energy -312743.170525 kJ/mol
# GULP energy per Si atom -5584.699474 kJ/mol
# Density = 2.049485 g / cm^3
# Si number density = 20.541605 Si / 1000 Ang^3
#
#
#
# Elastic Constant Matrix: (Units=GPa)
#
#
# Indices 1 2 3 4 5 6 
#
# 1 57.0643 29.3906 16.0968 0.0000 0.0000 0.0000
# 2 29.3906 141.1211 27.4694 0.0000 0.0000 0.0000
# 3 16.0968 27.4694 61.6140 0.0000 0.0000 0.0000
# 4 0.0000 0.0000 0.0000 24.5212 0.0000 0.0000
# 5 0.0000 0.0000 0.0000 0.0000 39.1290 0.0000
# 6 0.0000 0.0000 0.0000 0.0000 0.0000 17.6853
#
#
#
# Elastic Compliance Matrix: (Units=1/GPa)
#
#
# Indices 1 2 3 4 5 6 
#
# 1 0.020396 -0.003516 -0.003761 0.000000 0.000000 0.000000
# 2 -0.003516 0.008365 -0.002811 0.000000 0.000000 0.000000
# 3 -0.003761 -0.002811 0.018466 0.000000 0.000000 0.000000
# 4 0.000000 0.000000 0.000000 0.040781 0.000000 0.000000
# 5 0.000000 0.000000 0.000000 0.000000 0.025556 0.000000
# 6 0.000000 0.000000 0.000000 0.000000 0.000000 0.056544
#
#
# Mechanical properties :
#
#
# Convention : Reuss Voigt Hill
#
# Bulk Modulus (GPa) = 36.96646 45.07922 41.02284
# Shear Modulus (GPa) = 25.08760 28.72328 26.90544
#
# Velocity S-wave (km/s) = 3.49851 3.74344 3.62305
# Velocity P-wave (km/s) = 5.86126 6.37788 6.12502
#
# Compressibility (1/GPa) = 0.02705155
#
# Stress axis : x y z
#
# Youngs Moduli (GPa) = 49.02991 119.53887 54.15379
#
# Poissons Ratio (x) = 0.42025 0.20368
# Poissons Ratio (y) = 0.17237 0.15223
# Poissons Ratio (z) = 0.18440 0.33604
#
# Static dielectric constant tensor:
#      x y z
#    x 1.717810 0.000000 0.000000 
#    y 0.000000 1.746760 0.000000 
#    z 0.000000 0.000000 1.841640 
# 
# From -- ./inp_files/2309.got.cif
#   From: 2010.05.17/outbox.cif.g08.bks.cpg/sg62_2_cif.got.tgz:2309.got - 2010.06.03 15:25:27.
