data_PCOD9464804
_publ_section_title
;
Structure prediction by ZEFSAII (Michael W. Deem and Ramdas Pophale) SiO2 
 PCOD9464804
Probable space group: P N M A
;
_chemical_formula_sum "Si O2"
_cell_formula_units_Z 56
_cell_length_a 19.891403
_cell_length_b 8.622125
_cell_length_c 18.040675
_cell_angle_alpha 90.000000
_cell_angle_beta 90.000000
_cell_angle_gamma 90.000000
_cell_volume 3094.086949
_symmetry_space_group_name_H-M "P N M A"
_symmetry_group_IT_number 62
_symmetry_cell_setting 'orthorhombic'
loop_
_space_group_symop_operation_xyz
x,y,z
1/2-x,-y,1/2+z
1/2+x,1/2-y,1/2-z
-x,1/2+y,-z
-x,-y,-z
1/2+x,y,1/2-z
1/2-x,1/2+y,1/2+z
x,1/2-y,z
loop_
_atom_site_type_symbol
_atom_site_label
_atom_site_fract_x
_atom_site_fract_y
_atom_site_fract_z
Si Si1 0.187650 0.064053 0.072545
Si Si2 0.570409 0.936181 0.531384
Si Si3 0.117187 0.565434 0.213479
Si Si4 0.531812 0.562804 0.692781
Si Si5 0.898415 0.563958 0.626041
Si Si6 0.837003 0.437803 0.476388
Si Si7 0.447034 0.438174 0.142444
O O1 0.184717 0.250000 0.075539
O O2 0.261952 0.016430 0.046895
O O3 0.168758 0.998396 0.152993
O O4 0.131701 0.004533 0.015084
O O5 0.570674 0.750000 0.524461
O O6 0.572100 0.977587 0.618683
O O7 0.500000 0.000000 0.500000
O O8 0.118464 0.750000 0.214508
O O9 0.128276 0.499972 0.295848
O O10 0.042734 0.508330 0.189525
O O11 0.523974 0.750000 0.693939
O O12 0.563229 0.515219 0.771728
O O13 0.896812 0.750000 0.628067
O O14 0.858167 0.502109 0.555953
O O15 0.977120 0.514665 0.620616
O O16 0.839387 0.250000 0.478960
O O17 0.891115 0.492602 0.415058
O O18 0.445581 0.250000 0.141004
#
# Coordination Sequence:
#
# PCOD9464804 Si02
#       7
#     8   8   8   8   8   8   8
#     4  11  23  38  55  79 117 157 193 235 286 342
#     4  11  21  34  57  84 112 148 191 238 286 340
#     4  11  21  35  58  83 111 145 188 234 285 344
#     4   9  18  34  57  84 112 139 183 237 287 339
#     4  10  20  36  61  87 114 145 188 239 287 343
#     4  10  21  38  58  82 116 153 191 233 283 341
#     4   8  16  34  59  85 111 144 186 234 284 334
#
# _framework density 18.099039000000001
#
# number of rings (size 3 to 8) (size 9 to 14) (size 15 to 20)
#    0.000    2.000    1.429    3.857    0.000    1.714 
#    2.571    2.857    0.000    0.000    0.000    0.000 
#    0.000    0.000    0.000    0.000    0.000    0.000 
#
# Total GULP energy -312654.329192 kJ/mol
# GULP energy per Si atom -5583.113021 kJ/mol
# Density = 1.805784 g / cm^3
# Si number density = 18.099039 Si / 1000 Ang^3
#
#
#
# Elastic Constant Matrix: (Units=GPa)
#
#
# Indices 1 2 3 4 5 6 
#
# 1 126.8481 38.6104 117.3977 0.0000 0.0000 0.0000
# 2 38.6104 42.2482 48.9144 0.0000 0.0000 0.0000
# 3 117.3977 48.9144 190.8739 0.0000 0.0000 0.0000
# 4 0.0000 0.0000 0.0000 29.2350 0.0000 0.0000
# 5 0.0000 0.0000 0.0000 0.0000 20.2814 0.0000
# 6 0.0000 0.0000 0.0000 0.0000 0.0000 20.1356
#
#
#
# Elastic Compliance Matrix: (Units=1/GPa)
#
#
# Indices 1 2 3 4 5 6 
#
# 1 0.019159 -0.005497 -0.010375 0.000000 0.000000 0.000000
# 2 -0.005497 0.035232 -0.005648 0.000000 0.000000 0.000000
# 3 -0.010375 -0.005648 0.013067 0.000000 0.000000 0.000000
# 4 0.000000 0.000000 0.000000 0.034206 0.000000 0.000000
# 5 0.000000 0.000000 0.000000 0.000000 0.049306 0.000000
# 6 0.000000 0.000000 0.000000 0.000000 0.000000 0.049663
#
#
# Mechanical properties :
#
#
# Convention : Reuss Voigt Hill
#
# Bulk Modulus (GPa) = 40.95187 85.53501 63.24344
# Shear Modulus (GPa) = 19.85604 24.26692 22.06148
#
# Velocity S-wave (km/s) = 3.31581 3.66565 3.49511
# Velocity P-wave (km/s) = 6.11025 8.07948 7.16286
#
# Compressibility (1/GPa) = 0.02441891
#
# Stress axis : x y z
#
# Youngs Moduli (GPa) = 52.19608 28.38303 76.52589
#
# Poissons Ratio (x) = 0.15602 0.79394
# Poissons Ratio (y) = 0.28692 0.43221
# Poissons Ratio (z) = 0.54152 0.16030
#
# Static dielectric constant tensor:
#      x y z
#    x 1.591120 0.000000 0.000000 
#    y 0.000000 1.611870 0.000000 
#    z 0.000000 0.000000 1.624520 
# 
# From -- ./inp_files/24575.got.cif
#   From: 2010.05.17/outbox.cif.g08.bks.cpg/sg62_13_cif.got.tgz:24575.got - 2010.06.03 15:25:27.
