data_PCOD9464278
_publ_section_title
;
Structure prediction by ZEFSAII (Michael W. Deem and Ramdas Pophale) SiO2 
 PCOD9464278
Probable space group: P N M A
;
_chemical_formula_sum "Si O2"
_cell_formula_units_Z 40
_cell_length_a 12.423321
_cell_length_b 10.678202
_cell_length_c 11.169775
_cell_angle_alpha 90.000000
_cell_angle_beta 90.000000
_cell_angle_gamma 90.000000
_cell_volume 1481.768179
_symmetry_space_group_name_H-M "P N M A"
_symmetry_group_IT_number 62
_symmetry_cell_setting 'orthorhombic'
loop_
_space_group_symop_operation_xyz
x,y,z
1/2-x,-y,1/2+z
1/2+x,1/2-y,1/2-z
-x,1/2+y,-z
-x,-y,-z
1/2+x,y,1/2-z
1/2-x,1/2+y,1/2+z
x,1/2-y,z
loop_
_atom_site_type_symbol
_atom_site_label
_atom_site_fract_x
_atom_site_fract_y
_atom_site_fract_z
Si Si1 0.217560 0.750000 0.068985
Si Si2 0.775274 0.750000 0.708797
Si Si3 0.457006 0.750000 0.427214
Si Si4 0.995229 0.020474 0.815277
Si Si5 0.078727 0.603003 0.441239
Si Si6 0.006833 0.250000 0.199259
Si Si7 0.232426 0.476152 0.104921
O O1 0.229683 0.750000 0.924363
O O2 0.088194 0.750000 0.088529
O O3 0.268019 0.621691 0.119664
O O4 0.904675 0.750000 0.697652
O O5 0.755976 0.874426 0.789029
O O6 0.423712 0.875453 0.361049
O O7 0.438182 0.750000 0.567884
O O8 0.935339 0.072696 0.698294
O O9 0.046750 0.884899 0.792446
O O10 0.896672 0.995637 0.907564
O O11 0.053587 0.750000 0.461948
O O12 0.196571 0.576225 0.496019
O O13 0.000000 0.500000 0.500000
#
# Coordination Sequence:
#
# PCOD9464278 Si02
#       7
#     4   4   4   8   8   4   8
#     4  10  22  38  65  95 129 166 226 280 339 411
#     4  10  20  39  58  93 129 173 223 282 339 408
#     4  10  20  39  62  97 132 173 218 284 340 406
#     4  10  22  42  68  95 134 180 222 281 342 407
#     4  12  27  46  70 100 142 181 229 289 347 409
#     4  10  20  34  65  93 130 170 225 270 342 401
#     4  10  21  42  69  93 126 176 231 271 336 408
#
# _framework density 26.994778
#
# number of rings (size 3 to 8) (size 9 to 14) (size 15 to 20)
#    0.000    1.600    2.000    3.000    2.800    1.600 
#    0.000    4.000    0.000    0.000    0.000    0.000 
#    0.000    0.000    0.000    0.000    0.000    0.000 
#
# Total GULP energy -223701.396833 kJ/mol
# GULP energy per Si atom -5592.534921 kJ/mol
# Density = 2.693334 g / cm^3
# Si number density = 26.994778 Si / 1000 Ang^3
#
#
#
# Elastic Constant Matrix: (Units=GPa)
#
#
# Indices 1 2 3 4 5 6 
#
# 1 78.7977 33.5484 23.5935 0.0000 0.0000 0.0000
# 2 33.5484 319.8429 59.0126 0.0000 0.0000 0.0000
# 3 23.5935 59.0126 107.9156 0.0000 0.0000 0.0000
# 4 0.0000 0.0000 0.0000 1.1403 0.0000 0.0000
# 5 0.0000 0.0000 0.0000 0.0000 45.2518 0.0000
# 6 0.0000 0.0000 0.0000 0.0000 0.0000 2.4405
#
#
#
# Elastic Compliance Matrix: (Units=1/GPa)
#
#
# Indices 1 2 3 4 5 6 
#
# 1 0.013859 -0.000995 -0.002486 0.000000 0.000000 0.000000
# 2 -0.000995 0.003549 -0.001723 0.000000 0.000000 0.000000
# 3 -0.002486 -0.001723 0.010752 0.000000 0.000000 0.000000
# 4 0.000000 0.000000 0.000000 0.876960 0.000000 0.000000
# 5 0.000000 0.000000 0.000000 0.000000 0.022099 0.000000
# 6 0.000000 0.000000 0.000000 0.000000 0.000000 0.409752
#
#
# Mechanical properties :
#
#
# Convention : Reuss Voigt Hill
#
# Bulk Modulus (GPa) = 56.33201 82.09615 69.21408
# Shear Modulus (GPa) = 3.69469 35.79330 19.74399
#
# Velocity S-wave (km/s) = 1.17117 3.64529 2.70738
# Velocity P-wave (km/s) = 4.76885 6.94229 5.95556
#
# Compressibility (1/GPa) = 0.01775190
#
# Stress axis : x y z
#
# Youngs Moduli (GPa) = 72.15709 281.78372 93.00391
#
# Poissons Ratio (x) = 0.28037 0.23119
# Poissons Ratio (y) = 0.07180 0.16026
# Poissons Ratio (z) = 0.17937 0.48554
#
# Static dielectric constant tensor:
#      x y z
#    x 2.087930 0.000000 0.000000 
#    y 0.000000 2.215810 0.000000 
#    z 0.000000 0.000000 2.060760 
# 
# From -- ./inp_files/14057.got.cif
#   From: 2010.05.17/outbox.cif.g08.bks.cpg/sg62_8_cif.got.tgz:14057.got - 2010.06.03 15:25:27.
