data_PCOD9464965
_publ_section_title
;
Structure prediction by ZEFSAII (Michael W. Deem and Ramdas Pophale) SiO2 
 PCOD9464965
Probable space group: P N M A
;
_chemical_formula_sum "Si O2"
_cell_formula_units_Z 48
_cell_length_a 17.705464
_cell_length_b 9.143088
_cell_length_c 15.279552
_cell_angle_alpha 90.000000
_cell_angle_beta 90.000000
_cell_angle_gamma 90.000000
_cell_volume 2473.493840
_symmetry_space_group_name_H-M "P N M A"
_symmetry_group_IT_number 62
_symmetry_cell_setting 'orthorhombic'
loop_
_space_group_symop_operation_xyz
x,y,z
1/2-x,-y,1/2+z
1/2+x,1/2-y,1/2-z
-x,1/2+y,-z
-x,-y,-z
1/2+x,y,1/2-z
1/2-x,1/2+y,1/2+z
x,1/2-y,z
loop_
_atom_site_type_symbol
_atom_site_label
_atom_site_fract_x
_atom_site_fract_y
_atom_site_fract_z
Si Si1 0.305220 0.920764 0.901782
Si Si2 0.128432 0.078611 0.093668
Si Si3 0.915070 0.423788 0.729891
Si Si4 0.066418 0.924657 0.723779
Si Si5 0.375380 0.078251 0.414560
Si Si6 0.308665 0.421124 0.080232
O O1 0.323463 0.750000 0.890621
O O2 0.214576 0.936853 0.897661
O O3 0.347097 0.013305 0.828246
O O4 0.328147 0.979252 0.997350
O O5 0.109926 0.250000 0.102118
O O6 0.219658 0.061810 0.099865
O O7 0.093589 0.987986 0.172682
O O8 0.104876 0.017259 0.999032
O O9 0.914587 0.250000 0.730441
O O10 0.993552 0.487252 0.693086
O O11 0.051959 0.750000 0.720061
O O12 0.084118 0.962707 0.824511
O O13 0.138935 0.954214 0.663126
O O14 0.389942 0.250000 0.432853
O O15 0.320094 0.250000 0.056916
#
# Coordination Sequence:
#
# PCOD9464965 Si02
#       6
#     8   8   8   8   8   8
#     4  10  20  37  61  86 112 144 183 228 279 331
#     4  10  20  37  61  86 112 144 183 228 279 331
#     4  12  25  38  54  80 114 150 189 230 274 328
#     4  10  21  38  58  80 112 150 185 226 276 328
#     4   9  19  37  61  87 112 142 183 229 276 328
#     4   9  19  37  61  87 112 142 183 229 276 328
#
# _framework density 19.405750000000001
#
# number of rings (size 3 to 8) (size 9 to 14) (size 15 to 20)
#    0.000    2.000    0.000    3.500    0.000    6.667 
#    0.000    1.667    0.000    0.000    0.000    0.000 
#    0.000    0.000    0.000    0.000    0.000    0.000 
#
# Total GULP energy -268262.940176 kJ/mol
# GULP energy per Si atom -5588.811254 kJ/mol
# Density = 1.936158 g / cm^3
# Si number density = 19.405750 Si / 1000 Ang^3
#
#
#
# Elastic Constant Matrix: (Units=GPa)
#
#
# Indices 1 2 3 4 5 6 
#
# 1 29.4250 30.4823 17.7630 0.0000 0.0000 0.0000
# 2 30.4823 78.5437 39.7840 0.0000 0.0000 0.0000
# 3 17.7630 39.7840 70.5948 0.0000 0.0000 0.0000
# 4 0.0000 0.0000 0.0000 27.5011 0.0000 0.0000
# 5 0.0000 0.0000 0.0000 0.0000 -30.3961 0.0000
# 6 0.0000 0.0000 0.0000 0.0000 0.0000 23.1409
#
#
#
# Elastic Compliance Matrix: (Units=1/GPa)
#
#
# Indices 1 2 3 4 5 6 
#
# 1 0.057182 -0.020858 -0.002634 0.000000 0.000000 0.000000
# 2 -0.020858 0.025426 -0.009081 0.000000 0.000000 0.000000
# 3 -0.002634 -0.009081 0.019945 0.000000 0.000000 0.000000
# 4 0.000000 0.000000 0.000000 0.036362 0.000000 0.000000
# 5 0.000000 0.000000 0.000000 0.000000 -0.032899 0.000000
# 6 0.000000 0.000000 0.000000 0.000000 0.000000 0.043214
#
#
# Mechanical properties :
#
#
# Convention : Reuss Voigt Hill
#
# Bulk Modulus (GPa) = 26.73144 39.40245 33.06694
# Shear Modulus (GPa) = 22.04153 10.08480 16.06316
#
# Velocity S-wave (km/s) = 3.37386 2.28212 2.88019
# Velocity P-wave (km/s) = 5.38350 5.22424 5.30447
#
# Compressibility (1/GPa) = 0.03740914
#
# Stress axis : x y z
#
# Youngs Moduli (GPa) = 17.48803 39.32954 50.13671
#
# Poissons Ratio (x) = 0.82034 0.13204
# Poissons Ratio (y) = 0.36477 0.45528
# Poissons Ratio (z) = 0.04605 0.35714
#
# Static dielectric constant tensor:
#      x y z
#    x 1.686030 0.000000 0.000000 
#    y 0.000000 1.642730 0.000000 
#    z 0.000000 0.000000 1.654040 
# 
# From -- ./inp_files/19590.got.cif
#   From: 2010.05.17/outbox.cif.g08.bks.cpg/sg62_10_cif.got.tgz:19590.got - 2010.06.03 15:25:27.
