data_PCOD9464328
_publ_section_title
;
Structure prediction by ZEFSAII (Michael W. Deem and Ramdas Pophale) SiO2 
 PCOD9464328
Probable space group: P N M A
;
_chemical_formula_sum "Si O2"
_cell_formula_units_Z 56
_cell_length_a 14.328222
_cell_length_b 7.841833
_cell_length_c 21.696107
_cell_angle_alpha 90.000000
_cell_angle_beta 90.000000
_cell_angle_gamma 90.000000
_cell_volume 2437.764258
_symmetry_space_group_name_H-M "P N M A"
_symmetry_group_IT_number 62
_symmetry_cell_setting 'orthorhombic'
loop_
_space_group_symop_operation_xyz
x,y,z
1/2-x,-y,1/2+z
1/2+x,1/2-y,1/2-z
-x,1/2+y,-z
-x,-y,-z
1/2+x,y,1/2-z
1/2-x,1/2+y,1/2+z
x,1/2-y,z
loop_
_atom_site_type_symbol
_atom_site_label
_atom_site_fract_x
_atom_site_fract_y
_atom_site_fract_z
Si Si1 0.287299 0.459706 0.061401
Si Si2 0.358915 0.556822 0.659523
Si Si3 0.507316 0.544083 0.898055
Si Si4 0.493141 0.459392 0.243762
Si Si5 0.195424 0.948941 0.426891
Si Si6 0.969061 0.438977 0.065383
Si Si7 0.335223 0.045846 0.335662
O O1 0.279417 0.250000 0.061881
O O2 0.224906 0.521081 0.119347
O O3 0.394053 0.507422 0.073590
O O4 0.261770 0.517534 0.991812
O O5 0.328932 0.750000 0.677861
O O6 0.415359 0.481054 0.717639
O O7 0.441112 0.569154 0.609071
O O8 0.503678 0.750000 0.899550
O O9 0.505096 0.488879 0.826699
O O10 0.415292 0.476592 0.930702
O O11 0.496226 0.250000 0.246402
O O12 0.395393 0.513841 0.276797
O O13 0.214143 0.750000 0.426041
O O14 0.231271 0.017669 0.360654
O O15 0.931773 0.250000 0.055769
O O16 0.892156 0.531591 0.106062
O O17 0.000000 0.500000 0.000000
O O18 0.345160 0.250000 0.332020
#
# Coordination Sequence:
#
# PCOD9464328 Si02
#       7
#     8   8   8   8   8   8   8
#     4   9  18  31  49  73 102 135 172 209 253 306
#     4   8  14  27  47  73 101 127 159 206 254 300
#     4  10  20  35  55  77 100 133 174 217 257 298
#     4   8  16  31  53  80 105 128 163 210 260 303
#     4  11  22  35  51  74 103 138 174 211 257 307
#     4   9  16  26  44  70 102 134 164 201 249 301
#     4   9  18  33  52  77 105 133 169 214 254 299
#
# _framework density 22.971868000000001
#
# number of rings (size 3 to 8) (size 9 to 14) (size 15 to 20)
#    0.000    2.857    0.000    3.429    0.000    2.857 
#    0.000    5.714    0.000    1.714    0.000    2.000 
#    0.000    0.000    0.000    0.000    0.000    0.000 
#
# Total GULP energy -311945.278710 kJ/mol
# GULP energy per Si atom -5570.451406 kJ/mol
# Density = 2.291958 g / cm^3
# Si number density = 22.971868 Si / 1000 Ang^3
#
#
#
# Elastic Constant Matrix: (Units=GPa)
#
#
# Indices 1 2 3 4 5 6 
#
# 1 87.8709 1.3526 13.9596 0.0000 0.0000 0.0000
# 2 1.3526 23.7381 6.3757 0.0000 0.0000 0.0000
# 3 13.9596 6.3757 118.8457 0.0000 0.0000 0.0000
# 4 0.0000 0.0000 0.0000 4.9330 0.0000 0.0000
# 5 0.0000 0.0000 0.0000 0.0000 38.7224 0.0000
# 6 0.0000 0.0000 0.0000 0.0000 0.0000 12.8685
#
#
#
# Elastic Compliance Matrix: (Units=1/GPa)
#
#
# Indices 1 2 3 4 5 6 
#
# 1 0.011599 -0.000299 -0.001346 0.000000 0.000000 0.000000
# 2 -0.000299 0.042750 -0.002258 0.000000 0.000000 0.000000
# 3 -0.001346 -0.002258 0.008694 0.000000 0.000000 0.000000
# 4 0.000000 0.000000 0.000000 0.202718 0.000000 0.000000
# 5 0.000000 0.000000 0.000000 0.000000 0.025825 0.000000
# 6 0.000000 0.000000 0.000000 0.000000 0.000000 0.077709
#
#
# Mechanical properties :
#
#
# Convention : Reuss Voigt Hill
#
# Bulk Modulus (GPa) = 18.10458 30.42561 24.26510
# Shear Modulus (GPa) = 12.64177 25.22254 18.93216
#
# Velocity S-wave (km/s) = 2.34843 3.31717 2.87391
# Velocity P-wave (km/s) = 3.90535 5.28630 4.64740
#
# Compressibility (1/GPa) = 0.05523463
#
# Stress axis : x y z
#
# Youngs Moduli (GPa) = 86.21561 23.39179 115.02768
#
# Poissons Ratio (x) = 0.00700 0.15487
# Poissons Ratio (y) = 0.02580 0.25976
# Poissons Ratio (z) = 0.11608 0.05282
#
# Static dielectric constant tensor:
#      x y z
#    x 1.949040 0.000000 0.000000 
#    y 0.000000 1.886810 0.000000 
#    z 0.000000 0.000000 1.893330 
# 
# From -- ./inp_files/27255.got.cif
#   From: 2010.05.17/outbox.cif.g08.bks.cpg/sg62_14_cif.got.tgz:27255.got - 2010.06.03 15:25:27.
