data_PCOD9464746
_publ_section_title
;
Structure prediction by ZEFSAII (Michael W. Deem and Ramdas Pophale) SiO2 
 PCOD9464746
Probable space group: P N M A
;
_chemical_formula_sum "Si O2"
_cell_formula_units_Z 48
_cell_length_a 12.167139
_cell_length_b 7.914164
_cell_length_c 23.026761
_cell_angle_alpha 90.000000
_cell_angle_beta 90.000000
_cell_angle_gamma 90.000000
_cell_volume 2217.309759
_symmetry_space_group_name_H-M "P N M A"
_symmetry_group_IT_number 62
_symmetry_cell_setting 'orthorhombic'
loop_
_space_group_symop_operation_xyz
x,y,z
1/2-x,-y,1/2+z
1/2+x,1/2-y,1/2-z
-x,1/2+y,-z
-x,-y,-z
1/2+x,y,1/2-z
1/2-x,1/2+y,1/2+z
x,1/2-y,z
loop_
_atom_site_type_symbol
_atom_site_label
_atom_site_fract_x
_atom_site_fract_y
_atom_site_fract_z
Si Si1 0.136709 0.545959 0.273934
Si Si2 0.786690 0.455175 0.854253
Si Si3 0.514486 0.953459 0.432839
Si Si4 0.716136 0.457565 0.616187
Si Si5 0.406779 0.065415 0.957447
Si Si6 0.536881 0.941294 0.854642
O O1 0.131281 0.750000 0.274930
O O2 0.169929 0.495637 0.209417
O O3 0.226228 0.492045 0.323076
O O4 0.018230 0.474062 0.292431
O O5 0.779299 0.250000 0.856256
O O6 0.872352 0.512732 0.903378
O O7 0.664811 0.526103 0.860106
O O8 0.515554 0.750000 0.429267
O O9 0.408191 0.011013 0.395731
O O10 0.500000 0.000000 0.500000
O O11 0.719356 0.250000 0.615408
O O12 0.792804 0.519557 0.562250
O O13 0.377045 0.250000 0.979517
O O14 0.471118 0.066366 0.896481
O O15 0.500000 0.000000 0.000000
O O16 0.511512 0.750000 0.872898
#
# Coordination Sequence:
#
# PCOD9464746 Si02
#       6
#     8   8   8   8   8   8
#     4   9  19  38  65  90 113 147 196 255 307 356
#     4  10  22  38  63  90 116 153 200 251 298 357
#     4  10  22  39  58  86 118 156 199 241 296 361
#     4   8  17  35  58  83 113 146 185 236 297 357
#     4  10  20  36  59  86 115 151 196 244 297 353
#     4  11  23  38  57  85 123 157 193 242 297 362
#
# _framework density 21.647856000000001
#
# number of rings (size 3 to 8) (size 9 to 14) (size 15 to 20)
#    0.000    2.333    0.000    3.000    4.667    1.333 
#    0.000    3.333    0.000    0.000    0.000    0.000 
#    0.000    0.000    0.000    0.000    0.000    0.000 
#
# Total GULP energy -267753.183599 kJ/mol
# GULP energy per Si atom -5578.191325 kJ/mol
# Density = 2.159858 g / cm^3
# Si number density = 21.647856 Si / 1000 Ang^3
#
#
#
# Elastic Constant Matrix: (Units=GPa)
#
#
# Indices 1 2 3 4 5 6 
#
# 1 137.6283 3.7004 18.7263 0.0000 0.0000 0.0000
# 2 3.7004 32.1513 -2.5648 0.0000 0.0000 0.0000
# 3 18.7263 -2.5648 59.2792 0.0000 0.0000 0.0000
# 4 0.0000 0.0000 0.0000 15.7946 0.0000 0.0000
# 5 0.0000 0.0000 0.0000 0.0000 14.3055 0.0000
# 6 0.0000 0.0000 0.0000 0.0000 0.0000 13.2325
#
#
#
# Elastic Compliance Matrix: (Units=1/GPa)
#
#
# Indices 1 2 3 4 5 6 
#
# 1 0.007629 -0.001074 -0.002456 0.000000 0.000000 0.000000
# 2 -0.001074 0.031362 0.001696 0.000000 0.000000 0.000000
# 3 -0.002456 0.001696 0.017719 0.000000 0.000000 0.000000
# 4 0.000000 0.000000 0.000000 0.063313 0.000000 0.000000
# 5 0.000000 0.000000 0.000000 0.000000 0.069903 0.000000
# 6 0.000000 0.000000 0.000000 0.000000 0.000000 0.075571
#
#
# Mechanical properties :
#
#
# Convention : Reuss Voigt Hill
#
# Bulk Modulus (GPa) = 18.85331 29.86471 24.35901
# Shear Modulus (GPa) = 17.43096 22.61299 20.02197
#
# Velocity S-wave (km/s) = 2.84069 3.23551 3.04451
# Velocity P-wave (km/s) = 4.41445 5.27102 4.86164
#
# Compressibility (1/GPa) = 0.05304108
#
# Stress axis : x y z
#
# Youngs Moduli (GPa) = 131.07768 31.88585 56.43747
#
# Poissons Ratio (x) = 0.03425 0.13864
# Poissons Ratio (y) = 0.14078 -0.09573
# Poissons Ratio (z) = 0.32199 -0.05408
#
# Static dielectric constant tensor:
#      x y z
#    x 1.798540 0.000000 0.000000 
#    y 0.000000 1.817810 0.000000 
#    z 0.000000 0.000000 1.817320 
# 
# From -- ./inp_files/29245.got.cif
#   From: 2010.05.17/outbox.cif.g08.bks.cpg/sg62_15_cif.got.tgz:29245.got - 2010.06.03 15:25:27.
