data_PCOD9464957
_publ_section_title
;
Structure prediction by ZEFSAII (Michael W. Deem and Ramdas Pophale) SiO2 
 PCOD9464957
Probable space group: P N M A
;
_chemical_formula_sum "Si O2"
_cell_formula_units_Z 32
_cell_length_a 5.120098
_cell_length_b 13.889542
_cell_length_c 17.378019
_cell_angle_alpha 90.000000
_cell_angle_beta 90.000000
_cell_angle_gamma 90.000000
_cell_volume 1235.852005
_symmetry_space_group_name_H-M "P N M A"
_symmetry_group_IT_number 62
_symmetry_cell_setting 'orthorhombic'
loop_
_space_group_symop_operation_xyz
x,y,z
1/2-x,-y,1/2+z
1/2+x,1/2-y,1/2-z
-x,1/2+y,-z
-x,-y,-z
1/2+x,y,1/2-z
1/2-x,1/2+y,1/2+z
x,1/2-y,z
loop_
_atom_site_type_symbol
_atom_site_label
_atom_site_fract_x
_atom_site_fract_y
_atom_site_fract_z
Si Si1 0.585241 0.890172 0.707264
Si Si2 0.194352 0.451831 0.061808
Si Si3 0.371001 0.619841 0.293228
Si Si4 0.001191 0.141974 0.569274
O O1 0.871504 0.855271 0.730771
O O2 0.458573 0.885099 0.622556
O O3 0.619139 0.005081 0.712153
O O4 0.335479 0.547444 0.096700
O O5 0.405248 0.389046 0.015537
O O6 0.000000 0.500000 0.000000
O O7 0.153561 0.653165 0.232369
O O8 0.252655 0.645113 0.375666
O O9 0.117762 0.250000 0.568877
#
# Coordination Sequence:
#
# PCOD9464957 Si02
#       4
#     8   8   8   8
#     4  10  20  37  66  94 124 170 218 264 324 388
#     4  11  23  42  65  93 130 172 221 273 324 400
#     4  10  20  37  60  93 135 173 209 253 316 403
#     4  11  25  41  62  94 133 176 219 271 331 390
#
# _framework density 25.893066999999999
#
# number of rings (size 3 to 8) (size 9 to 14) (size 15 to 20)
#    0.000    1.500    2.500    4.500    3.500    2.000 
#    0.000    0.000    0.000    1.500    0.000    0.000 
#    0.000    0.000    0.000    0.000    0.000    0.000 
#
# Total GULP energy -178907.196210 kJ/mol
# GULP energy per Si atom -5590.849882 kJ/mol
# Density = 2.583413 g / cm^3
# Si number density = 25.893067 Si / 1000 Ang^3
#
#
#
# Elastic Constant Matrix: (Units=GPa)
#
#
# Indices 1 2 3 4 5 6 
#
# 1 96.8968 1.2229 23.5753 0.0000 0.0000 0.0000
# 2 1.2229 154.9157 14.7009 0.0000 0.0000 0.0000
# 3 23.5753 14.7009 102.2236 0.0000 0.0000 0.0000
# 4 0.0000 0.0000 0.0000 -18.4000 0.0000 0.0000
# 5 0.0000 0.0000 0.0000 0.0000 58.5015 0.0000
# 6 0.0000 0.0000 0.0000 0.0000 0.0000 -67.2228
#
#
#
# Elastic Compliance Matrix: (Units=1/GPa)
#
#
# Indices 1 2 3 4 5 6 
#
# 1 0.010937 0.000155 -0.002545 0.000000 0.000000 0.000000
# 2 0.000155 0.006547 -0.000977 0.000000 0.000000 0.000000
# 3 -0.002545 -0.000977 0.010510 0.000000 0.000000 0.000000
# 4 0.000000 0.000000 0.000000 -0.054348 0.000000 0.000000
# 5 0.000000 0.000000 0.000000 0.000000 0.017094 0.000000
# 6 0.000000 0.000000 0.000000 0.000000 0.000000 -0.014876
#
#
# Mechanical properties :
#
#
# Convention : Reuss Voigt Hill
#
# Bulk Modulus (GPa) = 47.03613 48.11491 47.57552
# Shear Modulus (GPa) = -484.69593 15.54489 -234.57552
#
# Velocity S-wave (km/s) = -13.69663 2.45286 -9.52841
# Velocity P-wave (km/s) = 15.22910 5.16183 10.13116
#
# Compressibility (1/GPa) = 0.02126025
#
# Stress axis : x y z
#
# Youngs Moduli (GPa) = 91.42897 152.75018 95.14833
#
# Poissons Ratio (x) = -0.02370 0.24213
# Poissons Ratio (y) = -0.01419 0.09298
# Poissons Ratio (z) = 0.23266 0.14928
#
# Static dielectric constant tensor:
#      x y z
#    x 2.074680 0.000000 0.000000 
#    y 0.000000 2.025600 0.000000 
#    z 0.000000 0.000000 2.118980 
# 
# From -- ./inp_files/25167.got.cif
#   From: 2010.05.17/outbox.cif.g08.bks.cpg/sg62_13_cif.got.tgz:25167.got - 2010.06.03 15:25:27.
