data_PCOD9464282
_publ_section_title
;
Structure prediction by ZEFSAII (Michael W. Deem and Ramdas Pophale) SiO2 
 PCOD9464282
Probable space group: P N M A
;
_chemical_formula_sum "Si O2"
_cell_formula_units_Z 64
_cell_length_a 23.716692
_cell_length_b 8.920466
_cell_length_c 19.364231
_cell_angle_alpha 90.000000
_cell_angle_beta 90.000000
_cell_angle_gamma 90.000000
_cell_volume 4096.773095
_symmetry_space_group_name_H-M "P N M A"
_symmetry_group_IT_number 62
_symmetry_cell_setting 'orthorhombic'
loop_
_space_group_symop_operation_xyz
x,y,z
1/2-x,-y,1/2+z
1/2+x,1/2-y,1/2-z
-x,1/2+y,-z
-x,-y,-z
1/2+x,y,1/2-z
1/2-x,1/2+y,1/2+z
x,1/2-y,z
loop_
_atom_site_type_symbol
_atom_site_label
_atom_site_fract_x
_atom_site_fract_y
_atom_site_fract_z
Si Si1 0.248813 0.572234 0.003845
Si Si2 0.374997 0.570802 0.500807
Si Si3 0.272622 0.072364 0.862524
Si Si4 0.936371 0.928407 0.853885
Si Si5 0.663898 0.570970 0.275460
Si Si6 0.835982 0.571011 0.232069
Si Si7 0.441140 0.569910 0.360705
Si Si8 0.770378 0.428559 0.353551
O O1 0.250000 0.750000 0.011255
O O2 0.184146 0.514557 0.001342
O O3 0.276822 0.495274 0.070293
O O4 0.276729 0.520187 0.932291
O O5 0.363208 0.750000 0.497522
O O6 0.409440 0.540102 0.570646
O O7 0.412015 0.531193 0.433894
O O8 0.273793 0.250000 0.878320
O O9 0.318995 0.040045 0.803816
O O10 0.212564 0.041262 0.825172
O O11 0.935069 0.750000 0.843647
O O12 0.896051 0.008667 0.798700
O O13 0.999647 0.989009 0.851873
O O14 0.667278 0.750000 0.285660
O O15 0.711847 0.493631 0.322484
O O16 0.833765 0.750000 0.245598
O O17 0.895919 0.532915 0.198858
O O18 0.818261 0.483707 0.300587
O O19 0.449448 0.750000 0.360315
O O20 0.767216 0.250000 0.355784
#
# Coordination Sequence:
#
# PCOD9464282 Si02
#       8
#     8   8   8   8   8   8   8   8
#     4  12  22  31  50  77 103 135 171 207 250 309
#     4  10  20  35  49  68 101 141 177 212 250 289
#     4   9  18  34  53  72 100 131 164 209 257 303
#     4  11  22  33  50  74 103 138 177 217 250 292
#     4  10  20  35  53  73  98 133 172 209 254 305
#     4   9  18  34  53  73  98 133 171 210 254 301
#     4  10  20  35  53  70 100 141 177 212 252 299
#     4  11  21  33  51  73 102 133 165 211 259 302
#
# _framework density 15.622051000000001
#
# number of rings (size 3 to 8) (size 9 to 14) (size 15 to 20)
#    0.000    1.750    2.500    4.125    0.000    4.000 
#    0.000    0.000    0.000    0.000    0.000    0.875 
#    0.000    0.000    0.000    0.000    0.000    0.000 
#
# Total GULP energy -357384.822337 kJ/mol
# GULP energy per Si atom -5584.137849 kJ/mol
# Density = 1.558649 g / cm^3
# Si number density = 15.622051 Si / 1000 Ang^3
#
#
#
# Elastic Constant Matrix: (Units=GPa)
#
#
# Indices 1 2 3 4 5 6 
#
# 1 79.1059 49.2989 59.4330 0.0000 0.0000 0.0000
# 2 49.2989 83.2763 74.8196 0.0000 0.0000 0.0000
# 3 59.4330 74.8196 125.3729 0.0000 0.0000 0.0000
# 4 0.0000 0.0000 0.0000 25.0920 0.0000 0.0000
# 5 0.0000 0.0000 0.0000 0.0000 17.4383 0.0000
# 6 0.0000 0.0000 0.0000 0.0000 0.0000 22.1790
#
#
#
# Elastic Compliance Matrix: (Units=1/GPa)
#
#
# Indices 1 2 3 4 5 6 
#
# 1 0.021749 -0.007788 -0.005663 0.000000 0.000000 0.000000
# 2 -0.007788 0.028678 -0.013423 0.000000 0.000000 0.000000
# 3 -0.005663 -0.013423 0.018671 0.000000 0.000000 0.000000
# 4 0.000000 0.000000 0.000000 0.039853 0.000000 0.000000
# 5 0.000000 0.000000 0.000000 0.000000 0.057345 0.000000
# 6 0.000000 0.000000 0.000000 0.000000 0.000000 0.045088
#
#
# Mechanical properties :
#
#
# Convention : Reuss Voigt Hill
#
# Bulk Modulus (GPa) = 65.13778 72.76200 68.94989
# Shear Modulus (GPa) = 18.50160 19.88877 19.19519
#
# Velocity S-wave (km/s) = 3.44514 3.57195 3.50912
# Velocity P-wave (km/s) = 7.59025 7.98056 7.78785
#
# Compressibility (1/GPa) = 0.01535207
#
# Stress axis : x y z
#
# Youngs Moduli (GPa) = 45.97942 34.86992 53.55928
#
# Poissons Ratio (x) = 0.27155 0.30328
# Poissons Ratio (y) = 0.35807 0.71891
# Poissons Ratio (z) = 0.26036 0.46805
#
# Static dielectric constant tensor:
#      x y z
#    x 1.494660 0.000000 0.000000 
#    y 0.000000 1.519410 0.000000 
#    z 0.000000 0.000000 1.522280 
# 
# From -- ./inp_files/24906.got.cif
#   From: 2010.05.17/outbox.cif.g08.bks.cpg/sg62_13_cif.got.tgz:24906.got - 2010.06.03 15:25:27.
