data_PCOD9464514
_publ_section_title
;
Structure prediction by ZEFSAII (Michael W. Deem and Ramdas Pophale) SiO2 
 PCOD9464514
Probable space group: P N M A
;
_chemical_formula_sum "Si O2"
_cell_formula_units_Z 48
_cell_length_a 15.235697
_cell_length_b 8.895759
_cell_length_c 19.874770
_cell_angle_alpha 90.000000
_cell_angle_beta 90.000000
_cell_angle_gamma 90.000000
_cell_volume 2693.688965
_symmetry_space_group_name_H-M "P N M A"
_symmetry_group_IT_number 62
_symmetry_cell_setting 'orthorhombic'
loop_
_space_group_symop_operation_xyz
x,y,z
1/2-x,-y,1/2+z
1/2+x,1/2-y,1/2-z
-x,1/2+y,-z
-x,-y,-z
1/2+x,y,1/2-z
1/2-x,1/2+y,1/2+z
x,1/2-y,z
loop_
_atom_site_type_symbol
_atom_site_label
_atom_site_fract_x
_atom_site_fract_y
_atom_site_fract_z
Si Si1 0.011042 0.571283 0.802735
Si Si2 0.610421 0.571913 0.191547
Si Si3 0.808554 0.930169 0.164692
Si Si4 0.942095 0.070793 0.940466
Si Si5 0.230029 0.571285 0.980011
Si Si6 0.914400 0.428570 0.532745
O O1 0.017060 0.750000 0.807649
O O2 0.108423 0.501315 0.798455
O O3 0.950847 0.521213 0.740718
O O4 0.968441 0.504537 0.870655
O O5 0.599650 0.750000 0.205651
O O6 0.713994 0.535240 0.197603
O O7 0.586631 0.546450 0.113357
O O8 0.817115 0.750000 0.161205
O O9 0.804414 0.994921 0.088802
O O10 0.957602 0.250000 0.937004
O O11 0.841187 0.045591 0.961812
O O12 0.000000 0.000000 0.000000
O O13 0.236759 0.750000 0.968707
O O14 0.325224 0.503105 0.994587
O O15 0.911943 0.250000 0.521451
O O16 0.000000 0.500000 0.500000
#
# Coordination Sequence:
#
# PCOD9464514 Si02
#       6
#     8   8   8   8   8   8
#     4  12  24  37  58  87 119 155 194 242 292 346
#     4   9  21  41  61  84 113 153 196 237 290 347
#     4  10  20  37  62  84 111 153 193 236 289 349
#     4  11  22  36  58  87 120 155 193 238 288 346
#     4  10  20  35  58  87 116 149 191 240 288 343
#     4  10  21  39  64  89 116 153 195 241 293 349
#
# _framework density 17.819430000000001
#
# number of rings (size 3 to 8) (size 9 to 14) (size 15 to 20)
#    0.000    1.667    1.667    4.500    0.000    6.000 
#    3.000    0.000    0.000    0.000    0.000    0.000 
#    0.000    0.000    0.000    0.000    0.000    0.000 
#
# Total GULP energy -268162.736573 kJ/mol
# GULP energy per Si atom -5586.723679 kJ/mol
# Density = 1.777887 g / cm^3
# Si number density = 17.819430 Si / 1000 Ang^3
#
#
#
# Elastic Constant Matrix: (Units=GPa)
#
#
# Indices 1 2 3 4 5 6 
#
# 1 172.7992 98.1637 64.7382 0.0000 0.0000 0.0000
# 2 98.1637 120.1749 54.9173 0.0000 0.0000 0.0000
# 3 64.7382 54.9173 46.2686 0.0000 0.0000 0.0000
# 4 0.0000 0.0000 0.0000 32.3575 0.0000 0.0000
# 5 0.0000 0.0000 0.0000 0.0000 29.6804 0.0000
# 6 0.0000 0.0000 0.0000 0.0000 0.0000 35.3657
#
#
#
# Elastic Compliance Matrix: (Units=1/GPa)
#
#
# Indices 1 2 3 4 5 6 
#
# 1 0.013523 -0.005244 -0.012697 0.000000 0.000000 0.000000
# 2 -0.005244 0.020218 -0.016660 0.000000 0.000000 0.000000
# 3 -0.012697 -0.016660 0.059152 0.000000 0.000000 0.000000
# 4 0.000000 0.000000 0.000000 0.030905 0.000000 0.000000
# 5 0.000000 0.000000 0.000000 0.000000 0.033692 0.000000
# 6 0.000000 0.000000 0.000000 0.000000 0.000000 0.028276
#
#
# Mechanical properties :
#
#
# Convention : Reuss Voigt Hill
#
# Bulk Modulus (GPa) = 42.20907 86.09789 64.15348
# Shear Modulus (GPa) = 19.02126 27.57561 23.29843
#
# Velocity S-wave (km/s) = 3.27072 3.93810 3.61982
# Velocity P-wave (km/s) = 6.16458 8.31264 7.31785
#
# Compressibility (1/GPa) = 0.02369159
#
# Stress axis : x y z
#
# Youngs Moduli (GPa) = 73.94965 49.46155 16.90556
#
# Poissons Ratio (x) = 0.25936 0.21465
# Poissons Ratio (y) = 0.38777 0.28165
# Poissons Ratio (z) = 0.93893 0.82403
#
# Static dielectric constant tensor:
#      x y z
#    x 1.611080 0.000000 0.000000 
#    y 0.000000 1.592730 0.000000 
#    z 0.000000 0.000000 1.575450 
# 
# From -- ./inp_files/23664.got.cif
#   From: 2010.05.17/outbox.cif.g08.bks.cpg/sg62_12_cif.got.tgz:23664.got - 2010.06.03 15:25:27.
