data_PCOD9464651
_publ_section_title
;
Structure prediction by ZEFSAII (Michael W. Deem and Ramdas Pophale) SiO2 
 PCOD9464651
Probable space group: P N M A
;
_chemical_formula_sum "Si O2"
_cell_formula_units_Z 48
_cell_length_a 9.955847
_cell_length_b 7.376705
_cell_length_c 24.825584
_cell_angle_alpha 90.000000
_cell_angle_beta 90.000000
_cell_angle_gamma 90.000000
_cell_volume 1823.224313
_symmetry_space_group_name_H-M "P N M A"
_symmetry_group_IT_number 62
_symmetry_cell_setting 'orthorhombic'
loop_
_space_group_symop_operation_xyz
x,y,z
1/2-x,-y,1/2+z
1/2+x,1/2-y,1/2-z
-x,1/2+y,-z
-x,-y,-z
1/2+x,y,1/2-z
1/2-x,1/2+y,1/2+z
x,1/2-y,z
loop_
_atom_site_type_symbol
_atom_site_label
_atom_site_fract_x
_atom_site_fract_y
_atom_site_fract_z
Si Si1 0.961911 0.970958 0.308469
Si Si2 0.206499 0.958795 0.246891
Si Si3 0.988288 0.041162 0.427121
Si Si4 0.283755 0.459700 0.412089
Si Si5 0.713761 0.030615 0.469552
Si Si6 0.949208 0.970246 0.863164
O O1 0.960017 0.750000 0.308379
O O2 0.851047 0.037705 0.266295
O O3 0.108792 0.037244 0.291723
O O4 0.924886 0.034926 0.367478
O O5 0.227891 0.750000 0.261610
O O6 0.122148 0.964473 0.191016
O O7 0.006555 0.250000 0.442522
O O8 0.135309 0.955681 0.418173
O O9 0.869703 0.966596 0.464451
O O10 0.264284 0.250000 0.397224
O O11 0.341300 0.467094 0.473082
O O12 0.397024 0.533091 0.372133
O O13 0.714390 0.250000 0.469843
O O14 0.632616 0.972826 0.416701
O O15 0.948643 0.750000 0.861758
#
# Coordination Sequence:
#
# PCOD9464651 Si02
#       6
#     8   8   8   8   8   8
#     4  10  22  39  59  84 112 143 182 228 277 330
#     4  10  22  39  59  84 112 143 182 228 277 330
#     4  10  21  38  57  82 115 147 184 229 274 325
#     4  10  22  36  55  84 115 147 186 229 271 324
#     4  10  20  36  57  80 111 149 188 229 273 324
#     4  10  21  38  57  82 115 147 184 229 274 325
#
# _framework density 26.326986000000002
#
# number of rings (size 3 to 8) (size 9 to 14) (size 15 to 20)
#    0.000    2.000    1.667    1.000    2.333    3.333 
#    0.000    0.000    0.000    0.000    0.000    0.000 
#    0.000    0.000    0.000    0.000    0.000    0.000 
#
# Total GULP energy -268647.910878 kJ/mol
# GULP energy per Si atom -5596.831477 kJ/mol
# Density = 2.626707 g / cm^3
# Si number density = 26.326986 Si / 1000 Ang^3
#
#
#
# Elastic Constant Matrix: (Units=GPa)
#
#
# Indices 1 2 3 4 5 6 
#
# 1 104.5642 14.3974 -8.1637 0.0000 0.0000 0.0000
# 2 14.3974 115.3842 0.1557 0.0000 0.0000 0.0000
# 3 -8.1637 0.1557 72.5566 0.0000 0.0000 0.0000
# 4 0.0000 0.0000 0.0000 19.8024 0.0000 0.0000
# 5 0.0000 0.0000 0.0000 0.0000 54.1918 0.0000
# 6 0.0000 0.0000 0.0000 0.0000 0.0000 3.4416
#
#
#
# Elastic Compliance Matrix: (Units=1/GPa)
#
#
# Indices 1 2 3 4 5 6 
#
# 1 0.009819 -0.001227 0.001107 0.000000 0.000000 0.000000
# 2 -0.001227 0.008820 -0.000157 0.000000 0.000000 0.000000
# 3 0.001107 -0.000157 0.013907 0.000000 0.000000 0.000000
# 4 0.000000 0.000000 0.000000 0.050499 0.000000 0.000000
# 5 0.000000 0.000000 0.000000 0.000000 0.018453 0.000000
# 6 0.000000 0.000000 0.000000 0.000000 0.000000 0.290560
#
#
# Mechanical properties :
#
#
# Convention : Reuss Voigt Hill
#
# Bulk Modulus (GPa) = 31.25616 33.92041 32.58828
# Shear Modulus (GPa) = 12.39849 34.56154 23.48002
#
# Velocity S-wave (km/s) = 2.17247 3.62716 2.98964
# Velocity P-wave (km/s) = 4.26508 5.51851 4.93178
#
# Compressibility (1/GPa) = 0.03199369
#
# Stress axis : x y z
#
# Youngs Moduli (GPa) = 101.84485 113.37907 71.90482
#
# Poissons Ratio (x) = 0.13908 -0.07963
# Poissons Ratio (y) = 0.12493 0.01128
# Poissons Ratio (z) = -0.11278 0.01779
#
# Static dielectric constant tensor:
#      x y z
#    x 2.110270 0.000000 0.000000 
#    y 0.000000 1.951490 0.000000 
#    z 0.000000 0.000000 2.023670 
# 
# From -- ./inp_files/31989.got.cif
#   From: 2010.05.17/outbox.cif.g08.bks.cpg/sg62_16_cif.got.tgz:31989.got - 2010.06.03 15:25:27.
