data_PCOD9464428
_publ_section_title
;
Structure prediction by ZEFSAII (Michael W. Deem and Ramdas Pophale) SiO2 
 PCOD9464428
Probable space group: P N M A
;
_chemical_formula_sum "Si O2"
_cell_formula_units_Z 64
_cell_length_a 9.813665
_cell_length_b 13.553531
_cell_length_c 22.951691
_cell_angle_alpha 90.000000
_cell_angle_beta 90.000000
_cell_angle_gamma 90.000000
_cell_volume 3052.800123
_symmetry_space_group_name_H-M "P N M A"
_symmetry_group_IT_number 62
_symmetry_cell_setting 'orthorhombic'
loop_
_space_group_symop_operation_xyz
x,y,z
1/2-x,-y,1/2+z
1/2+x,1/2-y,1/2-z
-x,1/2+y,-z
-x,-y,-z
1/2+x,y,1/2-z
1/2-x,1/2+y,1/2+z
x,1/2-y,z
loop_
_atom_site_type_symbol
_atom_site_label
_atom_site_fract_x
_atom_site_fract_y
_atom_site_fract_z
Si Si1 0.798134 0.054904 0.319408
Si Si2 0.282080 0.366270 0.728874
Si Si3 0.921148 0.866362 0.730911
Si Si4 0.291556 0.507050 0.487731
Si Si5 0.530336 0.868249 0.443479
Si Si6 0.610348 0.637027 0.941988
Si Si7 0.802339 0.638438 0.604047
Si Si8 0.931910 0.633237 0.183138
O O1 0.665157 0.093153 0.284924
O O2 0.814524 0.102909 0.382579
O O3 0.933421 0.084413 0.282990
O O4 0.782065 0.936727 0.319940
O O5 0.255538 0.250000 0.718865
O O6 0.444163 0.379249 0.728476
O O7 0.208409 0.400564 0.788201
O O8 0.946287 0.750000 0.738906
O O9 0.830600 0.877214 0.672257
O O10 0.336835 0.425327 0.534675
O O11 0.408201 0.590506 0.483652
O O12 0.156422 0.563457 0.507445
O O13 0.280612 0.446891 0.427637
O O14 0.544805 0.750000 0.445844
O O15 0.487261 0.901504 0.378582
O O16 0.646776 0.750000 0.955885
O O17 0.450762 0.635110 0.926716
O O18 0.746448 0.750000 0.596012
O O19 0.912602 0.750000 0.174257
#
# Coordination Sequence:
#
# PCOD9464428 Si02
#       8
#     8   8   8   8   8   8   8   8
#     4  11  21  36  61  85 120 158 190 237 298 352
#     4  10  20  35  56  84 116 154 195 234 284 349
#     4  10  21  38  58  87 120 154 195 242 293 351
#     4  11  21  36  62  82 110 151 205 234 287 358
#     4  10  22  38  56  82 117 153 190 243 294 337
#     4  10  21  39  60  86 118 149 190 247 297 341
#     4   9  20  38  60  85 118 150 188 245 297 345
#     4   9  19  36  56  78 115 153 187 236 288 338
#
# _framework density 20.964358000000001
#
# number of rings (size 3 to 8) (size 9 to 14) (size 15 to 20)
#    0.000    2.000    0.000    4.500    1.750    0.000 
#    2.250    0.625    0.000    3.000    0.000    0.000 
#    0.000    0.000    0.000    0.000    0.000    0.000 
#
# Total GULP energy -357220.106041 kJ/mol
# GULP energy per Si atom -5581.564157 kJ/mol
# Density = 2.091664 g / cm^3
# Si number density = 20.964358 Si / 1000 Ang^3
#
#
#
# Elastic Constant Matrix: (Units=GPa)
#
#
# Indices 1 2 3 4 5 6 
#
# 1 28.0442 24.2445 1.8242 0.0000 0.0000 0.0000
# 2 24.2445 127.6981 13.7382 0.0000 0.0000 0.0000
# 3 1.8242 13.7382 17.8413 0.0000 0.0000 0.0000
# 4 0.0000 0.0000 0.0000 24.3308 0.0000 0.0000
# 5 0.0000 0.0000 0.0000 0.0000 26.9158 0.0000
# 6 0.0000 0.0000 0.0000 0.0000 0.0000 27.8536
#
#
#
# Elastic Compliance Matrix: (Units=1/GPa)
#
#
# Indices 1 2 3 4 5 6 
#
# 1 0.042728 -0.008333 0.002047 0.000000 0.000000 0.000000
# 2 -0.008333 0.010163 -0.006974 0.000000 0.000000 0.000000
# 3 0.002047 -0.006974 0.061211 0.000000 0.000000 0.000000
# 4 0.000000 0.000000 0.000000 0.041100 0.000000 0.000000
# 5 0.000000 0.000000 0.000000 0.000000 0.037153 0.000000
# 6 0.000000 0.000000 0.000000 0.000000 0.000000 0.035902
#
#
# Mechanical properties :
#
#
# Convention : Reuss Voigt Hill
#
# Bulk Modulus (GPa) = 11.41761 28.13305 19.77533
# Shear Modulus (GPa) = 17.60747 24.73848 21.17297
#
# Velocity S-wave (km/s) = 2.90121 3.43888 3.18142
# Velocity P-wave (km/s) = 4.08420 5.40522 4.79047
#
# Compressibility (1/GPa) = 0.08758401
#
# Stress axis : x y z
#
# Youngs Moduli (GPa) = 23.40361 98.39357 16.33703
#
# Poissons Ratio (x) = 0.81987 -0.03345
# Poissons Ratio (y) = 0.19501 0.11393
# Poissons Ratio (z) = -0.04792 0.68620
#
# Static dielectric constant tensor:
#      x y z
#    x 1.743530 0.000000 0.000000 
#    y 0.000000 1.763870 0.000000 
#    z 0.000000 0.000000 1.765320 
# 
# From -- ./inp_files/28973.got.cif
#   From: 2010.05.17/outbox.cif.g08.bks.cpg/sg62_15_cif.got.tgz:28973.got - 2010.06.03 15:25:27.
