data_PCOD9464644
_publ_section_title
;
Structure prediction by ZEFSAII (Michael W. Deem and Ramdas Pophale) SiO2 
 PCOD9464644
Probable space group: P N M A
;
_chemical_formula_sum "Si O2"
_cell_formula_units_Z 40
_cell_length_a 8.120188
_cell_length_b 8.880905
_cell_length_c 24.172677
_cell_angle_alpha 90.000000
_cell_angle_beta 90.000000
_cell_angle_gamma 90.000000
_cell_volume 1743.203373
_symmetry_space_group_name_H-M "P N M A"
_symmetry_group_IT_number 62
_symmetry_cell_setting 'orthorhombic'
loop_
_space_group_symop_operation_xyz
x,y,z
1/2-x,-y,1/2+z
1/2+x,1/2-y,1/2-z
-x,1/2+y,-z
-x,-y,-z
1/2+x,y,1/2-z
1/2-x,1/2+y,1/2+z
x,1/2-y,z
loop_
_atom_site_type_symbol
_atom_site_label
_atom_site_fract_x
_atom_site_fract_y
_atom_site_fract_z
Si Si1 0.519320 0.427138 0.768247
Si Si2 0.322189 0.076721 0.065244
Si Si3 0.141958 0.572069 0.163542
Si Si4 0.836401 0.574515 0.633434
Si Si5 0.656904 0.570674 0.529899
O O1 0.485039 0.250000 0.764184
O O2 0.500273 0.483558 0.705275
O O3 0.695084 0.443598 0.797478
O O4 0.385547 0.495542 0.809954
O O5 0.294751 0.250000 0.049279
O O6 0.495761 0.066054 0.096596
O O7 0.185044 0.023796 0.109764
O O8 0.304183 0.972098 0.011999
O O9 0.123720 0.750000 0.148883
O O10 0.802587 0.750000 0.644342
O O11 0.698873 0.511687 0.591416
O O12 0.500000 0.500000 0.500000
O O13 0.641305 0.750000 0.533170
#
# Coordination Sequence:
#
# PCOD9464644 Si02
#       5
#     8   8   8   8   8
#     4   9  18  32  52  76 104 138 177 216 258 308
#     4  10  20  36  57  80 105 139 179 218 262 315
#     4   9  18  33  51  75 105 138 175 215 257 306
#     4   9  20  37  56  78 106 139 178 219 263 315
#     4  11  23  38  55  79 109 140 175 220 269 318
#
# _framework density 22.946262000000001
#
# number of rings (size 3 to 8) (size 9 to 14) (size 15 to 20)
#    0.000    2.400    0.000    1.800    0.000    4.800 
#    0.000    2.000    0.000    0.000    0.000    0.000 
#    0.000    0.000    0.000    0.000    0.000    0.000 
#
# Total GULP energy -223544.766889 kJ/mol
# GULP energy per Si atom -5588.619172 kJ/mol
# Density = 2.289404 g / cm^3
# Si number density = 22.946262 Si / 1000 Ang^3
#
#
#
# Elastic Constant Matrix: (Units=GPa)
#
#
# Indices 1 2 3 4 5 6 
#
# 1 49.2509 2.1154 -11.6617 0.0000 0.0000 0.0000
# 2 2.1154 22.8622 7.9613 0.0000 0.0000 0.0000
# 3 -11.6617 7.9613 101.6097 0.0000 0.0000 0.0000
# 4 0.0000 0.0000 0.0000 31.5974 0.0000 0.0000
# 5 0.0000 0.0000 0.0000 0.0000 43.5113 0.0000
# 6 0.0000 0.0000 0.0000 0.0000 0.0000 23.2114
#
#
#
# Elastic Compliance Matrix: (Units=1/GPa)
#
#
# Indices 1 2 3 4 5 6 
#
# 1 0.021053 -0.002868 0.002641 0.000000 0.000000 0.000000
# 2 -0.002868 0.045358 -0.003883 0.000000 0.000000 0.000000
# 3 0.002641 -0.003883 0.010449 0.000000 0.000000 0.000000
# 4 0.000000 0.000000 0.000000 0.031648 0.000000 0.000000
# 5 0.000000 0.000000 0.000000 0.000000 0.022983 0.000000
# 6 0.000000 0.000000 0.000000 0.000000 0.000000 0.043082
#
#
# Mechanical properties :
#
#
# Convention : Reuss Voigt Hill
#
# Bulk Modulus (GPa) = 14.56877 18.95034 16.75955
# Shear Modulus (GPa) = 24.31056 31.35121 27.83089
#
# Velocity S-wave (km/s) = 3.25846 3.70034 3.48641
# Velocity P-wave (km/s) = 4.52986 5.15104 4.85040
#
# Compressibility (1/GPa) = 0.06863999
#
# Stress axis : x y z
#
# Youngs Moduli (GPa) = 47.49991 22.04688 95.70379
#
# Poissons Ratio (x) = 0.06322 -0.25274
# Poissons Ratio (y) = 0.13621 0.37162
# Poissons Ratio (z) = -0.12544 0.08561
#
# Static dielectric constant tensor:
#      x y z
#    x 1.978120 0.000000 0.000000 
#    y 0.000000 1.774880 0.000000 
#    z 0.000000 0.000000 1.870980 
# 
# From -- ./inp_files/21916.got.cif
#   From: 2010.05.17/outbox.cif.g08.bks.cpg/sg62_11_cif.got.tgz:21916.got - 2010.06.03 15:25:27.
