data_PCOD9464956
_publ_section_title
;
Structure prediction by ZEFSAII (Michael W. Deem and Ramdas Pophale) SiO2 
 PCOD9464956
Probable space group: P N M A
;
_chemical_formula_sum "Si O2"
_cell_formula_units_Z 56
_cell_length_a 14.438110
_cell_length_b 32.935227
_cell_length_c 5.182082
_cell_angle_alpha 90.000000
_cell_angle_beta 90.000000
_cell_angle_gamma 90.000000
_cell_volume 2464.196227
_symmetry_space_group_name_H-M "P N M A"
_symmetry_group_IT_number 62
_symmetry_cell_setting 'orthorhombic'
loop_
_space_group_symop_operation_xyz
x,y,z
1/2-x,-y,1/2+z
1/2+x,1/2-y,1/2-z
-x,1/2+y,-z
-x,-y,-z
1/2+x,y,1/2-z
1/2-x,1/2+y,1/2+z
x,1/2-y,z
loop_
_atom_site_type_symbol
_atom_site_label
_atom_site_fract_x
_atom_site_fract_y
_atom_site_fract_z
Si Si1 0.435690 0.575130 0.807667
Si Si2 0.882994 0.250000 0.478206
Si Si3 0.273966 0.161944 0.508615
Si Si4 0.773923 0.976224 0.886350
Si Si5 0.621066 0.376696 0.684649
Si Si6 0.948707 0.170003 0.692114
Si Si7 0.739168 0.750000 0.488493
Si Si8 0.641194 0.597113 0.874503
O O1 0.375406 0.536395 0.719598
O O2 0.398976 0.608128 0.601392
O O3 0.547179 0.574337 0.772127
O O4 0.405823 0.589367 0.096735
O O5 0.940775 0.209458 0.519979
O O6 0.799410 0.250000 0.693496
O O7 0.840740 0.250000 0.199910
O O8 0.220949 0.140495 0.744508
O O9 0.376854 0.176505 0.578696
O O10 0.219477 0.204468 0.456541
O O11 0.297111 0.125635 0.312334
O O12 0.712059 0.937238 0.969264
O O13 0.723656 0.995838 0.638187
O O14 0.550811 0.339842 0.725804
O O15 0.908114 0.129382 0.561513
#
# Coordination Sequence:
#
# PCOD9464956 Si02
#       8
#     8   4   8   8   8   8   4   8
#     4  11  24  44  67 100 126 166 221 262 322 402
#     4  10  20  37  60  91 135 167 214 267 316 367
#     4  11  21  40  65  93 133 178 216 270 321 380
#     4  12  28  45  68  99 131 168 212 277 338 395
#     4  11  23  37  68  98 129 171 225 260 310 392
#     4  10  22  39  65  96 132 175 221 264 326 379
#     4  10  22  35  60  95 129 173 218 263 314 377
#     4  11  23  42  71  91 130 175 215 264 333 392
#
# _framework density 22.725460999999999
#
# number of rings (size 3 to 8) (size 9 to 14) (size 15 to 20)
#    0.000    1.143    4.286    1.714    2.000    1.714 
#    0.000    0.000    0.000    3.429    0.000    0.000 
#    0.000    0.000    0.000    0.000    0.000    0.000 
#
# Total GULP energy -312214.662725 kJ/mol
# GULP energy per Si atom -5575.261834 kJ/mol
# Density = 2.267374 g / cm^3
# Si number density = 22.725461 Si / 1000 Ang^3
#
#
#
# Elastic Constant Matrix: (Units=GPa)
#
#
# Indices 1 2 3 4 5 6 
#
# 1 89.6308 3.8314 2.1212 0.0000 0.0000 0.0000
# 2 3.8314 69.7838 0.9475 0.0000 0.0000 0.0000
# 3 2.1212 0.9475 44.4696 0.0000 0.0000 0.0000
# 4 0.0000 0.0000 0.0000 36.3830 0.0000 0.0000
# 5 0.0000 0.0000 0.0000 0.0000 18.6974 0.0000
# 6 0.0000 0.0000 0.0000 0.0000 0.0000 62.2414
#
#
#
# Elastic Compliance Matrix: (Units=1/GPa)
#
#
# Indices 1 2 3 4 5 6 
#
# 1 0.011195 -0.000608 -0.000521 0.000000 0.000000 0.000000
# 2 -0.000608 0.014367 -0.000277 0.000000 0.000000 0.000000
# 3 -0.000521 -0.000277 0.022518 0.000000 0.000000 0.000000
# 4 0.000000 0.000000 0.000000 0.027485 0.000000 0.000000
# 5 0.000000 0.000000 0.000000 0.000000 0.053483 0.000000
# 6 0.000000 0.000000 0.000000 0.000000 0.000000 0.016066
#
#
# Mechanical properties :
#
#
# Convention : Reuss Voigt Hill
#
# Bulk Modulus (GPa) = 22.09029 24.18715 23.13872
# Shear Modulus (GPa) = 30.67172 36.59664 33.63418
#
# Velocity S-wave (km/s) = 3.67776 4.01731 3.85128
# Velocity P-wave (km/s) = 5.27031 5.67315 5.47544
#
# Compressibility (1/GPa) = 0.04526876
#
# Stress axis : x y z
#
# Youngs Moduli (GPa) = 89.32414 69.60346 44.40883
#
# Poissons Ratio (x) = 0.04229 0.02314
# Poissons Ratio (y) = 0.05427 0.01231
# Poissons Ratio (z) = 0.04654 0.01929
#
# Static dielectric constant tensor:
#      x y z
#    x 1.829940 0.000000 0.000000 
#    y 0.000000 1.836070 0.000000 
#    z 0.000000 0.000000 1.862870 
# 
# From -- ./inp_files/1295.got.cif
#   From: 2010.05.17/outbox.cif.g08.bks.cpg/sg62_1_cif.got.tgz:1295.got - 2010.06.03 15:25:27.
