data_PCOD9464722
_publ_section_title
;
Structure prediction by ZEFSAII (Michael W. Deem and Ramdas Pophale) SiO2 
 PCOD9464722
Probable space group: P N M A
;
_chemical_formula_sum "Si O2"
_cell_formula_units_Z 64
_cell_length_a 29.287094
_cell_length_b 11.905552
_cell_length_c 8.830197
_cell_angle_alpha 90.000000
_cell_angle_beta 90.000000
_cell_angle_gamma 90.000000
_cell_volume 3078.904441
_symmetry_space_group_name_H-M "P N M A"
_symmetry_group_IT_number 62
_symmetry_cell_setting 'orthorhombic'
loop_
_space_group_symop_operation_xyz
x,y,z
1/2-x,-y,1/2+z
1/2+x,1/2-y,1/2-z
-x,1/2+y,-z
-x,-y,-z
1/2+x,y,1/2-z
1/2-x,1/2+y,1/2+z
x,1/2-y,z
loop_
_atom_site_type_symbol
_atom_site_label
_atom_site_fract_x
_atom_site_fract_y
_atom_site_fract_z
Si Si1 0.191100 0.011398 0.975354
Si Si2 0.956765 0.011004 0.312948
Si Si3 0.251601 0.879213 0.743226
Si Si4 0.482424 0.881325 0.578810
Si Si5 0.542188 0.874726 0.125127
Si Si6 0.394364 0.007453 0.668039
Si Si7 0.872733 0.624451 0.234923
Si Si8 0.844623 0.874919 0.575577
O O1 0.228806 0.053354 0.096973
O O2 0.147929 0.957141 0.063386
O O3 0.165438 0.114258 0.893379
O O4 0.211663 0.937635 0.839487
O O5 0.912183 0.969190 0.225276
O O6 0.990939 0.906057 0.328568
O O7 0.945355 0.046783 0.483458
O O8 0.986824 0.106752 0.231249
O O9 0.240791 0.750000 0.701099
O O10 0.293303 0.876496 0.862963
O O11 0.486803 0.750000 0.524481
O O12 0.429027 0.911087 0.606918
O O13 0.500000 0.000000 0.500000
O O14 0.546569 0.750000 0.070705
O O15 0.572927 0.894911 0.272548
O O16 0.371359 0.959286 0.818978
O O17 0.892422 0.750000 0.233862
O O18 0.849223 0.605214 0.398023
O O19 0.863517 0.750000 0.604123
#
# Coordination Sequence:
#
# PCOD9464722 Si02
#       8
#     8   8   8   8   8   8   8   8
#     4  11  23  40  66  92 127 160 209 260 322 393
#     4  10  21  37  58  88 126 166 214 261 318 367
#     4  10  22  42  65  92 125 162 203 263 330 393
#     4  11  24  40  61  90 130 176 221 271 324 381
#     4  10  20  36  58  87 124 165 211 259 313 374
#     4  10  21  38  60  89 122 165 213 266 320 378
#     4  11  21  36  62  95 126 166 219 269 317 376
#     4   9  18  35  62  89 119 156 206 265 321 379
#
# _framework density 20.786615000000001
#
# number of rings (size 3 to 8) (size 9 to 14) (size 15 to 20)
#    0.000    1.750    1.250    3.000    0.000    5.500 
#    0.000    3.125    0.000    0.750    0.000    0.000 
#    0.000    0.000    0.000    0.000    0.000    0.000 
#
# Total GULP energy -356622.615223 kJ/mol
# GULP energy per Si atom -5572.228363 kJ/mol
# Density = 2.073930 g / cm^3
# Si number density = 20.786615 Si / 1000 Ang^3
#
#
#
# Elastic Constant Matrix: (Units=GPa)
#
#
# Indices 1 2 3 4 5 6 
#
# 1 74.0269 38.2339 33.6181 0.0000 0.0000 0.0000
# 2 38.2339 55.8865 10.3128 0.0000 0.0000 0.0000
# 3 33.6181 10.3128 80.0466 0.0000 0.0000 0.0000
# 4 0.0000 0.0000 0.0000 21.9025 0.0000 0.0000
# 5 0.0000 0.0000 0.0000 0.0000 48.6077 0.0000
# 6 0.0000 0.0000 0.0000 0.0000 0.0000 8.3837
#
#
#
# Elastic Compliance Matrix: (Units=1/GPa)
#
#
# Indices 1 2 3 4 5 6 
#
# 1 0.025746 -0.015999 -0.008752 0.000000 0.000000 0.000000
# 2 -0.015999 0.028271 0.003077 0.000000 0.000000 0.000000
# 3 -0.008752 0.003077 0.015772 0.000000 0.000000 0.000000
# 4 0.000000 0.000000 0.000000 0.045657 0.000000 0.000000
# 5 0.000000 0.000000 0.000000 0.000000 0.020573 0.000000
# 6 0.000000 0.000000 0.000000 0.000000 0.000000 0.119278
#
#
# Mechanical properties :
#
#
# Convention : Reuss Voigt Hill
#
# Bulk Modulus (GPa) = 37.81897 41.58771 39.70334
# Shear Modulus (GPa) = 16.26233 24.29846 20.28040
#
# Velocity S-wave (km/s) = 2.80008 3.42270 3.12692
# Velocity P-wave (km/s) = 5.35606 5.97245 5.67263
#
# Compressibility (1/GPa) = 0.02644176
#
# Stress axis : x y z
#
# Youngs Moduli (GPa) = 38.84049 35.37187 63.40403
#
# Poissons Ratio (x) = 0.56591 0.55490
# Poissons Ratio (y) = 0.62141 -0.19509
# Poissons Ratio (z) = 0.33992 -0.10884
#
# Static dielectric constant tensor:
#      x y z
#    x 1.765280 0.000000 0.000000 
#    y 0.000000 1.737620 0.000000 
#    z 0.000000 0.000000 1.820250 
# 
# From -- ./inp_files/10475.got.cif
#   From: 2010.05.17/outbox.cif.g08.bks.cpg/sg62_6_cif.got.tgz:10475.got - 2010.06.03 15:25:27.
