data_PCOD9464518
_publ_section_title
;
Structure prediction by ZEFSAII (Michael W. Deem and Ramdas Pophale) SiO2 
 PCOD9464518
Probable space group: P N M A
;
_chemical_formula_sum "Si O2"
_cell_formula_units_Z 32
_cell_length_a 7.944970
_cell_length_b 12.029986
_cell_length_c 18.117110
_cell_angle_alpha 90.000000
_cell_angle_beta 90.000000
_cell_angle_gamma 90.000000
_cell_volume 1731.594927
_symmetry_space_group_name_H-M "P N M A"
_symmetry_group_IT_number 62
_symmetry_cell_setting 'orthorhombic'
loop_
_space_group_symop_operation_xyz
x,y,z
1/2-x,-y,1/2+z
1/2+x,1/2-y,1/2-z
-x,1/2+y,-z
-x,-y,-z
1/2+x,y,1/2-z
1/2-x,1/2+y,1/2+z
x,1/2-y,z
loop_
_atom_site_type_symbol
_atom_site_label
_atom_site_fract_x
_atom_site_fract_y
_atom_site_fract_z
Si Si1 0.975365 0.987566 0.912825
Si Si2 0.151427 0.118176 0.570028
Si Si3 0.019030 0.250000 0.312833
Si Si4 0.872914 0.750000 0.853162
Si Si5 0.845616 0.538864 0.601702
O O1 0.922685 0.861445 0.895718
O O2 0.820954 0.068256 0.893528
O O3 0.839814 0.993220 0.120596
O O4 0.000000 0.000000 0.000000
O O5 0.141294 0.250000 0.577822
O O6 0.157202 0.087616 0.482312
O O7 0.989306 0.054592 0.602064
O O8 0.826186 0.250000 0.338735
O O9 0.033142 0.250000 0.225070
O O10 0.107037 0.140436 0.345344
#
# Coordination Sequence:
#
# PCOD9464518 Si02
#       5
#     8   8   4   4   8
#     4  10  22  36  57  88 125 156 204 253 306 365
#     4  10  20  35  58  87 124 160 204 246 306 364
#     4  12  22  40  66  91 133 155 211 260 308 381
#     4  12  24  40  62  99 121 169 201 260 320 361
#     4  10  20  36  56  90 121 161 199 257 302 357
#
# _framework density 18.480072
#
# number of rings (size 3 to 8) (size 9 to 14) (size 15 to 20)
#    0.000    1.500    3.750    2.250    5.250    1.000 
#    0.000    0.000    0.000    1.500    0.000    0.000 
#    0.000    0.000    0.000    0.000    0.000    0.000 
#
# Total GULP energy -178678.052216 kJ/mol
# GULP energy per Si atom -5583.689132 kJ/mol
# Density = 1.843801 g / cm^3
# Si number density = 18.480072 Si / 1000 Ang^3
#
#
#
# Elastic Constant Matrix: (Units=GPa)
#
#
# Indices 1 2 3 4 5 6 
#
# 1 189.5173 95.7543 22.2173 0.0000 0.0000 0.0000
# 2 95.7543 177.7021 39.5145 0.0000 0.0000 0.0000
# 3 22.2173 39.5145 56.0702 0.0000 0.0000 0.0000
# 4 0.0000 0.0000 0.0000 9.6999 0.0000 0.0000
# 5 0.0000 0.0000 0.0000 0.0000 21.3705 0.0000
# 6 0.0000 0.0000 0.0000 0.0000 0.0000 24.4105
#
#
#
# Elastic Compliance Matrix: (Units=1/GPa)
#
#
# Indices 1 2 3 4 5 6 
#
# 1 0.007252 -0.003876 -0.000142 0.000000 0.000000 0.000000
# 2 -0.003876 0.008745 -0.004627 0.000000 0.000000 0.000000
# 3 -0.000142 -0.004627 0.021152 0.000000 0.000000 0.000000
# 4 0.000000 0.000000 0.000000 0.103094 0.000000 0.000000
# 5 0.000000 0.000000 0.000000 0.000000 0.046793 0.000000
# 6 0.000000 0.000000 0.000000 0.000000 0.000000 0.040966
#
#
# Mechanical properties :
#
#
# Convention : Reuss Voigt Hill
#
# Bulk Modulus (GPa) = 50.35596 82.02908 66.19252
# Shear Modulus (GPa) = 19.84832 28.81643 24.33238
#
# Velocity S-wave (km/s) = 3.28081 3.95311 3.63255
# Velocity P-wave (km/s) = 6.45442 8.08210 7.31368
#
# Compressibility (1/GPa) = 0.01985862
#
# Stress axis : x y z
#
# Youngs Moduli (GPa) = 137.90224 114.35393 47.27743
#
# Poissons Ratio (x) = 0.44323 0.00671
# Poissons Ratio (y) = 0.53450 0.21875
# Poissons Ratio (z) = 0.01956 0.52911
#
# Static dielectric constant tensor:
#      x y z
#    x 1.687480 0.000000 0.000000 
#    y 0.000000 1.604450 0.000000 
#    z 0.000000 0.000000 1.590440 
# 
# From -- ./inp_files/16472.got.cif
#   From: 2010.05.17/outbox.cif.g08.bks.cpg/sg62_9_cif.got.tgz:16472.got - 2010.06.03 15:25:27.
