data_PCOD9464202
_publ_section_title
;
Structure prediction by ZEFSAII (Michael W. Deem and Ramdas Pophale) SiO2 
 PCOD9464202
Probable space group: P N M A
;
_chemical_formula_sum "Si O2"
_cell_formula_units_Z 56
_cell_length_a 18.124044
_cell_length_b 8.816918
_cell_length_c 19.696891
_cell_angle_alpha 90.000000
_cell_angle_beta 90.000000
_cell_angle_gamma 90.000000
_cell_volume 3147.527920
_symmetry_space_group_name_H-M "P N M A"
_symmetry_group_IT_number 62
_symmetry_cell_setting 'orthorhombic'
loop_
_space_group_symop_operation_xyz
x,y,z
1/2-x,-y,1/2+z
1/2+x,1/2-y,1/2-z
-x,1/2+y,-z
-x,-y,-z
1/2+x,y,1/2-z
1/2-x,1/2+y,1/2+z
x,1/2-y,z
loop_
_atom_site_type_symbol
_atom_site_label
_atom_site_fract_x
_atom_site_fract_y
_atom_site_fract_z
Si Si1 0.477410 0.933167 0.839018
Si Si2 0.873792 0.931392 0.397056
Si Si3 0.198447 0.068558 0.960293
Si Si4 0.933131 0.566754 0.813566
Si Si5 0.034227 0.067516 0.931085
Si Si6 0.146264 0.067450 0.446366
Si Si7 0.281460 0.931721 0.618996
O O1 0.481525 0.750000 0.842130
O O2 0.453902 0.975482 0.762944
O O3 0.415300 0.983479 0.893015
O O4 0.556001 0.000219 0.859565
O O5 0.876494 0.750000 0.394878
O O6 0.874006 0.980092 0.476638
O O7 0.796222 0.988955 0.367176
O O8 0.205353 0.250000 0.954566
O O9 0.196480 0.032006 0.040947
O O10 0.120544 0.022459 0.928237
O O11 0.272032 0.993399 0.931153
O O12 0.937773 0.750000 0.820154
O O13 0.849466 0.523647 0.833369
O O14 0.988318 0.493280 0.867593
O O15 0.030739 0.250000 0.934440
O O16 0.000000 0.000000 0.000000
O O17 0.148596 0.250000 0.445361
O O18 0.271627 0.750000 0.623288
#
# Coordination Sequence:
#
# PCOD9464202 Si02
#       7
#     8   8   8   8   8   8   8
#     4  10  21  38  57  79 110 147 187 228 277 333
#     4  10  20  34  56  84 111 140 183 231 279 331
#     4   9  18  33  54  81 109 138 175 222 274 325
#     4  10  21  38  57  79 109 148 190 228 275 333
#     4  11  21  35  57  83 113 146 185 229 274 326
#     4   9  19  35  56  83 110 140 182 233 277 324
#     4   9  17  34  56  77 106 141 180 223 272 327
#
# _framework density 17.791740000000001
#
# number of rings (size 3 to 8) (size 9 to 14) (size 15 to 20)
#    0.000    2.286    1.429    1.286    0.000    3.429 
#    2.571    0.000    0.000    0.000    0.000    0.000 
#    0.000    0.000    0.000    0.000    0.000    0.000 
#
# Total GULP energy -312531.497770 kJ/mol
# GULP energy per Si atom -5580.919603 kJ/mol
# Density = 1.775125 g / cm^3
# Si number density = 17.791740 Si / 1000 Ang^3
#
#
#
# Elastic Constant Matrix: (Units=GPa)
#
#
# Indices 1 2 3 4 5 6 
#
# 1 203.9185 46.8185 103.1058 0.0000 0.0000 0.0000
# 2 46.8185 17.7733 36.1528 0.0000 0.0000 0.0000
# 3 103.1058 36.1528 106.6041 0.0000 0.0000 0.0000
# 4 0.0000 0.0000 0.0000 22.2409 0.0000 0.0000
# 5 0.0000 0.0000 0.0000 0.0000 17.9371 0.0000
# 6 0.0000 0.0000 0.0000 0.0000 0.0000 35.1883
#
#
#
# Elastic Compliance Matrix: (Units=1/GPa)
#
#
# Indices 1 2 3 4 5 6 
#
# 1 0.012704 -0.027313 -0.003025 0.000000 0.000000 0.000000
# 2 -0.027313 0.240119 -0.055015 0.000000 0.000000 0.000000
# 3 -0.003025 -0.055015 0.030963 0.000000 0.000000 0.000000
# 4 0.000000 0.000000 0.000000 0.044962 0.000000 0.000000
# 5 0.000000 0.000000 0.000000 0.000000 0.055750 0.000000
# 6 0.000000 0.000000 0.000000 0.000000 0.000000 0.028418
#
#
# Mechanical properties :
#
#
# Convention : Reuss Voigt Hill
#
# Bulk Modulus (GPa) = 8.84323 77.82778 43.33550
# Shear Modulus (GPa) = 8.04744 24.55452 16.30098
#
# Velocity S-wave (km/s) = 2.12907 3.71901 3.03018
# Velocity P-wave (km/s) = 3.32041 7.89178 6.05414
#
# Compressibility (1/GPa) = 0.11308084
#
# Stress axis : x y z
#
# Youngs Moduli (GPa) = 78.71485 4.16461 32.29656
#
# Poissons Ratio (x) = 0.11375 0.09768
# Poissons Ratio (y) = 2.14994 1.77679
# Poissons Ratio (z) = 0.23807 0.22912
#
# Static dielectric constant tensor:
#      x y z
#    x 1.591560 0.000000 0.000000 
#    y 0.000000 1.601150 0.000000 
#    z 0.000000 0.000000 1.589490 
# 
# From -- ./inp_files/27574.got.cif
#   From: 2010.05.17/outbox.cif.g08.bks.cpg/sg62_14_cif.got.tgz:27574.got - 2010.06.03 15:25:27.
