data_PCOD9464317
_publ_section_title
;
Structure prediction by ZEFSAII (Michael W. Deem and Ramdas Pophale) SiO2 
 PCOD9464317
Probable space group: P N M A
;
_chemical_formula_sum "Si O2"
_cell_formula_units_Z 56
_cell_length_a 15.096039
_cell_length_b 7.703825
_cell_length_c 21.982427
_cell_angle_alpha 90.000000
_cell_angle_beta 90.000000
_cell_angle_gamma 90.000000
_cell_volume 2556.495647
_symmetry_space_group_name_H-M "P N M A"
_symmetry_group_IT_number 62
_symmetry_cell_setting 'orthorhombic'
loop_
_space_group_symop_operation_xyz
x,y,z
1/2-x,-y,1/2+z
1/2+x,1/2-y,1/2-z
-x,1/2+y,-z
-x,-y,-z
1/2+x,y,1/2-z
1/2-x,1/2+y,1/2+z
x,1/2-y,z
loop_
_atom_site_type_symbol
_atom_site_label
_atom_site_fract_x
_atom_site_fract_y
_atom_site_fract_z
Si Si1 0.834490 0.545065 0.359944
Si Si2 0.148780 0.039854 0.089859
Si Si3 0.818388 0.048042 0.222335
Si Si4 0.698514 0.954465 0.114564
Si Si5 0.625881 0.461924 0.545884
Si Si6 0.010644 0.948747 0.841586
Si Si7 0.508876 0.959520 0.071409
O O1 0.845280 0.750000 0.350914
O O2 0.749796 0.512696 0.401902
O O3 0.812444 0.468223 0.294102
O O4 0.923759 0.475094 0.391041
O O5 0.144548 0.250000 0.091035
O O6 0.085678 0.973574 0.144400
O O7 0.115621 0.983731 0.023583
O O8 0.821365 0.250000 0.205260
O O9 0.913437 0.969772 0.200882
O O10 0.737347 0.975874 0.182581
O O11 0.692049 0.750000 0.102988
O O12 0.777078 0.016774 0.070306
O O13 0.601791 0.026804 0.099101
O O14 0.619261 0.250000 0.550279
O O15 0.556723 0.545030 0.592143
O O16 0.996939 0.750000 0.820822
O O17 0.507885 0.750000 0.076748
O O18 0.500000 0.000000 0.000000
#
# Coordination Sequence:
#
# PCOD9464317 Si02
#       7
#     8   8   8   8   8   8   8
#     4  11  24  39  55  79 109 143 184 231 276 325
#     4  10  20  35  54  79 110 143 177 216 264 318
#     4  10  21  38  57  79 107 142 183 228 277 329
#     4   9  18  35  57  81 110 145 183 225 273 328
#     4   9  17  30  53  82 111 142 174 211 261 317
#     4   9  19  34  54  80 110 141 176 217 262 316
#     4  10  22  39  60  86 116 150 190 234 284 337
#
# _framework density 21.904987999999999
#
# number of rings (size 3 to 8) (size 9 to 14) (size 15 to 20)
#    0.000    2.286    0.000    2.143    0.000    5.714 
#    0.000    5.714    0.000    0.000    0.000    0.000 
#    0.000    0.000    0.000    0.000    0.000    0.000 
#
# Total GULP energy -312557.226078 kJ/mol
# GULP energy per Si atom -5581.379037 kJ/mol
# Density = 2.185513 g / cm^3
# Si number density = 21.904988 Si / 1000 Ang^3
#
#
#
# Elastic Constant Matrix: (Units=GPa)
#
#
# Indices 1 2 3 4 5 6 
#
# 1 98.1583 -7.6736 -7.6861 0.0000 0.0000 0.0000
# 2 -7.6736 36.1123 -17.3811 0.0000 0.0000 0.0000
# 3 -7.6861 -17.3811 59.8970 0.0000 0.0000 0.0000
# 4 0.0000 0.0000 0.0000 22.9062 0.0000 0.0000
# 5 0.0000 0.0000 0.0000 0.0000 13.0539 0.0000
# 6 0.0000 0.0000 0.0000 0.0000 0.0000 12.2103
#
#
#
# Elastic Compliance Matrix: (Units=1/GPa)
#
#
# Indices 1 2 3 4 5 6 
#
# 1 0.010637 0.003391 0.002349 0.000000 0.000000 0.000000
# 2 0.003391 0.033268 0.010089 0.000000 0.000000 0.000000
# 3 0.002349 0.010089 0.019924 0.000000 0.000000 0.000000
# 4 0.000000 0.000000 0.000000 0.043656 0.000000 0.000000
# 5 0.000000 0.000000 0.000000 0.000000 0.076605 0.000000
# 6 0.000000 0.000000 0.000000 0.000000 0.000000 0.081898
#
#
# Mechanical properties :
#
#
# Convention : Reuss Voigt Hill
#
# Bulk Modulus (GPa) = 10.47279 14.29844 12.38562
# Shear Modulus (GPa) = 18.78567 24.76131 21.77349
#
# Velocity S-wave (km/s) = 2.93165 3.36578 3.15619
# Velocity P-wave (km/s) = 4.03123 4.65256 4.35300
#
# Compressibility (1/GPa) = 0.09548556
#
# Stress axis : x y z
#
# Youngs Moduli (GPa) = 94.01487 30.05915 50.18980
#
# Poissons Ratio (x) = -0.10192 -0.11789
# Poissons Ratio (y) = -0.31878 -0.50636
# Poissons Ratio (z) = -0.22083 -0.30326
#
# Static dielectric constant tensor:
#      x y z
#    x 1.849650 0.000000 0.000000 
#    y 0.000000 1.888870 0.000000 
#    z 0.000000 0.000000 1.778270 
# 
# From -- ./inp_files/27080.got.cif
#   From: 2010.05.17/outbox.cif.g08.bks.cpg/sg62_14_cif.got.tgz:27080.got - 2010.06.03 15:25:27.
