data_PCOD9464637
_publ_section_title
;
Structure prediction by ZEFSAII (Michael W. Deem and Ramdas Pophale) SiO2 
 PCOD9464637
Probable space group: P N M A
;
_chemical_formula_sum "Si O2"
_cell_formula_units_Z 36
_cell_length_a 12.975241
_cell_length_b 15.171491
_cell_length_c 7.895876
_cell_angle_alpha 90.000000
_cell_angle_beta 90.000000
_cell_angle_gamma 90.000000
_cell_volume 1554.332816
_symmetry_space_group_name_H-M "P N M A"
_symmetry_group_IT_number 62
_symmetry_cell_setting 'orthorhombic'
loop_
_space_group_symop_operation_xyz
x,y,z
1/2-x,-y,1/2+z
1/2+x,1/2-y,1/2-z
-x,1/2+y,-z
-x,-y,-z
1/2+x,y,1/2-z
1/2-x,1/2+y,1/2+z
x,1/2-y,z
loop_
_atom_site_type_symbol
_atom_site_label
_atom_site_fract_x
_atom_site_fract_y
_atom_site_fract_z
Si Si1 0.592214 0.750000 0.903669
Si Si2 0.373864 0.250000 0.502763
Si Si3 0.125856 0.560495 0.642229
Si Si4 0.854817 0.750000 0.593635
Si Si5 0.394944 0.054256 0.524304
Si Si6 0.123913 0.442014 0.334253
O O1 0.592096 0.750000 0.696271
O O2 0.646161 0.843338 0.942024
O O3 0.473752 0.750000 0.972989
O O4 0.248769 0.250000 0.519421
O O5 0.412800 0.156613 0.571937
O O6 0.153131 0.482016 0.515899
O O7 0.001095 0.558895 0.658182
O O8 0.158734 0.554914 0.839213
O O9 0.846761 0.840842 0.694530
O O10 0.500000 0.000000 0.500000
O O11 0.343958 0.003663 0.679893
#
# Coordination Sequence:
#
# PCOD9464637 Si02
#       6
#     4   4   8   4   8   8
#     4   8  16  33  57  79 117 156 196 236 306 348
#     4  10  20  37  57  89 127 150 202 258 296 352
#     4   8  15  30  54  82 109 146 194 238 279 352
#     4  10  20  36  56  86 120 160 192 254 296 348
#     4   9  18  34  57  84 112 152 195 241 293 352
#     4   9  17  32  54  80 112 152 191 233 298 339
#
# _framework density 23.161061
#
# number of rings (size 3 to 8) (size 9 to 14) (size 15 to 20)
#    0.000    3.111    0.000    1.333    0.000    0.889 
#    8.000    7.778    0.000    5.333    0.000    0.000 
#    0.000    0.000    0.000    0.000    0.000    0.000 
#
# Total GULP energy -200736.645142 kJ/mol
# GULP energy per Si atom -5576.017921 kJ/mol
# Density = 2.310835 g / cm^3
# Si number density = 23.161061 Si / 1000 Ang^3
#
#
#
# Elastic Constant Matrix: (Units=GPa)
#
#
# Indices 1 2 3 4 5 6 
#
# 1 84.5157 22.5112 15.3322 0.0000 0.0000 0.0000
# 2 22.5112 226.3593 68.9901 0.0000 0.0000 0.0000
# 3 15.3322 68.9901 84.8393 0.0000 0.0000 0.0000
# 4 0.0000 0.0000 0.0000 20.3236 0.0000 0.0000
# 5 0.0000 0.0000 0.0000 0.0000 33.8877 0.0000
# 6 0.0000 0.0000 0.0000 0.0000 0.0000 20.0886
#
#
#
# Elastic Compliance Matrix: (Units=1/GPa)
#
#
# Indices 1 2 3 4 5 6 
#
# 1 0.012322 -0.000727 -0.001636 0.000000 0.000000 0.000000
# 2 -0.000727 0.005916 -0.004680 0.000000 0.000000 0.000000
# 3 -0.001636 -0.004680 0.015888 0.000000 0.000000 0.000000
# 4 0.000000 0.000000 0.000000 0.049204 0.000000 0.000000
# 5 0.000000 0.000000 0.000000 0.000000 0.029509 0.000000
# 6 0.000000 0.000000 0.000000 0.000000 0.000000 0.049779
#
#
# Mechanical properties :
#
#
# Convention : Reuss Voigt Hill
#
# Bulk Modulus (GPa) = 49.89508 67.70902 58.80205
# Shear Modulus (GPa) = 27.26505 34.11871 30.69188
#
# Velocity S-wave (km/s) = 3.43475 3.84227 3.64421
# Velocity P-wave (km/s) = 6.10896 6.99868 6.56890
#
# Compressibility (1/GPa) = 0.02004206
#
# Stress axis : x y z
#
# Youngs Moduli (GPa) = 81.15241 169.02355 62.94023
#
# Poissons Ratio (x) = 0.12286 0.10296
# Poissons Ratio (y) = 0.05899 0.29454
# Poissons Ratio (z) = 0.13275 0.79098
#
# Static dielectric constant tensor:
#      x y z
#    x 2.008170 0.000000 0.000000 
#    y 0.000000 1.859040 0.000000 
#    z 0.000000 0.000000 1.843580 
# 
# From -- ./inp_files/6043.got.cif
#   From: 2010.05.17/outbox.cif.g08.bks.cpg/sg62_4_cif.got.tgz:6043.got - 2010.06.03 15:25:27.
