data_PCOD9464400
_publ_section_title
;
Structure prediction by ZEFSAII (Michael W. Deem and Ramdas Pophale) SiO2 
 PCOD9464400
Probable space group: P N M A
;
_chemical_formula_sum "Si O2"
_cell_formula_units_Z 64
_cell_length_a 17.402414
_cell_length_b 7.975683
_cell_length_c 21.388236
_cell_angle_alpha 90.000000
_cell_angle_beta 90.000000
_cell_angle_gamma 90.000000
_cell_volume 2968.604545
_symmetry_space_group_name_H-M "P N M A"
_symmetry_group_IT_number 62
_symmetry_cell_setting 'orthorhombic'
loop_
_space_group_symop_operation_xyz
x,y,z
1/2-x,-y,1/2+z
1/2+x,1/2-y,1/2-z
-x,1/2+y,-z
-x,-y,-z
1/2+x,y,1/2-z
1/2-x,1/2+y,1/2+z
x,1/2-y,z
loop_
_atom_site_type_symbol
_atom_site_label
_atom_site_fract_x
_atom_site_fract_y
_atom_site_fract_z
Si Si1 0.214878 0.052751 0.676164
Si Si2 0.651409 0.948617 0.399263
Si Si3 0.523869 0.052658 0.145723
Si Si4 0.111879 0.546895 0.559327
Si Si5 0.667097 0.550442 0.076654
Si Si6 0.830246 0.453008 0.037716
Si Si7 0.921239 0.947024 0.241001
Si Si8 0.021518 0.556508 0.890598
O O1 0.221594 0.250000 0.690988
O O2 0.298598 0.982068 0.658625
O O3 0.158260 0.983754 0.729308
O O4 0.168166 0.029598 0.611400
O O5 0.667366 0.750000 0.400396
O O6 0.678116 0.016771 0.466631
O O7 0.560813 0.970802 0.394120
O O8 0.512638 0.250000 0.155608
O O9 0.473101 0.003249 0.084615
O O10 0.612148 0.016985 0.130857
O O11 0.485655 0.963305 0.204942
O O12 0.119338 0.750000 0.560637
O O13 0.134214 0.487217 0.490380
O O14 0.660373 0.750000 0.077303
O O15 0.756528 0.504008 0.077936
O O16 0.832856 0.250000 0.036942
O O17 0.911336 0.513651 0.065135
O O18 0.912850 0.750000 0.225737
O O19 0.946892 0.041789 0.179467
O O20 0.009234 0.750000 0.907613
#
# Coordination Sequence:
#
# PCOD9464400 Si02
#       8
#     8   8   8   8   8   8   8   8
#     4   9  18  34  60  88 114 150 194 238 291 348
#     4  10  20  38  64  91 117 151 194 245 300 353
#     4  10  20  35  56  82 116 157 196 239 291 349
#     4   9  18  31  51  82 118 153 191 237 289 346
#     4  11  21  33  53  85 121 155 195 240 292 352
#     4  10  22  40  61  86 119 155 195 246 303 357
#     4  10  21  40  62  85 115 153 197 244 290 346
#     4  11  24  41  61  87 117 155 197 242 297 354
#
# _framework density 21.558951
#
# number of rings (size 3 to 8) (size 9 to 14) (size 15 to 20)
#    0.000    2.000    1.250    2.250    0.000    3.500 
#    2.250    0.000    0.000    0.000    0.000    0.000 
#    0.000    0.000    0.000    0.000    0.000    0.000 
#
# Total GULP energy -357361.442667 kJ/mol
# GULP energy per Si atom -5583.772542 kJ/mol
# Density = 2.150988 g / cm^3
# Si number density = 21.558951 Si / 1000 Ang^3
#
#
#
# Elastic Constant Matrix: (Units=GPa)
#
#
# Indices 1 2 3 4 5 6 
#
# 1 114.4468 -5.5300 4.7576 0.0000 0.0000 0.0000
# 2 -5.5300 22.2786 -8.4043 0.0000 0.0000 0.0000
# 3 4.7576 -8.4043 25.6889 0.0000 0.0000 0.0000
# 4 0.0000 0.0000 0.0000 17.8728 0.0000 0.0000
# 5 0.0000 0.0000 0.0000 0.0000 -2.5159 0.0000
# 6 0.0000 0.0000 0.0000 0.0000 0.0000 21.6048
#
#
#
# Elastic Compliance Matrix: (Units=1/GPa)
#
#
# Indices 1 2 3 4 5 6 
#
# 1 0.008869 0.001804 -0.001052 0.000000 0.000000 0.000000
# 2 0.001804 0.051573 0.016538 0.000000 0.000000 0.000000
# 3 -0.001052 0.016538 0.044533 0.000000 0.000000 0.000000
# 4 0.000000 0.000000 0.000000 0.055951 0.000000 0.000000
# 5 0.000000 0.000000 0.000000 0.000000 -0.397469 0.000000
# 6 0.000000 0.000000 0.000000 0.000000 0.000000 0.046286
#
#
# Mechanical properties :
#
#
# Convention : Reuss Voigt Hill
#
# Bulk Modulus (GPa) = 7.16561 16.00677 11.58619
# Shear Modulus (GPa) = -28.03944 18.83174 -4.60385
#
# Velocity S-wave (km/s) = -3.61029 2.95871 -1.46291
# Velocity P-wave (km/s) = 3.74806 4.37181 1.59135
#
# Compressibility (1/GPa) = 0.13955541
#
# Stress axis : x y z
#
# Youngs Moduli (GPa) = 112.75724 19.39004 22.45539
#
# Poissons Ratio (x) = -0.03499 0.02363
# Poissons Ratio (y) = -0.20347 -0.37137
# Poissons Ratio (z) = 0.11864 -0.32068
#
# Static dielectric constant tensor:
#      x y z
#    x 1.808940 0.000000 0.000000 
#    y 0.000000 1.778690 0.000000 
#    z 0.000000 0.000000 1.775910 
# 
# From -- ./inp_files/29793.got.cif
#   From: 2010.05.17/outbox.cif.g08.bks.cpg/sg62_15_cif.got.tgz:29793.got - 2010.06.03 15:25:27.
