data_PCOD9464314
_publ_section_title
;
Structure prediction by ZEFSAII (Michael W. Deem and Ramdas Pophale) SiO2 
 PCOD9464314
Probable space group: P N M A
;
_chemical_formula_sum "Si O2"
_cell_formula_units_Z 32
_cell_length_a 7.667669
_cell_length_b 19.765843
_cell_length_c 9.496779
_cell_angle_alpha 90.000000
_cell_angle_beta 90.000000
_cell_angle_gamma 90.000000
_cell_volume 1439.312277
_symmetry_space_group_name_H-M "P N M A"
_symmetry_group_IT_number 62
_symmetry_cell_setting 'orthorhombic'
loop_
_space_group_symop_operation_xyz
x,y,z
1/2-x,-y,1/2+z
1/2+x,1/2-y,1/2-z
-x,1/2+y,-z
-x,-y,-z
1/2+x,y,1/2-z
1/2-x,1/2+y,1/2+z
x,1/2-y,z
loop_
_atom_site_type_symbol
_atom_site_label
_atom_site_fract_x
_atom_site_fract_y
_atom_site_fract_z
Si Si1 0.720919 0.536053 0.938533
Si Si2 0.045582 0.324005 0.797628
Si Si3 0.896971 0.323231 0.516307
Si Si4 0.541805 0.026372 0.694667
O O1 0.597681 0.484414 0.855467
O O2 0.905574 0.529238 0.857194
O O3 0.633382 0.609674 0.927751
O O4 0.784657 0.521158 0.097189
O O5 0.964890 0.250000 0.832480
O O6 0.055035 0.326068 0.627679
O O7 0.229834 0.323565 0.877550
O O8 0.968300 0.397940 0.833241
O O9 0.900313 0.250000 0.442960
#
# Coordination Sequence:
#
# PCOD9464314 Si02
#       4
#     8   8   8   8
#     4  10  21  35  53  76 106 139 175 216 263 315
#     4   9  17  31  53  77 101 132 174 219 256 296
#     4   9  18  33  52  76 106 138 174 218 263 310
#     4  10  20  35  54  79 107 138 173 217 268 316
#
# _framework density 22.232841000000001
#
# number of rings (size 3 to 8) (size 9 to 14) (size 15 to 20)
#    0.000    2.500    0.000    3.000    0.000    4.000 
#    0.000    1.250    0.000    3.000    0.000    0.000 
#    0.000    0.000    0.000    0.000    0.000    0.000 
#
# Total GULP energy -178155.417611 kJ/mol
# GULP energy per Si atom -5567.356800 kJ/mol
# Density = 2.218224 g / cm^3
# Si number density = 22.232841 Si / 1000 Ang^3
#
#
#
# Elastic Constant Matrix: (Units=GPa)
#
#
# Indices 1 2 3 4 5 6 
#
# 1 41.3568 25.8479 -1.9019 0.0000 0.0000 0.0000
# 2 25.8479 156.6236 45.4784 0.0000 0.0000 0.0000
# 3 -1.9019 45.4784 48.4994 0.0000 0.0000 0.0000
# 4 0.0000 0.0000 0.0000 30.4226 0.0000 0.0000
# 5 0.0000 0.0000 0.0000 0.0000 35.8814 0.0000
# 6 0.0000 0.0000 0.0000 0.0000 0.0000 25.9548
#
#
#
# Elastic Compliance Matrix: (Units=1/GPa)
#
#
# Indices 1 2 3 4 5 6 
#
# 1 0.028915 -0.007010 0.007707 0.000000 0.000000 0.000000
# 2 -0.007010 0.010473 -0.010096 0.000000 0.000000 0.000000
# 3 0.007707 -0.010096 0.030388 0.000000 0.000000 0.000000
# 4 0.000000 0.000000 0.000000 0.032870 0.000000 0.000000
# 5 0.000000 0.000000 0.000000 0.000000 0.027870 0.000000
# 6 0.000000 0.000000 0.000000 0.000000 0.000000 0.038529
#
#
# Mechanical properties :
#
#
# Convention : Reuss Voigt Hill
#
# Bulk Modulus (GPa) = 19.61566 42.81428 31.21497
# Shear Modulus (GPa) = 24.40998 30.25547 27.33272
#
# Velocity S-wave (km/s) = 3.31709 3.69297 3.51006
# Velocity P-wave (km/s) = 4.84900 6.12234 5.52249
#
# Compressibility (1/GPa) = 0.05097967
#
# Stress axis : x y z
#
# Youngs Moduli (GPa) = 34.58362 95.48355 32.90803
#
# Poissons Ratio (x) = 0.66933 -0.25363
# Poissons Ratio (y) = 0.24243 0.33222
# Poissons Ratio (z) = -0.26654 0.96396
#
# Static dielectric constant tensor:
#      x y z
#    x 1.918100 0.000000 0.000000 
#    y 0.000000 1.860200 0.000000 
#    z 0.000000 0.000000 1.833480 
# 
# From -- ./inp_files/4126.got.cif
#   From: 2010.05.17/outbox.cif.g08.bks.cpg/sg62_3_cif.got.tgz:4126.got - 2010.06.03 15:25:27.
