data_PCOD9464304
_publ_section_title
;
Structure prediction by ZEFSAII (Michael W. Deem and Ramdas Pophale) SiO2 
 PCOD9464304
Probable space group: P N M A
;
_chemical_formula_sum "Si O2"
_cell_formula_units_Z 48
_cell_length_a 20.457671
_cell_length_b 8.620744
_cell_length_c 15.457165
_cell_angle_alpha 90.000000
_cell_angle_beta 90.000000
_cell_angle_gamma 90.000000
_cell_volume 2726.030945
_symmetry_space_group_name_H-M "P N M A"
_symmetry_group_IT_number 62
_symmetry_cell_setting 'orthorhombic'
loop_
_space_group_symop_operation_xyz
x,y,z
1/2-x,-y,1/2+z
1/2+x,1/2-y,1/2-z
-x,1/2+y,-z
-x,-y,-z
1/2+x,y,1/2-z
1/2-x,1/2+y,1/2+z
x,1/2-y,z
loop_
_atom_site_type_symbol
_atom_site_label
_atom_site_fract_x
_atom_site_fract_y
_atom_site_fract_z
Si Si1 0.986134 0.937115 0.225424
Si Si2 0.811920 0.562532 0.387556
Si Si3 0.164643 0.438436 0.804433
Si Si4 0.555507 0.064685 0.436130
Si Si5 0.697100 0.062398 0.506620
Si Si6 0.038818 0.436848 0.581441
O O1 0.990550 0.750000 0.220252
O O2 0.912306 0.980426 0.196062
O O3 0.991602 0.983787 0.325803
O O4 0.037383 0.010071 0.159968
O O5 0.665984 0.250000 0.695876
O O6 0.805192 0.511058 0.287140
O O7 0.756400 0.498768 0.449636
O O8 0.884937 0.515543 0.417180
O O9 0.190283 0.250000 0.611551
O O10 0.197962 0.490556 0.893143
O O11 0.553760 0.250000 0.441218
O O12 0.627334 0.013340 0.466562
O O13 0.500000 0.000000 0.500000
O O14 0.698848 0.250000 0.506245
O O15 0.037812 0.250000 0.579480
O O16 0.000000 0.500000 0.500000
#
# Coordination Sequence:
#
# PCOD9464304 Si02
#       6
#     8   8   8   8   8   8
#     4   9  17  34  56  77 103 138 177 216 259 314
#     4   9  19  36  56  77 102 138 180 218 256 310
#     4   8  15  33  56  72  97 138 174 207 257 310
#     4  11  21  33  53  81 110 139 172 217 268 317
#     4  10  20  35  54  76 106 140 173 217 266 313
#     4   9  19  36  59  81 106 140 179 221 265 313
#
# _framework density 17.608015999999999
#
# number of rings (size 3 to 8) (size 9 to 14) (size 15 to 20)
#    0.000    2.667    1.667    2.500    0.000    2.667 
#    3.000    3.333    0.000    0.000    0.000    0.000 
#    0.000    0.000    0.000    0.000    0.000    0.000 
#
# Total GULP energy -267622.942256 kJ/mol
# GULP energy per Si atom -5575.477964 kJ/mol
# Density = 1.756794 g / cm^3
# Si number density = 17.608016 Si / 1000 Ang^3
#
#
#
# Elastic Constant Matrix: (Units=GPa)
#
#
# Indices 1 2 3 4 5 6 
#
# 1 103.5470 23.5547 106.2757 0.0000 0.0000 0.0000
# 2 23.5547 11.7456 30.0853 0.0000 0.0000 0.0000
# 3 106.2757 30.0853 196.8225 0.0000 0.0000 0.0000
# 4 0.0000 0.0000 0.0000 32.2163 0.0000 0.0000
# 5 0.0000 0.0000 0.0000 0.0000 35.5580 0.0000
# 6 0.0000 0.0000 0.0000 0.0000 0.0000 29.6801
#
#
#
# Elastic Compliance Matrix: (Units=1/GPa)
#
#
# Indices 1 2 3 4 5 6 
#
# 1 0.025849 -0.026439 -0.009916 0.000000 0.000000 0.000000
# 2 -0.026439 0.166963 -0.011245 0.000000 0.000000 0.000000
# 3 -0.009916 -0.011245 0.012154 0.000000 0.000000 0.000000
# 4 0.000000 0.000000 0.000000 0.031040 0.000000 0.000000
# 5 0.000000 0.000000 0.000000 0.000000 0.028123 0.000000
# 6 0.000000 0.000000 0.000000 0.000000 0.000000 0.033693
#
#
# Mechanical properties :
#
#
# Convention : Reuss Voigt Hill
#
# Bulk Modulus (GPa) = 9.11034 70.21626 39.66330
# Shear Modulus (GPa) = 11.63844 29.63751 20.63798
#
# Velocity S-wave (km/s) = 2.57373 4.10711 3.42728
# Velocity P-wave (km/s) = 3.74397 7.90286 6.18355
#
# Compressibility (1/GPa) = 0.10976538
#
# Stress axis : x y z
#
# Youngs Moduli (GPa) = 38.68592 5.98936 82.27821
#
# Poissons Ratio (x) = 0.15835 0.81588
# Poissons Ratio (y) = 1.02282 0.92523
# Poissons Ratio (z) = 0.38361 0.06735
#
# Static dielectric constant tensor:
#      x y z
#    x 1.571970 0.000000 0.000000 
#    y 0.000000 1.604280 0.000000 
#    z 0.000000 0.000000 1.613980 
# 
# From -- ./inp_files/19584.got.cif
#   From: 2010.05.17/outbox.cif.g08.bks.cpg/sg62_10_cif.got.tgz:19584.got - 2010.06.03 15:25:27.
