data_PCOD9464076
_publ_section_title
;
Structure prediction by ZEFSAII (Michael W. Deem and Ramdas Pophale) SiO2 
 PCOD9464076
Probable space group: P N M A
;
_chemical_formula_sum "Si O2"
_cell_formula_units_Z 40
_cell_length_a 11.147901
_cell_length_b 7.408656
_cell_length_c 19.275218
_cell_angle_alpha 90.000000
_cell_angle_beta 90.000000
_cell_angle_gamma 90.000000
_cell_volume 1591.958829
_symmetry_space_group_name_H-M "P N M A"
_symmetry_group_IT_number 62
_symmetry_cell_setting 'orthorhombic'
loop_
_space_group_symop_operation_xyz
x,y,z
1/2-x,-y,1/2+z
1/2+x,1/2-y,1/2-z
-x,1/2+y,-z
-x,-y,-z
1/2+x,y,1/2-z
1/2-x,1/2+y,1/2+z
x,1/2-y,z
loop_
_atom_site_type_symbol
_atom_site_label
_atom_site_fract_x
_atom_site_fract_y
_atom_site_fract_z
Si Si1 0.882929 0.528696 0.707882
Si Si2 0.738411 0.469648 0.072660
Si Si3 0.138585 0.546005 0.727636
Si Si4 0.501919 0.036792 0.417473
Si Si5 0.270371 0.956764 0.084974
O O1 0.886941 0.750000 0.712748
O O2 0.863767 0.481563 0.627127
O O3 0.761629 0.464408 0.744548
O O4 0.007923 0.463902 0.739624
O O5 0.744840 0.250000 0.069031
O O6 0.868868 0.527254 0.103081
O O7 0.721484 0.531579 0.993493
O O8 0.135518 0.750000 0.756148
O O9 0.155783 0.553047 0.644617
O O10 0.509281 0.250000 0.404103
O O11 0.500000 0.000000 0.500000
O O12 0.629181 0.960414 0.394302
O O13 0.310534 0.750000 0.083516
#
# Coordination Sequence:
#
# PCOD9464076 Si02
#       5
#     8   8   8   8   8
#     4   9  19  35  56  83 109 139 183 230 278 332
#     4   8  16  31  53  80 112 145 179 227 278 327
#     4  10  21  36  58  83 107 140 184 232 278 334
#     4   9  16  28  51  81 114 148 184 225 276 328
#     4  10  20  34  53  79 113 150 186 229 283 335
#
# _framework density 25.126279
#
# number of rings (size 3 to 8) (size 9 to 14) (size 15 to 20)
#    0.000    2.800    0.000    2.400    2.800    0.800 
#    0.000    1.000    0.000    8.400    0.000    0.000 
#    0.000    0.000    0.000    0.000    0.000    0.000 
#
# Total GULP energy -223430.420650 kJ/mol
# GULP energy per Si atom -5585.760516 kJ/mol
# Density = 2.506909 g / cm^3
# Si number density = 25.126279 Si / 1000 Ang^3
#
#
#
# Elastic Constant Matrix: (Units=GPa)
#
#
# Indices 1 2 3 4 5 6 
#
# 1 166.8191 -2.1039 52.0284 0.0000 0.0000 0.0000
# 2 -2.1039 90.1759 0.4184 0.0000 0.0000 0.0000
# 3 52.0284 0.4184 105.7479 0.0000 0.0000 0.0000
# 4 0.0000 0.0000 0.0000 9.3517 0.0000 0.0000
# 5 0.0000 0.0000 0.0000 0.0000 47.1668 0.0000
# 6 0.0000 0.0000 0.0000 0.0000 0.0000 1.5253
#
#
#
# Elastic Compliance Matrix: (Units=1/GPa)
#
#
# Indices 1 2 3 4 5 6 
#
# 1 0.007084 0.000181 -0.003486 0.000000 0.000000 0.000000
# 2 0.000181 0.011094 -0.000133 0.000000 0.000000 0.000000
# 3 -0.003486 -0.000133 0.011172 0.000000 0.000000 0.000000
# 4 0.000000 0.000000 0.000000 0.106933 0.000000 0.000000
# 5 0.000000 0.000000 0.000000 0.000000 0.021201 0.000000
# 6 0.000000 0.000000 0.000000 0.000000 0.000000 0.655602
#
#
# Mechanical properties :
#
#
# Convention : Reuss Voigt Hill
#
# Bulk Modulus (GPa) = 44.49414 51.49207 47.99311
# Shear Modulus (GPa) = 6.04263 32.43543 19.23903
#
# Velocity S-wave (km/s) = 1.55246 3.59680 2.77012
# Velocity P-wave (km/s) = 4.57823 6.14712 5.41975
#
# Compressibility (1/GPa) = 0.02247487
#
# Stress axis : x y z
#
# Youngs Moduli (GPa) = 141.16166 90.13645 89.50813
#
# Poissons Ratio (x) = -0.01636 0.31204
# Poissons Ratio (y) = -0.02561 0.01192
# Poissons Ratio (z) = 0.49211 0.01200
#
# Static dielectric constant tensor:
#      x y z
#    x 1.975990 0.000000 0.000000 
#    y 0.000000 1.896490 0.000000 
#    z 0.000000 0.000000 1.993210 
# 
# From -- ./inp_files/26443.got.cif
#   From: 2010.05.17/outbox.cif.g08.bks.cpg/sg62_14_cif.got.tgz:26443.got - 2010.06.03 15:25:27.
