data_PCOD9464937
_publ_section_title
;
Structure prediction by ZEFSAII (Michael W. Deem and Ramdas Pophale) SiO2 
 PCOD9464937
Probable space group: P N M A
;
_chemical_formula_sum "Si O2"
_cell_formula_units_Z 64
_cell_length_a 23.220928
_cell_length_b 8.610967
_cell_length_c 16.544010
_cell_angle_alpha 90.000000
_cell_angle_beta 90.000000
_cell_angle_gamma 90.000000
_cell_volume 3308.051642
_symmetry_space_group_name_H-M "P N M A"
_symmetry_group_IT_number 62
_symmetry_cell_setting 'orthorhombic'
loop_
_space_group_symop_operation_xyz
x,y,z
1/2-x,-y,1/2+z
1/2+x,1/2-y,1/2-z
-x,1/2+y,-z
-x,-y,-z
1/2+x,y,1/2-z
1/2-x,1/2+y,1/2+z
x,1/2-y,z
loop_
_atom_site_type_symbol
_atom_site_label
_atom_site_fract_x
_atom_site_fract_y
_atom_site_fract_z
Si Si1 0.281296 0.068990 0.120965
Si Si2 0.962030 0.061424 0.575085
Si Si3 0.013548 0.437859 0.747495
Si Si4 0.170869 0.568918 0.438535
Si Si5 0.852444 0.570015 0.241839
Si Si6 0.966439 0.065327 0.921541
Si Si7 0.286197 0.071704 0.402418
Si Si8 0.340562 0.567469 0.560156
O O1 0.286569 0.250000 0.146585
O O2 0.213607 0.028550 0.117573
O O3 0.317104 0.956041 0.176861
O O4 0.307749 0.059877 0.031166
O O5 0.964477 0.250000 0.572193
O O6 0.894918 0.015112 0.567456
O O7 0.984998 0.008729 0.663298
O O8 0.000000 0.000000 0.500000
O O9 0.006915 0.250000 0.747801
O O10 0.081233 0.472221 0.745466
O O11 0.988847 0.493895 0.833892
O O12 0.172925 0.750000 0.413802
O O13 0.219722 0.476175 0.390377
O O14 0.849606 0.750000 0.215520
O O15 0.822675 0.460681 0.176755
O O16 0.974815 0.250000 0.922948
O O17 0.899072 0.024911 0.927401
O O18 0.000000 0.000000 0.000000
O O19 0.289171 0.250000 0.428195
O O20 0.315101 0.967029 0.471590
O O21 0.352743 0.750000 0.568008
#
# Coordination Sequence:
#
# PCOD9464937 Si02
#       8
#     8   8   8   8   8   8   8   8
#     4   9  19  35  54  79 111 144 180 228 282 338
#     4  10  20  37  60  86 117 153 191 233 282 337
#     4   9  21  38  56  82 115 150 191 236 281 340
#     4   9  19  36  57  81 112 148 184 228 285 340
#     4  11  21  35  56  80 110 147 186 231 285 338
#     4  11  22  38  60  85 116 157 201 244 292 345
#     4  11  22  36  57  83 110 143 187 236 285 345
#     4  10  21  39  59  82 115 148 184 234 292 349
#
# _framework density 19.346736
#
# number of rings (size 3 to 8) (size 9 to 14) (size 15 to 20)
#    0.000    2.000    0.000    4.500    0.000    5.000 
#    0.000    5.000    0.000    0.000    0.000    0.000 
#    0.000    0.000    0.000    0.000    0.000    0.000 
#
# Total GULP energy -357174.874912 kJ/mol
# GULP energy per Si atom -5580.857420 kJ/mol
# Density = 1.930270 g / cm^3
# Si number density = 19.346736 Si / 1000 Ang^3
#
#
#
# Elastic Constant Matrix: (Units=GPa)
#
#
# Indices 1 2 3 4 5 6 
#
# 1 115.0286 12.7050 49.5239 0.0000 0.0000 0.0000
# 2 12.7050 12.9776 11.0532 0.0000 0.0000 0.0000
# 3 49.5239 11.0532 91.1062 0.0000 0.0000 0.0000
# 4 0.0000 0.0000 0.0000 26.3567 0.0000 0.0000
# 5 0.0000 0.0000 0.0000 0.0000 29.5851 0.0000
# 6 0.0000 0.0000 0.0000 0.0000 0.0000 25.7259
#
#
#
# Elastic Compliance Matrix: (Units=1/GPa)
#
#
# Indices 1 2 3 4 5 6 
#
# 1 0.011869 -0.006830 -0.005623 0.000000 0.000000 0.000000
# 2 -0.006830 0.089866 -0.007190 0.000000 0.000000 0.000000
# 3 -0.005623 -0.007190 0.014905 0.000000 0.000000 0.000000
# 4 0.000000 0.000000 0.000000 0.037941 0.000000 0.000000
# 5 0.000000 0.000000 0.000000 0.000000 0.033801 0.000000
# 6 0.000000 0.000000 0.000000 0.000000 0.000000 0.038871
#
#
# Mechanical properties :
#
#
# Convention : Reuss Voigt Hill
#
# Bulk Modulus (GPa) = 12.92763 40.63075 26.77919
# Shear Modulus (GPa) = 17.10427 26.05555 21.57991
#
# Velocity S-wave (km/s) = 2.97659 3.67381 3.34343
# Velocity P-wave (km/s) = 4.30233 6.24843 5.36437
#
# Compressibility (1/GPa) = 0.07735371
#
# Stress axis : x y z
#
# Youngs Moduli (GPa) = 84.25436 11.12763 67.09108
#
# Poissons Ratio (x) = 0.07600 0.37726
# Poissons Ratio (y) = 0.57548 0.48238
# Poissons Ratio (z) = 0.47377 0.08001
#
# Static dielectric constant tensor:
#      x y z
#    x 1.665620 0.000000 0.000000 
#    y 0.000000 1.675270 0.000000 
#    z 0.000000 0.000000 1.680580 
# 
# From -- ./inp_files/24830.got.cif
#   From: 2010.05.17/outbox.cif.g08.bks.cpg/sg62_13_cif.got.tgz:24830.got - 2010.06.03 15:25:27.
