data_PCOD9464458
_publ_section_title
;
Structure prediction by ZEFSAII (Michael W. Deem and Ramdas Pophale) SiO2 
 PCOD9464458
Probable space group: P N M A
;
_chemical_formula_sum "Si O2"
_cell_formula_units_Z 24
_cell_length_a 14.180539
_cell_length_b 10.483607
_cell_length_c 7.300222
_cell_angle_alpha 90.000000
_cell_angle_beta 90.000000
_cell_angle_gamma 90.000000
_cell_volume 1085.274348
_symmetry_space_group_name_H-M "P N M A"
_symmetry_group_IT_number 62
_symmetry_cell_setting 'orthorhombic'
loop_
_space_group_symop_operation_xyz
x,y,z
1/2-x,-y,1/2+z
1/2+x,1/2-y,1/2-z
-x,1/2+y,-z
-x,-y,-z
1/2+x,y,1/2-z
1/2-x,1/2+y,1/2+z
x,1/2-y,z
loop_
_atom_site_type_symbol
_atom_site_label
_atom_site_fract_x
_atom_site_fract_y
_atom_site_fract_z
Si Si1 0.021354 0.605971 0.738440
Si Si2 0.840879 0.891761 0.327146
Si Si3 0.358616 0.498100 0.550973
O O1 0.028318 0.750000 0.670364
O O2 0.081978 0.500647 0.629551
O O3 0.915782 0.559856 0.782408
O O4 0.072423 0.598341 0.940532
O O5 0.865238 0.750000 0.388860
O O6 0.738349 0.932684 0.395168
O O7 0.838242 0.897407 0.105409
#
# Coordination Sequence:
#
# PCOD9464458 Si02
#       3
#     8   8   8
#     4   9  19  35  57  80 108 144 184 222 269 327
#     4  10  20  35  57  83 110 143 183 226 272 322
#     4   9  20  34  58  80 109 143 181 218 274 324
#
# _framework density 22.114224
#
# number of rings (size 3 to 8) (size 9 to 14) (size 15 to 20)
#    2.000    0.667    0.000    2.000    0.000    4.000 
#    0.000    1.667    0.000    0.000    0.000    0.000 
#    0.000    0.000    0.000    0.000    0.000    0.000 
#
# Total GULP energy -133758.448433 kJ/mol
# GULP energy per Si atom -5573.268685 kJ/mol
# Density = 2.206389 g / cm^3
# Si number density = 22.114224 Si / 1000 Ang^3
#
#
#
# Elastic Constant Matrix: (Units=GPa)
#
#
# Indices 1 2 3 4 5 6 
#
# 1 123.5608 74.1315 36.7122 0.0000 0.0000 0.0000
# 2 74.1315 202.4932 20.4229 0.0000 0.0000 0.0000
# 3 36.7122 20.4229 62.0142 0.0000 0.0000 0.0000
# 4 0.0000 0.0000 0.0000 8.7065 0.0000 0.0000
# 5 0.0000 0.0000 0.0000 0.0000 42.0856 0.0000
# 6 0.0000 0.0000 0.0000 0.0000 0.0000 15.9232
#
#
#
# Elastic Compliance Matrix: (Units=1/GPa)
#
#
# Indices 1 2 3 4 5 6 
#
# 1 0.012171 -0.003857 -0.005935 0.000000 0.000000 0.000000
# 2 -0.003857 0.006330 0.000199 0.000000 0.000000 0.000000
# 3 -0.005935 0.000199 0.019573 0.000000 0.000000 0.000000
# 4 0.000000 0.000000 0.000000 0.114856 0.000000 0.000000
# 5 0.000000 0.000000 0.000000 0.000000 0.023761 0.000000
# 6 0.000000 0.000000 0.000000 0.000000 0.000000 0.062802
#
#
# Mechanical properties :
#
#
# Convention : Reuss Voigt Hill
#
# Bulk Modulus (GPa) = 52.94381 72.28903 62.61642
# Shear Modulus (GPa) = 18.86968 30.46317 24.66642
#
# Velocity S-wave (km/s) = 2.92427 3.71555 3.34340
# Velocity P-wave (km/s) = 5.94936 7.15311 6.57882
#
# Compressibility (1/GPa) = 0.01888795
#
# Stress axis : x y z
#
# Youngs Moduli (GPa) = 82.16560 157.96696 51.09004
#
# Poissons Ratio (x) = 0.60928 0.30320
# Poissons Ratio (y) = 0.31691 -0.01014
# Poissons Ratio (z) = 0.48763 -0.03137
#
# Static dielectric constant tensor:
#      x y z
#    x 1.778330 0.000000 0.000000 
#    y 0.000000 1.773810 0.000000 
#    z 0.000000 0.000000 1.889720 
# 
# From -- ./inp_files/4708.got.cif
#   From: 2010.05.17/outbox.cif.g08.bks.cpg/sg62_3_cif.got.tgz:4708.got - 2010.06.03 15:25:27.
