data_PCOD9464363
_publ_section_title
;
Structure prediction by ZEFSAII (Michael W. Deem and Ramdas Pophale) SiO2 
 PCOD9464363
Probable space group: P N M A
;
_chemical_formula_sum "Si O2"
_cell_formula_units_Z 32
_cell_length_a 8.360439
_cell_length_b 12.587678
_cell_length_c 11.001426
_cell_angle_alpha 90.000000
_cell_angle_beta 90.000000
_cell_angle_gamma 90.000000
_cell_volume 1157.773725
_symmetry_space_group_name_H-M "P N M A"
_symmetry_group_IT_number 62
_symmetry_cell_setting 'orthorhombic'
loop_
_space_group_symop_operation_xyz
x,y,z
1/2-x,-y,1/2+z
1/2+x,1/2-y,1/2-z
-x,1/2+y,-z
-x,-y,-z
1/2+x,y,1/2-z
1/2-x,1/2+y,1/2+z
x,1/2-y,z
loop_
_atom_site_type_symbol
_atom_site_label
_atom_site_fract_x
_atom_site_fract_y
_atom_site_fract_z
Si Si1 0.536152 0.869816 0.498996
Si Si2 0.469106 0.376137 0.927109
Si Si3 0.726050 0.567685 0.277137
Si Si4 0.850157 0.632616 0.665611
O O1 0.452128 0.750000 0.512377
O O2 0.616459 0.864446 0.365439
O O3 0.680684 0.864064 0.597126
O O4 0.500000 0.000000 0.500000
O O5 0.480688 0.250000 0.931569
O O6 0.599826 0.414511 0.829378
O O7 0.299896 0.403868 0.865030
O O8 0.524507 0.407357 0.062806
O O9 0.672243 0.444767 0.278390
O O10 0.898299 0.750000 0.702752
#
# Coordination Sequence:
#
# PCOD9464363 Si02
#       4
#     8   8   8   8
#     4  10  21  38  60  89 123 158 198 247 300 357
#     4  10  20  35  55  82 112 145 189 241 293 349
#     4  11  20  35  59  83 111 152 195 238 292 350
#     4   9  20  36  54  80 117 155 195 244 295 350
#
# _framework density 27.639251999999999
#
# number of rings (size 3 to 8) (size 9 to 14) (size 15 to 20)
#    0.000    2.000    0.000    6.000    0.000    1.000 
#    0.000    3.750    0.000    6.000    0.000    0.000 
#    0.000    0.000    0.000    0.000    0.000    0.000 
#
# Total GULP energy -178643.768512 kJ/mol
# GULP energy per Si atom -5582.617766 kJ/mol
# Density = 2.757634 g / cm^3
# Si number density = 27.639252 Si / 1000 Ang^3
#
#
#
# Elastic Constant Matrix: (Units=GPa)
#
#
# Indices 1 2 3 4 5 6 
#
# 1 51.2983 47.0210 28.0847 0.0000 0.0000 0.0000
# 2 47.0210 194.8610 42.0336 0.0000 0.0000 0.0000
# 3 28.0847 42.0336 86.3218 0.0000 0.0000 0.0000
# 4 0.0000 0.0000 0.0000 42.0372 0.0000 0.0000
# 5 0.0000 0.0000 0.0000 0.0000 18.1050 0.0000
# 6 0.0000 0.0000 0.0000 0.0000 0.0000 39.9874
#
#
#
# Elastic Compliance Matrix: (Units=1/GPa)
#
#
# Indices 1 2 3 4 5 6 
#
# 1 0.027945 -0.005343 -0.006490 0.000000 0.000000 0.000000
# 2 -0.005343 0.006756 -0.001551 0.000000 0.000000 0.000000
# 3 -0.006490 -0.001551 0.014451 0.000000 0.000000 0.000000
# 4 0.000000 0.000000 0.000000 0.023788 0.000000 0.000000
# 5 0.000000 0.000000 0.000000 0.000000 0.055233 0.000000
# 6 0.000000 0.000000 0.000000 0.000000 0.000000 0.025008
#
#
# Mechanical properties :
#
#
# Convention : Reuss Voigt Hill
#
# Bulk Modulus (GPa) = 44.67670 62.97332 53.82501
# Shear Modulus (GPa) = 26.67924 34.38203 30.53063
#
# Velocity S-wave (km/s) = 3.11024 3.53080 3.32718
# Velocity P-wave (km/s) = 5.39421 6.28137 5.85462
#
# Compressibility (1/GPa) = 0.02238303
#
# Stress axis : x y z
#
# Youngs Moduli (GPa) = 35.78500 148.01993 69.19725
#
# Poissons Ratio (x) = 0.79091 0.44909
# Poissons Ratio (y) = 0.19121 0.10734
# Poissons Ratio (z) = 0.23224 0.22962
#
# Static dielectric constant tensor:
#      x y z
#    x 2.286140 0.000000 0.000000 
#    y 0.000000 2.231760 0.000000 
#    z 0.000000 0.000000 2.129840 
# 
# From -- ./inp_files/11745.got.cif
#   From: 2010.05.17/outbox.cif.g08.bks.cpg/sg62_6_cif.got.tgz:11745.got - 2010.06.03 15:25:27.
