data_PCOD9464427
_publ_section_title
;
Structure prediction by ZEFSAII (Michael W. Deem and Ramdas Pophale) SiO2 
 PCOD9464427
Probable space group: P N M A
;
_chemical_formula_sum "Si O2"
_cell_formula_units_Z 64
_cell_length_a 5.407001
_cell_length_b 24.788977
_cell_length_c 19.547773
_cell_angle_alpha 90.000000
_cell_angle_beta 90.000000
_cell_angle_gamma 90.000000
_cell_volume 2620.066664
_symmetry_space_group_name_H-M "P N M A"
_symmetry_group_IT_number 62
_symmetry_cell_setting 'orthorhombic'
loop_
_space_group_symop_operation_xyz
x,y,z
1/2-x,-y,1/2+z
1/2+x,1/2-y,1/2-z
-x,1/2+y,-z
-x,-y,-z
1/2+x,y,1/2-z
1/2-x,1/2+y,1/2+z
x,1/2-y,z
loop_
_atom_site_type_symbol
_atom_site_label
_atom_site_fract_x
_atom_site_fract_y
_atom_site_fract_z
Si Si1 0.010800 0.528179 0.217163
Si Si2 0.189775 0.090406 0.417929
Si Si3 0.459536 0.870947 0.466861
Si Si4 0.480411 0.098911 0.279916
Si Si5 0.334479 0.979311 0.436139
Si Si6 0.156007 0.310227 0.596300
Si Si7 0.902693 0.309109 0.450550
Si Si8 0.192731 0.684649 0.287083
O O1 0.762498 0.551420 0.251654
O O2 0.011407 0.464540 0.238212
O O3 0.986152 0.528195 0.134895
O O4 0.328607 0.100840 0.488390
O O5 0.388889 0.099671 0.357755
O O6 0.986028 0.137062 0.410502
O O7 0.132888 0.026079 0.419136
O O8 0.259074 0.918369 0.455244
O O9 0.605020 0.847484 0.402609
O O10 0.356029 0.823049 0.513614
O O11 0.748617 0.122487 0.262599
O O12 0.500000 0.000000 0.500000
O O13 0.221732 0.250000 0.621226
O O14 0.919444 0.329844 0.638705
O O15 0.077333 0.305604 0.517418
O O16 0.903956 0.250000 0.416664
O O17 0.961612 0.667714 0.238903
O O18 0.206745 0.750000 0.287380
#
# Coordination Sequence:
#
# PCOD9464427 Si02
#       8
#     8   8   8   8   8   8   8   8
#     4   9  18  37  57  85 122 168 207 254 313 383
#     4   9  20  37  57  86 119 152 194 245 304 362
#     4  10  20  35  56  84 116 151 197 247 304 353
#     4   9  18  32  59  88 117 154 201 240 291 366
#     4   9  19  39  58  90 122 159 207 260 315 377
#     4   9  19  35  53  74 105 144 190 241 294 354
#     4  10  21  36  58  84 112 152 198 248 306 364
#     4   9  18  31  51  77 103 140 191 247 300 352
#
# _framework density 24.426859
#
# number of rings (size 3 to 8) (size 9 to 14) (size 15 to 20)
#    0.000    2.750    0.000    0.375    3.500    1.000 
#   13.500    1.250    0.000    0.750    0.000    0.000 
#    0.000    0.000    0.000    0.000    0.000    0.000 
#
# Total GULP energy -356969.615892 kJ/mol
# GULP energy per Si atom -5577.650248 kJ/mol
# Density = 2.437126 g / cm^3
# Si number density = 24.426859 Si / 1000 Ang^3
#
#
#
# Elastic Constant Matrix: (Units=GPa)
#
#
# Indices 1 2 3 4 5 6 
#
# 1 83.3739 28.5724 28.3984 0.0000 0.0000 0.0000
# 2 28.5724 83.9433 11.8658 0.0000 0.0000 0.0000
# 3 28.3984 11.8658 85.5904 0.0000 0.0000 0.0000
# 4 0.0000 0.0000 0.0000 13.8746 0.0000 0.0000
# 5 0.0000 0.0000 0.0000 0.0000 35.4317 0.0000
# 6 0.0000 0.0000 0.0000 0.0000 0.0000 23.3030
#
#
#
# Elastic Compliance Matrix: (Units=1/GPa)
#
#
# Indices 1 2 3 4 5 6 
#
# 1 0.015020 -0.004496 -0.004360 0.000000 0.000000 0.000000
# 2 -0.004496 0.013497 -0.000379 0.000000 0.000000 0.000000
# 3 -0.004360 -0.000379 0.013183 0.000000 0.000000 0.000000
# 4 0.000000 0.000000 0.000000 0.072074 0.000000 0.000000
# 5 0.000000 0.000000 0.000000 0.000000 0.028223 0.000000
# 6 0.000000 0.000000 0.000000 0.000000 0.000000 0.042913
#
#
# Mechanical properties :
#
#
# Convention : Reuss Voigt Hill
#
# Bulk Modulus (GPa) = 43.05097 43.39788 43.22443
# Shear Modulus (GPa) = 23.68268 26.79325 25.23797
#
# Velocity S-wave (km/s) = 3.11711 3.31551 3.21784
# Velocity P-wave (km/s) = 5.53334 5.69753 5.61603
#
# Compressibility (1/GPa) = 0.02322828
#
# Stress axis : x y z
#
# Youngs Moduli (GPa) = 66.57702 74.09146 75.85606
#
# Poissons Ratio (x) = 0.33313 0.33075
# Poissons Ratio (y) = 0.29934 0.02877
# Poissons Ratio (z) = 0.29030 0.02810
#
# Static dielectric constant tensor:
#      x y z
#    x 1.972230 0.000000 0.000000 
#    y 0.000000 2.025270 0.000000 
#    z 0.000000 0.000000 1.981270 
# 
# From -- ./inp_files/25462.got.cif
#   From: 2010.05.17/outbox.cif.g08.bks.cpg/sg62_13_cif.got.tgz:25462.got - 2010.06.03 15:25:27.
