data_PCOD9464977
_publ_section_title
;
Structure prediction by ZEFSAII (Michael W. Deem and Ramdas Pophale) SiO2 
 PCOD9464977
Probable space group: P N M A
;
_chemical_formula_sum "Si O2"
_cell_formula_units_Z 48
_cell_length_a 14.147998
_cell_length_b 19.328443
_cell_length_c 8.191127
_cell_angle_alpha 90.000000
_cell_angle_beta 90.000000
_cell_angle_gamma 90.000000
_cell_volume 2239.935538
_symmetry_space_group_name_H-M "P N M A"
_symmetry_group_IT_number 62
_symmetry_cell_setting 'orthorhombic'
loop_
_space_group_symop_operation_xyz
x,y,z
1/2-x,-y,1/2+z
1/2+x,1/2-y,1/2-z
-x,1/2+y,-z
-x,-y,-z
1/2+x,y,1/2-z
1/2-x,1/2+y,1/2+z
x,1/2-y,z
loop_
_atom_site_type_symbol
_atom_site_label
_atom_site_fract_x
_atom_site_fract_y
_atom_site_fract_z
Si Si1 0.550474 0.533470 0.342465
Si Si2 0.516145 0.673923 0.485272
Si Si3 0.265471 0.021885 0.828736
Si Si4 0.896758 0.474561 0.376021
Si Si5 0.110926 0.825404 0.662548
Si Si6 0.294831 0.670674 0.468928
O O1 0.500000 0.500000 0.500000
O O2 0.548588 0.615031 0.365193
O O3 0.658204 0.512619 0.316208
O O4 0.488415 0.513942 0.185068
O O5 0.527076 0.750000 0.413953
O O6 0.576427 0.670790 0.651244
O O7 0.404295 0.662732 0.519278
O O8 0.234465 0.102648 0.862146
O O9 0.173711 0.978301 0.781403
O O10 0.328583 0.998313 0.982477
O O11 0.925677 0.395966 0.415630
O O12 0.078606 0.750000 0.599925
O O13 0.222688 0.829277 0.622077
O O14 0.285991 0.750000 0.397582
#
# Coordination Sequence:
#
# PCOD9464977 Si02
#       6
#     8   8   8   8   8   8
#     4  12  23  39  61  90 121 161 206 255 306 365
#     4  10  20  37  61  89 122 160 202 250 307 363
#     4  11  24  38  63  89 121 164 202 253 309 366
#     4  11  22  39  59  88 123 158 203 255 307 363
#     4   9  19  34  59  89 118 159 202 245 297 362
#     4   9  19  38  61  88 123 162 205 250 302 360
#
# _framework density 21.429188
#
# number of rings (size 3 to 8) (size 9 to 14) (size 15 to 20)
#    0.000    1.667    3.333    1.500    2.333    0.667 
#    0.000    0.000    0.000    1.000    0.000    0.000 
#    0.000    0.000    0.000    0.000    0.000    0.000 
#
# Total GULP energy -267567.072844 kJ/mol
# GULP energy per Si atom -5574.314018 kJ/mol
# Density = 2.138041 g / cm^3
# Si number density = 21.429188 Si / 1000 Ang^3
#
#
#
# Elastic Constant Matrix: (Units=GPa)
#
#
# Indices 1 2 3 4 5 6 
#
# 1 87.8203 24.6673 15.1631 0.0000 0.0000 0.0000
# 2 24.6673 96.0140 14.4706 0.0000 0.0000 0.0000
# 3 15.1631 14.4706 43.3395 0.0000 0.0000 0.0000
# 4 0.0000 0.0000 0.0000 21.3487 0.0000 0.0000
# 5 0.0000 0.0000 0.0000 0.0000 40.7490 0.0000
# 6 0.0000 0.0000 0.0000 0.0000 0.0000 26.0228
#
#
#
# Elastic Compliance Matrix: (Units=1/GPa)
#
#
# Indices 1 2 3 4 5 6 
#
# 1 0.012771 -0.002746 -0.003551 0.000000 0.000000 0.000000
# 2 -0.002746 0.011557 -0.002898 0.000000 0.000000 0.000000
# 3 -0.003551 -0.002898 0.025284 0.000000 0.000000 0.000000
# 4 0.000000 0.000000 0.000000 0.046841 0.000000 0.000000
# 5 0.000000 0.000000 0.000000 0.000000 0.024541 0.000000
# 6 0.000000 0.000000 0.000000 0.000000 0.000000 0.038428
#
#
# Mechanical properties :
#
#
# Convention : Reuss Voigt Hill
#
# Bulk Modulus (GPa) = 32.02919 37.30844 34.66882
# Shear Modulus (GPa) = 26.56458 29.14894 27.85676
#
# Velocity S-wave (km/s) = 3.52468 3.69215 3.60939
# Velocity P-wave (km/s) = 5.61636 5.96857 5.79514
#
# Compressibility (1/GPa) = 0.03122152
#
# Stress axis : x y z
#
# Youngs Moduli (GPa) = 78.30024 86.52464 39.55093
#
# Poissons Ratio (x) = 0.23759 0.14046
# Poissons Ratio (y) = 0.21500 0.11463
# Poissons Ratio (z) = 0.27808 0.25077
#
# Static dielectric constant tensor:
#      x y z
#    x 1.745160 0.000000 0.000000 
#    y 0.000000 1.839140 0.000000 
#    z 0.000000 0.000000 1.832210 
# 
# From -- ./inp_files/6603.got.cif
#   From: 2010.05.17/outbox.cif.g08.bks.cpg/sg62_4_cif.got.tgz:6603.got - 2010.06.03 15:25:27.
