data_PCOD9464640
_publ_section_title
;
Structure prediction by ZEFSAII (Michael W. Deem and Ramdas Pophale) SiO2 
 PCOD9464640
Probable space group: P N M A
;
_chemical_formula_sum "Si O2"
_cell_formula_units_Z 48
_cell_length_a 29.482546
_cell_length_b 7.470812
_cell_length_c 8.279512
_cell_angle_alpha 90.000000
_cell_angle_beta 90.000000
_cell_angle_gamma 90.000000
_cell_volume 1823.633378
_symmetry_space_group_name_H-M "P N M A"
_symmetry_group_IT_number 62
_symmetry_cell_setting 'orthorhombic'
loop_
_space_group_symop_operation_xyz
x,y,z
1/2-x,-y,1/2+z
1/2+x,1/2-y,1/2-z
-x,1/2+y,-z
-x,-y,-z
1/2+x,y,1/2-z
1/2-x,1/2+y,1/2+z
x,1/2-y,z
loop_
_atom_site_type_symbol
_atom_site_label
_atom_site_fract_x
_atom_site_fract_y
_atom_site_fract_z
Si Si1 0.265975 0.465583 0.053218
Si Si2 0.095956 0.544353 0.051590
Si Si3 0.515808 0.967011 0.251374
Si Si4 0.151810 0.530698 0.749672
Si Si5 0.180187 0.039511 0.224628
Si Si6 0.431515 0.040575 0.062837
O O1 0.263541 0.250000 0.059065
O O2 0.298177 0.527679 0.201234
O O3 0.215187 0.532168 0.087187
O O4 0.292511 0.513095 0.890732
O O5 0.087472 0.750000 0.007032
O O6 0.047317 0.466910 0.102335
O O7 0.130567 0.544040 0.204357
O O8 0.126901 0.464544 0.910430
O O9 0.516351 0.750000 0.254047
O O10 0.464265 0.021092 0.219155
O O11 0.542167 0.035434 0.090440
O O12 0.152715 0.750000 0.754329
O O13 0.117737 0.471480 0.607000
O O14 0.173306 0.250000 0.203987
O O15 0.426551 0.250000 0.031275
#
# Coordination Sequence:
#
# PCOD9464640 Si02
#       6
#     8   8   8   8   8   8
#     4  10  21  38  58  79 108 143 176 214 263 319
#     4  10  20  36  57  78 107 146 182 218 265 322
#     4   9  18  32  51  75 103 140 181 217 264 322
#     4   9  18  34  56  79 103 140 185 219 260 322
#     4  11  23  37  57  85 111 138 178 223 264 310
#     4   9  17  31  51  74 102 136 178 226 266 308
#
# _framework density 26.321081
#
# number of rings (size 3 to 8) (size 9 to 14) (size 15 to 20)
#    0.000    2.333    0.000    2.500    0.000    6.667 
#    0.000    5.833    0.000    0.000    0.000    0.000 
#    0.000    0.000    0.000    0.000    0.000    0.000 
#
# Total GULP energy -268432.121841 kJ/mol
# GULP energy per Si atom -5592.335872 kJ/mol
# Density = 2.626117 g / cm^3
# Si number density = 26.321081 Si / 1000 Ang^3
#
#
#
# Elastic Constant Matrix: (Units=GPa)
#
#
# Indices 1 2 3 4 5 6 
#
# 1 128.2754 -2.9384 -8.0903 0.0000 0.0000 0.0000
# 2 -2.9384 96.8775 -7.3783 0.0000 0.0000 0.0000
# 3 -8.0903 -7.3783 68.7735 0.0000 0.0000 0.0000
# 4 0.0000 0.0000 0.0000 12.6979 0.0000 0.0000
# 5 0.0000 0.0000 0.0000 0.0000 42.4146 0.0000
# 6 0.0000 0.0000 0.0000 0.0000 0.0000 11.2330
#
#
#
# Elastic Compliance Matrix: (Units=1/GPa)
#
#
# Indices 1 2 3 4 5 6 
#
# 1 0.007863 0.000311 0.000958 0.000000 0.000000 0.000000
# 2 0.000311 0.010420 0.001155 0.000000 0.000000 0.000000
# 3 0.000958 0.001155 0.014777 0.000000 0.000000 0.000000
# 4 0.000000 0.000000 0.000000 0.078753 0.000000 0.000000
# 5 0.000000 0.000000 0.000000 0.000000 0.023577 0.000000
# 6 0.000000 0.000000 0.000000 0.000000 0.000000 0.089023
#
#
# Mechanical properties :
#
#
# Convention : Reuss Voigt Hill
#
# Bulk Modulus (GPa) = 26.37899 28.56805 27.47352
# Shear Modulus (GPa) = 21.53307 34.09133 27.81220
#
# Velocity S-wave (km/s) = 2.86333 3.60281 3.25414
# Velocity P-wave (km/s) = 4.57988 5.30888 4.95780
#
# Compressibility (1/GPa) = 0.03790896
#
# Stress axis : x y z
#
# Youngs Moduli (GPa) = 127.17290 95.97218 67.67236
#
# Poissons Ratio (x) = -0.02990 -0.06486
# Poissons Ratio (y) = -0.03961 -0.07813
# Poissons Ratio (z) = -0.12189 -0.11080
#
# Static dielectric constant tensor:
#      x y z
#    x 2.022570 0.000000 0.000000 
#    y 0.000000 1.957070 0.000000 
#    z 0.000000 0.000000 2.183280 
# 
# From -- ./inp_files/10199.got.cif
#   From: 2010.05.17/outbox.cif.g08.bks.cpg/sg62_6_cif.got.tgz:10199.got - 2010.06.03 15:25:27.
