data_PCOD9464974
_publ_section_title
;
Structure prediction by ZEFSAII (Michael W. Deem and Ramdas Pophale) SiO2 
 PCOD9464974
Probable space group: P N M A
;
_chemical_formula_sum "Si O2"
_cell_formula_units_Z 40
_cell_length_a 12.828918
_cell_length_b 8.339230
_cell_length_c 19.150224
_cell_angle_alpha 90.000000
_cell_angle_beta 90.000000
_cell_angle_gamma 90.000000
_cell_volume 2048.754118
_symmetry_space_group_name_H-M "P N M A"
_symmetry_group_IT_number 62
_symmetry_cell_setting 'orthorhombic'
loop_
_space_group_symop_operation_xyz
x,y,z
1/2-x,-y,1/2+z
1/2+x,1/2-y,1/2-z
-x,1/2+y,-z
-x,-y,-z
1/2+x,y,1/2-z
1/2-x,1/2+y,1/2+z
x,1/2-y,z
loop_
_atom_site_type_symbol
_atom_site_label
_atom_site_fract_x
_atom_site_fract_y
_atom_site_fract_z
Si Si1 0.052671 0.559025 0.571892
Si Si2 0.955648 0.446102 0.844573
Si Si3 0.105779 0.944137 0.310531
Si Si4 0.185803 0.443410 0.887160
Si Si5 0.782040 0.442096 0.955017
O O1 0.054662 0.750000 0.571037
O O2 0.170109 0.494283 0.574212
O O3 0.000000 0.500000 0.500000
O O4 0.983331 0.499153 0.636198
O O5 0.955978 0.250000 0.844777
O O6 0.918004 0.497799 0.768082
O O7 0.875035 0.497825 0.904390
O O8 0.072994 0.500228 0.861093
O O9 0.106812 0.750000 0.310545
O O10 0.217446 0.000214 0.340040
O O11 0.185308 0.250000 0.883860
O O12 0.204381 0.492128 0.967015
O O13 0.784906 0.250000 0.958180
#
# Coordination Sequence:
#
# PCOD9464974 Si02
#       5
#     8   8   8   8   8
#     4  12  24  40  61  88 119 155 200 248 302 355
#     4   9  21  38  61  92 121 161 203 243 297 361
#     4  10  21  38  62  89 120 157 201 249 298 353
#     4  10  20  37  61  88 122 159 202 248 295 349
#     4  11  22  38  63  91 121 157 203 247 297 358
#
# _framework density 19.524059999999999
#
# number of rings (size 3 to 8) (size 9 to 14) (size 15 to 20)
#    0.000    1.600    2.000    3.000    2.800    0.000 
#    0.000    4.000    0.000    0.000    0.000    0.000 
#    0.000    0.000    0.000    0.000    0.000    0.000 
#
# Total GULP energy -223585.941602 kJ/mol
# GULP energy per Si atom -5589.648540 kJ/mol
# Density = 1.947962 g / cm^3
# Si number density = 19.524060 Si / 1000 Ang^3
#
#
#
# Elastic Constant Matrix: (Units=GPa)
#
#
# Indices 1 2 3 4 5 6 
#
# 1 214.9763 10.7465 95.4552 0.0000 0.0000 0.0000
# 2 10.7465 9.1886 8.1482 0.0000 0.0000 0.0000
# 3 95.4552 8.1482 96.6541 0.0000 0.0000 0.0000
# 4 0.0000 0.0000 0.0000 26.1092 0.0000 0.0000
# 5 0.0000 0.0000 0.0000 0.0000 27.6789 0.0000
# 6 0.0000 0.0000 0.0000 0.0000 0.0000 16.8956
#
#
#
# Elastic Compliance Matrix: (Units=1/GPa)
#
#
# Indices 1 2 3 4 5 6 
#
# 1 0.008344 -0.002649 -0.008017 0.000000 0.000000 0.000000
# 2 -0.002649 0.118465 -0.007371 0.000000 0.000000 0.000000
# 3 -0.008017 -0.007371 0.018885 0.000000 0.000000 0.000000
# 4 0.000000 0.000000 0.000000 0.038301 0.000000 0.000000
# 5 0.000000 0.000000 0.000000 0.000000 0.036129 0.000000
# 6 0.000000 0.000000 0.000000 0.000000 0.000000 0.059187
#
#
# Mechanical properties :
#
#
# Convention : Reuss Voigt Hill
#
# Bulk Modulus (GPa) = 9.12242 61.05765 35.09003
# Shear Modulus (GPa) = 14.20761 27.90133 21.05447
#
# Velocity S-wave (km/s) = 2.70051 3.78441 3.28744
# Velocity P-wave (km/s) = 3.79555 7.10187 5.69398
#
# Compressibility (1/GPa) = 0.10962008
#
# Stress axis : x y z
#
# Youngs Moduli (GPa) = 119.84802 8.44133 52.95156
#
# Poissons Ratio (x) = 0.02236 0.42452
# Poissons Ratio (y) = 0.31750 0.39029
# Poissons Ratio (z) = 0.96083 0.06222
#
# Static dielectric constant tensor:
#      x y z
#    x 1.668130 0.000000 0.000000 
#    y 0.000000 1.682690 0.000000 
#    z 0.000000 0.000000 1.643790 
# 
# From -- ./inp_files/22763.got.cif
#   From: 2010.05.17/outbox.cif.g08.bks.cpg/sg62_12_cif.got.tgz:22763.got - 2010.06.03 15:25:27.
