data_PCOD9464299
_publ_section_title
;
Structure prediction by ZEFSAII (Michael W. Deem and Ramdas Pophale) SiO2 
 PCOD9464299
Probable space group: P N M A
;
_chemical_formula_sum "Si O2"
_cell_formula_units_Z 48
_cell_length_a 9.580118
_cell_length_b 19.370718
_cell_length_c 15.355639
_cell_angle_alpha 90.000000
_cell_angle_beta 90.000000
_cell_angle_gamma 90.000000
_cell_volume 2849.603731
_symmetry_space_group_name_H-M "P N M A"
_symmetry_group_IT_number 62
_symmetry_cell_setting 'orthorhombic'
loop_
_space_group_symop_operation_xyz
x,y,z
1/2-x,-y,1/2+z
1/2+x,1/2-y,1/2-z
-x,1/2+y,-z
-x,-y,-z
1/2+x,y,1/2-z
1/2-x,1/2+y,1/2+z
x,1/2-y,z
loop_
_atom_site_type_symbol
_atom_site_label
_atom_site_fract_x
_atom_site_fract_y
_atom_site_fract_z
Si Si1 0.092711 0.459369 0.428663
Si Si2 0.262243 0.672004 0.390592
Si Si3 0.946882 0.473113 0.756330
Si Si4 0.106308 0.023458 0.927000
Si Si5 0.946817 0.829225 0.464996
Si Si6 0.809243 0.879888 0.295840
O O1 0.249216 0.485089 0.442125
O O2 0.073500 0.380359 0.454657
O O3 0.000000 0.500000 0.500000
O O4 0.060477 0.479191 0.328758
O O5 0.307909 0.750000 0.415726
O O6 0.355472 0.605809 0.420692
O O7 0.264011 0.667559 0.285108
O O8 0.104718 0.661814 0.426725
O O9 0.036229 0.500556 0.836639
O O10 0.037139 0.407484 0.726421
O O11 0.798604 0.444225 0.790519
O O12 0.000000 0.000000 0.000000
O O13 0.931982 0.750000 0.489305
O O14 0.832049 0.847241 0.390315
#
# Coordination Sequence:
#
# PCOD9464299 Si02
#       6
#     8   8   8   8   8   8
#     4  12  20  39  58  82 120 154 195 244 287 353
#     4  10  20  35  53  83 122 152 187 236 302 366
#     4  11  21  34  59  85 114 152 196 235 293 343
#     4  11  23  37  58  90 114 152 201 246 295 347
#     4  11  22  35  59  87 118 161 197 241 305 366
#     4  11  17  36  52  87 117 149 188 233 298 351
#
# _framework density 16.844448
#
# number of rings (size 3 to 8) (size 9 to 14) (size 15 to 20)
#    0.000    1.000    8.333    1.500    0.000    0.000 
#    0.000    5.000    0.000    2.000    0.000    0.000 
#    0.000    0.000    0.000    0.000    0.000    0.000 
#
# Total GULP energy -267429.362543 kJ/mol
# GULP energy per Si atom -5571.445053 kJ/mol
# Density = 1.680611 g / cm^3
# Si number density = 16.844448 Si / 1000 Ang^3
#
#
#
# Elastic Constant Matrix: (Units=GPa)
#
#
# Indices 1 2 3 4 5 6 
#
# 1 95.8099 47.5743 61.5579 0.0000 0.0000 0.0000
# 2 47.5743 117.5260 74.3285 0.0000 0.0000 0.0000
# 3 61.5579 74.3285 104.8988 0.0000 0.0000 0.0000
# 4 0.0000 0.0000 0.0000 25.5633 0.0000 0.0000
# 5 0.0000 0.0000 0.0000 0.0000 31.5406 0.0000
# 6 0.0000 0.0000 0.0000 0.0000 0.0000 20.2079
#
#
#
# Elastic Compliance Matrix: (Units=1/GPa)
#
#
# Indices 1 2 3 4 5 6 
#
# 1 0.016822 -0.001026 -0.009145 0.000000 0.000000 0.000000
# 2 -0.001026 0.015481 -0.010367 0.000000 0.000000 0.000000
# 3 -0.009145 -0.010367 0.022245 0.000000 0.000000 0.000000
# 4 0.000000 0.000000 0.000000 0.039119 0.000000 0.000000
# 5 0.000000 0.000000 0.000000 0.000000 0.031705 0.000000
# 6 0.000000 0.000000 0.000000 0.000000 0.000000 0.049486
#
#
# Mechanical properties :
#
#
# Convention : Reuss Voigt Hill
#
# Bulk Modulus (GPa) = 74.22582 76.12844 75.17713
# Shear Modulus (GPa) = 22.68347 24.44727 23.56537
#
# Velocity S-wave (km/s) = 3.67365 3.81380 3.74438
# Velocity P-wave (km/s) = 7.88387 8.04279 7.96373
#
# Compressibility (1/GPa) = 0.01347240
#
# Stress axis : x y z
#
# Youngs Moduli (GPa) = 59.44452 64.59651 44.95320
#
# Poissons Ratio (x) = 0.06628 0.41109
# Poissons Ratio (y) = 0.06099 0.46603
# Poissons Ratio (z) = 0.54361 0.66968
#
# Static dielectric constant tensor:
#      x y z
#    x 1.586600 0.000000 0.000000 
#    y 0.000000 1.577860 0.000000 
#    z 0.000000 0.000000 1.622640 
# 
# From -- ./inp_files/16964.got.cif
#   From: 2010.05.17/outbox.cif.g08.bks.cpg/sg62_9_cif.got.tgz:16964.got - 2010.06.03 15:25:27.
