data_PCOD9464762
_publ_section_title
;
Structure prediction by ZEFSAII (Michael W. Deem and Ramdas Pophale) SiO2 
 PCOD9464762
Probable space group: P N M A
;
_chemical_formula_sum "Si O2"
_cell_formula_units_Z 56
_cell_length_a 14.176165
_cell_length_b 8.666756
_cell_length_c 23.820186
_cell_angle_alpha 90.000000
_cell_angle_beta 90.000000
_cell_angle_gamma 90.000000
_cell_volume 2926.580521
_symmetry_space_group_name_H-M "P N M A"
_symmetry_group_IT_number 62
_symmetry_cell_setting 'orthorhombic'
loop_
_space_group_symop_operation_xyz
x,y,z
1/2-x,-y,1/2+z
1/2+x,1/2-y,1/2-z
-x,1/2+y,-z
-x,-y,-z
1/2+x,y,1/2-z
1/2-x,1/2+y,1/2+z
x,1/2-y,z
loop_
_atom_site_type_symbol
_atom_site_label
_atom_site_fract_x
_atom_site_fract_y
_atom_site_fract_z
Si Si1 0.564564 0.935296 0.333032
Si Si2 0.718251 0.064599 0.831900
Si Si3 0.100364 0.435033 0.561608
Si Si4 0.039644 0.934504 0.941990
Si Si5 0.286601 0.933664 0.379298
Si Si6 0.392394 0.066657 0.271749
Si Si7 0.395889 0.565997 0.931909
O O1 0.558607 0.750000 0.337894
O O2 0.672911 0.979165 0.323541
O O3 0.525852 0.009188 0.390557
O O4 0.494075 0.992268 0.284665
O O5 0.711149 0.250000 0.824492
O O6 0.682392 0.027874 0.894524
O O7 0.651134 0.984213 0.787025
O O8 0.085522 0.250000 0.562336
O O9 0.122075 0.477946 0.497300
O O10 0.002966 0.515151 0.579565
O O11 0.043166 0.750000 0.943537
O O12 0.143099 0.999887 0.926904
O O13 0.000000 0.000000 0.000000
O O14 0.295628 0.750000 0.376899
O O15 0.324017 0.004556 0.321094
O O16 0.180841 0.983536 0.393461
O O17 0.399747 0.250000 0.276039
O O18 0.386375 0.750000 0.926397
#
# Coordination Sequence:
#
# PCOD9464762 Si02
#       7
#     8   8   8   8   8   8   8
#     4  10  21  39  62  87 117 153 195 245 298 353
#     4  10  22  40  63  88 116 158 201 244 299 358
#     4   9  20  38  58  84 118 156 197 242 295 356
#     4  11  22  37  57  86 121 155 193 239 291 354
#     4  11  22  38  60  85 114 155 198 243 296 356
#     4  11  23  40  60  85 118 154 195 248 296 350
#     4  10  20  36  59  87 120 156 195 247 296 352
#
# _framework density 19.13496
#
# number of rings (size 3 to 8) (size 9 to 14) (size 15 to 20)
#    0.000    1.714    0.000    6.429    2.000    3.429 
#    0.000    1.429    0.000    0.000    0.000    0.000 
#    0.000    0.000    0.000    0.000    0.000    0.000 
#
# Total GULP energy -312991.747359 kJ/mol
# GULP energy per Si atom -5589.138346 kJ/mol
# Density = 1.909141 g / cm^3
# Si number density = 19.134960 Si / 1000 Ang^3
#
#
#
# Elastic Constant Matrix: (Units=GPa)
#
#
# Indices 1 2 3 4 5 6 
#
# 1 93.9406 27.9429 24.9373 0.0000 0.0000 0.0000
# 2 27.9429 76.5307 10.6143 0.0000 0.0000 0.0000
# 3 24.9373 10.6143 26.8411 0.0000 0.0000 0.0000
# 4 0.0000 0.0000 0.0000 29.0399 0.0000 0.0000
# 5 0.0000 0.0000 0.0000 0.0000 17.7112 0.0000
# 6 0.0000 0.0000 0.0000 0.0000 0.0000 27.1467
#
#
#
# Elastic Compliance Matrix: (Units=1/GPa)
#
#
# Indices 1 2 3 4 5 6 
#
# 1 0.015094 -0.003773 -0.012531 0.000000 0.000000 0.000000
# 2 -0.003773 0.014768 -0.002335 0.000000 0.000000 0.000000
# 3 -0.012531 -0.002335 0.049822 0.000000 0.000000 0.000000
# 4 0.000000 0.000000 0.000000 0.034435 0.000000 0.000000
# 5 0.000000 0.000000 0.000000 0.000000 0.056462 0.000000
# 6 0.000000 0.000000 0.000000 0.000000 0.000000 0.036837
#
#
# Mechanical properties :
#
#
# Convention : Reuss Voigt Hill
#
# Bulk Modulus (GPa) = 23.58148 36.03347 29.80748
# Shear Modulus (GPa) = 19.31763 23.70073 21.50918
#
# Velocity S-wave (km/s) = 3.18078 3.52321 3.35636
# Velocity P-wave (km/s) = 5.08334 5.95170 5.53458
#
# Compressibility (1/GPa) = 0.04240615
#
# Stress axis : x y z
#
# Youngs Moduli (GPa) = 66.25205 67.71368 20.07147
#
# Poissons Ratio (x) = 0.25549 0.25152
# Poissons Ratio (y) = 0.24997 0.04686
# Poissons Ratio (z) = 0.83022 0.15808
#
# Static dielectric constant tensor:
#      x y z
#    x 1.651220 0.000000 0.000000 
#    y 0.000000 1.640050 0.000000 
#    z 0.000000 0.000000 1.650170 
# 
# From -- ./inp_files/27276.got.cif
#   From: 2010.05.17/outbox.cif.g08.bks.cpg/sg62_14_cif.got.tgz:27276.got - 2010.06.03 15:25:27.
