data_PCOD9464150
_publ_section_title
;
Structure prediction by ZEFSAII (Michael W. Deem and Ramdas Pophale) SiO2 
 PCOD9464150
Probable space group: P N M A
;
_chemical_formula_sum "Si O2"
_cell_formula_units_Z 48
_cell_length_a 19.315418
_cell_length_b 14.411523
_cell_length_c 9.733067
_cell_angle_alpha 90.000000
_cell_angle_beta 90.000000
_cell_angle_gamma 90.000000
_cell_volume 2709.341212
_symmetry_space_group_name_H-M "P N M A"
_symmetry_group_IT_number 62
_symmetry_cell_setting 'orthorhombic'
loop_
_space_group_symop_operation_xyz
x,y,z
1/2-x,-y,1/2+z
1/2+x,1/2-y,1/2-z
-x,1/2+y,-z
-x,-y,-z
1/2+x,y,1/2-z
1/2-x,1/2+y,1/2+z
x,1/2-y,z
loop_
_atom_site_type_symbol
_atom_site_label
_atom_site_fract_x
_atom_site_fract_y
_atom_site_fract_z
Si Si1 0.426335 0.643087 0.204161
Si Si2 0.199247 0.356511 0.893389
Si Si3 0.024332 0.859735 0.529763
Si Si4 0.142434 0.858623 0.306468
Si Si5 0.023092 0.540150 0.819140
Si Si6 0.115830 0.505324 0.056621
O O1 0.445956 0.750000 0.229957
O O2 0.347157 0.632004 0.253767
O O3 0.468500 0.570630 0.295794
O O4 0.451284 0.623020 0.048972
O O5 0.185885 0.250000 0.940105
O O6 0.280303 0.365833 0.866386
O O7 0.172286 0.434312 0.997967
O O8 0.029675 0.750000 0.556137
O O9 0.084880 0.884302 0.421047
O O10 0.030833 0.912767 0.672209
O O11 0.130351 0.750000 0.270696
O O12 0.138522 0.925468 0.175793
O O13 0.947989 0.555037 0.883000
O O14 0.082742 0.562188 0.928814
#
# Coordination Sequence:
#
# PCOD9464150 Si02
#       6
#     8   8   8   8   8   8
#     4   9  17  32  54  77 104 144 182 216 268 325
#     4   9  20  37  55  77 111 148 181 221 271 330
#     4  10  20  34  56  81 107 144 183 226 272 321
#     4  10  21  38  58  80 110 148 186 224 275 332
#     4  10  20  34  54  84 112 136 180 236 274 320
#     4  10  21  35  56  83 108 143 181 226 283 326
#
# _framework density 17.716483
#
# number of rings (size 3 to 8) (size 9 to 14) (size 15 to 20)
#    0.000    2.333    1.667    0.500    0.000    4.000 
#    0.000    1.667    0.000    1.000    0.000    0.000 
#    0.000    0.000    0.000    0.000    0.000    0.000 
#
# Total GULP energy -267421.228297 kJ/mol
# GULP energy per Si atom -5571.275590 kJ/mol
# Density = 1.767616 g / cm^3
# Si number density = 17.716483 Si / 1000 Ang^3
#
#
#
# Elastic Constant Matrix: (Units=GPa)
#
#
# Indices 1 2 3 4 5 6 
#
# 1 58.5302 24.4324 29.4410 0.0000 0.0000 0.0000
# 2 24.4324 63.2885 60.0391 0.0000 0.0000 0.0000
# 3 29.4410 60.0391 124.7085 0.0000 0.0000 0.0000
# 4 0.0000 0.0000 0.0000 27.1575 0.0000 0.0000
# 5 0.0000 0.0000 0.0000 0.0000 15.6166 0.0000
# 6 0.0000 0.0000 0.0000 0.0000 0.0000 16.6801
#
#
#
# Elastic Compliance Matrix: (Units=1/GPa)
#
#
# Indices 1 2 3 4 5 6 
#
# 1 0.020610 -0.006149 -0.001905 0.000000 0.000000 0.000000
# 2 -0.006149 0.030918 -0.013433 0.000000 0.000000 0.000000
# 3 -0.001905 -0.013433 0.014936 0.000000 0.000000 0.000000
# 4 0.000000 0.000000 0.000000 0.036822 0.000000 0.000000
# 5 0.000000 0.000000 0.000000 0.000000 0.064035 0.000000
# 6 0.000000 0.000000 0.000000 0.000000 0.000000 0.059952
#
#
# Mechanical properties :
#
#
# Convention : Reuss Voigt Hill
#
# Bulk Modulus (GPa) = 42.57357 52.70579 47.63968
# Shear Modulus (GPa) = 17.98053 20.73181 19.35617
#
# Velocity S-wave (km/s) = 3.18921 3.42453 3.30896
# Velocity P-wave (km/s) = 6.13548 6.74171 6.44573
#
# Compressibility (1/GPa) = 0.02348875
#
# Stress axis : x y z
#
# Youngs Moduli (GPa) = 48.51919 32.34326 66.95303
#
# Poissons Ratio (x) = 0.19889 0.12756
# Poissons Ratio (y) = 0.29835 0.89941
# Poissons Ratio (z) = 0.09244 0.43448
#
# Static dielectric constant tensor:
#      x y z
#    x 1.620070 0.000000 0.000000 
#    y 0.000000 1.617460 0.000000 
#    z 0.000000 0.000000 1.606530 
# 
# From -- ./inp_files/7667.got.cif
#   From: 2010.05.17/outbox.cif.g08.bks.cpg/sg62_4_cif.got.tgz:7667.got - 2010.06.03 15:25:27.
