data_PCOD9464577
_publ_section_title
;
Structure prediction by ZEFSAII (Michael W. Deem and Ramdas Pophale) SiO2 
 PCOD9464577
Probable space group: P N M A
;
_chemical_formula_sum "Si O2"
_cell_formula_units_Z 36
_cell_length_a 14.948658
_cell_length_b 10.419564
_cell_length_c 10.982158
_cell_angle_alpha 90.000000
_cell_angle_beta 90.000000
_cell_angle_gamma 90.000000
_cell_volume 1710.564443
_symmetry_space_group_name_H-M "P N M A"
_symmetry_group_IT_number 62
_symmetry_cell_setting 'orthorhombic'
loop_
_space_group_symop_operation_xyz
x,y,z
1/2-x,-y,1/2+z
1/2+x,1/2-y,1/2-z
-x,1/2+y,-z
-x,-y,-z
1/2+x,y,1/2-z
1/2-x,1/2+y,1/2+z
x,1/2-y,z
loop_
_atom_site_type_symbol
_atom_site_label
_atom_site_fract_x
_atom_site_fract_y
_atom_site_fract_z
Si Si1 0.768727 0.533072 0.141009
Si Si2 0.920858 0.750000 0.750093
Si Si3 0.882844 0.750000 0.025069
Si Si4 0.514749 0.250000 0.770983
Si Si5 0.714572 0.250000 0.844113
Si Si6 0.062281 0.997834 0.382930
Si Si7 0.273820 0.250000 0.374808
O O1 0.822586 0.623859 0.048554
O O2 0.763056 0.622369 0.263141
O O3 0.668542 0.506774 0.092073
O O4 0.813157 0.391791 0.155641
O O5 0.961078 0.623180 0.693323
O O6 0.817525 0.750000 0.704666
O O7 0.924112 0.750000 0.893584
O O8 0.955117 0.750000 0.132118
O O9 0.606430 0.250000 0.850091
O O10 0.459591 0.126109 0.804529
O O11 0.755399 0.250000 0.978850
O O12 0.000000 0.000000 0.500000
#
# Coordination Sequence:
#
# PCOD9464577 Si02
#       7
#     8   4   4   4   4   8   4
#     4   9  21  38  63  90 125 167 206 264 320 372
#     4  10  24  39  60  94 127 161 217 267 319 381
#     4  10  23  43  60  90 136 168 212 269 321 388
#     4  10  20  38  63  86 126 172 203 256 322 371
#     4  10  21  39  60  93 126 161 214 259 317 374
#     4  11  21  40  66  94 123 168 216 265 316 382
#     4  10  20  35  61  91 119 162 204 261 307 376
#
# _framework density 21.045686
#
# number of rings (size 3 to 8) (size 9 to 14) (size 15 to 20)
#    0.000    2.222    0.000    4.667    6.222    0.889 
#    0.000    4.444    0.000    0.000    0.000    0.000 
#    0.000    0.000    0.000    0.000    0.000    0.000 
#
# Total GULP energy -201016.638177 kJ/mol
# GULP energy per Si atom -5583.795505 kJ/mol
# Density = 2.099778 g / cm^3
# Si number density = 21.045686 Si / 1000 Ang^3
#
#
#
# Elastic Constant Matrix: (Units=GPa)
#
#
# Indices 1 2 3 4 5 6 
#
# 1 41.0134 24.3741 10.4621 0.0000 0.0000 0.0000
# 2 24.3741 229.4643 59.1796 0.0000 0.0000 0.0000
# 3 10.4621 59.1796 118.1170 0.0000 0.0000 0.0000
# 4 0.0000 0.0000 0.0000 14.9688 0.0000 0.0000
# 5 0.0000 0.0000 0.0000 0.0000 27.1126 0.0000
# 6 0.0000 0.0000 0.0000 0.0000 0.0000 29.2934
#
#
#
# Elastic Compliance Matrix: (Units=1/GPa)
#
#
# Indices 1 2 3 4 5 6 
#
# 1 0.026141 -0.002503 -0.001061 0.000000 0.000000 0.000000
# 2 -0.002503 0.005244 -0.002406 0.000000 0.000000 0.000000
# 3 -0.001061 -0.002406 0.009766 0.000000 0.000000 0.000000
# 4 0.000000 0.000000 0.000000 0.066805 0.000000 0.000000
# 5 0.000000 0.000000 0.000000 0.000000 0.036883 0.000000
# 6 0.000000 0.000000 0.000000 0.000000 0.000000 0.034137
#
#
# Mechanical properties :
#
#
# Convention : Reuss Voigt Hill
#
# Bulk Modulus (GPa) = 34.23469 64.06959 49.15214
# Shear Modulus (GPa) = 24.91858 33.91355 29.41606
#
# Velocity S-wave (km/s) = 3.44470 4.01861 3.74267
# Velocity P-wave (km/s) = 5.66775 7.21398 6.48710
#
# Compressibility (1/GPa) = 0.02921013
#
# Stress axis : x y z
#
# Youngs Moduli (GPa) = 38.25479 190.68245 102.40051
#
# Poissons Ratio (x) = 0.47727 0.10868
# Poissons Ratio (y) = 0.09575 0.24636
# Poissons Ratio (z) = 0.04060 0.45875
#
# Static dielectric constant tensor:
#      x y z
#    x 1.772690 0.000000 0.000000 
#    y 0.000000 1.796880 0.000000 
#    z 0.000000 0.000000 1.723230 
# 
# From -- ./inp_files/12963.got.cif
#   From: 2010.05.17/outbox.cif.g08.bks.cpg/sg62_7_cif.got.tgz:12963.got - 2010.06.03 15:25:27.
