data_PCOD9464876
_publ_section_title
;
Structure prediction by ZEFSAII (Michael W. Deem and Ramdas Pophale) SiO2 
 PCOD9464876
Probable space group: P N M A
;
_chemical_formula_sum "Si O2"
_cell_formula_units_Z 48
_cell_length_a 17.479060
_cell_length_b 16.221642
_cell_length_c 8.924022
_cell_angle_alpha 90.000000
_cell_angle_beta 90.000000
_cell_angle_gamma 90.000000
_cell_volume 2530.308754
_symmetry_space_group_name_H-M "P N M A"
_symmetry_group_IT_number 62
_symmetry_cell_setting 'orthorhombic'
loop_
_space_group_symop_operation_xyz
x,y,z
1/2-x,-y,1/2+z
1/2+x,1/2-y,1/2-z
-x,1/2+y,-z
-x,-y,-z
1/2+x,y,1/2-z
1/2-x,1/2+y,1/2+z
x,1/2-y,z
loop_
_atom_site_type_symbol
_atom_site_label
_atom_site_fract_x
_atom_site_fract_y
_atom_site_fract_z
Si Si1 0.595882 0.460679 0.282791
Si Si2 0.017146 0.846340 0.589331
Si Si3 0.258876 0.025481 0.897952
Si Si4 0.477805 0.590335 0.234136
Si Si5 0.643697 0.156474 0.556399
Si Si6 0.648793 0.951735 0.805740
O O1 0.546822 0.401558 0.172558
O O2 0.667069 0.501006 0.197045
O O3 0.539972 0.536521 0.324254
O O4 0.622753 0.403989 0.419364
O O5 0.001568 0.750000 0.607618
O O6 0.099620 0.870936 0.658419
O O7 0.014844 0.870960 0.414034
O O8 0.217163 0.112912 0.866447
O O9 0.192977 0.959826 0.851806
O O10 0.288679 0.030682 0.066932
O O11 0.429618 0.652769 0.334623
O O12 0.414035 0.523851 0.183808
O O13 0.659418 0.250000 0.510880
#
# Coordination Sequence:
#
# PCOD9464876 Si02
#       6
#     8   8   8   8   8   8
#     4  11  20  39  60  85 114 159 196 231 286 355
#     4  11  21  36  60  88 120 150 194 249 286 328
#     4  11  20  37  61  83 114 156 195 231 280 355
#     4  10  20  38  62  82 111 155 200 233 281 351
#     4  11  24  38  57  89 121 147 189 247 298 335
#     4  10  20  37  58  83 112 152 204 227 281 349
#
# _framework density 18.970016999999999
#
# number of rings (size 3 to 8) (size 9 to 14) (size 15 to 20)
#    0.000    1.333    5.000    2.500    0.000    0.667 
#    0.000    0.000    0.000    0.000    0.000    0.000 
#    0.000    0.000    0.000    0.000    0.000    0.000 
#
# Total GULP energy -267623.978552 kJ/mol
# GULP energy per Si atom -5575.499553 kJ/mol
# Density = 1.892684 g / cm^3
# Si number density = 18.970017 Si / 1000 Ang^3
#
#
#
# Elastic Constant Matrix: (Units=GPa)
#
#
# Indices 1 2 3 4 5 6 
#
# 1 109.9588 52.1370 32.7851 0.0000 0.0000 0.0000
# 2 52.1370 93.4167 25.6619 0.0000 0.0000 0.0000
# 3 32.7851 25.6619 36.7048 0.0000 0.0000 0.0000
# 4 0.0000 0.0000 0.0000 20.7845 0.0000 0.0000
# 5 0.0000 0.0000 0.0000 0.0000 38.0568 0.0000
# 6 0.0000 0.0000 0.0000 0.0000 0.0000 16.9765
#
#
#
# Elastic Compliance Matrix: (Units=1/GPa)
#
#
# Indices 1 2 3 4 5 6 
#
# 1 0.014416 -0.005580 -0.008975 0.000000 0.000000 0.000000
# 2 -0.005580 0.015409 -0.005789 0.000000 0.000000 0.000000
# 3 -0.008975 -0.005789 0.039309 0.000000 0.000000 0.000000
# 4 0.000000 0.000000 0.000000 0.048113 0.000000 0.000000
# 5 0.000000 0.000000 0.000000 0.000000 0.026277 0.000000
# 6 0.000000 0.000000 0.000000 0.000000 0.000000 0.058905
#
#
# Mechanical properties :
#
#
# Convention : Reuss Voigt Hill
#
# Bulk Modulus (GPa) = 35.15555 51.24980 43.20267
# Shear Modulus (GPa) = 19.79419 23.79665 21.79542
#
# Velocity S-wave (km/s) = 3.23375 3.54564 3.39328
# Velocity P-wave (km/s) = 5.70221 6.62095 6.17868
#
# Compressibility (1/GPa) = 0.02844501
#
# Stress axis : x y z
#
# Youngs Moduli (GPa) = 69.36589 64.89528 25.43977
#
# Poissons Ratio (x) = 0.36214 0.22833
# Poissons Ratio (y) = 0.38709 0.14727
# Poissons Ratio (z) = 0.62258 0.37568
#
# Static dielectric constant tensor:
#      x y z
#    x 1.690810 0.000000 0.000000 
#    y 0.000000 1.640310 0.000000 
#    z 0.000000 0.000000 1.691710 
# 
# From -- ./inp_files/7654.got.cif
#   From: 2010.05.17/outbox.cif.g08.bks.cpg/sg62_4_cif.got.tgz:7654.got - 2010.06.03 15:25:27.
