data_PCOD9464858
_publ_section_title
;
Structure prediction by ZEFSAII (Michael W. Deem and Ramdas Pophale) SiO2 
 PCOD9464858
Probable space group: P N M A
;
_chemical_formula_sum "Si O2"
_cell_formula_units_Z 64
_cell_length_a 9.788801
_cell_length_b 32.100457
_cell_length_c 10.385414
_cell_angle_alpha 90.000000
_cell_angle_beta 90.000000
_cell_angle_gamma 90.000000
_cell_volume 3263.356564
_symmetry_space_group_name_H-M "P N M A"
_symmetry_group_IT_number 62
_symmetry_cell_setting 'orthorhombic'
loop_
_space_group_symop_operation_xyz
x,y,z
1/2-x,-y,1/2+z
1/2+x,1/2-y,1/2-z
-x,1/2+y,-z
-x,-y,-z
1/2+x,y,1/2-z
1/2-x,1/2+y,1/2+z
x,1/2-y,z
loop_
_atom_site_type_symbol
_atom_site_label
_atom_site_fract_x
_atom_site_fract_y
_atom_site_fract_z
Si Si1 0.660418 0.593656 0.054285
Si Si2 0.645849 0.667342 0.248556
Si Si3 0.113780 0.297626 0.907748
Si Si4 0.139890 0.997096 0.338263
Si Si5 0.858219 0.017634 0.946644
Si Si6 0.043880 0.084919 0.348890
Si Si7 0.917127 0.624253 0.928133
Si Si8 0.707418 0.890226 0.469292
O O1 0.596058 0.599918 0.912937
O O2 0.824202 0.596423 0.027306
O O3 0.612907 0.631108 0.145627
O O4 0.609704 0.550279 0.118311
O O5 0.513021 0.686361 0.318502
O O6 0.747643 0.698397 0.175802
O O7 0.731855 0.642772 0.357649
O O8 0.089945 0.250000 0.945443
O O9 0.128084 0.329211 0.029153
O O10 0.184853 0.000859 0.190113
O O11 0.255086 0.009843 0.438381
O O12 0.030851 0.034477 0.346231
O O13 0.854426 0.066573 0.916966
O O14 0.000000 0.000000 0.000000
O O15 0.089775 0.104328 0.213448
O O16 0.160491 0.098578 0.449444
O O17 0.079667 0.625676 0.949198
#
# Coordination Sequence:
#
# PCOD9464858 Si02
#       8
#     8   8   8   8   8   8   8   8
#     4  11  21  37  57  84 115 159 200 243 296 347
#     4  10  20  37  61  87 118 148 188 246 298 356
#     4  10  21  38  64  90 114 146 188 242 307 370
#     4  11  23  37  54  85 116 162 211 257 291 346
#     4  11  23  37  55  77 118 161 208 261 300 345
#     4  11  22  35  56  82 115 158 204 242 281 347
#     4  10  22  38  59  81 118 154 191 240 305 355
#     4  10  20  37  55  80 110 154 193 237 293 346
#
# _framework density 19.611709000000001
#
# number of rings (size 3 to 8) (size 9 to 14) (size 15 to 20)
#    0.000    1.500    1.250    4.500    0.000    5.000 
#    0.000    0.000    0.000   15.000    0.000    0.000 
#    0.000    0.000    0.000    0.000    0.000    0.000 
#
# Total GULP energy -356694.382221 kJ/mol
# GULP energy per Si atom -5573.349722 kJ/mol
# Density = 1.956707 g / cm^3
# Si number density = 19.611709 Si / 1000 Ang^3
#
#
#
# Elastic Constant Matrix: (Units=GPa)
#
#
# Indices 1 2 3 4 5 6 
#
# 1 41.6134 12.9680 9.8303 0.0000 0.0000 0.0000
# 2 12.9680 108.6072 29.8755 0.0000 0.0000 0.0000
# 3 9.8303 29.8755 100.9209 0.0000 0.0000 0.0000
# 4 0.0000 0.0000 0.0000 14.5233 0.0000 0.0000
# 5 0.0000 0.0000 0.0000 0.0000 19.1122 0.0000
# 6 0.0000 0.0000 0.0000 0.0000 0.0000 16.8730
#
#
#
# Elastic Compliance Matrix: (Units=1/GPa)
#
#
# Indices 1 2 3 4 5 6 
#
# 1 0.025226 -0.002543 -0.001704 0.000000 0.000000 0.000000
# 2 -0.002543 0.010280 -0.002795 0.000000 0.000000 0.000000
# 3 -0.001704 -0.002795 0.010902 0.000000 0.000000 0.000000
# 4 0.000000 0.000000 0.000000 0.068855 0.000000 0.000000
# 5 0.000000 0.000000 0.000000 0.000000 0.052323 0.000000
# 6 0.000000 0.000000 0.000000 0.000000 0.000000 0.059266
#
#
# Mechanical properties :
#
#
# Convention : Reuss Voigt Hill
#
# Bulk Modulus (GPa) = 30.93836 39.60989 35.27413
# Shear Modulus (GPa) = 19.86396 23.33289 21.59842
#
# Velocity S-wave (km/s) = 3.18600 3.45301 3.32219
# Velocity P-wave (km/s) = 5.41700 6.01154 5.72199
#
# Compressibility (1/GPa) = 0.03232234
#
# Stress axis : x y z
#
# Youngs Moduli (GPa) = 39.64180 97.27492 91.72380
#
# Poissons Ratio (x) = 0.24739 0.15632
# Poissons Ratio (y) = 0.10082 0.25641
# Poissons Ratio (z) = 0.06756 0.27193
#
# Static dielectric constant tensor:
#      x y z
#    x 1.696680 0.000000 0.000000 
#    y 0.000000 1.734050 0.000000 
#    z 0.000000 0.000000 1.715650 
# 
# From -- ./inp_files/5548.got.cif
#   From: 2010.05.17/outbox.cif.g08.bks.cpg/sg62_3_cif.got.tgz:5548.got - 2010.06.03 15:25:27.
