data_PCOD9464097
_publ_section_title
;
Structure prediction by ZEFSAII (Michael W. Deem and Ramdas Pophale) SiO2 
 PCOD9464097
Probable space group: P N M A
;
_chemical_formula_sum "Si O2"
_cell_formula_units_Z 56
_cell_length_a 14.359741
_cell_length_b 13.604385
_cell_length_c 12.825222
_cell_angle_alpha 90.000000
_cell_angle_beta 90.000000
_cell_angle_gamma 90.000000
_cell_volume 2505.476952
_symmetry_space_group_name_H-M "P N M A"
_symmetry_group_IT_number 62
_symmetry_cell_setting 'orthorhombic'
loop_
_space_group_symop_operation_xyz
x,y,z
1/2-x,-y,1/2+z
1/2+x,1/2-y,1/2-z
-x,1/2+y,-z
-x,-y,-z
1/2+x,y,1/2-z
1/2-x,1/2+y,1/2+z
x,1/2-y,z
loop_
_atom_site_type_symbol
_atom_site_label
_atom_site_fract_x
_atom_site_fract_y
_atom_site_fract_z
Si Si1 0.984522 0.364540 0.623807
Si Si2 0.985934 0.355634 0.066116
Si Si3 0.807261 0.573213 0.409558
Si Si4 0.193127 0.641286 0.516222
Si Si5 0.209818 0.070374 0.814555
Si Si6 0.272331 0.143578 0.374911
Si Si7 0.986171 0.056467 0.842963
O O1 0.001835 0.250000 0.648098
O O2 0.081651 0.412360 0.590787
O O3 0.947142 0.413510 0.730671
O O4 0.910850 0.369328 0.530697
O O5 0.032415 0.250000 0.079192
O O6 0.884461 0.353080 0.119211
O O7 0.038963 0.447302 0.117091
O O8 0.968063 0.376163 0.943628
O O9 0.787305 0.456341 0.417934
O O10 0.770728 0.612217 0.299327
O O11 0.764242 0.628100 0.507547
O O12 0.203082 0.750000 0.563912
O O13 0.255379 0.632125 0.412186
O O14 0.098074 0.061538 0.826027
O O15 0.251221 0.959846 0.821461
O O16 0.239116 0.250000 0.334953
#
# Coordination Sequence:
#
# PCOD9464097 Si02
#       7
#     8   8   8   8   8   8   8
#     4  10  20  34  54  78 103 137 177 216 259 310
#     4   9  17  30  50  76 105 137 172 213 263 313
#     4  10  20  36  55  78 106 140 172 217 263 308
#     4  10  22  37  55  80 107 137 177 218 259 312
#     4   9  20  35  52  74 105 136 169 211 261 307
#     4   9  18  32  52  77 101 132 172 211 253 308
#     4   9  18  32  50  75 106 137 171 217 260 310
#
# _framework density 22.351033999999999
#
# number of rings (size 3 to 8) (size 9 to 14) (size 15 to 20)
#    0.000    2.571    0.000    1.286    2.000    4.000 
#    0.000    2.143    0.000    4.286    0.000    0.000 
#    0.000    0.000    0.000    0.000    0.000    0.000 
#
# Total GULP energy -312623.343629 kJ/mol
# GULP energy per Si atom -5582.559708 kJ/mol
# Density = 2.230016 g / cm^3
# Si number density = 22.351034 Si / 1000 Ang^3
#
#
#
# Elastic Constant Matrix: (Units=GPa)
#
#
# Indices 1 2 3 4 5 6 
#
# 1 38.0722 -1.2177 -5.1721 0.0000 0.0000 0.0000
# 2 -1.2177 115.0655 -1.8097 0.0000 0.0000 0.0000
# 3 -5.1721 -1.8097 47.5161 0.0000 0.0000 0.0000
# 4 0.0000 0.0000 0.0000 -6.6372 0.0000 0.0000
# 5 0.0000 0.0000 0.0000 0.0000 7.0636 0.0000
# 6 0.0000 0.0000 0.0000 0.0000 0.0000 16.6260
#
#
#
# Elastic Compliance Matrix: (Units=1/GPa)
#
#
# Indices 1 2 3 4 5 6 
#
# 1 0.026672 0.000328 0.002916 0.000000 0.000000 0.000000
# 2 0.000328 0.008700 0.000367 0.000000 0.000000 0.000000
# 3 0.002916 0.000367 0.021377 0.000000 0.000000 0.000000
# 4 0.000000 0.000000 0.000000 -0.150666 0.000000 0.000000
# 5 0.000000 0.000000 0.000000 0.000000 0.141571 0.000000
# 6 0.000000 0.000000 0.000000 0.000000 0.000000 0.060147
#
#
# Mechanical properties :
#
#
# Convention : Reuss Voigt Hill
#
# Bulk Modulus (GPa) = 15.63202 20.47275 18.05238
# Shear Modulus (GPa) = 41.01657 17.33404 29.17531
#
# Velocity S-wave (km/s) = 4.28846 2.78787 3.61684
# Velocity P-wave (km/s) = 5.61518 4.42069 5.05335
#
# Compressibility (1/GPa) = 0.06397128
#
# Stress axis : x y z
#
# Youngs Moduli (GPa) = 37.49184 114.94324 46.77951
#
# Poissons Ratio (x) = -0.03772 -0.13640
# Poissons Ratio (y) = -0.01230 -0.01717
# Poissons Ratio (z) = -0.10932 -0.04219
#
# Static dielectric constant tensor:
#      x y z
#    x 1.846550 0.000000 0.000000 
#    y 0.000000 1.854300 0.000000 
#    z 0.000000 0.000000 1.797160 
# 
# From -- ./inp_files/19125.got.cif
#   From: 2010.05.17/outbox.cif.g08.bks.cpg/sg62_10_cif.got.tgz:19125.got - 2010.06.03 15:25:27.
