data_PCOD9464102
_publ_section_title
;
Structure prediction by ZEFSAII (Michael W. Deem and Ramdas Pophale) SiO2 
 PCOD9464102
Probable space group: P N M A
;
_chemical_formula_sum "Si O2"
_cell_formula_units_Z 64
_cell_length_a 22.070598
_cell_length_b 9.226765
_cell_length_c 17.678152
_cell_angle_alpha 90.000000
_cell_angle_beta 90.000000
_cell_angle_gamma 90.000000
_cell_volume 3599.982783
_symmetry_space_group_name_H-M "P N M A"
_symmetry_group_IT_number 62
_symmetry_cell_setting 'orthorhombic'
loop_
_space_group_symop_operation_xyz
x,y,z
1/2-x,-y,1/2+z
1/2+x,1/2-y,1/2-z
-x,1/2+y,-z
-x,-y,-z
1/2+x,y,1/2-z
1/2-x,1/2+y,1/2+z
x,1/2-y,z
loop_
_atom_site_type_symbol
_atom_site_label
_atom_site_fract_x
_atom_site_fract_y
_atom_site_fract_z
Si Si1 0.357834 0.423327 0.537414
Si Si2 0.433218 0.921052 0.086067
Si Si3 0.853809 0.076407 0.290836
Si Si4 0.923101 0.078438 0.566785
Si Si5 0.101208 0.924276 0.873408
Si Si6 0.121578 0.576021 0.269972
Si Si7 0.716976 0.076524 0.337159
Si Si8 0.473323 0.421386 0.643265
O O1 0.346638 0.250000 0.542117
O O2 0.365013 0.468160 0.450464
O O3 0.307429 0.507512 0.585059
O O4 0.422147 0.449774 0.579693
O O5 0.422255 0.750000 0.088459
O O6 0.505697 0.944534 0.084920
O O7 0.402567 0.997685 0.156942
O O8 0.408320 0.989051 0.008119
O O9 0.861875 0.250000 0.296996
O O10 0.863740 0.036075 0.203271
O O11 0.786613 0.041209 0.319863
O O12 0.914926 0.250000 0.552027
O O13 0.886594 0.039277 0.642297
O O14 0.095735 0.750000 0.876154
O O15 0.034258 0.991100 0.869825
O O16 0.131114 0.750000 0.262929
O O17 0.174912 0.491512 0.228273
O O18 0.060066 0.544513 0.222683
O O19 0.710028 0.250000 0.338733
O O20 0.486919 0.250000 0.642309
#
# Coordination Sequence:
#
# PCOD9464102 Si02
#       8
#     8   8   8   8   8   8   8   8
#     4   9  19  36  55  76 106 141 176 213 262 318
#     4  10  20  34  55  81 107 140 179 217 263 321
#     4  10  22  39  54  73 107 143 175 221 274 312
#     4   9  18  34  55  81 113 141 171 218 270 317
#     4  10  20  34  54  79 105 138 173 212 264 319
#     4   9  18  34  55  78 107 143 176 213 263 313
#     4  10  21  37  55  74 103 139 180 225 264 306
#     4   9  17  30  51  81 114 140 166 210 260 312
#
# _framework density 17.777863
#
# number of rings (size 3 to 8) (size 9 to 14) (size 15 to 20)
#    0.000    2.500    0.000    2.625    0.000    6.000 
#    2.250    0.000    0.000    0.000    0.000    0.000 
#    0.000    0.000    0.000    0.000    0.000    0.000 
#
# Total GULP energy -357137.839440 kJ/mol
# GULP energy per Si atom -5580.278741 kJ/mol
# Density = 1.773740 g / cm^3
# Si number density = 17.777863 Si / 1000 Ang^3
#
#
#
# Elastic Constant Matrix: (Units=GPa)
#
#
# Indices 1 2 3 4 5 6 
#
# 1 44.2562 27.8042 25.5654 0.0000 0.0000 0.0000
# 2 27.8042 22.3459 29.3147 0.0000 0.0000 0.0000
# 3 25.5654 29.3147 109.8018 0.0000 0.0000 0.0000
# 4 0.0000 0.0000 0.0000 25.6970 0.0000 0.0000
# 5 0.0000 0.0000 0.0000 0.0000 4.6244 0.0000
# 6 0.0000 0.0000 0.0000 0.0000 0.0000 23.6494
#
#
#
# Elastic Compliance Matrix: (Units=1/GPa)
#
#
# Indices 1 2 3 4 5 6 
#
# 1 0.125122 -0.180784 0.019133 0.000000 0.000000 0.000000
# 2 -0.180784 0.330081 -0.046032 0.000000 0.000000 0.000000
# 3 0.019133 -0.046032 0.016942 0.000000 0.000000 0.000000
# 4 0.000000 0.000000 0.000000 0.038915 0.000000 0.000000
# 5 0.000000 0.000000 0.000000 0.000000 0.216244 0.000000
# 6 0.000000 0.000000 0.000000 0.000000 0.000000 0.042284
#
#
# Mechanical properties :
#
#
# Convention : Reuss Voigt Hill
#
# Bulk Modulus (GPa) = 17.61225 37.97472 27.79348
# Shear Modulus (GPa) = 4.15323 17.04213 10.59768
#
# Velocity S-wave (km/s) = 1.53012 3.09951 2.44420
# Velocity P-wave (km/s) = 3.61248 5.84947 4.86140
#
# Compressibility (1/GPa) = 0.05677866
#
# Stress axis : x y z
#
# Youngs Moduli (GPa) = 7.99221 3.02956 59.02459
#
# Poissons Ratio (x) = 0.54770 -1.12932
# Poissons Ratio (y) = 1.44486 2.71702
# Poissons Ratio (z) = -0.15291 0.13946
#
# Static dielectric constant tensor:
#      x y z
#    x 1.577100 0.000000 0.000000 
#    y 0.000000 1.588930 0.000000 
#    z 0.000000 0.000000 1.613520 
# 
# From -- ./inp_files/20890.got.cif
#   From: 2010.05.17/outbox.cif.g08.bks.cpg/sg62_11_cif.got.tgz:20890.got - 2010.06.03 15:25:27.
