data_PCOD9464819
_publ_section_title
;
Structure prediction by ZEFSAII (Michael W. Deem and Ramdas Pophale) SiO2 
 PCOD9464819
Probable space group: P N M A
;
_chemical_formula_sum "Si O2"
_cell_formula_units_Z 40
_cell_length_a 12.077407
_cell_length_b 17.884220
_cell_length_c 7.732307
_cell_angle_alpha 90.000000
_cell_angle_beta 90.000000
_cell_angle_gamma 90.000000
_cell_volume 1670.139680
_symmetry_space_group_name_H-M "P N M A"
_symmetry_group_IT_number 62
_symmetry_cell_setting 'orthorhombic'
loop_
_space_group_symop_operation_xyz
x,y,z
1/2-x,-y,1/2+z
1/2+x,1/2-y,1/2-z
-x,1/2+y,-z
-x,-y,-z
1/2+x,y,1/2-z
1/2-x,1/2+y,1/2+z
x,1/2-y,z
loop_
_atom_site_type_symbol
_atom_site_label
_atom_site_fract_x
_atom_site_fract_y
_atom_site_fract_z
Si Si1 0.653375 0.250000 0.809879
Si Si2 0.549789 0.616954 0.626228
Si Si3 0.903044 0.250000 0.879462
Si Si4 0.862170 0.458481 0.660069
Si Si5 0.940920 0.882735 0.518177
Si Si6 0.143936 0.475914 0.967138
O O1 0.787919 0.250000 0.762888
O O2 0.532943 0.250000 0.697653
O O3 0.636730 0.176788 0.928506
O O4 0.604470 0.679284 0.509292
O O5 0.497682 0.646154 0.804623
O O6 0.453835 0.580249 0.508736
O O7 0.619326 0.541312 0.671974
O O8 0.963024 0.405545 0.615613
O O9 0.843399 0.476503 0.858735
O O10 0.749490 0.428705 0.581553
O O11 0.883690 0.539483 0.572602
#
# Coordination Sequence:
#
# PCOD9464819 Si02
#       6
#     4   8   4   8   8   8
#     4  12  27  46  66  94 130 172 219 270 328 390
#     4  10  22  40  62  91 126 169 217 267 323 386
#     4  12  27  46  68  94 132 174 219 272 328 390
#     4  10  20  36  62  93 128 168 213 266 321 384
#     4  10  22  40  62  91 126 168 218 267 323 387
#     4  10  20  36  61  93 127 166 212 263 321 383
#
# _framework density 23.950092000000001
#
# number of rings (size 3 to 8) (size 9 to 14) (size 15 to 20)
#    0.000    1.600    0.000    4.200    0.000    9.600 
#    0.000    2.000    0.000    0.000    0.000    0.000 
#    0.000    0.000    0.000    0.000    0.000    0.000 
#
# Total GULP energy -223430.087384 kJ/mol
# GULP energy per Si atom -5585.752185 kJ/mol
# Density = 2.389558 g / cm^3
# Si number density = 23.950092 Si / 1000 Ang^3
#
#
#
# Elastic Constant Matrix: (Units=GPa)
#
#
# Indices 1 2 3 4 5 6 
#
# 1 121.4464 11.1100 35.3742 0.0000 0.0000 0.0000
# 2 11.1100 91.1744 9.2149 0.0000 0.0000 0.0000
# 3 35.3742 9.2149 82.6046 0.0000 0.0000 0.0000
# 4 0.0000 0.0000 0.0000 28.0027 0.0000 0.0000
# 5 0.0000 0.0000 0.0000 0.0000 31.6077 0.0000
# 6 0.0000 0.0000 0.0000 0.0000 0.0000 17.2488
#
#
#
# Elastic Compliance Matrix: (Units=1/GPa)
#
#
# Indices 1 2 3 4 5 6 
#
# 1 0.009458 -0.000752 -0.003966 0.000000 0.000000 0.000000
# 2 -0.000752 0.011153 -0.000922 0.000000 0.000000 0.000000
# 3 -0.003966 -0.000922 0.013907 0.000000 0.000000 0.000000
# 4 0.000000 0.000000 0.000000 0.035711 0.000000 0.000000
# 5 0.000000 0.000000 0.000000 0.000000 0.031638 0.000000
# 6 0.000000 0.000000 0.000000 0.000000 0.000000 0.057975
#
#
# Mechanical properties :
#
#
# Convention : Reuss Voigt Hill
#
# Bulk Modulus (GPa) = 43.03381 45.18040 44.10710
# Shear Modulus (GPa) = 27.95346 31.34026 29.64686
#
# Velocity S-wave (km/s) = 3.42007 3.62133 3.52214
# Velocity P-wave (km/s) = 5.79681 6.03248 5.91581
#
# Compressibility (1/GPa) = 0.02323754
#
# Stress axis : x y z
#
# Youngs Moduli (GPa) = 105.72857 89.66365 71.90452
#
# Poissons Ratio (x) = 0.06739 0.28521
# Poissons Ratio (y) = 0.07947 0.06632
# Poissons Ratio (z) = 0.41937 0.08269
#
# Static dielectric constant tensor:
#      x y z
#    x 2.022240 0.000000 0.000000 
#    y 0.000000 1.903040 0.000000 
#    z 0.000000 0.000000 1.925400 
# 
# From -- ./inp_files/5065.got.cif
#   From: 2010.05.17/outbox.cif.g08.bks.cpg/sg62_3_cif.got.tgz:5065.got - 2010.06.03 15:25:27.
