data_PCOD9464815
_publ_section_title
;
Structure prediction by ZEFSAII (Michael W. Deem and Ramdas Pophale) SiO2 
 PCOD9464815
Probable space group: P N M A
;
_chemical_formula_sum "Si O2"
_cell_formula_units_Z 40
_cell_length_a 12.743303
_cell_length_b 8.824201
_cell_length_c 17.135024
_cell_angle_alpha 90.000000
_cell_angle_beta 90.000000
_cell_angle_gamma 90.000000
_cell_volume 1926.824317
_symmetry_space_group_name_H-M "P N M A"
_symmetry_group_IT_number 62
_symmetry_cell_setting 'orthorhombic'
loop_
_space_group_symop_operation_xyz
x,y,z
1/2-x,-y,1/2+z
1/2+x,1/2-y,1/2-z
-x,1/2+y,-z
-x,-y,-z
1/2+x,y,1/2-z
1/2-x,1/2+y,1/2+z
x,1/2-y,z
loop_
_atom_site_type_symbol
_atom_site_label
_atom_site_fract_x
_atom_site_fract_y
_atom_site_fract_z
Si Si1 0.982981 0.932934 0.412657
Si Si2 0.416330 0.923301 0.583887
Si Si3 0.641216 0.577569 0.570312
Si Si4 0.707388 0.575462 0.816313
Si Si5 0.198701 0.573718 0.335065
O O1 0.982638 0.750000 0.418858
O O2 0.081713 0.978584 0.357347
O O3 0.877491 0.988882 0.369547
O O4 0.000000 0.000000 0.500000
O O5 0.418848 0.750000 0.551580
O O6 0.532887 0.947782 0.617730
O O7 0.320887 0.930114 0.642628
O O8 0.394273 0.046647 0.517899
O O9 0.677648 0.750000 0.581492
O O10 0.731440 0.459397 0.588978
O O11 0.673358 0.750000 0.809879
O O12 0.734711 0.508957 0.731778
O O13 0.193290 0.750000 0.315603
#
# Coordination Sequence:
#
# PCOD9464815 Si02
#       5
#     8   8   8   8   8
#     4  11  25  45  68  96 131 174 221 270 323 387
#     4   9  20  38  59  88 122 157 198 250 307 367
#     4  10  20  36  61  91 120 158 203 248 305 371
#     4  11  24  41  64  92 126 165 211 265 319 379
#     4  11  25  42  61  90 128 166 209 262 319 376
#
# _framework density 20.759547000000001
#
# number of rings (size 3 to 8) (size 9 to 14) (size 15 to 20)
#    0.000    1.600    0.000    3.600    2.800   10.400 
#    0.000    0.000    0.000    0.000    0.000    0.000 
#    0.000    0.000    0.000    0.000    0.000    0.000 
#
# Total GULP energy -223198.474006 kJ/mol
# GULP energy per Si atom -5579.961850 kJ/mol
# Density = 2.071230 g / cm^3
# Si number density = 20.759547 Si / 1000 Ang^3
#
#
#
# Elastic Constant Matrix: (Units=GPa)
#
#
# Indices 1 2 3 4 5 6 
#
# 1 74.2818 23.6236 5.1759 0.0000 0.0000 0.0000
# 2 23.6236 49.3243 21.0926 0.0000 0.0000 0.0000
# 3 5.1759 21.0926 50.5298 0.0000 0.0000 0.0000
# 4 0.0000 0.0000 0.0000 33.9073 0.0000 0.0000
# 5 0.0000 0.0000 0.0000 0.0000 30.6367 0.0000
# 6 0.0000 0.0000 0.0000 0.0000 0.0000 32.6039
#
#
#
# Elastic Compliance Matrix: (Units=1/GPa)
#
#
# Indices 1 2 3 4 5 6 
#
# 1 0.016030 -0.008491 0.001902 0.000000 0.000000 0.000000
# 2 -0.008491 0.029177 -0.011310 0.000000 0.000000 0.000000
# 3 0.001902 -0.011310 0.024316 0.000000 0.000000 0.000000
# 4 0.000000 0.000000 0.000000 0.029492 0.000000 0.000000
# 5 0.000000 0.000000 0.000000 0.000000 0.032641 0.000000
# 6 0.000000 0.000000 0.000000 0.000000 0.000000 0.030671
#
#
# Mechanical properties :
#
#
# Convention : Reuss Voigt Hill
#
# Bulk Modulus (GPa) = 29.64977 30.43556 30.04266
# Shear Modulus (GPa) = 23.88162 27.71251 25.79706
#
# Velocity S-wave (km/s) = 3.39542 3.65763 3.52896
# Velocity P-wave (km/s) = 5.44843 5.70355 5.57745
#
# Compressibility (1/GPa) = 0.03372707
#
# Stress axis : x y z
#
# Youngs Moduli (GPa) = 62.38282 34.27358 41.12458
#
# Poissons Ratio (x) = 0.29102 -0.07824
# Poissons Ratio (y) = 0.52969 0.46510
# Poissons Ratio (z) = -0.11868 0.38762
#
# Static dielectric constant tensor:
#      x y z
#    x 1.806370 0.000000 0.000000 
#    y 0.000000 1.725880 0.000000 
#    z 0.000000 0.000000 1.936250 
# 
# From -- ./inp_files/22786.got.cif
#   From: 2010.05.17/outbox.cif.g08.bks.cpg/sg62_12_cif.got.tgz:22786.got - 2010.06.03 15:25:27.
