data_PCOD9464563
_publ_section_title
;
Structure prediction by ZEFSAII (Michael W. Deem and Ramdas Pophale) SiO2 
 PCOD9464563
Probable space group: P N M A
;
_chemical_formula_sum "Si O2"
_cell_formula_units_Z 40
_cell_length_a 11.322051
_cell_length_b 8.545600
_cell_length_c 17.506883
_cell_angle_alpha 90.000000
_cell_angle_beta 90.000000
_cell_angle_gamma 90.000000
_cell_volume 1693.856039
_symmetry_space_group_name_H-M "P N M A"
_symmetry_group_IT_number 62
_symmetry_cell_setting 'orthorhombic'
loop_
_space_group_symop_operation_xyz
x,y,z
1/2-x,-y,1/2+z
1/2+x,1/2-y,1/2-z
-x,1/2+y,-z
-x,-y,-z
1/2+x,y,1/2-z
1/2-x,1/2+y,1/2+z
x,1/2-y,z
loop_
_atom_site_type_symbol
_atom_site_label
_atom_site_fract_x
_atom_site_fract_y
_atom_site_fract_z
Si Si1 0.566532 0.425420 0.383439
Si Si2 0.655167 0.571689 0.533421
Si Si3 0.873735 0.064792 0.480958
Si Si4 0.389887 0.436464 0.197843
Si Si5 0.149258 0.573069 0.259221
O O1 0.598838 0.250000 0.356408
O O2 0.611453 0.450636 0.469160
O O3 0.426244 0.437414 0.393021
O O4 0.612859 0.559093 0.329767
O O5 0.643952 0.750000 0.505532
O O6 0.789225 0.524731 0.540114
O O7 0.864480 0.250000 0.491491
O O8 0.852053 0.031517 0.390734
O O9 0.000000 0.000000 0.500000
O O10 0.393982 0.250000 0.208458
O O11 0.282957 0.501662 0.251967
O O12 0.526785 0.496558 0.206811
O O13 0.157729 0.750000 0.287580
#
# Coordination Sequence:
#
# PCOD9464563 Si02
#       5
#     8   8   8   8   8
#     4  10  20  36  60  91 125 164 205 252 314 378
#     4  10  20  35  60  91 124 160 206 257 308 371
#     4  11  24  41  65  92 126 168 211 261 325 388
#     4  11  25  46  69  95 131 177 221 269 332 398
#     4  12  25  42  68  99 132 173 222 278 329 387
#
# _framework density 23.614757999999998
#
# number of rings (size 3 to 8) (size 9 to 14) (size 15 to 20)
#    0.000    1.200    2.000    4.200    0.000    6.400 
#    0.000    2.000    0.000    0.000    0.000    0.000 
#    0.000    0.000    0.000    0.000    0.000    0.000 
#
# Total GULP energy -223120.988873 kJ/mol
# GULP energy per Si atom -5578.024722 kJ/mol
# Density = 2.356101 g / cm^3
# Si number density = 23.614758 Si / 1000 Ang^3
#
#
#
# Elastic Constant Matrix: (Units=GPa)
#
#
# Indices 1 2 3 4 5 6 
#
# 1 163.4915 53.8075 17.3571 0.0000 0.0000 0.0000
# 2 53.8075 103.2771 18.5326 0.0000 0.0000 0.0000
# 3 17.3571 18.5326 10.2648 0.0000 0.0000 0.0000
# 4 0.0000 0.0000 0.0000 22.0715 0.0000 0.0000
# 5 0.0000 0.0000 0.0000 0.0000 51.5623 0.0000
# 6 0.0000 0.0000 0.0000 0.0000 0.0000 43.3438
#
#
#
# Elastic Compliance Matrix: (Units=1/GPa)
#
#
# Indices 1 2 3 4 5 6 
#
# 1 0.007880 -0.002536 -0.008745 0.000000 0.000000 0.000000
# 2 -0.002536 0.015139 -0.023045 0.000000 0.000000 0.000000
# 3 -0.008745 -0.023045 0.153816 0.000000 0.000000 0.000000
# 4 0.000000 0.000000 0.000000 0.045307 0.000000 0.000000
# 5 0.000000 0.000000 0.000000 0.000000 0.019394 0.000000
# 6 0.000000 0.000000 0.000000 0.000000 0.000000 0.023071
#
#
# Mechanical properties :
#
#
# Convention : Reuss Voigt Hill
#
# Bulk Modulus (GPa) = 9.24370 50.71420 29.97895
# Shear Modulus (GPa) = 13.53834 35.88458 24.71146
#
# Velocity S-wave (km/s) = 2.39697 3.90241 3.23838
# Velocity P-wave (km/s) = 3.40345 6.46741 5.16773
#
# Compressibility (1/GPa) = 0.10818175
#
# Stress axis : x y z
#
# Youngs Moduli (GPa) = 126.90993 66.05320 6.50127
#
# Poissons Ratio (x) = 0.16751 0.05686
# Poissons Ratio (y) = 0.32184 0.14982
# Poissons Ratio (z) = 1.10987 1.52221
#
# Static dielectric constant tensor:
#      x y z
#    x 2.012050 0.000000 0.000000 
#    y 0.000000 1.821970 0.000000 
#    z 0.000000 0.000000 1.941120 
# 
# From -- ./inp_files/26441.got.cif
#   From: 2010.05.17/outbox.cif.g08.bks.cpg/sg62_14_cif.got.tgz:26441.got - 2010.06.03 15:25:27.
