data_PCOD9464015
_publ_section_title
;
Structure prediction by ZEFSAII (Michael W. Deem and Ramdas Pophale) SiO2 
 PCOD9464015
Probable space group: P N M A
;
_chemical_formula_sum "Si O2"
_cell_formula_units_Z 32
_cell_length_a 5.484430
_cell_length_b 20.371541
_cell_length_c 12.152430
_cell_angle_alpha 90.000000
_cell_angle_beta 90.000000
_cell_angle_gamma 90.000000
_cell_volume 1357.745926
_symmetry_space_group_name_H-M "P N M A"
_symmetry_group_IT_number 62
_symmetry_cell_setting 'orthorhombic'
loop_
_space_group_symop_operation_xyz
x,y,z
1/2-x,-y,1/2+z
1/2+x,1/2-y,1/2-z
-x,1/2+y,-z
-x,-y,-z
1/2+x,y,1/2-z
1/2-x,1/2+y,1/2+z
x,1/2-y,z
loop_
_atom_site_type_symbol
_atom_site_label
_atom_site_fract_x
_atom_site_fract_y
_atom_site_fract_z
Si Si1 0.368452 0.133237 0.271054
Si Si2 0.921673 0.675819 0.179012
Si Si3 0.593796 0.010262 0.813218
Si Si4 0.880742 0.071604 0.988076
O O1 0.621374 0.169520 0.256225
O O2 0.354880 0.103555 0.393258
O O3 0.385283 0.069215 0.188928
O O4 0.660391 0.670551 0.240699
O O5 0.931704 0.750000 0.132622
O O6 0.965208 0.621514 0.086260
O O7 0.335683 0.026355 0.758654
O O8 0.633468 0.052004 0.923214
O O9 0.000000 0.000000 0.000000
#
# Coordination Sequence:
#
# PCOD9464015 Si02
#       4
#     8   8   8   8
#     4  10  22  35  48  79 121 153 191 245 306 368
#     4  10  24  46  68  94 130 171 218 267 320 389
#     4  10  20  34  48  78 119 149 191 243 309 365
#     4  12  22  36  64  92 124 168 209 267 324 378
#
# _framework density 23.568476
#
# number of rings (size 3 to 8) (size 9 to 14) (size 15 to 20)
#    0.000    1.500    5.000    1.500    0.000    8.000 
#    0.000    0.000    0.000    1.500    0.000    0.000 
#    0.000    0.000    0.000    0.000    0.000    0.000 
#
# Total GULP energy -178790.000005 kJ/mol
# GULP energy per Si atom -5587.187500 kJ/mol
# Density = 2.351483 g / cm^3
# Si number density = 23.568476 Si / 1000 Ang^3
#
#
#
# Elastic Constant Matrix: (Units=GPa)
#
#
# Indices 1 2 3 4 5 6 
#
# 1 182.5174 -7.3514 40.6218 0.0000 0.0000 0.0000
# 2 -7.3514 109.0206 7.5094 0.0000 0.0000 0.0000
# 3 40.6218 7.5094 85.9523 0.0000 0.0000 0.0000
# 4 0.0000 0.0000 0.0000 28.5500 0.0000 0.0000
# 5 0.0000 0.0000 0.0000 0.0000 29.1537 0.0000
# 6 0.0000 0.0000 0.0000 0.0000 0.0000 7.7323
#
#
#
# Elastic Compliance Matrix: (Units=1/GPa)
#
#
# Indices 1 2 3 4 5 6 
#
# 1 0.006164 0.000620 -0.002968 0.000000 0.000000 0.000000
# 2 0.000620 0.009290 -0.001105 0.000000 0.000000 0.000000
# 3 -0.002968 -0.001105 0.013133 0.000000 0.000000 0.000000
# 4 0.000000 0.000000 0.000000 0.035026 0.000000 0.000000
# 5 0.000000 0.000000 0.000000 0.000000 0.034301 0.000000
# 6 0.000000 0.000000 0.000000 0.000000 0.000000 0.129328
#
#
# Mechanical properties :
#
#
# Convention : Reuss Voigt Hill
#
# Bulk Modulus (GPa) = 46.11723 51.00554 48.56139
# Shear Modulus (GPa) = 20.71458 35.53456 28.12457
#
# Velocity S-wave (km/s) = 2.96786 3.88714 3.45818
# Velocity P-wave (km/s) = 5.59947 6.46799 6.04934
#
# Compressibility (1/GPa) = 0.02168387
#
# Stress axis : x y z
#
# Youngs Moduli (GPa) = 162.22278 107.63699 76.14207
#
# Poissons Ratio (x) = -0.06674 0.22595
# Poissons Ratio (y) = -0.10059 0.08412
# Poissons Ratio (z) = 0.48140 0.11891
#
# Static dielectric constant tensor:
#      x y z
#    x 1.973140 0.000000 0.000000 
#    y 0.000000 1.885430 0.000000 
#    z 0.000000 0.000000 1.976140 
# 
# From -- ./inp_files/10668.got.cif
#   From: 2010.05.17/outbox.cif.g08.bks.cpg/sg62_6_cif.got.tgz:10668.got - 2010.06.03 15:25:27.
