data_PCOD9464727
_publ_section_title
;
Structure prediction by ZEFSAII (Michael W. Deem and Ramdas Pophale) SiO2 
 PCOD9464727
Probable space group: P N M A
;
_chemical_formula_sum "Si O2"
_cell_formula_units_Z 40
_cell_length_a 26.346788
_cell_length_b 13.316727
_cell_length_c 5.278568
_cell_angle_alpha 90.000000
_cell_angle_beta 90.000000
_cell_angle_gamma 90.000000
_cell_volume 1852.001329
_symmetry_space_group_name_H-M "P N M A"
_symmetry_group_IT_number 62
_symmetry_cell_setting 'orthorhombic'
loop_
_space_group_symop_operation_xyz
x,y,z
1/2-x,-y,1/2+z
1/2+x,1/2-y,1/2-z
-x,1/2+y,-z
-x,-y,-z
1/2+x,y,1/2-z
1/2-x,1/2+y,1/2+z
x,1/2-y,z
loop_
_atom_site_type_symbol
_atom_site_label
_atom_site_fract_x
_atom_site_fract_y
_atom_site_fract_z
Si Si1 0.051805 0.061299 0.768696
Si Si2 0.873107 0.471843 0.866675
Si Si3 0.150523 0.359601 0.515866
Si Si4 0.782209 0.984749 0.170012
Si Si5 0.549707 0.862314 0.072618
O O1 0.094064 0.127872 0.627528
O O2 0.998445 0.116725 0.755497
O O3 0.047554 0.952807 0.630092
O O4 0.078237 0.034668 0.032439
O O5 0.845842 0.548814 0.678204
O O6 0.897878 0.378916 0.723927
O O7 0.832037 0.450636 0.085098
O O8 0.157681 0.250000 0.403748
O O9 0.191394 0.381700 0.735698
O O10 0.752633 0.023274 0.419773
O O11 0.546336 0.750000 0.967800
#
# Coordination Sequence:
#
# PCOD9464727 Si02
#       5
#     8   8   8   8   8
#     4   9  20  37  58  88 131 171 208 266 317 370
#     4  10  21  38  63  89 128 168 210 268 323 374
#     4  10  21  38  65  97 124 162 215 265 317 381
#     4  11  22  43  67  89 126 172 206 265 329 378
#     4  10  20  36  58  90 129 174 217 255 316 386
#
# _framework density 21.598258000000001
#
# number of rings (size 3 to 8) (size 9 to 14) (size 15 to 20)
#    0.000    2.000    2.000    1.200    0.000    4.800 
#    0.000    2.000    0.000    4.800    0.000    0.000 
#    0.000    0.000    0.000    0.000    0.000    0.000 
#
# Total GULP energy -222973.137606 kJ/mol
# GULP energy per Si atom -5574.328440 kJ/mol
# Density = 2.154910 g / cm^3
# Si number density = 21.598258 Si / 1000 Ang^3
#
#
#
# Elastic Constant Matrix: (Units=GPa)
#
#
# Indices 1 2 3 4 5 6 
#
# 1 111.9681 39.9881 39.1702 0.0000 0.0000 0.0000
# 2 39.9881 95.9587 15.1135 0.0000 0.0000 0.0000
# 3 39.1702 15.1135 77.8907 0.0000 0.0000 0.0000
# 4 0.0000 0.0000 0.0000 4.7456 0.0000 0.0000
# 5 0.0000 0.0000 0.0000 0.0000 53.1102 0.0000
# 6 0.0000 0.0000 0.0000 0.0000 0.0000 1.6887
#
#
#
# Elastic Compliance Matrix: (Units=1/GPa)
#
#
# Indices 1 2 3 4 5 6 
#
# 1 0.012347 -0.004299 -0.005375 0.000000 0.000000 0.000000
# 2 -0.004299 0.012246 -0.000215 0.000000 0.000000 0.000000
# 3 -0.005375 -0.000215 0.015583 0.000000 0.000000 0.000000
# 4 0.000000 0.000000 0.000000 0.210720 0.000000 0.000000
# 5 0.000000 0.000000 0.000000 0.000000 0.018829 0.000000
# 6 0.000000 0.000000 0.000000 0.000000 0.000000 0.592163
#
#
# Mechanical properties :
#
#
# Convention : Reuss Voigt Hill
#
# Bulk Modulus (GPa) = 49.01950 52.70678 50.86314
# Shear Modulus (GPa) = 5.62769 24.67863 15.15316
#
# Velocity S-wave (km/s) = 1.61595 3.38394 2.65163
# Velocity P-wave (km/s) = 5.12123 6.30272 5.74244
#
# Compressibility (1/GPa) = 0.02040004
#
# Stress axis : x y z
#
# Youngs Moduli (GPa) = 80.99385 81.65776 64.17211
#
# Poissons Ratio (x) = 0.35101 0.34492
# Poissons Ratio (y) = 0.34816 0.01377
# Poissons Ratio (z) = 0.43533 0.01752
#
# Static dielectric constant tensor:
#      x y z
#    x 1.843960 0.000000 0.000000 
#    y 0.000000 1.747180 0.000000 
#    z 0.000000 0.000000 1.887710 
# 
# From -- ./inp_files/3019.got.cif
#   From: 2010.05.17/outbox.cif.g08.bks.cpg/sg62_2_cif.got.tgz:3019.got - 2010.06.03 15:25:27.
