data_PCOD9464521
_publ_section_title
;
Structure prediction by ZEFSAII (Michael W. Deem and Ramdas Pophale) SiO2 
 PCOD9464521
Probable space group: P N M A
;
_chemical_formula_sum "Si O2"
_cell_formula_units_Z 56
_cell_length_a 15.114372
_cell_length_b 8.577702
_cell_length_c 22.340684
_cell_angle_alpha 90.000000
_cell_angle_beta 90.000000
_cell_angle_gamma 90.000000
_cell_volume 2896.393252
_symmetry_space_group_name_H-M "P N M A"
_symmetry_group_IT_number 62
_symmetry_cell_setting 'orthorhombic'
loop_
_space_group_symop_operation_xyz
x,y,z
1/2-x,-y,1/2+z
1/2+x,1/2-y,1/2-z
-x,1/2+y,-z
-x,-y,-z
1/2+x,y,1/2-z
1/2-x,1/2+y,1/2+z
x,1/2-y,z
loop_
_atom_site_type_symbol
_atom_site_label
_atom_site_fract_x
_atom_site_fract_y
_atom_site_fract_z
Si Si1 0.685196 0.062304 0.728280
Si Si2 0.922908 0.936428 0.457788
Si Si3 0.611141 0.938124 0.250464
Si Si4 0.775301 0.061608 0.986093
Si Si5 0.083358 0.560188 0.111835
Si Si6 0.884775 0.561819 0.096951
Si Si7 0.449153 0.065667 0.174701
O O1 0.676220 0.250000 0.734372
O O2 0.788654 0.023901 0.732381
O O3 0.645748 0.017895 0.663820
O O4 0.630009 0.985651 0.781408
O O5 0.923295 0.750000 0.461256
O O6 0.825503 0.992491 0.478304
O O7 0.938755 0.986318 0.389581
O O8 0.000000 0.000000 0.500000
O O9 0.600596 0.750000 0.247946
O O10 0.595216 0.987504 0.319236
O O11 0.539264 0.012607 0.207080
O O12 0.774812 0.250000 0.985113
O O13 0.837538 0.007704 0.931111
O O14 0.820683 0.006500 0.047038
O O15 0.084329 0.750000 0.111829
O O16 0.986704 0.511117 0.088670
O O17 0.881842 0.750000 0.093381
O O18 0.448875 0.250000 0.166849
#
# Coordination Sequence:
#
# PCOD9464521 Si02
#       7
#     8   8   8   8   8   8   8
#     4  10  21  39  64  92 122 165 211 256 312 370
#     4  11  25  45  66  89 121 163 212 260 310 372
#     4  10  20  38  65  90 119 162 210 256 306 373
#     4  10  22  39  61  88 119 158 201 249 306 366
#     4   9  17  35  60  87 120 157 197 241 297 366
#     4  10  20  35  58  90 124 157 203 251 301 365
#     4  12  25  41  63  94 129 163 202 257 316 373
#
# _framework density 19.334392000000001
#
# number of rings (size 3 to 8) (size 9 to 14) (size 15 to 20)
#    0.000    1.714    1.429    3.000    2.000    4.571 
#    0.000    0.714    0.000    0.000    0.000    0.000 
#    0.000    0.000    0.000    0.000    0.000    0.000 
#
# Total GULP energy -313011.875581 kJ/mol
# GULP energy per Si atom -5589.497778 kJ/mol
# Density = 1.929039 g / cm^3
# Si number density = 19.334392 Si / 1000 Ang^3
#
#
#
# Elastic Constant Matrix: (Units=GPa)
#
#
# Indices 1 2 3 4 5 6 
#
# 1 176.3395 36.1683 78.1776 0.0000 0.0000 0.0000
# 2 36.1683 22.5969 16.6126 0.0000 0.0000 0.0000
# 3 78.1776 16.6126 112.5492 0.0000 0.0000 0.0000
# 4 0.0000 0.0000 0.0000 29.3275 0.0000 0.0000
# 5 0.0000 0.0000 0.0000 0.0000 20.8987 0.0000
# 6 0.0000 0.0000 0.0000 0.0000 0.0000 17.5606
#
#
#
# Elastic Compliance Matrix: (Units=1/GPa)
#
#
# Indices 1 2 3 4 5 6 
#
# 1 0.010878 -0.013300 -0.005593 0.000000 0.000000 0.000000
# 2 -0.013300 0.065901 -0.000489 0.000000 0.000000 0.000000
# 3 -0.005593 -0.000489 0.012842 0.000000 0.000000 0.000000
# 4 0.000000 0.000000 0.000000 0.034098 0.000000 0.000000
# 5 0.000000 0.000000 0.000000 0.000000 0.047850 0.000000
# 6 0.000000 0.000000 0.000000 0.000000 0.000000 0.056946
#
#
# Mechanical properties :
#
#
# Convention : Reuss Voigt Hill
#
# Bulk Modulus (GPa) = 19.66270 63.71139 41.68704
# Shear Modulus (GPa) = 17.59129 25.59250 21.59189
#
# Velocity S-wave (km/s) = 3.01963 3.64218 3.34542
# Velocity P-wave (km/s) = 4.72752 7.12118 6.04404
#
# Compressibility (1/GPa) = 0.05085772
#
# Stress axis : x y z
#
# Youngs Moduli (GPa) = 91.92520 15.17423 77.86828
#
# Poissons Ratio (x) = 0.20182 0.43553
# Poissons Ratio (y) = 1.22260 0.03807
# Poissons Ratio (z) = 0.51415 0.00742
#
# Static dielectric constant tensor:
#      x y z
#    x 1.666270 0.000000 0.000000 
#    y 0.000000 1.665470 0.000000 
#    z 0.000000 0.000000 1.635570 
# 
# From -- ./inp_files/27125.got.cif
#   From: 2010.05.17/outbox.cif.g08.bks.cpg/sg62_14_cif.got.tgz:27125.got - 2010.06.03 15:25:27.
