data_PCOD9464853
_publ_section_title
;
Structure prediction by ZEFSAII (Michael W. Deem and Ramdas Pophale) SiO2 
 PCOD9464853
Probable space group: P N M A
;
_chemical_formula_sum "Si O2"
_cell_formula_units_Z 60
_cell_length_a 26.067637
_cell_length_b 12.194688
_cell_length_c 8.048558
_cell_angle_alpha 90.000000
_cell_angle_beta 90.000000
_cell_angle_gamma 90.000000
_cell_volume 2558.529543
_symmetry_space_group_name_H-M "P N M A"
_symmetry_group_IT_number 62
_symmetry_cell_setting 'orthorhombic'
loop_
_space_group_symop_operation_xyz
x,y,z
1/2-x,-y,1/2+z
1/2+x,1/2-y,1/2-z
-x,1/2+y,-z
-x,-y,-z
1/2+x,y,1/2-z
1/2-x,1/2+y,1/2+z
x,1/2-y,z
loop_
_atom_site_type_symbol
_atom_site_label
_atom_site_fract_x
_atom_site_fract_y
_atom_site_fract_z
Si Si1 0.435144 0.130332 0.981514
Si Si2 0.789727 0.250000 0.433372
Si Si3 0.699336 0.927713 0.229760
Si Si4 0.656012 0.940112 0.782813
Si Si5 0.109338 0.874768 0.045032
Si Si6 0.711299 0.119467 0.982731
Si Si7 0.015111 0.130985 0.924023
Si Si8 0.484478 0.553513 0.776644
O O1 0.432896 0.250000 0.895323
O O2 0.385740 0.116698 0.095594
O O3 0.484493 0.131455 0.103104
O O4 0.445009 0.020241 0.877857
O O5 0.785602 0.154528 0.581183
O O6 0.799304 0.151105 0.294831
O O7 0.641627 0.902171 0.290664
O O8 0.734856 0.904384 0.389213
O O9 0.704554 0.048704 0.151311
O O10 0.631576 0.948740 0.601782
O O11 0.672063 0.057011 0.856674
O O12 0.121532 0.750000 0.997061
O O13 0.047441 0.876570 0.057997
O O14 0.703439 0.250000 0.000365
O O15 0.029885 0.250000 0.864461
O O16 0.025411 0.036853 0.792246
O O17 0.035550 0.110165 0.109427
#
# Coordination Sequence:
#
# PCOD9464853 Si02
#       8
#     8   4   8   8   8   8   8   8
#     4  11  21  39  64  92 125 163 220 273 322 380
#     4  10  20  36  66 106 120 158 220 266 312 380
#     4  11  23  42  69  97 131 170 216 259 322 386
#     4  11  22  38  69  97 127 172 216 273 326 382
#     4  11  20  37  67  98 128 163 220 281 321 372
#     4  11  25  46  64  97 141 169 206 263 325 392
#     4  10  21  37  60  88 126 167 208 269 324 377
#     4  10  22  35  58  92 125 160 207 270 331 382
#
# _framework density 23.450970999999999
#
# number of rings (size 3 to 8) (size 9 to 14) (size 15 to 20)
#    0.000    1.333    4.000    1.600    3.733    0.000 
#    4.800    4.667    0.000    0.800    0.000    0.000 
#    0.000    0.000    0.000    0.000    0.000    0.000 
#
# Total GULP energy -334294.177435 kJ/mol
# GULP energy per Si atom -5571.569624 kJ/mol
# Density = 2.339760 g / cm^3
# Si number density = 23.450971 Si / 1000 Ang^3
#
#
#
# Elastic Constant Matrix: (Units=GPa)
#
#
# Indices 1 2 3 4 5 6 
#
# 1 57.4606 21.4768 6.8434 0.0000 0.0000 0.0000
# 2 21.4768 178.2660 9.0265 0.0000 0.0000 0.0000
# 3 6.8434 9.0265 59.9246 0.0000 0.0000 0.0000
# 4 0.0000 0.0000 0.0000 15.8126 0.0000 0.0000
# 5 0.0000 0.0000 0.0000 0.0000 35.4235 0.0000
# 6 0.0000 0.0000 0.0000 0.0000 0.0000 7.8375
#
#
#
# Elastic Compliance Matrix: (Units=1/GPa)
#
#
# Indices 1 2 3 4 5 6 
#
# 1 0.018411 -0.002128 -0.001782 0.000000 0.000000 0.000000
# 2 -0.002128 0.005899 -0.000646 0.000000 0.000000 0.000000
# 3 -0.001782 -0.000646 0.016988 0.000000 0.000000 0.000000
# 4 0.000000 0.000000 0.000000 0.063241 0.000000 0.000000
# 5 0.000000 0.000000 0.000000 0.000000 0.028230 0.000000
# 6 0.000000 0.000000 0.000000 0.000000 0.000000 0.127592
#
#
# Mechanical properties :
#
#
# Convention : Reuss Voigt Hill
#
# Bulk Modulus (GPa) = 31.06834 41.14940 36.10887
# Shear Modulus (GPa) = 17.84438 29.03501 23.43970
#
# Velocity S-wave (km/s) = 2.76148 3.52250 3.16495
# Velocity P-wave (km/s) = 4.84197 5.84201 5.36534
#
# Compressibility (1/GPa) = 0.03218710
#
# Stress axis : x y z
#
# Youngs Moduli (GPa) = 54.31604 169.53088 58.86379
#
# Poissons Ratio (x) = 0.36073 0.10489
# Poissons Ratio (y) = 0.11557 0.03800
# Poissons Ratio (z) = 0.09679 0.10944
#
# Static dielectric constant tensor:
#      x y z
#    x 1.970860 0.000000 0.000000 
#    y 0.000000 1.947990 0.000000 
#    z 0.000000 0.000000 1.981960 
# 
# From -- ./inp_files/10410.got.cif
#   From: 2010.05.17/outbox.cif.g08.bks.cpg/sg62_6_cif.got.tgz:10410.got - 2010.06.03 15:25:27.
