data_PCOD9464100
_publ_section_title
;
Structure prediction by ZEFSAII (Michael W. Deem and Ramdas Pophale) SiO2 
 PCOD9464100
Probable space group: P N M A
;
_chemical_formula_sum "Si O2"
_cell_formula_units_Z 64
_cell_length_a 15.659646
_cell_length_b 9.565919
_cell_length_c 20.826160
_cell_angle_alpha 90.000000
_cell_angle_beta 90.000000
_cell_angle_gamma 90.000000
_cell_volume 3119.735968
_symmetry_space_group_name_H-M "P N M A"
_symmetry_group_IT_number 62
_symmetry_cell_setting 'orthorhombic'
loop_
_space_group_symop_operation_xyz
x,y,z
1/2-x,-y,1/2+z
1/2+x,1/2-y,1/2-z
-x,1/2+y,-z
-x,-y,-z
1/2+x,y,1/2-z
1/2-x,1/2+y,1/2+z
x,1/2-y,z
loop_
_atom_site_type_symbol
_atom_site_label
_atom_site_fract_x
_atom_site_fract_y
_atom_site_fract_z
Si Si1 0.380398 0.089744 0.026565
Si Si2 0.915262 0.410066 0.227905
Si Si3 0.320256 0.406972 0.650784
Si Si4 0.668955 0.587989 0.592655
Si Si5 0.328378 0.910311 0.530574
Si Si6 0.891364 0.590596 0.742358
Si Si7 0.882836 0.592288 0.352729
Si Si8 0.624804 0.411872 0.096766
O O1 0.408834 0.250000 0.026890
O O2 0.275987 0.091246 0.029440
O O3 0.412070 0.005514 0.088718
O O4 0.403264 0.009332 0.961437
O O5 0.887787 0.250000 0.244122
O O6 0.872228 0.449661 0.160824
O O7 0.895676 0.515032 0.285414
O O8 0.017444 0.407875 0.222926
O O9 0.356273 0.250000 0.651572
O O10 0.355446 0.501785 0.592956
O O11 0.333642 0.485369 0.717989
O O12 0.219274 0.395866 0.638973
O O13 0.646794 0.750000 0.578393
O O14 0.643504 0.488164 0.534214
O O15 0.771686 0.581411 0.598997
O O16 0.357024 0.750000 0.534038
O O17 0.856576 0.750000 0.741913
O O18 0.904913 0.549143 0.668254
O O19 0.918634 0.750000 0.354318
O O20 0.601578 0.250000 0.084650
#
# Coordination Sequence:
#
# PCOD9464100 Si02
#       8
#     8   8   8   8   8   8   8   8
#     4   9  17  30  51  78 104 129 163 210 258 304
#     4  10  21  36  53  75 105 140 176 213 255 305
#     4  10  20  34  54  79 105 134 170 212 257 306
#     4   9  17  31  52  76 102 132 166 207 255 304
#     4   9  17  30  51  78 104 129 163 210 258 304
#     4  10  21  36  53  75 105 140 176 213 255 305
#     4  10  20  34  54  79 105 134 170 212 257 306
#     4   9  17  31  52  76 102 132 166 207 255 304
#
# _framework density 20.514558000000001
#
# number of rings (size 3 to 8) (size 9 to 14) (size 15 to 20)
#    0.000    2.500    0.000    2.250    0.000    7.000 
#    0.000    3.750    0.000    0.000    0.000    0.000 
#    0.000    0.000    0.000    0.000    0.000    0.000 
#
# Total GULP energy -357446.185335 kJ/mol
# GULP energy per Si atom -5585.096646 kJ/mol
# Density = 2.046787 g / cm^3
# Si number density = 20.514558 Si / 1000 Ang^3
#
#
#
# Elastic Constant Matrix: (Units=GPa)
#
#
# Indices 1 2 3 4 5 6 
#
# 1 10.4690 18.4722 19.2268 0.0000 0.0000 0.0000
# 2 18.4722 149.4648 100.0978 0.0000 0.0000 0.0000
# 3 19.2268 100.0978 135.9795 0.0000 0.0000 0.0000
# 4 0.0000 0.0000 0.0000 321.2833 0.0000 0.0000
# 5 0.0000 0.0000 0.0000 0.0000 12.6993 0.0000
# 6 0.0000 0.0000 0.0000 0.0000 0.0000 5.0349
#
#
#
# Elastic Compliance Matrix: (Units=1/GPa)
#
#
# Indices 1 2 3 4 5 6 
#
# 1 0.133257 -0.007595 -0.013251 0.000000 0.000000 0.000000
# 2 -0.007595 0.013629 -0.008959 0.000000 0.000000 0.000000
# 3 -0.013251 -0.008959 0.015822 0.000000 0.000000 0.000000
# 4 0.000000 0.000000 0.000000 0.003113 0.000000 0.000000
# 5 0.000000 0.000000 0.000000 0.000000 0.078745 0.000000
# 6 0.000000 0.000000 0.000000 0.000000 0.000000 0.198615
#
#
# Mechanical properties :
#
#
# Convention : Reuss Voigt Hill
#
# Bulk Modulus (GPa) = 9.69940 63.50077 36.60009
# Shear Modulus (GPa) = 9.30827 78.34458 43.82643
#
# Velocity S-wave (km/s) = 2.13243 6.18649 4.62709
# Velocity P-wave (km/s) = 3.28654 9.05822 6.81369
#
# Compressibility (1/GPa) = 0.10309913
#
# Stress axis : x y z
#
# Youngs Moduli (GPa) = 7.50429 73.37368 63.20147
#
# Poissons Ratio (x) = 0.55725 0.83750
# Poissons Ratio (y) = 0.05699 0.56620
# Poissons Ratio (z) = 0.09944 0.65733
#
# Static dielectric constant tensor:
#      x y z
#    x 1.749510 0.000000 0.000000 
#    y 0.000000 1.721430 0.000000 
#    z 0.000000 0.000000 1.692350 
# 
# From -- ./inp_files/27909.got.cif
#   From: 2010.05.17/outbox.cif.g08.bks.cpg/sg62_14_cif.got.tgz:27909.got - 2010.06.03 15:25:27.
