data_PCOD9464135
_publ_section_title
;
Structure prediction by ZEFSAII (Michael W. Deem and Ramdas Pophale) SiO2 
 PCOD9464135
Probable space group: P N M A
;
_chemical_formula_sum "Si O2"
_cell_formula_units_Z 64
_cell_length_a 16.942438
_cell_length_b 8.840655
_cell_length_c 24.047465
_cell_angle_alpha 90.000000
_cell_angle_beta 90.000000
_cell_angle_gamma 90.000000
_cell_volume 3601.883396
_symmetry_space_group_name_H-M "P N M A"
_symmetry_group_IT_number 62
_symmetry_cell_setting 'orthorhombic'
loop_
_space_group_symop_operation_xyz
x,y,z
1/2-x,-y,1/2+z
1/2+x,1/2-y,1/2-z
-x,1/2+y,-z
-x,-y,-z
1/2+x,y,1/2-z
1/2-x,1/2+y,1/2+z
x,1/2-y,z
loop_
_atom_site_type_symbol
_atom_site_label
_atom_site_fract_x
_atom_site_fract_y
_atom_site_fract_z
Si Si1 0.494218 0.431824 0.439148
Si Si2 0.237422 0.069173 0.548749
Si Si3 0.182080 0.569344 0.932757
Si Si4 0.692815 0.923286 0.147306
Si Si5 0.644501 0.066889 0.366338
Si Si6 0.435660 0.430329 0.042780
Si Si7 0.483594 0.424578 0.854508
Si Si8 0.892980 0.570928 0.740285
O O1 0.500000 0.500000 0.500000
O O2 0.496510 0.250000 0.442976
O O3 0.407247 0.473297 0.417918
O O4 0.567284 0.479692 0.401461
O O5 0.228821 0.250000 0.553200
O O6 0.295700 0.035611 0.496772
O O7 0.279241 0.003824 0.603857
O O8 0.152266 0.997073 0.535731
O O9 0.191375 0.750000 0.925651
O O10 0.242550 0.483447 0.893865
O O11 0.706527 0.750000 0.163774
O O12 0.605385 0.928575 0.119854
O O13 0.681187 0.027452 0.201291
O O14 0.651754 0.250000 0.368124
O O15 0.626784 0.022868 0.302721
O O16 0.435065 0.250000 0.036417
O O17 0.462614 0.477393 0.105214
O O18 0.500000 0.500000 0.000000
O O19 0.509535 0.250000 0.852628
O O20 0.464974 0.488503 0.792588
O O21 0.907210 0.750000 0.739547
#
# Coordination Sequence:
#
# PCOD9464135 Si02
#       8
#     8   8   8   8   8   8   8   8
#     4  10  20  36  56  83 115 147 187 234 283 338
#     4  11  23  37  57  85 118 154 193 236 290 349
#     4  10  20  34  54  82 114 149 188 232 289 345
#     4   9  19  33  55  82 109 145 189 236 281 333
#     4  10  21  38  60  85 116 154 196 237 289 346
#     4  12  24  38  58  86 120 155 192 236 292 352
#     4   9  19  36  57  82 111 147 193 239 284 336
#     4   9  18  35  59  83 111 155 196 236 287 343
#
# _framework density 17.768481999999999
#
# number of rings (size 3 to 8) (size 9 to 14) (size 15 to 20)
#    0.750    1.250    1.250    3.000    0.000    4.500 
#    0.000    1.250    0.000    6.000    0.000    0.000 
#    0.000    0.000    0.000    0.000    0.000    0.000 
#
# Total GULP energy -356611.877704 kJ/mol
# GULP energy per Si atom -5572.060589 kJ/mol
# Density = 1.772804 g / cm^3
# Si number density = 17.768482 Si / 1000 Ang^3
#
#
#
# Elastic Constant Matrix: (Units=GPa)
#
#
# Indices 1 2 3 4 5 6 
#
# 1 76.7344 31.1726 20.2469 0.0000 0.0000 0.0000
# 2 31.1726 56.5960 29.0519 0.0000 0.0000 0.0000
# 3 20.2469 29.0519 81.1395 0.0000 0.0000 0.0000
# 4 0.0000 0.0000 0.0000 27.5011 0.0000 0.0000
# 5 0.0000 0.0000 0.0000 0.0000 24.9686 0.0000
# 6 0.0000 0.0000 0.0000 0.0000 0.0000 25.7291
#
#
#
# Elastic Compliance Matrix: (Units=1/GPa)
#
#
# Indices 1 2 3 4 5 6 
#
# 1 0.016865 -0.008734 -0.001081 0.000000 0.000000 0.000000
# 2 -0.008734 0.026171 -0.007191 0.000000 0.000000 0.000000
# 3 -0.001081 -0.007191 0.015169 0.000000 0.000000 0.000000
# 4 0.000000 0.000000 0.000000 0.036362 0.000000 0.000000
# 5 0.000000 0.000000 0.000000 0.000000 0.040050 0.000000
# 6 0.000000 0.000000 0.000000 0.000000 0.000000 0.038867
#
#
# Mechanical properties :
#
#
# Convention : Reuss Voigt Hill
#
# Bulk Modulus (GPa) = 41.33511 41.71253 41.52382
# Shear Modulus (GPa) = 23.19517 24.57299 23.88408
#
# Velocity S-wave (km/s) = 3.61697 3.72284 3.67029
# Velocity P-wave (km/s) = 6.38412 6.48120 6.43284
#
# Compressibility (1/GPa) = 0.02419251
#
# Stress axis : x y z
#
# Youngs Moduli (GPa) = 59.29264 38.20991 65.92391
#
# Poissons Ratio (x) = 0.33374 0.07127
# Poissons Ratio (y) = 0.51788 0.47406
# Poissons Ratio (z) = 0.06410 0.27477
#
# Static dielectric constant tensor:
#      x y z
#    x 1.602020 0.000000 0.000000 
#    y 0.000000 1.601290 0.000000 
#    z 0.000000 0.000000 1.607420 
# 
# From -- ./inp_files/30067.got.cif
#   From: 2010.05.17/outbox.cif.g08.bks.cpg/sg62_16_cif.got.tgz:30067.got - 2010.06.03 15:25:27.
