data_PCOD9464887
_publ_section_title
;
Structure prediction by ZEFSAII (Michael W. Deem and Ramdas Pophale) SiO2 
 PCOD9464887
Probable space group: P N M A
;
_chemical_formula_sum "Si O2"
_cell_formula_units_Z 48
_cell_length_a 13.902009
_cell_length_b 8.892124
_cell_length_c 16.527313
_cell_angle_alpha 90.000000
_cell_angle_beta 90.000000
_cell_angle_gamma 90.000000
_cell_volume 2043.079789
_symmetry_space_group_name_H-M "P N M A"
_symmetry_group_IT_number 62
_symmetry_cell_setting 'orthorhombic'
loop_
_space_group_symop_operation_xyz
x,y,z
1/2-x,-y,1/2+z
1/2+x,1/2-y,1/2-z
-x,1/2+y,-z
-x,-y,-z
1/2+x,y,1/2-z
1/2-x,1/2+y,1/2+z
x,1/2-y,z
loop_
_atom_site_type_symbol
_atom_site_label
_atom_site_fract_x
_atom_site_fract_y
_atom_site_fract_z
Si Si1 0.147988 0.073246 0.291612
Si Si2 0.120609 0.426823 0.965363
Si Si3 0.621171 0.580504 0.372314
Si Si4 0.522692 0.069308 0.873416
Si Si5 0.357524 0.570186 0.287194
Si Si6 0.802420 0.923919 0.475478
O O1 0.147652 0.250000 0.298872
O O2 0.106712 0.023421 0.204206
O O3 0.255740 0.011534 0.289998
O O4 0.080939 0.004268 0.361639
O O5 0.107232 0.250000 0.981212
O O6 0.092343 0.463124 0.873588
O O7 0.083132 0.525672 0.040602
O O8 0.235833 0.467930 0.970912
O O9 0.590038 0.750000 0.353301
O O10 0.736027 0.583957 0.393541
O O11 0.513390 0.250000 0.876877
O O12 0.580087 0.029711 0.790741
O O13 0.593002 0.024056 0.946880
O O14 0.341224 0.750000 0.285384
O O15 0.804610 0.750000 0.505731
#
# Coordination Sequence:
#
# PCOD9464887 Si02
#       6
#     8   8   8   8   8   8
#     4  12  24  35  55  86 114 142 183 234 279 324
#     4   9  17  30  56  86 110 140 180 227 276 325
#     4   9  17  34  56  76 105 145 182 215 269 330
#     4  10  20  37  59  80 107 146 189 226 270 332
#     4  10  20  38  60  83 112 148 185 225 277 332
#     4   8  16  32  56  77 102 145 183 215 268 329
#
# _framework density 23.493943000000002
#
# number of rings (size 3 to 8) (size 9 to 14) (size 15 to 20)
#    1.000    1.333    1.667    2.000    0.000    2.667 
#    0.000    1.667    0.000    0.000    0.000    0.000 
#    0.000    0.000    0.000    0.000    0.000    0.000 
#
# Total GULP energy -268191.501846 kJ/mol
# GULP energy per Si atom -5587.322955 kJ/mol
# Density = 2.344047 g / cm^3
# Si number density = 23.493943 Si / 1000 Ang^3
#
#
#
# Elastic Constant Matrix: (Units=GPa)
#
#
# Indices 1 2 3 4 5 6 
#
# 1 94.7879 21.4663 4.4258 0.0000 0.0000 0.0000
# 2 21.4663 30.9295 21.1569 0.0000 0.0000 0.0000
# 3 4.4258 21.1569 95.4077 0.0000 0.0000 0.0000
# 4 0.0000 0.0000 0.0000 19.1989 0.0000 0.0000
# 5 0.0000 0.0000 0.0000 0.0000 44.7962 0.0000
# 6 0.0000 0.0000 0.0000 0.0000 0.0000 21.6570
#
#
#
# Elastic Compliance Matrix: (Units=1/GPa)
#
#
# Indices 1 2 3 4 5 6 
#
# 1 0.012724 -0.009934 0.001613 0.000000 0.000000 0.000000
# 2 -0.009934 0.045869 -0.009711 0.000000 0.000000 0.000000
# 3 0.001613 -0.009711 0.012560 0.000000 0.000000 0.000000
# 4 0.000000 0.000000 0.000000 0.052086 0.000000 0.000000
# 5 0.000000 0.000000 0.000000 0.000000 0.022323 0.000000
# 6 0.000000 0.000000 0.000000 0.000000 0.000000 0.046174
#
#
# Mechanical properties :
#
#
# Convention : Reuss Voigt Hill
#
# Bulk Modulus (GPa) = 28.49943 35.02479 31.76211
# Shear Modulus (GPa) = 20.87700 28.73549 24.80624
#
# Velocity S-wave (km/s) = 2.98419 3.50108 3.25292
# Velocity P-wave (km/s) = 4.90212 5.59319 5.25902
#
# Compressibility (1/GPa) = 0.03508842
#
# Stress axis : x y z
#
# Youngs Moduli (GPa) = 78.58936 21.80130 79.61846
#
# Poissons Ratio (x) = 0.21658 -0.12840
# Poissons Ratio (y) = 0.78073 0.77315
# Poissons Ratio (z) = -0.12674 0.21171
#
# Static dielectric constant tensor:
#      x y z
#    x 2.023340 0.000000 0.000000 
#    y 0.000000 1.770430 0.000000 
#    z 0.000000 0.000000 1.934330 
# 
# From -- ./inp_files/26896.got.cif
#   From: 2010.05.17/outbox.cif.g08.bks.cpg/sg62_14_cif.got.tgz:26896.got - 2010.06.03 15:25:27.
