data_PCOD9464755
_publ_section_title
;
Structure prediction by ZEFSAII (Michael W. Deem and Ramdas Pophale) SiO2 
 PCOD9464755
Probable space group: P N M A
;
_chemical_formula_sum "Si O2"
_cell_formula_units_Z 64
_cell_length_a 23.688025
_cell_length_b 15.557247
_cell_length_c 9.113691
_cell_angle_alpha 90.000000
_cell_angle_beta 90.000000
_cell_angle_gamma 90.000000
_cell_volume 3358.581562
_symmetry_space_group_name_H-M "P N M A"
_symmetry_group_IT_number 62
_symmetry_cell_setting 'orthorhombic'
loop_
_space_group_symop_operation_xyz
x,y,z
1/2-x,-y,1/2+z
1/2+x,1/2-y,1/2-z
-x,1/2+y,-z
-x,-y,-z
1/2+x,y,1/2-z
1/2-x,1/2+y,1/2+z
x,1/2-y,z
loop_
_atom_site_type_symbol
_atom_site_label
_atom_site_fract_x
_atom_site_fract_y
_atom_site_fract_z
Si Si1 0.365828 0.651575 0.579187
Si Si2 0.135111 0.350792 0.423719
Si Si3 0.559961 0.010324 0.575659
Si Si4 0.738804 0.075813 0.577828
Si Si5 0.061063 0.498945 0.574778
Si Si6 0.332715 0.401419 0.420496
Si Si7 0.848155 0.146912 0.416384
Si Si8 0.744967 0.342909 0.881416
O O1 0.383083 0.750000 0.570103
O O2 0.362191 0.628292 0.751103
O O3 0.409565 0.592655 0.493234
O O4 0.305498 0.638028 0.503192
O O5 0.116980 0.250000 0.439161
O O6 0.096237 0.420144 0.504751
O O7 0.196745 0.356440 0.497186
O O8 0.604153 0.932958 0.546372
O O9 0.500000 0.000000 0.500000
O O10 0.555352 0.016511 0.751025
O O11 0.799080 0.099011 0.508754
O O12 0.741551 0.090047 0.751494
O O13 0.709576 0.983096 0.563353
O O14 0.095647 0.588937 0.557343
O O15 0.000000 0.500000 0.500000
O O16 0.332469 0.364530 0.256111
O O17 0.305376 0.341445 0.541455
O O18 0.852558 0.250000 0.448358
O O19 0.733444 0.250000 0.811714
#
# Coordination Sequence:
#
# PCOD9464755 Si02
#       8
#     8   8   8   8   8   8   8   8
#     4  10  20  36  59  87 115 150 191 239 297 361
#     4  10  21  37  60  87 118 154 197 245 301 365
#     4  10  22  40  59  82 111 148 195 247 297 352
#     4  11  21  35  57  87 121 152 190 239 294 355
#     4  11  24  41  62  85 115 157 204 255 309 367
#     4  10  21  37  59  82 113 155 194 235 290 357
#     4  11  23  40  60  87 123 163 203 248 304 370
#     4  11  21  34  54  85 117 145 181 230 283 341
#
# _framework density 19.055664
#
# number of rings (size 3 to 8) (size 9 to 14) (size 15 to 20)
#    0.000    1.500    0.000    6.750    0.000    7.000 
#    0.000    4.375    0.000    0.000    0.000    0.000 
#    0.000    0.000    0.000    0.000    0.000    0.000 
#
# Total GULP energy -357264.508604 kJ/mol
# GULP energy per Si atom -5582.257947 kJ/mol
# Density = 1.901229 g / cm^3
# Si number density = 19.055664 Si / 1000 Ang^3
#
#
#
# Elastic Constant Matrix: (Units=GPa)
#
#
# Indices 1 2 3 4 5 6 
#
# 1 131.6890 51.5959 66.3108 0.0000 0.0000 0.0000
# 2 51.5959 82.2606 43.0135 0.0000 0.0000 0.0000
# 3 66.3108 43.0135 108.5226 0.0000 0.0000 0.0000
# 4 0.0000 0.0000 0.0000 30.6662 0.0000 0.0000
# 5 0.0000 0.0000 0.0000 0.0000 35.7011 0.0000
# 6 0.0000 0.0000 0.0000 0.0000 0.0000 14.1836
#
#
#
# Elastic Compliance Matrix: (Units=1/GPa)
#
#
# Indices 1 2 3 4 5 6 
#
# 1 0.012293 -0.004772 -0.005620 0.000000 0.000000 0.000000
# 2 -0.004772 0.017187 -0.003896 0.000000 0.000000 0.000000
# 3 -0.005620 -0.003896 0.014193 0.000000 0.000000 0.000000
# 4 0.000000 0.000000 0.000000 0.032609 0.000000 0.000000
# 5 0.000000 0.000000 0.000000 0.000000 0.028010 0.000000
# 6 0.000000 0.000000 0.000000 0.000000 0.000000 0.070504
#
#
# Mechanical properties :
#
#
# Convention : Reuss Voigt Hill
#
# Bulk Modulus (GPa) = 66.24088 71.59029 68.91558
# Shear Modulus (GPa) = 23.99164 26.88031 25.43597
#
# Velocity S-wave (km/s) = 3.55213 3.75990 3.65749
# Velocity P-wave (km/s) = 7.18754 7.51663 7.35393
#
# Compressibility (1/GPa) = 0.01509642
#
# Stress axis : x y z
#
# Youngs Moduli (GPa) = 81.34510 58.18386 70.45642
#
# Poissons Ratio (x) = 0.27765 0.39598
# Poissons Ratio (y) = 0.38817 0.27452
# Poissons Ratio (z) = 0.45718 0.22670
#
# Static dielectric constant tensor:
#      x y z
#    x 1.651080 0.000000 0.000000 
#    y 0.000000 1.711960 0.000000 
#    z 0.000000 0.000000 1.676300 
# 
# From -- ./inp_files/9501.got.cif
#   From: 2010.05.17/outbox.cif.g08.bks.cpg/sg62_5_cif.got.tgz:9501.got - 2010.06.03 15:25:27.
