data_PCOD9464414
_publ_section_title
;
Structure prediction by ZEFSAII (Michael W. Deem and Ramdas Pophale) SiO2 
 PCOD9464414
Probable space group: P N M A
;
_chemical_formula_sum "Si O2"
_cell_formula_units_Z 64
_cell_length_a 15.760615
_cell_length_b 8.484005
_cell_length_c 24.121729
_cell_angle_alpha 90.000000
_cell_angle_beta 90.000000
_cell_angle_gamma 90.000000
_cell_volume 3225.392042
_symmetry_space_group_name_H-M "P N M A"
_symmetry_group_IT_number 62
_symmetry_cell_setting 'orthorhombic'
loop_
_space_group_symop_operation_xyz
x,y,z
1/2-x,-y,1/2+z
1/2+x,1/2-y,1/2-z
-x,1/2+y,-z
-x,-y,-z
1/2+x,y,1/2-z
1/2-x,1/2+y,1/2+z
x,1/2-y,z
loop_
_atom_site_type_symbol
_atom_site_label
_atom_site_fract_x
_atom_site_fract_y
_atom_site_fract_z
Si Si1 0.625702 0.062282 0.695800
Si Si2 0.472002 0.566697 0.095675
Si Si3 0.198100 0.935074 0.545324
Si Si4 0.493416 0.561949 0.783574
Si Si5 0.614405 0.059224 0.455034
Si Si6 0.147803 0.065257 0.432124
Si Si7 0.193319 0.438400 0.304847
Si Si8 0.937897 0.560511 0.077734
O O1 0.614222 0.250000 0.697930
O O2 0.611979 0.007275 0.632211
O O3 0.555172 0.982553 0.734011
O O4 0.720677 0.019515 0.714143
O O5 0.491287 0.750000 0.087470
O O6 0.380063 0.526145 0.072053
O O7 0.476073 0.523089 0.160473
O O8 0.546838 0.467131 0.066798
O O9 0.188561 0.750000 0.557391
O O10 0.291723 0.988110 0.563808
O O11 0.191991 0.963372 0.479323
O O12 0.494896 0.750000 0.793713
O O13 0.394571 0.517545 0.774669
O O14 0.611366 0.250000 0.454539
O O15 0.599364 0.004633 0.518794
O O16 0.535477 0.994369 0.420552
O O17 0.163840 0.250000 0.441907
O O18 0.177497 0.024335 0.369988
O O19 0.204011 0.250000 0.300278
O O20 0.935394 0.750000 0.076593
#
# Coordination Sequence:
#
# PCOD9464414 Si02
#       8
#     8   8   8   8   8   8   8   8
#     4  11  22  37  61  90 116 149 191 238 290 344
#     4  11  22  37  56  79 111 149 188 234 290 341
#     4  11  21  34  53  81 115 152 191 231 280 341
#     4  10  22  42  62  83 114 150 192 241 291 343
#     4   9  19  35  55  80 112 150 187 226 278 332
#     4  10  20  35  56  83 114 149 191 235 282 337
#     4   9  20  38  60  85 112 148 190 238 290 341
#     4   9  19  36  56  81 113 145 183 231 278 330
#
# _framework density 19.842549000000002
#
# number of rings (size 3 to 8) (size 9 to 14) (size 15 to 20)
#    0.000    2.000    0.000    4.500    0.000    6.000 
#    2.250    2.500    0.000    0.000    0.000    0.000 
#    0.000    0.000    0.000    0.000    0.000    0.000 
#
# Total GULP energy -357504.235301 kJ/mol
# GULP energy per Si atom -5586.003677 kJ/mol
# Density = 1.979739 g / cm^3
# Si number density = 19.842549 Si / 1000 Ang^3
#
#
#
# Elastic Constant Matrix: (Units=GPa)
#
#
# Indices 1 2 3 4 5 6 
#
# 1 118.2184 3.1179 15.8748 0.0000 0.0000 0.0000
# 2 3.1179 20.3786 3.8103 0.0000 0.0000 0.0000
# 3 15.8748 3.8103 17.4610 0.0000 0.0000 0.0000
# 4 0.0000 0.0000 0.0000 26.1852 0.0000 0.0000
# 5 0.0000 0.0000 0.0000 0.0000 21.1887 0.0000
# 6 0.0000 0.0000 0.0000 0.0000 0.0000 25.4478
#
#
#
# Elastic Compliance Matrix: (Units=1/GPa)
#
#
# Indices 1 2 3 4 5 6 
#
# 1 0.009636 0.000171 -0.008798 0.000000 0.000000 0.000000
# 2 0.000171 0.051161 -0.011319 0.000000 0.000000 0.000000
# 3 -0.008798 -0.011319 0.067739 0.000000 0.000000 0.000000
# 4 0.000000 0.000000 0.000000 0.038190 0.000000 0.000000
# 5 0.000000 0.000000 0.000000 0.000000 0.047195 0.000000
# 6 0.000000 0.000000 0.000000 0.000000 0.000000 0.039296
#
#
# Mechanical properties :
#
#
# Convention : Reuss Voigt Hill
#
# Bulk Modulus (GPa) = 11.28116 22.40709 16.84413
# Shear Modulus (GPa) = 15.49633 23.44801 19.47217
#
# Velocity S-wave (km/s) = 2.79761 3.44132 3.13602
# Velocity P-wave (km/s) = 4.01661 5.20646 4.64975
#
# Compressibility (1/GPa) = 0.08864333
#
# Stress axis : x y z
#
# Youngs Moduli (GPa) = 103.77961 19.54602 14.76257
#
# Poissons Ratio (x) = -0.00334 0.12988
# Poissons Ratio (y) = -0.01771 0.16710
# Poissons Ratio (z) = 0.91302 0.22125
#
# Static dielectric constant tensor:
#      x y z
#    x 1.699570 0.000000 0.000000 
#    y 0.000000 1.673170 0.000000 
#    z 0.000000 0.000000 1.698960 
# 
# From -- ./inp_files/29851.got.cif
#   From: 2010.05.17/outbox.cif.g08.bks.cpg/sg62_15_cif.got.tgz:29851.got - 2010.06.03 15:25:27.
