data_PCOD9464489
_publ_section_title
;
Structure prediction by ZEFSAII (Michael W. Deem and Ramdas Pophale) SiO2 
 PCOD9464489
Probable space group: P N M A
;
_chemical_formula_sum "Si O2"
_cell_formula_units_Z 56
_cell_length_a 23.868255
_cell_length_b 22.098995
_cell_length_c 5.264033
_cell_angle_alpha 90.000000
_cell_angle_beta 90.000000
_cell_angle_gamma 90.000000
_cell_volume 2776.590260
_symmetry_space_group_name_H-M "P N M A"
_symmetry_group_IT_number 62
_symmetry_cell_setting 'orthorhombic'
loop_
_space_group_symop_operation_xyz
x,y,z
1/2-x,-y,1/2+z
1/2+x,1/2-y,1/2-z
-x,1/2+y,-z
-x,-y,-z
1/2+x,y,1/2-z
1/2-x,1/2+y,1/2+z
x,1/2-y,z
loop_
_atom_site_type_symbol
_atom_site_label
_atom_site_fract_x
_atom_site_fract_y
_atom_site_fract_z
Si Si1 0.506639 0.315452 0.390864
Si Si2 0.431282 0.444500 0.853573
Si Si3 0.894431 0.816814 0.256756
Si Si4 0.724684 0.676471 0.461609
Si Si5 0.053533 0.418122 0.465954
Si Si6 0.785322 0.678073 0.954084
Si Si7 0.106547 0.622935 0.865230
O O1 0.517485 0.250000 0.261253
O O2 0.542715 0.312489 0.646602
O O3 0.529026 0.374943 0.252349
O O4 0.440647 0.325541 0.408701
O O5 0.425299 0.516030 0.891735
O O6 0.407406 0.425810 0.582412
O O7 0.498197 0.430527 0.861421
O O8 0.402906 0.406474 0.085786
O O9 0.879393 0.750000 0.367184
O O10 0.897677 0.876370 0.422937
O O11 0.849582 0.828618 0.035914
O O12 0.720968 0.750000 0.451719
O O13 0.745485 0.655197 0.183737
O O14 0.666692 0.650256 0.567778
O O15 0.769960 0.657078 0.673925
O O16 0.775315 0.750000 0.948118
#
# Coordination Sequence:
#
# PCOD9464489 Si02
#       7
#     8   8   8   8   8   8   8
#     4  10  21  34  56  90 122 147 182 235 305 354
#     4  10  23  36  60  83 118 154 202 232 279 345
#     4  10  20  35  57  87 119 149 188 243 299 350
#     4  10  20  37  59  84 115 152 193 238 292 349
#     4  10  21  36  56  83 119 157 193 234 287 349
#     4   9  20  35  56  84 113 150 193 234 288 353
#     4  11  21  39  58  87 116 155 191 244 284 345
#
# _framework density 20.168621999999999
#
# number of rings (size 3 to 8) (size 9 to 14) (size 15 to 20)
#    0.000    2.000    1.429    1.714    4.000    1.714 
#    0.000    1.429    0.000    3.429    0.000    0.000 
#    0.000    0.000    0.000    0.000    0.000    0.000 
#
# Total GULP energy -312165.801154 kJ/mol
# GULP energy per Si atom -5574.389306 kJ/mol
# Density = 2.012272 g / cm^3
# Si number density = 20.168622 Si / 1000 Ang^3
#
#
#
# Elastic Constant Matrix: (Units=GPa)
#
#
# Indices 1 2 3 4 5 6 
#
# 1 42.3098 17.6722 2.1341 0.0000 0.0000 0.0000
# 2 17.6722 87.9263 -0.0080 0.0000 0.0000 0.0000
# 3 2.1341 -0.0080 40.0258 0.0000 0.0000 0.0000
# 4 0.0000 0.0000 0.0000 -163.5725 0.0000 0.0000
# 5 0.0000 0.0000 0.0000 0.0000 29.3236 0.0000
# 6 0.0000 0.0000 0.0000 0.0000 0.0000 -14.3385
#
#
#
# Elastic Compliance Matrix: (Units=1/GPa)
#
#
# Indices 1 2 3 4 5 6 
#
# 1 0.025877 -0.005201 -0.001381 0.000000 0.000000 0.000000
# 2 -0.005201 0.012419 0.000280 0.000000 0.000000 0.000000
# 3 -0.001381 0.000280 0.025058 0.000000 0.000000 0.000000
# 4 0.000000 0.000000 0.000000 -0.006113 0.000000 0.000000
# 5 0.000000 0.000000 0.000000 0.000000 0.034102 0.000000
# 6 0.000000 0.000000 0.000000 0.000000 0.000000 -0.069742
#
#
# Mechanical properties :
#
#
# Convention : Reuss Voigt Hill
#
# Bulk Modulus (GPa) = 19.70479 23.31763 21.51121
# Shear Modulus (GPa) = 97.80796 -19.68659 39.06069
#
# Velocity S-wave (km/s) = 6.97140 -3.12765 4.40558
# Velocity P-wave (km/s) = 8.63665 1.20685 6.04712
#
# Compressibility (1/GPa) = 0.05074909
#
# Stress axis : x y z
#
# Youngs Moduli (GPa) = 38.64390 80.52459 39.90815
#
# Poissons Ratio (x) = 0.41882 0.05510
# Poissons Ratio (y) = 0.20099 -0.01117
# Poissons Ratio (z) = 0.05336 -0.02253
#
# Static dielectric constant tensor:
#      x y z
#    x 1.744940 0.000000 0.000000 
#    y 0.000000 1.729260 0.000000 
#    z 0.000000 0.000000 1.781810 
# 
# From -- ./inp_files/2805.got.cif
#   From: 2010.05.17/outbox.cif.g08.bks.cpg/sg62_2_cif.got.tgz:2805.got - 2010.06.03 15:25:27.
