data_PCOD9464110
_publ_section_title
;
Structure prediction by ZEFSAII (Michael W. Deem and Ramdas Pophale) SiO2 
 PCOD9464110
Probable space group: P N M A
;
_chemical_formula_sum "Si O2"
_cell_formula_units_Z 64
_cell_length_a 22.198104
_cell_length_b 9.085867
_cell_length_c 17.562011
_cell_angle_alpha 90.000000
_cell_angle_beta 90.000000
_cell_angle_gamma 90.000000
_cell_volume 3542.064798
_symmetry_space_group_name_H-M "P N M A"
_symmetry_group_IT_number 62
_symmetry_cell_setting 'orthorhombic'
loop_
_space_group_symop_operation_xyz
x,y,z
1/2-x,-y,1/2+z
1/2+x,1/2-y,1/2-z
-x,1/2+y,-z
-x,-y,-z
1/2+x,y,1/2-z
1/2-x,1/2+y,1/2+z
x,1/2-y,z
loop_
_atom_site_type_symbol
_atom_site_label
_atom_site_fract_x
_atom_site_fract_y
_atom_site_fract_z
Si Si1 0.280514 0.926822 0.663280
Si Si2 0.374305 0.426920 0.773138
Si Si3 0.968090 0.073696 0.857092
Si Si4 0.078312 0.575661 0.434365
Si Si5 0.627211 0.427071 0.465583
Si Si6 0.935590 0.577125 0.409499
Si Si7 0.109001 0.427330 0.861586
Si Si8 0.352270 0.426020 0.210056
O O1 0.284455 0.750000 0.669370
O O2 0.314936 0.969524 0.585427
O O3 0.210846 0.967741 0.670041
O O4 0.318377 0.998413 0.731581
O O5 0.367711 0.250000 0.771524
O O6 0.432973 0.462428 0.721286
O O7 0.384288 0.471171 0.860349
O O8 0.964771 0.250000 0.867470
O O9 0.038073 0.033256 0.855482
O O10 0.930763 0.997055 0.924420
O O11 0.088267 0.750000 0.448335
O O12 0.089672 0.486277 0.511091
O O13 0.007753 0.557652 0.413196
O O14 0.621064 0.250000 0.462620
O O15 0.630787 0.468544 0.553859
O O16 0.923315 0.750000 0.401985
O O17 0.906261 0.491653 0.339773
O O18 0.113932 0.250000 0.852935
O O19 0.144090 0.506656 0.794154
O O20 0.356321 0.250000 0.213081
#
# Coordination Sequence:
#
# PCOD9464110 Si02
#       8
#     8   8   8   8   8   8   8   8
#     4   9  20  38  54  71 103 140 178 222 264 308
#     4   9  17  31  53  78 104 138 175 212 259 313
#     4   9  17  30  51  81 114 140 164 209 263 312
#     4   9  18  34  55  82 112 139 173 217 267 320
#     4   9  18  34  55  78 104 139 176 214 262 317
#     4  10  20  35  56  80 109 141 175 219 267 321
#     4  10  20  34  54  80 108 136 174 218 262 321
#     4  11  23  38  54  73 105 144 181 225 271 312
#
# _framework density 18.068557999999999
#
# number of rings (size 3 to 8) (size 9 to 14) (size 15 to 20)
#    0.000    2.500    0.000    1.875    0.000    5.000 
#    2.250    2.500    0.000    0.000    0.000    0.000 
#    0.000    0.000    0.000    0.000    0.000    0.000 
#
# Total GULP energy -357112.795790 kJ/mol
# GULP energy per Si atom -5579.887434 kJ/mol
# Density = 1.802743 g / cm^3
# Si number density = 18.068558 Si / 1000 Ang^3
#
#
#
# Elastic Constant Matrix: (Units=GPa)
#
#
# Indices 1 2 3 4 5 6 
#
# 1 39.5214 19.8608 9.4571 0.0000 0.0000 0.0000
# 2 19.8608 18.9792 22.0542 0.0000 0.0000 0.0000
# 3 9.4571 22.0542 81.2880 0.0000 0.0000 0.0000
# 4 0.0000 0.0000 0.0000 32.9630 0.0000 0.0000
# 5 0.0000 0.0000 0.0000 0.0000 9.7524 0.0000
# 6 0.0000 0.0000 0.0000 0.0000 0.0000 21.3863
#
#
#
# Elastic Compliance Matrix: (Units=1/GPa)
#
#
# Indices 1 2 3 4 5 6 
#
# 1 0.064917 -0.086393 0.015887 0.000000 0.000000 0.000000
# 2 -0.086393 0.191924 -0.042020 0.000000 0.000000 0.000000
# 3 0.015887 -0.042020 0.021854 0.000000 0.000000 0.000000
# 4 0.000000 0.000000 0.000000 0.030337 0.000000 0.000000
# 5 0.000000 0.000000 0.000000 0.000000 0.102539 0.000000
# 6 0.000000 0.000000 0.000000 0.000000 0.000000 0.046759
#
#
# Mechanical properties :
#
#
# Convention : Reuss Voigt Hill
#
# Bulk Modulus (GPa) = 18.64199 26.94808 22.79503
# Shear Modulus (GPa) = 7.13000 18.71477 12.92238
#
# Velocity S-wave (km/s) = 1.98863 3.22182 2.67720
# Velocity P-wave (km/s) = 3.95128 5.36534 4.71166
#
# Compressibility (1/GPa) = 0.05364233
#
# Stress axis : x y z
#
# Youngs Moduli (GPa) = 15.40434 5.21039 45.75817
#
# Poissons Ratio (x) = 0.45014 -0.72696
# Poissons Ratio (y) = 1.33083 1.92275
# Poissons Ratio (z) = -0.24473 0.21894
#
# Static dielectric constant tensor:
#      x y z
#    x 1.607950 0.000000 0.000000 
#    y 0.000000 1.601010 0.000000 
#    z 0.000000 0.000000 1.612320 
# 
# From -- ./inp_files/24689.got.cif
#   From: 2010.05.17/outbox.cif.g08.bks.cpg/sg62_13_cif.got.tgz:24689.got - 2010.06.03 15:25:27.
